MODEL 1
REMARK VINA RESULT:     -13.7      0.000      0.000
REMARK SMILES N#CCCn1cc(/C=C/c2cc(C(=O)NCCCCNC(=O)c3ccc(-c4c5nc(c(-c6c(F)c(F)c(F)c(F)c6F)c6ccc([nH]6)c(-c6c(F)c(F)c(F)c(F)c6F)c6nc(c(-c7c(F)c(F)c(F)c(F)c7F)c7ccc4[nH]7)C=C6)C=C5)cc3)c3ccccc3n2)c(-c2ccccc2)n1
REMARK SMILES IDX 16 1 15 2 13 3 14 4 12 6 10 7 11 8 92 9 91 10 86 11 90 12
REMARK SMILES IDX 87 13 89 14 88 15 9 16 8 17 7 18 5 19 6 20 100 21 93 22 4 23
REMARK SMILES IDX 3 24 2 25 1 26 94 27 95 28 99 29 96 30 98 31 97 32 17 33
REMARK SMILES IDX 18 34 19 35 20 36 21 37 22 39 23 40 24 41 85 42 25 43 84 44
REMARK SMILES IDX 26 45 27 46 28 47 78 48 29 49 83 50 77 51 79 52 30 53 82 54
REMARK SMILES IDX 76 55 75 56 31 58 63 59 43 60 62 61 44 62 47 63 61 64 80 65
REMARK SMILES IDX 45 66 46 67 60 69 81 70 48 71 32 72 33 73 41 74 34 75 35 76
REMARK SMILES IDX 39 77 42 78 36 79 37 80 40 81 38 82 64 83 65 84 73 85 66 86
REMARK SMILES IDX 67 87 71 88 74 89 68 90 69 91 72 92 70 93 49 94 50 95 58 96
REMARK SMILES IDX 51 97 52 98 56 99 59 100 53 101 54 102 57 103 55 104
REMARK H PARENT 15 5 20 38 79 57 47 68
REMARK Flexibility Score: inf
ROOT
ATOM      1  C   UNL A   1      34.640  28.945  27.319  1.00  0.00     0.116 C 
ENDROOT
BRANCH   1   2
ATOM      2  N   UNL A   1      33.305  28.634  27.787  1.00  0.00    -0.352 N 
ATOM      3  C   UNL A   1      32.166  28.109  27.240  1.00  0.00     0.252 C 
ATOM      4  O   UNL A   1      31.172  28.202  27.973  1.00  0.00    -0.269 OA
ATOM      5  H   UNL A   1      33.188  28.857  28.739  1.00  0.00     0.163 HD
BRANCH   3   6
ATOM      6  C   UNL A   1      32.005  27.358  25.949  1.00  0.00     0.051 A 
ATOM      7  C   UNL A   1      32.422  25.184  24.974  1.00  0.00     0.065 A 
ATOM      8  C   UNL A   1      32.512  26.049  26.047  1.00  0.00     0.042 A 
ATOM      9  N   UNL A   1      31.942  25.567  23.782  1.00  0.00    -0.248 NA
ATOM     10  C   UNL A   1      31.438  26.796  23.661  1.00  0.00     0.072 A 
ATOM     11  C   UNL A   1      31.379  27.730  24.725  1.00  0.00     0.013 A 
ATOM     12  C   UNL A   1      30.915  27.114  22.415  1.00  0.00     0.029 A 
ATOM     13  C   UNL A   1      30.643  28.906  24.465  1.00  0.00     0.011 A 
ATOM     14  C   UNL A   1      30.294  28.333  22.164  1.00  0.00     0.002 A 
ATOM     15  C   UNL A   1      30.140  29.229  23.203  1.00  0.00     0.001 A 
BRANCH   7  16
ATOM     16  C   UNL A   1      32.775  23.773  25.145  1.00  0.00     0.029 C 
ATOM     17  C   UNL A   1      33.210  22.968  24.161  1.00  0.00     0.014 C 
BRANCH  17  18
ATOM     18  C   UNL A   1      33.439  21.569  24.313  1.00  0.00     0.021 A 
ATOM     19  N   UNL A   1      33.118  19.416  24.282  1.00  0.00    -0.270 N 
ATOM     20  C   UNL A   1      32.500  20.603  24.042  1.00  0.00     0.117 A 
ATOM     21  N   UNL A   1      34.397  19.532  24.679  1.00  0.00    -0.172 NA
ATOM     22  C   UNL A   1      34.596  20.859  24.761  1.00  0.00     0.100 A 
BRANCH  19  23
ATOM     23  C   UNL A   1      32.524  18.100  24.167  1.00  0.00     0.159 C 
BRANCH  23  24
ATOM     24  C   UNL A   1      33.464  17.087  23.541  1.00  0.00     0.144 C 
BRANCH  24  25
ATOM     25  C   UNL A   1      33.868  16.018  24.543  1.00  0.00     0.064 C 
ATOM     26  N   UNL A   1      34.204  15.131  25.375  1.00  0.00    -0.198 NA
ENDBRANCH  24  25
ENDBRANCH  23  24
ENDBRANCH  19  23
BRANCH  22  27
ATOM     27  C   UNL A   1      35.862  21.415  25.233  1.00  0.00     0.003 A 
ATOM     28  C   UNL A   1      35.905  22.697  25.802  1.00  0.00     0.010 A 
ATOM     29  C   UNL A   1      37.055  20.716  25.026  1.00  0.00     0.010 A 
ATOM     30  C   UNL A   1      37.131  23.291  26.108  1.00  0.00     0.001 A 
ATOM     31  C   UNL A   1      38.280  21.312  25.333  1.00  0.00     0.001 A 
ATOM     32  C   UNL A   1      38.317  22.603  25.862  1.00  0.00     0.000 A 
ENDBRANCH  22  27
ENDBRANCH  17  18
ENDBRANCH   7  16
ENDBRANCH   3   6
ENDBRANCH   1   2
BRANCH   1  33
ATOM     33  C   UNL A   1      34.736  30.449  27.011  1.00  0.00     0.023 C 
BRANCH  33  34
ATOM     34  C   UNL A   1      33.815  31.366  27.820  1.00  0.00     0.023 C 
BRANCH  34  35
ATOM     35  C   UNL A   1      34.482  32.653  28.289  1.00  0.00     0.116 C 
BRANCH  35  36
ATOM     36  N   UNL A   1      34.401  32.831  29.738  1.00  0.00    -0.352 N 
ATOM     37  C   UNL A   1      35.146  32.206  30.711  1.00  0.00     0.251 C 
ATOM     38  H   UNL A   1      33.730  33.479  30.057  1.00  0.00     0.163 HD
ATOM     39  O   UNL A   1      34.822  32.227  31.894  1.00  0.00    -0.269 OA
BRANCH  37  40
ATOM     40  C   UNL A   1      36.354  31.494  30.283  1.00  0.00     0.039 A 
ATOM     41  C   UNL A   1      37.521  32.204  29.994  1.00  0.00     0.014 A 
ATOM     42  C   UNL A   1      36.341  30.100  30.337  1.00  0.00     0.014 A 
ATOM     43  C   UNL A   1      38.715  31.504  29.855  1.00  0.00     0.010 A 
ATOM     44  C   UNL A   1      37.539  29.420  30.284  1.00  0.00     0.010 A 
ATOM     45  C   UNL A   1      38.731  30.112  30.034  1.00  0.00    -0.014 A 
BRANCH  45  46
ATOM     46  C   UNL A   1      40.014  29.402  30.077  1.00  0.00     0.031 A 
ATOM     47  C   UNL A   1      40.654  29.211  31.422  1.00  0.00     0.074 A 
ATOM     48  C   UNL A   1      40.497  28.716  29.020  1.00  0.00     0.049 A 
ATOM     49  N   UNL A   1      41.866  29.487  31.789  1.00  0.00    -0.248 NA
ATOM     50  C   UNL A   1      39.828  28.647  32.502  1.00  0.00     0.031 C 
ATOM     51  C   UNL A   1      39.863  28.490  27.717  1.00  0.00     0.029 A 
ATOM     52  N   UNL A   1      41.624  27.953  28.949  1.00  0.00    -0.354 N 
ATOM     53  C   UNL A   1      42.007  29.024  33.100  1.00  0.00     0.074 A 
ATOM     54  C   UNL A   1      40.697  28.589  33.514  1.00  0.00     0.031 C 
ATOM     55  C   UNL A   1      40.485  27.469  27.089  1.00  0.00     0.029 A 
ATOM     56  C   UNL A   1      41.655  27.097  27.861  1.00  0.00     0.049 A 
ATOM     57  H   UNL A   1      42.351  28.005  29.612  1.00  0.00     0.167 HD
ATOM     58  C   UNL A   1      43.223  28.894  33.705  1.00  0.00     0.037 A 
ATOM     59  C   UNL A   1      42.556  26.119  27.620  1.00  0.00     0.037 A 
ATOM     60  C   UNL A   1      44.235  29.654  33.024  1.00  0.00     0.049 A 
ATOM     61  C   UNL A   1      43.764  26.404  28.429  1.00  0.00     0.074 A 
ATOM     62  C   UNL A   1      44.437  30.993  32.758  1.00  0.00     0.029 A 
ATOM     63  N   UNL A   1      45.130  28.987  32.227  1.00  0.00    -0.354 N 
ATOM     64  N   UNL A   1      44.562  27.414  28.223  1.00  0.00    -0.248 NA
ATOM     65  C   UNL A   1      43.880  25.770  29.732  1.00  0.00     0.031 C 
ATOM     66  C   UNL A   1      45.057  31.024  31.475  1.00  0.00     0.029 A 
ATOM     67  C   UNL A   1      45.221  29.701  31.063  1.00  0.00     0.049 A 
ATOM     68  H   UNL A   1      45.613  28.158  32.449  1.00  0.00     0.167 HD
ATOM     69  C   UNL A   1      44.975  27.800  29.489  1.00  0.00     0.074 A 
ATOM     70  C   UNL A   1      44.623  26.684  30.360  1.00  0.00     0.031 C 
ATOM     71  C   UNL A   1      45.309  29.095  29.756  1.00  0.00     0.037 A 
BRANCH  58  72
ATOM     72  C   UNL A   1      43.589  27.868  34.754  1.00  0.00     0.064 A 
ATOM     73  C   UNL A   1      44.077  28.296  36.009  1.00  0.00     0.173 A 
ATOM     74  C   UNL A   1      43.766  26.498  34.473  1.00  0.00     0.173 A 
ATOM     75  F   UNL A   1      43.976  29.581  36.382  1.00  0.00    -0.203 F 
ATOM     76  C   UNL A   1      44.765  27.437  36.872  1.00  0.00     0.198 A 
ATOM     77  C   UNL A   1      44.407  25.632  35.361  1.00  0.00     0.198 A 
ATOM     78  F   UNL A   1      43.427  25.971  33.291  1.00  0.00    -0.203 F 
ATOM     79  F   UNL A   1      45.322  27.922  37.991  1.00  0.00    -0.200 F 
ATOM     80  C   UNL A   1      44.936  26.107  36.543  1.00  0.00     0.200 A 
ATOM     81  F   UNL A   1      44.576  24.346  35.020  1.00  0.00    -0.200 F 
ATOM     82  F   UNL A   1      45.649  25.296  37.336  1.00  0.00    -0.200 F 
ENDBRANCH  58  72
BRANCH  59  83
ATOM     83  C   UNL A   1      42.328  24.837  26.924  1.00  0.00     0.064 A 
ATOM     84  C   UNL A   1      43.003  24.520  25.738  1.00  0.00     0.173 A 
ATOM     85  C   UNL A   1      41.617  23.793  27.547  1.00  0.00     0.173 A 
ATOM     86  F   UNL A   1      43.739  25.449  25.112  1.00  0.00    -0.203 F 
ATOM     87  C   UNL A   1      42.975  23.226  25.208  1.00  0.00     0.198 A 
ATOM     88  C   UNL A   1      41.583  22.505  27.014  1.00  0.00     0.198 A 
ATOM     89  F   UNL A   1      41.013  23.984  28.730  1.00  0.00    -0.203 F 
ATOM     90  F   UNL A   1      43.673  22.944  24.100  1.00  0.00    -0.200 F 
ATOM     91  C   UNL A   1      42.272  22.219  25.850  1.00  0.00     0.200 A 
ATOM     92  F   UNL A   1      40.927  21.533  27.664  1.00  0.00    -0.200 F 
ATOM     93  F   UNL A   1      42.289  20.967  25.371  1.00  0.00    -0.200 F 
ENDBRANCH  59  83
BRANCH  71  94
ATOM     94  C   UNL A   1      45.498  30.033  28.600  1.00  0.00     0.064 A 
ATOM     95  C   UNL A   1      44.455  30.783  28.030  1.00  0.00     0.173 A 
ATOM     96  C   UNL A   1      46.803  30.319  28.181  1.00  0.00     0.173 A 
ATOM     97  F   UNL A   1      43.194  30.644  28.454  1.00  0.00    -0.203 F 
ATOM     98  C   UNL A   1      44.708  31.746  27.056  1.00  0.00     0.198 A 
ATOM     99  C   UNL A   1      47.057  31.306  27.232  1.00  0.00     0.198 A 
ATOM    100  F   UNL A   1      47.844  29.678  28.737  1.00  0.00    -0.203 F 
ATOM    101  F   UNL A   1      43.695  32.447  26.524  1.00  0.00    -0.200 F 
ATOM    102  C   UNL A   1      46.009  32.014  26.665  1.00  0.00     0.200 A 
ATOM    103  F   UNL A   1      48.321  31.599  26.896  1.00  0.00    -0.200 F 
ATOM    104  F   UNL A   1      46.257  32.975  25.765  1.00  0.00    -0.200 F 
ENDBRANCH  71  94
ENDBRANCH  45  46
ENDBRANCH  37  40
ENDBRANCH  35  36
ENDBRANCH  34  35
ENDBRANCH  33  34
ENDBRANCH   1  33
TORSDOF 17
ENDMDL
MODEL 2
REMARK VINA RESULT:     -12.6      1.301      2.209
REMARK SMILES N#CCCn1cc(/C=C/c2cc(C(=O)NCCCCNC(=O)c3ccc(-c4c5nc(c(-c6c(F)c(F)c(F)c(F)c6F)c6ccc([nH]6)c(-c6c(F)c(F)c(F)c(F)c6F)c6nc(c(-c7c(F)c(F)c(F)c(F)c7F)c7ccc4[nH]7)C=C6)C=C5)cc3)c3ccccc3n2)c(-c2ccccc2)n1
REMARK SMILES IDX 16 1 15 2 13 3 14 4 12 6 10 7 11 8 92 9 91 10 86 11 90 12
REMARK SMILES IDX 87 13 89 14 88 15 9 16 8 17 7 18 5 19 6 20 100 21 93 22 4 23
REMARK SMILES IDX 3 24 2 25 1 26 94 27 95 28 99 29 96 30 98 31 97 32 17 33
REMARK SMILES IDX 18 34 19 35 20 36 21 37 22 39 23 40 24 41 85 42 25 43 84 44
REMARK SMILES IDX 26 45 27 46 28 47 78 48 29 49 83 50 77 51 79 52 30 53 82 54
REMARK SMILES IDX 76 55 75 56 31 58 63 59 43 60 62 61 44 62 47 63 61 64 80 65
REMARK SMILES IDX 45 66 46 67 60 69 81 70 48 71 32 72 33 73 41 74 34 75 35 76
REMARK SMILES IDX 39 77 42 78 36 79 37 80 40 81 38 82 64 83 65 84 73 85 66 86
REMARK SMILES IDX 67 87 71 88 74 89 68 90 69 91 72 92 70 93 49 94 50 95 58 96
REMARK SMILES IDX 51 97 52 98 56 99 59 100 53 101 54 102 57 103 55 104
REMARK H PARENT 15 5 20 38 79 57 47 68
REMARK Flexibility Score: inf
ROOT
ATOM      1  C   UNL A   1      32.857  30.202  25.988  1.00  0.00     0.116 C 
ENDROOT
BRANCH   1   2
ATOM      2  N   UNL A   1      33.541  29.686  24.820  1.00  0.00    -0.352 N 
ATOM      3  C   UNL A   1      33.475  28.549  24.062  1.00  0.00     0.252 C 
ATOM      4  O   UNL A   1      34.403  28.438  23.249  1.00  0.00    -0.269 OA
ATOM      5  H   UNL A   1      34.225  30.312  24.489  1.00  0.00     0.163 HD
BRANCH   3   6
ATOM      6  C   UNL A   1      32.390  27.511  24.019  1.00  0.00     0.051 A 
ATOM      7  C   UNL A   1      32.048  25.135  24.317  1.00  0.00     0.065 A 
ATOM      8  C   UNL A   1      32.897  26.224  24.274  1.00  0.00     0.042 A 
ATOM      9  N   UNL A   1      30.741  25.234  24.034  1.00  0.00    -0.248 NA
ATOM     10  C   UNL A   1      30.226  26.443  23.806  1.00  0.00     0.072 A 
ATOM     11  C   UNL A   1      30.983  27.640  23.844  1.00  0.00     0.013 A 
ATOM     12  C   UNL A   1      28.859  26.481  23.565  1.00  0.00     0.029 A 
ATOM     13  C   UNL A   1      30.238  28.837  23.766  1.00  0.00     0.011 A 
ATOM     14  C   UNL A   1      28.175  27.678  23.381  1.00  0.00     0.002 A 
ATOM     15  C   UNL A   1      28.866  28.866  23.501  1.00  0.00     0.001 A 
BRANCH   7  16
ATOM     16  C   UNL A   1      32.551  23.837  24.769  1.00  0.00     0.029 C 
ATOM     17  C   UNL A   1      33.551  23.156  24.183  1.00  0.00     0.014 C 
BRANCH  17  18
ATOM     18  C   UNL A   1      33.954  21.842  24.560  1.00  0.00     0.021 A 
ATOM     19  N   UNL A   1      33.896  19.696  24.923  1.00  0.00    -0.270 N 
ATOM     20  C   UNL A   1      33.128  20.744  24.521  1.00  0.00     0.117 A 
ATOM     21  N   UNL A   1      35.167  20.024  25.211  1.00  0.00    -0.172 NA
ATOM     22  C   UNL A   1      35.207  21.358  25.050  1.00  0.00     0.100 A 
BRANCH  19  23
ATOM     23  C   UNL A   1      33.462  18.322  25.075  1.00  0.00     0.159 C 
BRANCH  23  24
ATOM     24  C   UNL A   1      32.153  18.040  24.361  1.00  0.00     0.144 C 
BRANCH  24  25
ATOM     25  C   UNL A   1      32.334  18.061  22.852  1.00  0.00     0.064 C 
ATOM     26  N   UNL A   1      32.484  18.078  21.600  1.00  0.00    -0.198 NA
ENDBRANCH  24  25
ENDBRANCH  23  24
ENDBRANCH  19  23
BRANCH  22  27
ATOM     27  C   UNL A   1      36.415  22.127  25.337  1.00  0.00     0.003 A 
ATOM     28  C   UNL A   1      37.672  21.503  25.326  1.00  0.00     0.010 A 
ATOM     29  C   UNL A   1      36.318  23.466  25.728  1.00  0.00     0.010 A 
ATOM     30  C   UNL A   1      38.806  22.196  25.753  1.00  0.00     0.001 A 
ATOM     31  C   UNL A   1      37.454  24.157  26.154  1.00  0.00     0.001 A 
ATOM     32  C   UNL A   1      38.694  23.518  26.178  1.00  0.00     0.000 A 
ENDBRANCH  22  27
ENDBRANCH  17  18
ENDBRANCH   7  16
ENDBRANCH   3   6
ENDBRANCH   1   2
BRANCH   1  33
ATOM     33  C   UNL A   1      33.298  29.408  27.231  1.00  0.00     0.023 C 
BRANCH  33  34
ATOM     34  C   UNL A   1      34.793  29.098  27.341  1.00  0.00     0.023 C 
BRANCH  34  35
ATOM     35  C   UNL A   1      35.668  30.332  27.520  1.00  0.00     0.116 C 
BRANCH  35  36
ATOM     36  N   UNL A   1      35.117  31.274  28.494  1.00  0.00    -0.352 N 
ATOM     37  C   UNL A   1      35.454  31.414  29.820  1.00  0.00     0.251 C 
ATOM     38  H   UNL A   1      34.419  31.883  28.158  1.00  0.00     0.163 HD
ATOM     39  O   UNL A   1      34.755  32.044  30.606  1.00  0.00    -0.269 OA
BRANCH  37  40
ATOM     40  C   UNL A   1      36.690  30.769  30.275  1.00  0.00     0.039 A 
ATOM     41  C   UNL A   1      36.702  29.404  30.566  1.00  0.00     0.014 A 
ATOM     42  C   UNL A   1      37.865  31.521  30.243  1.00  0.00     0.014 A 
ATOM     43  C   UNL A   1      37.927  28.764  30.730  1.00  0.00     0.010 A 
ATOM     44  C   UNL A   1      39.076  30.867  30.321  1.00  0.00     0.010 A 
ATOM     45  C   UNL A   1      39.118  29.490  30.574  1.00  0.00    -0.014 A 
BRANCH  45  46
ATOM     46  C   UNL A   1      40.402  28.780  30.558  1.00  0.00     0.031 A 
ATOM     47  C   UNL A   1      41.076  28.541  31.877  1.00  0.00     0.074 A 
ATOM     48  C   UNL A   1      40.858  28.134  29.464  1.00  0.00     0.049 A 
ATOM     49  N   UNL A   1      42.297  28.806  32.223  1.00  0.00    -0.248 NA
ATOM     50  C   UNL A   1      40.279  27.937  32.957  1.00  0.00     0.031 C 
ATOM     51  C   UNL A   1      40.191  27.956  28.170  1.00  0.00     0.029 A 
ATOM     52  N   UNL A   1      41.984  27.376  29.335  1.00  0.00    -0.354 N 
ATOM     53  C   UNL A   1      42.472  28.294  33.512  1.00  0.00     0.074 A 
ATOM     54  C   UNL A   1      41.174  27.843  33.944  1.00  0.00     0.031 C 
ATOM     55  C   UNL A   1      40.797  26.960  27.489  1.00  0.00     0.029 A 
ATOM     56  C   UNL A   1      41.987  26.561  28.216  1.00  0.00     0.049 A 
ATOM     57  H   UNL A   1      42.727  27.405  29.981  1.00  0.00     0.167 HD
ATOM     58  C   UNL A   1      43.704  28.145  34.081  1.00  0.00     0.037 A 
ATOM     59  C   UNL A   1      42.881  25.594  27.917  1.00  0.00     0.037 A 
ATOM     60  C   UNL A   1      44.698  28.931  33.402  1.00  0.00     0.049 A 
ATOM     61  C   UNL A   1      44.110  25.851  28.704  1.00  0.00     0.074 A 
ATOM     62  C   UNL A   1      44.891  30.279  33.181  1.00  0.00     0.029 A 
ATOM     63  N   UNL A   1      45.572  28.294  32.558  1.00  0.00    -0.354 N 
ATOM     64  N   UNL A   1      44.902  26.870  28.515  1.00  0.00    -0.248 NA
ATOM     65  C   UNL A   1      44.260  25.170  29.979  1.00  0.00     0.031 C 
ATOM     66  C   UNL A   1      45.479  30.358  31.884  1.00  0.00     0.029 A 
ATOM     67  C   UNL A   1      45.632  29.051  31.419  1.00  0.00     0.049 A 
ATOM     68  H   UNL A   1      46.061  27.459  32.737  1.00  0.00     0.167 HD
ATOM     69  C   UNL A   1      45.347  27.209  29.783  1.00  0.00     0.074 A 
ATOM     70  C   UNL A   1      45.018  26.061  30.621  1.00  0.00     0.031 C 
ATOM     71  C   UNL A   1      45.687  28.494  30.090  1.00  0.00     0.037 A 
BRANCH  58  72
ATOM     72  C   UNL A   1      44.097  27.081  35.081  1.00  0.00     0.064 A 
ATOM     73  C   UNL A   1      43.921  25.717  34.754  1.00  0.00     0.173 A 
ATOM     74  C   UNL A   1      44.348  27.348  36.442  1.00  0.00     0.173 A 
ATOM     75  F   UNL A   1      43.665  25.342  33.492  1.00  0.00    -0.203 F 
ATOM     76  C   UNL A   1      43.911  24.714  35.729  1.00  0.00     0.198 A 
ATOM     77  C   UNL A   1      44.389  26.337  37.404  1.00  0.00     0.198 A 
ATOM     78  F   UNL A   1      44.452  28.597  36.908  1.00  0.00    -0.203 F 
ATOM     79  F   UNL A   1      43.611  23.453  35.384  1.00  0.00    -0.200 F 
ATOM     80  C   UNL A   1      44.138  25.026  37.055  1.00  0.00     0.200 A 
ATOM     81  F   UNL A   1      44.597  26.659  38.689  1.00  0.00    -0.200 F 
ATOM     82  F   UNL A   1      44.066  24.079  37.999  1.00  0.00    -0.200 F 
ENDBRANCH  58  72
BRANCH  59  83
ATOM     83  C   UNL A   1      42.637  24.338  27.180  1.00  0.00     0.064 A 
ATOM     84  C   UNL A   1      43.102  24.157  25.871  1.00  0.00     0.173 A 
ATOM     85  C   UNL A   1      42.146  23.196  27.842  1.00  0.00     0.173 A 
ATOM     86  F   UNL A   1      43.627  25.186  25.193  1.00  0.00    -0.203 F 
ATOM     87  C   UNL A   1      43.085  22.899  25.260  1.00  0.00     0.198 A 
ATOM     88  C   UNL A   1      42.121  21.944  27.230  1.00  0.00     0.198 A 
ATOM     89  F   UNL A   1      41.759  23.260  29.126  1.00  0.00    -0.203 F 
ATOM     90  F   UNL A   1      43.585  22.749  24.026  1.00  0.00    -0.200 F 
ATOM     91  C   UNL A   1      42.602  21.793  25.943  1.00  0.00     0.200 A 
ATOM     92  F   UNL A   1      41.683  20.877  27.914  1.00  0.00    -0.200 F 
ATOM     93  F   UNL A   1      42.635  20.578  25.377  1.00  0.00    -0.200 F 
ENDBRANCH  59  83
BRANCH  71  94
ATOM     94  C   UNL A   1      45.846  29.474  28.964  1.00  0.00     0.064 A 
ATOM     95  C   UNL A   1      47.053  29.674  28.273  1.00  0.00     0.173 A 
ATOM     96  C   UNL A   1      44.697  30.092  28.452  1.00  0.00     0.173 A 
ATOM     97  F   UNL A   1      48.170  29.035  28.637  1.00  0.00    -0.203 F 
ATOM     98  C   UNL A   1      47.111  30.487  27.143  1.00  0.00     0.198 A 
ATOM     99  C   UNL A   1      44.752  30.876  27.303  1.00  0.00     0.198 A 
ATOM    100  F   UNL A   1      43.506  29.885  29.035  1.00  0.00    -0.203 F 
ATOM    101  F   UNL A   1      48.276  30.665  26.502  1.00  0.00    -0.200 F 
ATOM    102  C   UNL A   1      45.959  31.080  26.654  1.00  0.00     0.200 A 
ATOM    103  F   UNL A   1      43.626  31.404  26.802  1.00  0.00    -0.200 F 
ATOM    104  F   UNL A   1      46.005  31.821  25.538  1.00  0.00    -0.200 F 
ENDBRANCH  71  94
ENDBRANCH  45  46
ENDBRANCH  37  40
ENDBRANCH  35  36
ENDBRANCH  34  35
ENDBRANCH  33  34
ENDBRANCH   1  33
TORSDOF 17
ENDMDL
MODEL 3
REMARK VINA RESULT:     -12.6      3.955      9.220
REMARK SMILES N#CCCn1cc(/C=C/c2cc(C(=O)NCCCCNC(=O)c3ccc(-c4c5nc(c(-c6c(F)c(F)c(F)c(F)c6F)c6ccc([nH]6)c(-c6c(F)c(F)c(F)c(F)c6F)c6nc(c(-c7c(F)c(F)c(F)c(F)c7F)c7ccc4[nH]7)C=C6)C=C5)cc3)c3ccccc3n2)c(-c2ccccc2)n1
REMARK SMILES IDX 16 1 15 2 13 3 14 4 12 6 10 7 11 8 92 9 91 10 86 11 90 12
REMARK SMILES IDX 87 13 89 14 88 15 9 16 8 17 7 18 5 19 6 20 100 21 93 22 4 23
REMARK SMILES IDX 3 24 2 25 1 26 94 27 95 28 99 29 96 30 98 31 97 32 17 33
REMARK SMILES IDX 18 34 19 35 20 36 21 37 22 39 23 40 24 41 85 42 25 43 84 44
REMARK SMILES IDX 26 45 27 46 28 47 78 48 29 49 83 50 77 51 79 52 30 53 82 54
REMARK SMILES IDX 76 55 75 56 31 58 63 59 43 60 62 61 44 62 47 63 61 64 80 65
REMARK SMILES IDX 45 66 46 67 60 69 81 70 48 71 32 72 33 73 41 74 34 75 35 76
REMARK SMILES IDX 39 77 42 78 36 79 37 80 40 81 38 82 64 83 65 84 73 85 66 86
REMARK SMILES IDX 67 87 71 88 74 89 68 90 69 91 72 92 70 93 49 94 50 95 58 96
REMARK SMILES IDX 51 97 52 98 56 99 59 100 53 101 54 102 57 103 55 104
REMARK H PARENT 15 5 20 38 79 57 47 68
REMARK Flexibility Score: inf
ROOT
ATOM      1  C   UNL A   1      41.955  26.000  25.265  1.00  0.00     0.116 C 
ENDROOT
BRANCH   1   2
ATOM      2  N   UNL A   1      40.847  26.141  26.186  1.00  0.00    -0.352 N 
ATOM      3  C   UNL A   1      39.826  25.345  26.630  1.00  0.00     0.252 C 
ATOM      4  O   UNL A   1      38.970  25.951  27.289  1.00  0.00    -0.269 OA
ATOM      5  H   UNL A   1      40.821  27.036  26.597  1.00  0.00     0.163 HD
BRANCH   3   6
ATOM      6  C   UNL A   1      39.682  23.854  26.514  1.00  0.00     0.051 A 
ATOM      7  C   UNL A   1      38.116  22.169  25.766  1.00  0.00     0.065 A 
ATOM      8  C   UNL A   1      38.428  23.496  25.986  1.00  0.00     0.042 A 
ATOM      9  N   UNL A   1      38.938  21.171  26.121  1.00  0.00    -0.248 NA
ATOM     10  C   UNL A   1      40.141  21.477  26.608  1.00  0.00     0.072 A 
ATOM     11  C   UNL A   1      40.609  22.804  26.775  1.00  0.00     0.013 A 
ATOM     12  C   UNL A   1      40.962  20.399  26.912  1.00  0.00     0.029 A 
ATOM     13  C   UNL A   1      41.970  22.934  27.122  1.00  0.00     0.011 A 
ATOM     14  C   UNL A   1      42.267  20.567  27.362  1.00  0.00     0.002 A 
ATOM     15  C   UNL A   1      42.782  21.845  27.450  1.00  0.00     0.001 A 
BRANCH   7  16
ATOM     16  C   UNL A   1      36.892  21.819  25.042  1.00  0.00     0.029 C 
ATOM     17  C   UNL A   1      35.759  21.385  25.619  1.00  0.00     0.014 C 
BRANCH  17  18
ATOM     18  C   UNL A   1      34.614  20.936  24.898  1.00  0.00     0.021 A 
ATOM     19  N   UNL A   1      33.151  19.615  23.974  1.00  0.00    -0.270 N 
ATOM     20  C   UNL A   1      34.329  19.614  24.654  1.00  0.00     0.117 A 
ATOM     21  N   UNL A   1      32.637  20.838  23.766  1.00  0.00    -0.172 NA
ATOM     22  C   UNL A   1      33.557  21.674  24.279  1.00  0.00     0.100 A 
BRANCH  19  23
ATOM     23  C   UNL A   1      32.453  18.451  23.466  1.00  0.00     0.159 C 
BRANCH  23  24
ATOM     24  C   UNL A   1      33.389  17.299  23.151  1.00  0.00     0.144 C 
BRANCH  24  25
ATOM     25  C   UNL A   1      33.285  16.204  24.200  1.00  0.00     0.064 C 
ATOM     26  N   UNL A   1      33.200  15.295  25.070  1.00  0.00    -0.198 NA
ENDBRANCH  24  25
ENDBRANCH  23  24
ENDBRANCH  19  23
BRANCH  22  27
ATOM     27  C   UNL A   1      33.407  23.124  24.190  1.00  0.00     0.003 A 
ATOM     28  C   UNL A   1      33.590  23.782  22.964  1.00  0.00     0.010 A 
ATOM     29  C   UNL A   1      33.185  23.878  25.347  1.00  0.00     0.010 A 
ATOM     30  C   UNL A   1      33.602  25.177  22.908  1.00  0.00     0.001 A 
ATOM     31  C   UNL A   1      33.198  25.273  25.288  1.00  0.00     0.001 A 
ATOM     32  C   UNL A   1      33.419  25.921  24.072  1.00  0.00     0.000 A 
ENDBRANCH  22  27
ENDBRANCH  17  18
ENDBRANCH   7  16
ENDBRANCH   3   6
ENDBRANCH   1   2
BRANCH   1  33
ATOM     33  C   UNL A   1      43.217  26.626  25.884  1.00  0.00     0.023 C 
BRANCH  33  34
ATOM     34  C   UNL A   1      44.417  25.694  26.066  1.00  0.00     0.023 C 
BRANCH  34  35
ATOM     35  C   UNL A   1      45.132  25.861  27.401  1.00  0.00     0.116 C 
BRANCH  35  36
ATOM     36  N   UNL A   1      44.996  24.688  28.262  1.00  0.00    -0.352 N 
ATOM     37  C   UNL A   1      44.397  24.609  29.498  1.00  0.00     0.251 C 
ATOM     38  H   UNL A   1      45.381  23.850  27.914  1.00  0.00     0.163 HD
ATOM     39  O   UNL A   1      44.568  23.652  30.246  1.00  0.00    -0.269 OA
BRANCH  37  40
ATOM     40  C   UNL A   1      43.540  25.728  29.905  1.00  0.00     0.039 A 
ATOM     41  C   UNL A   1      44.030  26.708  30.769  1.00  0.00     0.014 A 
ATOM     42  C   UNL A   1      42.302  25.860  29.275  1.00  0.00     0.014 A 
ATOM     43  C   UNL A   1      43.307  27.886  30.926  1.00  0.00     0.010 A 
ATOM     44  C   UNL A   1      41.634  27.063  29.366  1.00  0.00     0.010 A 
ATOM     45  C   UNL A   1      42.124  28.079  30.196  1.00  0.00    -0.014 A 
BRANCH  45  46
ATOM     46  C   UNL A   1      41.467  29.391  30.215  1.00  0.00     0.031 A 
ATOM     47  C   UNL A   1      42.275  30.575  29.771  1.00  0.00     0.074 A 
ATOM     48  C   UNL A   1      40.133  29.530  30.368  1.00  0.00     0.049 A 
ATOM     49  N   UNL A   1      42.457  31.706  30.379  1.00  0.00    -0.248 NA
ATOM     50  C   UNL A   1      42.983  30.482  28.484  1.00  0.00     0.031 C 
ATOM     51  C   UNL A   1      39.116  28.479  30.474  1.00  0.00     0.029 A 
ATOM     52  N   UNL A   1      39.389  30.672  30.325  1.00  0.00    -0.354 N 
ATOM     53  C   UNL A   1      43.191  32.518  29.510  1.00  0.00     0.074 A 
ATOM     54  C   UNL A   1      43.555  31.684  28.393  1.00  0.00     0.031 C 
ATOM     55  C   UNL A   1      37.897  29.011  30.243  1.00  0.00     0.029 A 
ATOM     56  C   UNL A   1      38.033  30.453  30.153  1.00  0.00     0.049 A 
ATOM     57  H   UNL A   1      39.782  31.571  30.407  1.00  0.00     0.167 HD
ATOM     58  C   UNL A   1      43.326  33.863  29.702  1.00  0.00     0.037 A 
ATOM     59  C   UNL A   1      37.083  31.383  29.913  1.00  0.00     0.037 A 
ATOM     60  C   UNL A   1      43.005  34.239  31.051  1.00  0.00     0.049 A 
ATOM     61  C   UNL A   1      37.618  32.699  30.332  1.00  0.00     0.074 A 
ATOM     62  C   UNL A   1      43.522  33.943  32.295  1.00  0.00     0.029 A 
ATOM     63  N   UNL A   1      41.796  34.841  31.293  1.00  0.00    -0.354 N 
ATOM     64  N   UNL A   1      37.862  33.031  31.570  1.00  0.00    -0.248 NA
ATOM     65  C   UNL A   1      38.254  33.531  29.325  1.00  0.00     0.031 C 
ATOM     66  C   UNL A   1      42.393  33.914  33.165  1.00  0.00     0.029 A 
ATOM     67  C   UNL A   1      41.271  34.225  32.397  1.00  0.00     0.049 A 
ATOM     68  H   UNL A   1      41.388  35.571  30.775  1.00  0.00     0.167 HD
ATOM     69  C   UNL A   1      38.991  33.833  31.503  1.00  0.00     0.074 A 
ATOM     70  C   UNL A   1      39.111  34.202  30.096  1.00  0.00     0.031 C 
ATOM     71  C   UNL A   1      39.874  33.895  32.541  1.00  0.00     0.037 A 
BRANCH  58  72
ATOM     72  C   UNL A   1      43.481  34.903  28.615  1.00  0.00     0.064 A 
ATOM     73  C   UNL A   1      44.765  35.413  28.315  1.00  0.00     0.173 A 
ATOM     74  C   UNL A   1      42.402  35.632  28.077  1.00  0.00     0.173 A 
ATOM     75  F   UNL A   1      45.869  34.810  28.783  1.00  0.00    -0.203 F 
ATOM     76  C   UNL A   1      44.945  36.605  27.606  1.00  0.00     0.198 A 
ATOM     77  C   UNL A   1      42.588  36.794  27.325  1.00  0.00     0.198 A 
ATOM     78  F   UNL A   1      41.131  35.314  28.348  1.00  0.00    -0.203 F 
ATOM     79  F   UNL A   1      46.177  37.114  27.460  1.00  0.00    -0.200 F 
ATOM     80  C   UNL A   1      43.855  37.299  27.118  1.00  0.00     0.200 A 
ATOM     81  F   UNL A   1      41.518  37.463  26.870  1.00  0.00    -0.200 F 
ATOM     82  F   UNL A   1      44.019  38.473  26.495  1.00  0.00    -0.200 F 
ENDBRANCH  58  72
BRANCH  59  83
ATOM     83  C   UNL A   1      35.847  31.224  29.122  1.00  0.00     0.064 A 
ATOM     84  C   UNL A   1      34.850  32.209  29.117  1.00  0.00     0.173 A 
ATOM     85  C   UNL A   1      35.730  30.200  28.162  1.00  0.00     0.173 A 
ATOM     86  F   UNL A   1      34.918  33.240  29.971  1.00  0.00    -0.203 F 
ATOM     87  C   UNL A   1      33.799  32.177  28.196  1.00  0.00     0.198 A 
ATOM     88  C   UNL A   1      34.678  30.164  27.248  1.00  0.00     0.198 A 
ATOM     89  F   UNL A   1      36.683  29.263  28.037  1.00  0.00    -0.203 F 
ATOM     90  F   UNL A   1      32.892  33.162  28.184  1.00  0.00    -0.200 F 
ATOM     91  C   UNL A   1      33.718  31.159  27.258  1.00  0.00     0.200 A 
ATOM     92  F   UNL A   1      34.631  29.193  26.325  1.00  0.00    -0.200 F 
ATOM     93  F   UNL A   1      32.741  31.158  26.340  1.00  0.00    -0.200 F 
ENDBRANCH  59  83
BRANCH  71  94
ATOM     94  C   UNL A   1      39.462  33.309  33.859  1.00  0.00     0.064 A 
ATOM     95  C   UNL A   1      39.636  31.956  34.197  1.00  0.00     0.173 A 
ATOM     96  C   UNL A   1      39.048  34.180  34.876  1.00  0.00     0.173 A 
ATOM     97  F   UNL A   1      40.129  31.083  33.311  1.00  0.00    -0.203 F 
ATOM     98  C   UNL A   1      39.372  31.493  35.484  1.00  0.00     0.198 A 
ATOM     99  C   UNL A   1      38.818  33.721  36.170  1.00  0.00     0.198 A 
ATOM    100  F   UNL A   1      38.926  35.493  34.626  1.00  0.00    -0.203 F 
ATOM    101  F   UNL A   1      39.544  30.196  35.780  1.00  0.00    -0.200 F 
ATOM    102  C   UNL A   1      38.972  32.378  36.471  1.00  0.00     0.200 A 
ATOM    103  F   UNL A   1      38.483  34.589  37.135  1.00  0.00    -0.200 F 
ATOM    104  F   UNL A   1      38.766  31.942  37.722  1.00  0.00    -0.200 F 
ENDBRANCH  71  94
ENDBRANCH  45  46
ENDBRANCH  37  40
ENDBRANCH  35  36
ENDBRANCH  34  35
ENDBRANCH  33  34
ENDBRANCH   1  33
TORSDOF 17
ENDMDL
