MODEL 1
REMARK VINA RESULT:     -12.3      0.000      0.000
REMARK SMILES O=C(NCCCCNC(=O)[C@H]1C[N@H+](Cc2cccc(Cl)c2)CC12CCCCC2)c1ccc(-c2c3nc(c(-c4c(F)c(F)c(F)c(F)c4F)c4ccc([nH]4)c(-c4c(F)c(F)c(F)c(F)c4F)c4nc(c(-c5c(F)c(F)c(F)c(F)c5F)c5ccc2[nH]5)C=C4)C=C3)cc1
REMARK SMILES IDX 5 1 4 2 3 3 1 4 2 5 29 7 30 8 91 9 31 10 90 11 32 12 33 13
REMARK SMILES IDX 34 14 84 15 35 16 89 17 83 18 85 19 36 20 88 21 82 22 81 23
REMARK SMILES IDX 37 25 69 26 49 27 68 28 50 29 53 30 67 31 86 32 51 33 52 34
REMARK SMILES IDX 66 36 87 37 54 38 38 39 39 40 47 41 40 42 41 43 45 44 48 45
REMARK SMILES IDX 42 46 43 47 46 48 44 49 70 50 71 51 79 52 72 53 73 54 77 55
REMARK SMILES IDX 80 56 74 57 75 58 78 59 76 60 55 61 56 62 64 63 57 64 58 65
REMARK SMILES IDX 62 66 65 67 59 68 60 69 63 70 61 71 6 72 7 73 8 74 9 75
REMARK SMILES IDX 10 77 11 78 12 79 23 80 13 81 22 82 24 83 28 84 25 86 27 87
REMARK SMILES IDX 26 88 14 89 15 90 16 91 21 92 17 93 19 94 18 95 20 96
REMARK H PARENT 3 6 85 24 53 35 8 76 13 85
REMARK Flexibility Score: inf
ROOT
ATOM      1  C   UNL A   1      32.795  28.218  24.529  1.00  0.00     0.023 C 
ENDROOT
BRANCH   1   2
ATOM      2  C   UNL A   1      33.713  29.255  25.166  1.00  0.00     0.116 C 
BRANCH   2   3
ATOM      3  N   UNL A   1      32.994  30.396  25.712  1.00  0.00    -0.352 N 
ATOM      4  O   UNL A   1      32.535  32.002  27.236  1.00  0.00    -0.269 OA
ATOM      5  C   UNL A   1      33.290  31.133  26.833  1.00  0.00     0.251 C 
ATOM      6  H   UNL A   1      32.192  30.675  25.213  1.00  0.00     0.163 HD
BRANCH   5   7
ATOM      7  C   UNL A   1      34.536  30.827  27.559  1.00  0.00     0.039 A 
ATOM      8  C   UNL A   1      34.707  29.575  28.156  1.00  0.00     0.014 A 
ATOM      9  C   UNL A   1      35.511  31.819  27.682  1.00  0.00     0.014 A 
ATOM     10  C   UNL A   1      35.805  29.354  28.977  1.00  0.00     0.010 A 
ATOM     11  C   UNL A   1      36.653  31.567  28.443  1.00  0.00     0.010 A 
ATOM     12  C   UNL A   1      36.799  30.338  29.107  1.00  0.00    -0.014 A 
BRANCH  12  13
ATOM     13  C   UNL A   1      38.045  30.014  29.838  1.00  0.00     0.031 A 
ATOM     14  C   UNL A   1      39.070  29.079  29.269  1.00  0.00     0.074 A 
ATOM     15  C   UNL A   1      38.222  30.578  31.049  1.00  0.00     0.049 A 
ATOM     16  N   UNL A   1      40.189  28.665  29.808  1.00  0.00    -0.248 NA
ATOM     17  C   UNL A   1      38.810  28.529  27.930  1.00  0.00     0.031 C 
ATOM     18  C   UNL A   1      37.272  31.484  31.700  1.00  0.00     0.029 A 
ATOM     19  N   UNL A   1      39.252  30.477  31.948  1.00  0.00    -0.354 N 
ATOM     20  C   UNL A   1      40.755  27.793  28.888  1.00  0.00     0.074 A 
ATOM     21  C   UNL A   1      39.853  27.727  27.757  1.00  0.00     0.031 C 
ATOM     22  C   UNL A   1      37.770  31.872  32.880  1.00  0.00     0.029 A 
ATOM     23  C   UNL A   1      39.039  31.191  33.101  1.00  0.00     0.049 A 
ATOM     24  H   UNL A   1      40.063  29.944  31.782  1.00  0.00     0.167 HD
ATOM     25  C   UNL A   1      41.923  27.115  28.989  1.00  0.00     0.037 A 
ATOM     26  C   UNL A   1      39.768  31.261  34.228  1.00  0.00     0.037 A 
ATOM     27  C   UNL A   1      42.824  27.216  30.110  1.00  0.00     0.049 A 
ATOM     28  C   UNL A   1      41.043  30.476  34.314  1.00  0.00     0.074 A 
ATOM     29  C   UNL A   1      44.075  26.643  30.264  1.00  0.00     0.029 A 
ATOM     30  N   UNL A   1      42.565  27.928  31.271  1.00  0.00    -0.354 N 
ATOM     31  N   UNL A   1      41.599  29.707  33.410  1.00  0.00    -0.248 NA
ATOM     32  C   UNL A   1      41.786  30.558  35.577  1.00  0.00     0.031 C 
ATOM     33  C   UNL A   1      44.547  26.962  31.541  1.00  0.00     0.029 A 
ATOM     34  C   UNL A   1      43.612  27.772  32.164  1.00  0.00     0.049 A 
ATOM     35  H   UNL A   1      41.757  28.466  31.436  1.00  0.00     0.167 HD
ATOM     36  C   UNL A   1      42.757  29.215  33.993  1.00  0.00     0.074 A 
ATOM     37  C   UNL A   1      42.839  29.799  35.316  1.00  0.00     0.031 C 
ATOM     38  C   UNL A   1      43.666  28.350  33.482  1.00  0.00     0.037 A 
BRANCH  25  39
ATOM     39  C   UNL A   1      42.310  26.187  27.876  1.00  0.00     0.064 A 
ATOM     40  C   UNL A   1      41.699  24.935  27.712  1.00  0.00     0.173 A 
ATOM     41  C   UNL A   1      43.227  26.603  26.898  1.00  0.00     0.173 A 
ATOM     42  F   UNL A   1      40.820  24.488  28.623  1.00  0.00    -0.203 F 
ATOM     43  C   UNL A   1      41.992  24.134  26.611  1.00  0.00     0.198 A 
ATOM     44  C   UNL A   1      43.502  25.809  25.787  1.00  0.00     0.198 A 
ATOM     45  F   UNL A   1      43.833  27.795  27.005  1.00  0.00    -0.203 F 
ATOM     46  F   UNL A   1      41.407  22.936  26.481  1.00  0.00    -0.200 F 
ATOM     47  C   UNL A   1      42.885  24.576  25.644  1.00  0.00     0.200 A 
ATOM     48  F   UNL A   1      44.355  26.243  24.849  1.00  0.00    -0.200 F 
ATOM     49  F   UNL A   1      43.148  23.813  24.574  1.00  0.00    -0.200 F 
ENDBRANCH  25  39
BRANCH  26  50
ATOM     50  C   UNL A   1      39.278  32.067  35.375  1.00  0.00     0.064 A 
ATOM     51  C   UNL A   1      39.592  33.426  35.491  1.00  0.00     0.173 A 
ATOM     52  C   UNL A   1      38.481  31.491  36.377  1.00  0.00     0.173 A 
ATOM     53  F   UNL A   1      40.365  34.017  34.568  1.00  0.00    -0.203 F 
ATOM     54  C   UNL A   1      39.143  34.176  36.578  1.00  0.00     0.198 A 
ATOM     55  C   UNL A   1      38.006  32.248  37.444  1.00  0.00     0.198 A 
ATOM     56  F   UNL A   1      38.148  30.194  36.307  1.00  0.00    -0.203 F 
ATOM     57  F   UNL A   1      39.497  35.463  36.691  1.00  0.00    -0.200 F 
ATOM     58  C   UNL A   1      38.346  33.587  37.549  1.00  0.00     0.200 A 
ATOM     59  F   UNL A   1      37.222  31.679  38.369  1.00  0.00    -0.200 F 
ATOM     60  F   UNL A   1      37.912  34.310  38.590  1.00  0.00    -0.200 F 
ENDBRANCH  26  50
BRANCH  38  61
ATOM     61  C   UNL A   1      44.819  27.981  34.366  1.00  0.00     0.064 A 
ATOM     62  C   UNL A   1      45.993  28.748  34.386  1.00  0.00     0.173 A 
ATOM     63  C   UNL A   1      44.741  26.868  35.215  1.00  0.00     0.173 A 
ATOM     64  F   UNL A   1      46.119  29.810  33.575  1.00  0.00    -0.203 F 
ATOM     65  C   UNL A   1      47.057  28.400  35.210  1.00  0.00     0.198 A 
ATOM     66  C   UNL A   1      45.799  26.540  36.058  1.00  0.00     0.198 A 
ATOM     67  F   UNL A   1      43.637  26.105  35.232  1.00  0.00    -0.203 F 
ATOM     68  F   UNL A   1      48.189  29.119  35.180  1.00  0.00    -0.200 F 
ATOM     69  C   UNL A   1      46.957  27.301  36.050  1.00  0.00     0.200 A 
ATOM     70  F   UNL A   1      45.696  25.484  36.877  1.00  0.00    -0.200 F 
ATOM     71  F   UNL A   1      47.983  26.970  36.847  1.00  0.00    -0.200 F 
ENDBRANCH  38  61
ENDBRANCH  12  13
ENDBRANCH   5   7
ENDBRANCH   2   3
ENDBRANCH   1   2
BRANCH   1  72
ATOM     72  C   UNL A   1      31.426  28.053  25.188  1.00  0.00     0.023 C 
BRANCH  72  73
ATOM     73  C   UNL A   1      31.454  27.312  26.518  1.00  0.00     0.116 C 
BRANCH  73  74
ATOM     74  N   UNL A   1      30.474  26.241  26.595  1.00  0.00    -0.356 N 
ATOM     75  C   UNL A   1      30.608  24.892  26.689  1.00  0.00     0.229 C 
ATOM     76  H   UNL A   1      29.540  26.550  26.575  1.00  0.00     0.163 HD
ATOM     77  O   UNL A   1      29.577  24.252  26.920  1.00  0.00    -0.275 OA
BRANCH  75  78
ATOM     78  C   UNL A   1      31.926  24.160  26.500  1.00  0.00     0.145 C 
ATOM     79  C   UNL A   1      31.911  22.806  27.212  1.00  0.00     0.276 C 
ATOM     80  C   UNL A   1      32.496  23.946  25.065  1.00  0.00     0.037 C 
ATOM     81  N   UNL A   1      32.672  21.889  26.382  1.00  0.00    -0.330 N 
ATOM     82  C   UNL A   1      32.672  22.406  25.011  1.00  0.00     0.270 C 
ATOM     83  C   UNL A   1      31.622  24.511  23.921  1.00  0.00     0.014 C 
ATOM     84  C   UNL A   1      33.851  24.694  24.912  1.00  0.00     0.014 C 
ATOM     85  H   UNL A   1      32.202  20.984  26.349  1.00  0.00     0.348 HD
ATOM     86  C   UNL A   1      32.225  24.354  22.524  1.00  0.00     0.001 C 
ATOM     87  C   UNL A   1      34.517  24.493  23.547  1.00  0.00     0.001 C 
ATOM     88  C   UNL A   1      33.612  24.968  22.421  1.00  0.00     0.000 C 
BRANCH  81  89
ATOM     89  C   UNL A   1      33.925  21.380  26.947  1.00  0.00     0.299 C 
BRANCH  89  90
ATOM     90  C   UNL A   1      35.201  21.645  26.176  1.00  0.00     0.008 A 
ATOM     91  C   UNL A   1      35.647  20.771  25.170  1.00  0.00     0.009 A 
ATOM     92  C   UNL A   1      35.997  22.758  26.493  1.00  0.00     0.030 A 
ATOM     93  C   UNL A   1      36.904  20.930  24.582  1.00  0.00     0.002 A 
ATOM     94  C   UNL A   1      37.245  22.926  25.887  1.00  0.00     0.041 A 
ATOM     95  C   UNL A   1      37.712  22.003  24.952  1.00  0.00     0.020 A 
ATOM     96  Cl  UNL A   1      38.244  24.249  26.348  1.00  0.00    -0.084 Cl
ENDBRANCH  89  90
ENDBRANCH  81  89
ENDBRANCH  75  78
ENDBRANCH  73  74
ENDBRANCH  72  73
ENDBRANCH   1  72
TORSDOF 13
ENDMDL
MODEL 2
REMARK VINA RESULT:     -12.2      2.163      3.596
REMARK SMILES O=C(NCCCCNC(=O)[C@H]1C[N@H+](Cc2cccc(Cl)c2)CC12CCCCC2)c1ccc(-c2c3nc(c(-c4c(F)c(F)c(F)c(F)c4F)c4ccc([nH]4)c(-c4c(F)c(F)c(F)c(F)c4F)c4nc(c(-c5c(F)c(F)c(F)c(F)c5F)c5ccc2[nH]5)C=C4)C=C3)cc1
REMARK SMILES IDX 5 1 4 2 3 3 1 4 2 5 29 7 30 8 91 9 31 10 90 11 32 12 33 13
REMARK SMILES IDX 34 14 84 15 35 16 89 17 83 18 85 19 36 20 88 21 82 22 81 23
REMARK SMILES IDX 37 25 69 26 49 27 68 28 50 29 53 30 67 31 86 32 51 33 52 34
REMARK SMILES IDX 66 36 87 37 54 38 38 39 39 40 47 41 40 42 41 43 45 44 48 45
REMARK SMILES IDX 42 46 43 47 46 48 44 49 70 50 71 51 79 52 72 53 73 54 77 55
REMARK SMILES IDX 80 56 74 57 75 58 78 59 76 60 55 61 56 62 64 63 57 64 58 65
REMARK SMILES IDX 62 66 65 67 59 68 60 69 63 70 61 71 6 72 7 73 8 74 9 75
REMARK SMILES IDX 10 77 11 78 12 79 23 80 13 81 22 82 24 83 28 84 25 86 27 87
REMARK SMILES IDX 26 88 14 89 15 90 16 91 21 92 17 93 19 94 18 95 20 96
REMARK H PARENT 3 6 85 24 53 35 8 76 13 85
REMARK Flexibility Score: inf
ROOT
ATOM      1  C   UNL A   1      31.403  32.527  26.622  1.00  0.00     0.023 C 
ENDROOT
BRANCH   1   2
ATOM      2  C   UNL A   1      32.619  33.146  27.300  1.00  0.00     0.116 C 
BRANCH   2   3
ATOM      3  N   UNL A   1      32.373  34.491  27.797  1.00  0.00    -0.352 N 
ATOM      4  O   UNL A   1      32.638  36.249  29.195  1.00  0.00    -0.269 OA
ATOM      5  C   UNL A   1      33.021  35.157  28.809  1.00  0.00     0.251 C 
ATOM      6  H   UNL A   1      31.650  34.987  27.350  1.00  0.00     0.163 HD
BRANCH   5   7
ATOM      7  C   UNL A   1      34.181  34.504  29.443  1.00  0.00     0.039 A 
ATOM      8  C   UNL A   1      35.460  34.680  28.909  1.00  0.00     0.014 A 
ATOM      9  C   UNL A   1      33.972  33.675  30.546  1.00  0.00     0.014 A 
ATOM     10  C   UNL A   1      36.517  33.930  29.407  1.00  0.00     0.010 A 
ATOM     11  C   UNL A   1      35.052  32.983  31.097  1.00  0.00     0.010 A 
ATOM     12  C   UNL A   1      36.328  33.096  30.522  1.00  0.00    -0.014 A 
BRANCH  12  13
ATOM     13  C   UNL A   1      37.503  32.448  31.148  1.00  0.00     0.031 A 
ATOM     14  C   UNL A   1      38.244  31.336  30.467  1.00  0.00     0.074 A 
ATOM     15  C   UNL A   1      37.878  32.882  32.367  1.00  0.00     0.049 A 
ATOM     16  N   UNL A   1      39.262  30.642  30.906  1.00  0.00    -0.248 NA
ATOM     17  C   UNL A   1      37.783  30.943  29.126  1.00  0.00     0.031 C 
ATOM     18  C   UNL A   1      37.207  33.943  33.123  1.00  0.00     0.029 A 
ATOM     19  N   UNL A   1      38.906  32.491  33.185  1.00  0.00    -0.354 N 
ATOM     20  C   UNL A   1      39.552  29.719  29.911  1.00  0.00     0.074 A 
ATOM     21  C   UNL A   1      38.596  29.932  28.845  1.00  0.00     0.031 C 
ATOM     22  C   UNL A   1      37.851  34.134  34.282  1.00  0.00     0.029 A 
ATOM     23  C   UNL A   1      38.935  33.165  34.381  1.00  0.00     0.049 A 
ATOM     24  H   UNL A   1      39.557  31.795  32.940  1.00  0.00     0.167 HD
ATOM     25  C   UNL A   1      40.532  28.783  29.898  1.00  0.00     0.037 A 
ATOM     26  C   UNL A   1      39.724  32.996  35.456  1.00  0.00     0.037 A 
ATOM     27  C   UNL A   1      41.495  28.605  30.956  1.00  0.00     0.049 A 
ATOM     28  C   UNL A   1      40.781  31.933  35.416  1.00  0.00     0.074 A 
ATOM     29  C   UNL A   1      42.582  27.749  30.996  1.00  0.00     0.029 A 
ATOM     30  N   UNL A   1      41.479  29.288  32.163  1.00  0.00    -0.354 N 
ATOM     31  N   UNL A   1      41.087  31.111  34.442  1.00  0.00    -0.248 NA
ATOM     32  C   UNL A   1      41.595  31.764  36.626  1.00  0.00     0.031 C 
ATOM     33  C   UNL A   1      43.190  27.873  32.249  1.00  0.00     0.029 A 
ATOM     34  C   UNL A   1      42.511  28.840  32.973  1.00  0.00     0.049 A 
ATOM     35  H   UNL A   1      40.832  29.987  32.409  1.00  0.00     0.167 HD
ATOM     36  C   UNL A   1      42.128  30.330  34.919  1.00  0.00     0.074 A 
ATOM     37  C   UNL A   1      42.423  30.798  36.258  1.00  0.00     0.031 C 
ATOM     38  C   UNL A   1      42.775  29.309  34.308  1.00  0.00     0.037 A 
BRANCH  25  39
ATOM     39  C   UNL A   1      40.622  27.859  28.721  1.00  0.00     0.064 A 
ATOM     40  C   UNL A   1      39.878  26.673  28.654  1.00  0.00     0.173 A 
ATOM     41  C   UNL A   1      41.383  28.221  27.598  1.00  0.00     0.173 A 
ATOM     42  F   UNL A   1      39.140  26.279  29.703  1.00  0.00    -0.203 F 
ATOM     43  C   UNL A   1      39.892  25.883  27.506  1.00  0.00     0.198 A 
ATOM     44  C   UNL A   1      41.378  27.440  26.445  1.00  0.00     0.198 A 
ATOM     45  F   UNL A   1      42.107  29.350  27.609  1.00  0.00    -0.203 F 
ATOM     46  F   UNL A   1      39.183  24.747  27.468  1.00  0.00    -0.200 F 
ATOM     47  C   UNL A   1      40.633  26.273  26.400  1.00  0.00     0.200 A 
ATOM     48  F   UNL A   1      42.085  27.825  25.373  1.00  0.00    -0.200 F 
ATOM     49  F   UNL A   1      40.627  25.522  25.289  1.00  0.00    -0.200 F 
ENDBRANCH  25  39
BRANCH  26  50
ATOM     50  C   UNL A   1      39.506  33.824  36.669  1.00  0.00     0.064 A 
ATOM     51  C   UNL A   1      38.725  33.359  37.734  1.00  0.00     0.173 A 
ATOM     52  C   UNL A   1      40.080  35.100  36.787  1.00  0.00     0.173 A 
ATOM     53  F   UNL A   1      38.142  32.154  37.659  1.00  0.00    -0.203 F 
ATOM     54  C   UNL A   1      38.510  34.146  38.864  1.00  0.00     0.198 A 
ATOM     55  C   UNL A   1      39.891  35.872  37.929  1.00  0.00     0.198 A 
ATOM     56  F   UNL A   1      40.842  35.589  35.797  1.00  0.00    -0.203 F 
ATOM     57  F   UNL A   1      37.720  33.697  39.848  1.00  0.00    -0.200 F 
ATOM     58  C   UNL A   1      39.098  35.399  38.962  1.00  0.00     0.200 A 
ATOM     59  F   UNL A   1      40.476  37.073  38.028  1.00  0.00    -0.200 F 
ATOM     60  F   UNL A   1      38.894  36.152  40.052  1.00  0.00    -0.200 F 
ENDBRANCH  26  50
BRANCH  38  61
ATOM     61  C   UNL A   1      43.859  28.630  35.091  1.00  0.00     0.064 A 
ATOM     62  C   UNL A   1      43.586  27.504  35.881  1.00  0.00     0.173 A 
ATOM     63  C   UNL A   1      45.181  29.093  35.032  1.00  0.00     0.173 A 
ATOM     64  F   UNL A   1      42.332  27.038  35.983  1.00  0.00    -0.203 F 
ATOM     65  C   UNL A   1      44.597  26.879  36.603  1.00  0.00     0.198 A 
ATOM     66  C   UNL A   1      46.194  28.448  35.735  1.00  0.00     0.198 A 
ATOM     67  F   UNL A   1      45.489  30.166  34.288  1.00  0.00    -0.203 F 
ATOM     68  F   UNL A   1      44.307  25.832  37.389  1.00  0.00    -0.200 F 
ATOM     69  C   UNL A   1      45.900  27.346  36.524  1.00  0.00     0.200 A 
ATOM     70  F   UNL A   1      47.454  28.894  35.649  1.00  0.00    -0.200 F 
ATOM     71  F   UNL A   1      46.874  26.739  37.217  1.00  0.00    -0.200 F 
ENDBRANCH  38  61
ENDBRANCH  12  13
ENDBRANCH   5   7
ENDBRANCH   2   3
ENDBRANCH   1   2
BRANCH   1  72
ATOM     72  C   UNL A   1      31.571  31.082  26.153  1.00  0.00     0.023 C 
BRANCH  72  73
ATOM     73  C   UNL A   1      31.774  30.076  27.279  1.00  0.00     0.116 C 
BRANCH  73  74
ATOM     74  N   UNL A   1      33.161  29.671  27.439  1.00  0.00    -0.356 N 
ATOM     75  C   UNL A   1      33.852  28.596  26.978  1.00  0.00     0.229 C 
ATOM     76  H   UNL A   1      33.700  30.290  27.983  1.00  0.00     0.163 HD
ATOM     77  O   UNL A   1      35.078  28.623  27.134  1.00  0.00    -0.275 OA
BRANCH  75  78
ATOM     78  C   UNL A   1      33.200  27.391  26.323  1.00  0.00     0.145 C 
ATOM     79  C   UNL A   1      31.901  27.012  27.034  1.00  0.00     0.276 C 
ATOM     80  C   UNL A   1      32.928  27.395  24.787  1.00  0.00     0.037 C 
ATOM     81  N   UNL A   1      30.983  26.547  26.008  1.00  0.00    -0.330 N 
ATOM     82  C   UNL A   1      31.404  27.116  24.726  1.00  0.00     0.270 C 
ATOM     83  C   UNL A   1      33.353  28.687  24.050  1.00  0.00     0.014 C 
ATOM     84  C   UNL A   1      33.755  26.274  24.095  1.00  0.00     0.014 C 
ATOM     85  H   UNL A   1      30.048  26.911  26.193  1.00  0.00     0.348 HD
ATOM     86  C   UNL A   1      33.143  28.651  22.535  1.00  0.00     0.001 C 
ATOM     87  C   UNL A   1      33.507  26.165  22.587  1.00  0.00     0.001 C 
ATOM     88  C   UNL A   1      33.842  27.469  21.882  1.00  0.00     0.000 C 
BRANCH  81  89
ATOM     89  C   UNL A   1      30.600  25.133  26.064  1.00  0.00     0.299 C 
BRANCH  89  90
ATOM     90  C   UNL A   1      31.629  24.110  25.630  1.00  0.00     0.008 A 
ATOM     91  C   UNL A   1      32.722  23.776  26.448  1.00  0.00     0.009 A 
ATOM     92  C   UNL A   1      31.535  23.509  24.365  1.00  0.00     0.030 A 
ATOM     93  C   UNL A   1      33.754  22.961  25.973  1.00  0.00     0.002 A 
ATOM     94  C   UNL A   1      32.558  22.677  23.903  1.00  0.00     0.041 A 
ATOM     95  C   UNL A   1      33.679  22.422  24.692  1.00  0.00     0.020 A 
ATOM     96  Cl  UNL A   1      32.466  22.015  22.317  1.00  0.00    -0.084 Cl
ENDBRANCH  89  90
ENDBRANCH  81  89
ENDBRANCH  75  78
ENDBRANCH  73  74
ENDBRANCH  72  73
ENDBRANCH   1  72
TORSDOF 13
ENDMDL
MODEL 3
REMARK VINA RESULT:     -12.2      2.874      4.860
REMARK SMILES O=C(NCCCCNC(=O)[C@H]1C[N@H+](Cc2cccc(Cl)c2)CC12CCCCC2)c1ccc(-c2c3nc(c(-c4c(F)c(F)c(F)c(F)c4F)c4ccc([nH]4)c(-c4c(F)c(F)c(F)c(F)c4F)c4nc(c(-c5c(F)c(F)c(F)c(F)c5F)c5ccc2[nH]5)C=C4)C=C3)cc1
REMARK SMILES IDX 5 1 4 2 3 3 1 4 2 5 29 7 30 8 91 9 31 10 90 11 32 12 33 13
REMARK SMILES IDX 34 14 84 15 35 16 89 17 83 18 85 19 36 20 88 21 82 22 81 23
REMARK SMILES IDX 37 25 69 26 49 27 68 28 50 29 53 30 67 31 86 32 51 33 52 34
REMARK SMILES IDX 66 36 87 37 54 38 38 39 39 40 47 41 40 42 41 43 45 44 48 45
REMARK SMILES IDX 42 46 43 47 46 48 44 49 70 50 71 51 79 52 72 53 73 54 77 55
REMARK SMILES IDX 80 56 74 57 75 58 78 59 76 60 55 61 56 62 64 63 57 64 58 65
REMARK SMILES IDX 62 66 65 67 59 68 60 69 63 70 61 71 6 72 7 73 8 74 9 75
REMARK SMILES IDX 10 77 11 78 12 79 23 80 13 81 22 82 24 83 28 84 25 86 27 87
REMARK SMILES IDX 26 88 14 89 15 90 16 91 21 92 17 93 19 94 18 95 20 96
REMARK H PARENT 3 6 85 24 53 35 8 76 13 85
REMARK Flexibility Score: inf
ROOT
ATOM      1  C   UNL A   1      31.565  32.242  26.717  1.00  0.00     0.023 C 
ENDROOT
BRANCH   1   2
ATOM      2  C   UNL A   1      32.807  33.040  27.096  1.00  0.00     0.116 C 
BRANCH   2   3
ATOM      3  N   UNL A   1      32.497  34.339  27.674  1.00  0.00    -0.352 N 
ATOM      4  O   UNL A   1      32.646  36.001  29.201  1.00  0.00    -0.269 OA
ATOM      5  C   UNL A   1      33.081  34.951  28.757  1.00  0.00     0.251 C 
ATOM      6  H   UNL A   1      31.775  34.843  27.233  1.00  0.00     0.163 HD
BRANCH   5   7
ATOM      7  C   UNL A   1      34.236  34.290  29.392  1.00  0.00     0.039 A 
ATOM      8  C   UNL A   1      34.040  33.431  30.476  1.00  0.00     0.014 A 
ATOM      9  C   UNL A   1      35.521  34.576  28.926  1.00  0.00     0.014 A 
ATOM     10  C   UNL A   1      35.140  32.948  31.172  1.00  0.00     0.010 A 
ATOM     11  C   UNL A   1      36.624  34.024  29.578  1.00  0.00     0.010 A 
ATOM     12  C   UNL A   1      36.440  33.219  30.714  1.00  0.00    -0.014 A 
BRANCH  12  13
ATOM     13  C   UNL A   1      37.589  32.546  31.361  1.00  0.00     0.031 A 
ATOM     14  C   UNL A   1      38.298  31.397  30.708  1.00  0.00     0.074 A 
ATOM     15  C   UNL A   1      37.971  32.991  32.574  1.00  0.00     0.049 A 
ATOM     16  N   UNL A   1      39.291  30.679  31.168  1.00  0.00    -0.248 NA
ATOM     17  C   UNL A   1      37.834  30.992  29.372  1.00  0.00     0.031 C 
ATOM     18  C   UNL A   1      37.330  34.089  33.305  1.00  0.00     0.029 A 
ATOM     19  N   UNL A   1      38.979  32.584  33.408  1.00  0.00    -0.354 N 
ATOM     20  C   UNL A   1      39.556  29.727  30.194  1.00  0.00     0.074 A 
ATOM     21  C   UNL A   1      38.615  29.950  29.117  1.00  0.00     0.031 C 
ATOM     22  C   UNL A   1      37.972  34.282  34.464  1.00  0.00     0.029 A 
ATOM     23  C   UNL A   1      39.023  33.280  34.590  1.00  0.00     0.049 A 
ATOM     24  H   UNL A   1      39.609  31.862  33.181  1.00  0.00     0.167 HD
ATOM     25  C   UNL A   1      40.505  28.760  30.207  1.00  0.00     0.037 A 
ATOM     26  C   UNL A   1      39.799  33.107  35.674  1.00  0.00     0.037 A 
ATOM     27  C   UNL A   1      41.455  28.572  31.275  1.00  0.00     0.049 A 
ATOM     28  C   UNL A   1      40.820  32.009  35.663  1.00  0.00     0.074 A 
ATOM     29  C   UNL A   1      42.513  27.681  31.340  1.00  0.00     0.029 A 
ATOM     30  N   UNL A   1      41.453  29.278  32.468  1.00  0.00    -0.354 N 
ATOM     31  N   UNL A   1      41.106  31.159  34.708  1.00  0.00    -0.248 NA
ATOM     32  C   UNL A   1      41.620  31.839  36.882  1.00  0.00     0.031 C 
ATOM     33  C   UNL A   1      43.116  27.811  32.594  1.00  0.00     0.029 A 
ATOM     34  C   UNL A   1      42.464  28.813  33.294  1.00  0.00     0.049 A 
ATOM     35  H   UNL A   1      40.827  30.004  32.696  1.00  0.00     0.167 HD
ATOM     36  C   UNL A   1      42.117  30.354  35.208  1.00  0.00     0.074 A 
ATOM     37  C   UNL A   1      42.418  30.839  36.539  1.00  0.00     0.031 C 
ATOM     38  C   UNL A   1      42.735  29.301  34.621  1.00  0.00     0.037 A 
BRANCH  25  39
ATOM     39  C   UNL A   1      40.573  27.810  29.048  1.00  0.00     0.064 A 
ATOM     40  C   UNL A   1      39.768  26.664  28.985  1.00  0.00     0.173 A 
ATOM     41  C   UNL A   1      41.377  28.110  27.938  1.00  0.00     0.173 A 
ATOM     42  F   UNL A   1      38.987  26.329  30.023  1.00  0.00    -0.203 F 
ATOM     43  C   UNL A   1      39.766  25.852  27.852  1.00  0.00     0.198 A 
ATOM     44  C   UNL A   1      41.357  27.308  26.799  1.00  0.00     0.198 A 
ATOM     45  F   UNL A   1      42.160  29.199  27.946  1.00  0.00    -0.203 F 
ATOM     46  F   UNL A   1      38.999  24.754  27.818  1.00  0.00    -0.200 F 
ATOM     47  C   UNL A   1      40.553  26.181  26.757  1.00  0.00     0.200 A 
ATOM     48  F   UNL A   1      42.108  27.635  25.738  1.00  0.00    -0.200 F 
ATOM     49  F   UNL A   1      40.531  25.411  25.660  1.00  0.00    -0.200 F 
ENDBRANCH  25  39
BRANCH  26  50
ATOM     50  C   UNL A   1      39.600  33.966  36.869  1.00  0.00     0.064 A 
ATOM     51  C   UNL A   1      40.187  35.234  36.956  1.00  0.00     0.173 A 
ATOM     52  C   UNL A   1      38.812  33.534  37.948  1.00  0.00     0.173 A 
ATOM     53  F   UNL A   1      40.963  35.683  35.958  1.00  0.00    -0.203 F 
ATOM     54  C   UNL A   1      40.011  36.030  38.087  1.00  0.00     0.198 A 
ATOM     55  C   UNL A   1      38.610  34.343  39.062  1.00  0.00     0.198 A 
ATOM     56  F   UNL A   1      38.223  32.330  37.909  1.00  0.00    -0.203 F 
ATOM     57  F   UNL A   1      40.623  37.219  38.165  1.00  0.00    -0.200 F 
ATOM     58  C   UNL A   1      39.218  35.586  39.135  1.00  0.00     0.200 A 
ATOM     59  F   UNL A   1      37.828  33.918  40.063  1.00  0.00    -0.200 F 
ATOM     60  F   UNL A   1      39.046  36.355  40.218  1.00  0.00    -0.200 F 
ENDBRANCH  26  50
BRANCH  38  61
ATOM     61  C   UNL A   1      43.790  28.602  35.425  1.00  0.00     0.064 A 
ATOM     62  C   UNL A   1      45.141  28.963  35.319  1.00  0.00     0.173 A 
ATOM     63  C   UNL A   1      43.447  27.583  36.324  1.00  0.00     0.173 A 
ATOM     64  F   UNL A   1      45.519  29.920  34.457  1.00  0.00    -0.203 F 
ATOM     65  C   UNL A   1      46.114  28.312  36.069  1.00  0.00     0.198 A 
ATOM     66  C   UNL A   1      44.420  26.953  37.093  1.00  0.00     0.198 A 
ATOM     67  F   UNL A   1      42.167  27.205  36.461  1.00  0.00    -0.203 F 
ATOM     68  F   UNL A   1      47.406  28.640  35.919  1.00  0.00    -0.200 F 
ATOM     69  C   UNL A   1      45.752  27.312  36.960  1.00  0.00     0.200 A 
ATOM     70  F   UNL A   1      44.068  25.994  37.961  1.00  0.00    -0.200 F 
ATOM     71  F   UNL A   1      46.691  26.689  37.686  1.00  0.00    -0.200 F 
ENDBRANCH  38  61
ENDBRANCH  12  13
ENDBRANCH   5   7
ENDBRANCH   2   3
ENDBRANCH   1   2
BRANCH   1  72
ATOM     72  C   UNL A   1      31.780  30.743  26.512  1.00  0.00     0.023 C 
BRANCH  72  73
ATOM     73  C   UNL A   1      33.131  30.230  26.995  1.00  0.00     0.116 C 
BRANCH  73  74
ATOM     74  N   UNL A   1      33.896  29.569  25.950  1.00  0.00    -0.356 N 
ATOM     75  C   UNL A   1      33.516  28.871  24.849  1.00  0.00     0.229 C 
ATOM     76  H   UNL A   1      34.872  29.640  26.062  1.00  0.00     0.163 HD
ATOM     77  O   UNL A   1      34.410  28.581  24.046  1.00  0.00    -0.275 OA
BRANCH  75  78
ATOM     78  C   UNL A   1      32.088  28.424  24.584  1.00  0.00     0.145 C 
ATOM     79  C   UNL A   1      31.604  28.903  23.215  1.00  0.00     0.276 C 
ATOM     80  C   UNL A   1      31.707  26.919  24.732  1.00  0.00     0.037 C 
ATOM     81  N   UNL A   1      30.748  27.858  22.684  1.00  0.00    -0.330 N 
ATOM     82  C   UNL A   1      31.106  26.597  23.339  1.00  0.00     0.270 C 
ATOM     83  C   UNL A   1      32.871  25.984  25.137  1.00  0.00     0.014 C 
ATOM     84  C   UNL A   1      30.664  26.742  25.873  1.00  0.00     0.014 C 
ATOM     85  H   UNL A   1      30.937  27.730  21.690  1.00  0.00     0.348 HD
ATOM     86  C   UNL A   1      32.469  24.523  25.344  1.00  0.00     0.001 C 
ATOM     87  C   UNL A   1      30.185  25.298  26.054  1.00  0.00     0.001 C 
ATOM     88  C   UNL A   1      31.350  24.370  26.362  1.00  0.00     0.000 C 
BRANCH  81  89
ATOM     89  C   UNL A   1      29.331  28.192  22.519  1.00  0.00     0.299 C 
BRANCH  89  90
ATOM     90  C   UNL A   1      28.952  29.659  22.518  1.00  0.00     0.008 A 
ATOM     91  C   UNL A   1      28.744  30.364  23.716  1.00  0.00     0.009 A 
ATOM     92  C   UNL A   1      28.751  30.335  21.304  1.00  0.00     0.030 A 
ATOM     93  C   UNL A   1      28.234  31.664  23.708  1.00  0.00     0.002 A 
ATOM     94  C   UNL A   1      28.261  31.643  21.300  1.00  0.00     0.041 A 
ATOM     95  C   UNL A   1      27.977  32.300  22.496  1.00  0.00     0.020 A 
ATOM     96  Cl  UNL A   1      27.940  32.427  19.802  1.00  0.00    -0.084 Cl
ENDBRANCH  89  90
ENDBRANCH  81  89
ENDBRANCH  75  78
ENDBRANCH  73  74
ENDBRANCH  72  73
ENDBRANCH   1  72
TORSDOF 13
ENDMDL
