MODEL 1
REMARK VINA RESULT:     -12.2      0.000      0.000
REMARK SMILES CC[C@@H](C)N(C)C(=O)N1[C@@H](C(=O)NCCCCNC(=O)c2ccc(-c3c4nc(c(-c5c(F)c(F)c(F)c(F)c5F)c5ccc([nH]5)c(-c5c(F)c(F)c(F)c(F)c5F)c5nc(c(-c6c(F)c(F)c(F)c(F)c6F)c6ccc3[nH]6)C=C5)C=C4)cc2)CC[C@H]2CCCC[C@H]21
REMARK SMILES IDX 14 1 13 2 11 3 12 4 10 6 9 7 91 8 84 9 86 10 90 11 85 12
REMARK SMILES IDX 87 13 89 14 88 15 7 16 8 17 5 18 6 19 3 20 4 21 2 22 1 23
REMARK SMILES IDX 15 24 16 25 17 26 18 27 19 28 20 30 21 31 22 32 83 33 23 34
REMARK SMILES IDX 82 35 24 36 25 37 26 38 76 39 27 40 81 41 75 42 77 43 28 44
REMARK SMILES IDX 80 45 74 46 73 47 29 49 61 50 41 51 60 52 42 53 45 54 59 55
REMARK SMILES IDX 78 56 43 57 44 58 58 60 79 61 46 62 30 63 31 64 39 65 32 66
REMARK SMILES IDX 33 67 37 68 40 69 34 70 35 71 38 72 36 73 62 74 63 75 71 76
REMARK SMILES IDX 64 77 65 78 69 79 72 80 66 81 67 82 70 83 68 84 47 85 48 86
REMARK SMILES IDX 56 87 49 88 50 89 54 90 57 91 51 92 52 93 55 94 53 95
REMARK H PARENT 13 5 18 29 77 48 45 59
REMARK Flexibility Score: inf
ROOT
ATOM      1  C   UNL A   1      31.784  29.504  27.055  1.00  0.00     0.116 C 
ENDROOT
BRANCH   1   2
ATOM      2  N   UNL A   1      33.036  28.780  26.957  1.00  0.00    -0.354 N 
ATOM      3  C   UNL A   1      33.454  27.917  25.988  1.00  0.00     0.242 C 
ATOM      4  O   UNL A   1      34.494  27.285  26.196  1.00  0.00    -0.273 OA
ATOM      5  H   UNL A   1      33.672  28.931  27.692  1.00  0.00     0.163 HD
BRANCH   3   6
ATOM      6  C   UNL A   1      32.586  27.613  24.745  1.00  0.00     0.176 C 
ATOM      7  N   UNL A   1      31.857  26.320  24.744  1.00  0.00    -0.309 N 
ATOM      8  C   UNL A   1      31.250  25.933  23.453  1.00  0.00     0.091 C 
ATOM      9  C   UNL A   1      33.537  27.759  23.528  1.00  0.00     0.036 C 
ATOM     10  C   UNL A   1      32.253  25.944  22.295  1.00  0.00     0.012 C 
ATOM     11  C   UNL A   1      30.427  24.637  23.382  1.00  0.00     0.025 C 
ATOM     12  C   UNL A   1      32.945  27.305  22.201  1.00  0.00     0.008 C 
ATOM     13  C   UNL A   1      33.237  24.763  22.325  1.00  0.00     0.006 C 
ATOM     14  C   UNL A   1      31.236  23.356  23.160  1.00  0.00     0.002 C 
ATOM     15  C   UNL A   1      32.748  23.527  23.079  1.00  0.00     0.000 C 
BRANCH   7  16
ATOM     16  C   UNL A   1      31.556  25.591  25.879  1.00  0.00     0.320 C 
ATOM     17  O   UNL A   1      30.588  25.925  26.564  1.00  0.00    -0.248 OA
BRANCH  16  18
ATOM     18  N   UNL A   1      32.305  24.484  26.226  1.00  0.00    -0.325 N 
ATOM     19  C   UNL A   1      33.734  24.330  25.985  1.00  0.00     0.149 C 
BRANCH  18  20
ATOM     20  C   UNL A   1      31.710  23.477  27.147  1.00  0.00     0.083 C 
ATOM     21  C   UNL A   1      32.763  22.554  27.775  1.00  0.00     0.031 C 
BRANCH  20  22
ATOM     22  C   UNL A   1      30.547  22.716  26.472  1.00  0.00     0.021 C 
ATOM     23  C   UNL A   1      29.264  22.677  27.289  1.00  0.00     0.006 C 
ENDBRANCH  20  22
ENDBRANCH  18  20
ENDBRANCH  16  18
ENDBRANCH   7  16
ENDBRANCH   3   6
ENDBRANCH   1   2
BRANCH   1  24
ATOM     24  C   UNL A   1      31.775  30.715  26.134  1.00  0.00     0.023 C 
BRANCH  24  25
ATOM     25  C   UNL A   1      31.468  32.029  26.850  1.00  0.00     0.023 C 
BRANCH  25  26
ATOM     26  C   UNL A   1      32.695  32.783  27.347  1.00  0.00     0.116 C 
BRANCH  26  27
ATOM     27  N   UNL A   1      32.418  34.182  27.630  1.00  0.00    -0.352 N 
ATOM     28  C   UNL A   1      32.983  34.996  28.583  1.00  0.00     0.251 C 
ATOM     29  H   UNL A   1      31.733  34.603  27.062  1.00  0.00     0.163 HD
ATOM     30  O   UNL A   1      32.526  36.104  28.812  1.00  0.00    -0.269 OA
BRANCH  28  31
ATOM     31  C   UNL A   1      34.140  34.494  29.353  1.00  0.00     0.039 A 
ATOM     32  C   UNL A   1      33.912  33.884  30.586  1.00  0.00     0.014 A 
ATOM     33  C   UNL A   1      35.436  34.597  28.839  1.00  0.00     0.014 A 
ATOM     34  C   UNL A   1      34.983  33.318  31.279  1.00  0.00     0.010 A 
ATOM     35  C   UNL A   1      36.487  33.959  29.488  1.00  0.00     0.010 A 
ATOM     36  C   UNL A   1      36.271  33.317  30.717  1.00  0.00    -0.014 A 
BRANCH  36  37
ATOM     37  C   UNL A   1      37.399  32.641  31.405  1.00  0.00     0.031 A 
ATOM     38  C   UNL A   1      38.096  31.478  30.759  1.00  0.00     0.074 A 
ATOM     39  C   UNL A   1      37.761  33.045  32.638  1.00  0.00     0.049 A 
ATOM     40  N   UNL A   1      39.084  30.749  31.213  1.00  0.00    -0.248 NA
ATOM     41  C   UNL A   1      37.598  31.060  29.439  1.00  0.00     0.031 C 
ATOM     42  C   UNL A   1      37.117  34.118  33.398  1.00  0.00     0.029 A 
ATOM     43  N   UNL A   1      38.753  32.596  33.472  1.00  0.00    -0.354 N 
ATOM     44  C   UNL A   1      39.324  29.790  30.238  1.00  0.00     0.074 A 
ATOM     45  C   UNL A   1      38.331  29.983  29.203  1.00  0.00     0.031 C 
ATOM     46  C   UNL A   1      37.744  34.259  34.576  1.00  0.00     0.029 A 
ATOM     47  C   UNL A   1      38.810  33.266  34.669  1.00  0.00     0.049 A 
ATOM     48  H   UNL A   1      39.366  31.862  33.236  1.00  0.00     0.167 HD
ATOM     49  C   UNL A   1      40.301  28.854  30.194  1.00  0.00     0.037 A 
ATOM     50  C   UNL A   1      39.627  33.097  35.726  1.00  0.00     0.037 A 
ATOM     51  C   UNL A   1      41.288  28.667  31.226  1.00  0.00     0.049 A 
ATOM     52  C   UNL A   1      40.703  32.048  35.659  1.00  0.00     0.074 A 
ATOM     53  C   UNL A   1      42.348  27.778  31.258  1.00  0.00     0.029 A 
ATOM     54  N   UNL A   1      41.329  29.378  32.418  1.00  0.00    -0.354 N 
ATOM     55  N   UNL A   1      40.972  31.198  34.696  1.00  0.00    -0.248 NA
ATOM     56  C   UNL A   1      41.598  31.944  36.818  1.00  0.00     0.031 C 
ATOM     57  C   UNL A   1      42.998  27.916  32.490  1.00  0.00     0.029 A 
ATOM     58  C   UNL A   1      42.381  28.932  33.202  1.00  0.00     0.049 A 
ATOM     59  H   UNL A   1      40.701  30.095  32.668  1.00  0.00     0.167 HD
ATOM     60  C   UNL A   1      42.076  30.473  35.124  1.00  0.00     0.074 A 
ATOM     61  C   UNL A   1      42.442  31.000  36.423  1.00  0.00     0.031 C 
ATOM     62  C   UNL A   1      42.726  29.460  34.499  1.00  0.00     0.037 A 
BRANCH  49  63
ATOM     63  C   UNL A   1      40.344  27.961  28.986  1.00  0.00     0.064 A 
ATOM     64  C   UNL A   1      41.087  28.304  27.843  1.00  0.00     0.173 A 
ATOM     65  C   UNL A   1      39.644  26.746  28.967  1.00  0.00     0.173 A 
ATOM     66  F   UNL A   1      41.766  29.460  27.802  1.00  0.00    -0.203 F 
ATOM     67  C   UNL A   1      41.090  27.486  26.716  1.00  0.00     0.198 A 
ATOM     68  C   UNL A   1      39.680  25.913  27.851  1.00  0.00     0.198 A 
ATOM     69  F   UNL A   1      38.923  26.363  30.032  1.00  0.00    -0.203 F 
ATOM     70  F   UNL A   1      41.753  27.869  25.616  1.00  0.00    -0.200 F 
ATOM     71  C   UNL A   1      40.391  26.289  26.724  1.00  0.00     0.200 A 
ATOM     72  F   UNL A   1      39.016  24.749  27.865  1.00  0.00    -0.200 F 
ATOM     73  F   UNL A   1      40.397  25.503  25.638  1.00  0.00    -0.200 F 
ENDBRANCH  49  63
BRANCH  50  74
ATOM     74  C   UNL A   1      39.465  33.958  36.926  1.00  0.00     0.064 A 
ATOM     75  C   UNL A   1      38.742  33.516  38.043  1.00  0.00     0.173 A 
ATOM     76  C   UNL A   1      40.044  35.233  36.987  1.00  0.00     0.173 A 
ATOM     77  F   UNL A   1      38.154  32.311  38.025  1.00  0.00    -0.203 F 
ATOM     78  C   UNL A   1      38.591  34.324  39.168  1.00  0.00     0.198 A 
ATOM     79  C   UNL A   1      39.917  36.029  38.124  1.00  0.00     0.198 A 
ATOM     80  F   UNL A   1      40.751  35.700  35.948  1.00  0.00    -0.203 F 
ATOM     81  F   UNL A   1      37.861  33.893  40.205  1.00  0.00    -0.200 F 
ATOM     82  C   UNL A   1      39.186  35.576  39.211  1.00  0.00     0.200 A 
ATOM     83  F   UNL A   1      40.508  37.230  38.168  1.00  0.00    -0.200 F 
ATOM     84  F   UNL A   1      39.048  36.349  40.297  1.00  0.00    -0.200 F 
ENDBRANCH  50  74
BRANCH  62  85
ATOM     85  C   UNL A   1      43.914  28.870  35.205  1.00  0.00     0.064 A 
ATOM     86  C   UNL A   1      45.210  29.375  35.017  1.00  0.00     0.173 A 
ATOM     87  C   UNL A   1      43.752  27.799  36.097  1.00  0.00     0.173 A 
ATOM     88  F   UNL A   1      45.423  30.387  34.163  1.00  0.00    -0.203 F 
ATOM     89  C   UNL A   1      46.301  28.807  35.670  1.00  0.00     0.198 A 
ATOM     90  C   UNL A   1      44.840  27.258  36.776  1.00  0.00     0.198 A 
ATOM     91  F   UNL A   1      42.534  27.283  36.320  1.00  0.00    -0.203 F 
ATOM     92  F   UNL A   1      47.538  29.268  35.429  1.00  0.00    -0.200 F 
ATOM     93  C   UNL A   1      46.116  27.754  36.553  1.00  0.00     0.200 A 
ATOM     94  F   UNL A   1      44.655  26.251  37.640  1.00  0.00    -0.200 F 
ATOM     95  F   UNL A   1      47.166  27.213  37.183  1.00  0.00    -0.200 F 
ENDBRANCH  62  85
ENDBRANCH  36  37
ENDBRANCH  28  31
ENDBRANCH  26  27
ENDBRANCH  25  26
ENDBRANCH  24  25
ENDBRANCH   1  24
TORSDOF 15
ENDMDL
MODEL 2
REMARK VINA RESULT:     -12.1      0.611      7.255
REMARK SMILES CC[C@@H](C)N(C)C(=O)N1[C@@H](C(=O)NCCCCNC(=O)c2ccc(-c3c4nc(c(-c5c(F)c(F)c(F)c(F)c5F)c5ccc([nH]5)c(-c5c(F)c(F)c(F)c(F)c5F)c5nc(c(-c6c(F)c(F)c(F)c(F)c6F)c6ccc3[nH]6)C=C5)C=C4)cc2)CC[C@H]2CCCC[C@H]21
REMARK SMILES IDX 14 1 13 2 11 3 12 4 10 6 9 7 91 8 84 9 86 10 90 11 85 12
REMARK SMILES IDX 87 13 89 14 88 15 7 16 8 17 5 18 6 19 3 20 4 21 2 22 1 23
REMARK SMILES IDX 15 24 16 25 17 26 18 27 19 28 20 30 21 31 22 32 83 33 23 34
REMARK SMILES IDX 82 35 24 36 25 37 26 38 76 39 27 40 81 41 75 42 77 43 28 44
REMARK SMILES IDX 80 45 74 46 73 47 29 49 61 50 41 51 60 52 42 53 45 54 59 55
REMARK SMILES IDX 78 56 43 57 44 58 58 60 79 61 46 62 30 63 31 64 39 65 32 66
REMARK SMILES IDX 33 67 37 68 40 69 34 70 35 71 38 72 36 73 62 74 63 75 71 76
REMARK SMILES IDX 64 77 65 78 69 79 72 80 66 81 67 82 70 83 68 84 47 85 48 86
REMARK SMILES IDX 56 87 49 88 50 89 54 90 57 91 51 92 52 93 55 94 53 95
REMARK H PARENT 13 5 18 29 77 48 45 59
REMARK Flexibility Score: inf
ROOT
ATOM      1  C   UNL A   1      31.826  29.670  27.174  1.00  0.00     0.116 C 
ENDROOT
BRANCH   1   2
ATOM      2  N   UNL A   1      33.060  28.918  27.059  1.00  0.00    -0.354 N 
ATOM      3  C   UNL A   1      33.446  28.050  26.082  1.00  0.00     0.242 C 
ATOM      4  O   UNL A   1      34.474  27.393  26.276  1.00  0.00    -0.273 OA
ATOM      5  H   UNL A   1      33.708  29.052  27.788  1.00  0.00     0.163 HD
BRANCH   3   6
ATOM      6  C   UNL A   1      32.558  27.771  24.848  1.00  0.00     0.176 C 
ATOM      7  N   UNL A   1      31.842  26.470  24.825  1.00  0.00    -0.309 N 
ATOM      8  C   UNL A   1      31.215  26.113  23.536  1.00  0.00     0.091 C 
ATOM      9  C   UNL A   1      33.483  27.962  23.618  1.00  0.00     0.036 C 
ATOM     10  C   UNL A   1      32.195  26.168  22.359  1.00  0.00     0.012 C 
ATOM     11  C   UNL A   1      30.405  24.810  23.443  1.00  0.00     0.025 C 
ATOM     12  C   UNL A   1      32.870  27.539  22.290  1.00  0.00     0.008 C 
ATOM     13  C   UNL A   1      33.192  24.998  22.337  1.00  0.00     0.006 C 
ATOM     14  C   UNL A   1      31.223  23.544  23.169  1.00  0.00     0.002 C 
ATOM     15  C   UNL A   1      32.731  23.735  23.064  1.00  0.00     0.000 C 
BRANCH   7  16
ATOM     16  C   UNL A   1      31.572  25.706  25.944  1.00  0.00     0.320 C 
ATOM     17  O   UNL A   1      30.626  26.020  26.667  1.00  0.00    -0.248 OA
BRANCH  16  18
ATOM     18  N   UNL A   1      32.328  24.587  26.235  1.00  0.00    -0.325 N 
ATOM     19  C   UNL A   1      33.753  24.445  25.964  1.00  0.00     0.149 C 
BRANCH  18  20
ATOM     20  C   UNL A   1      31.749  23.544  27.125  1.00  0.00     0.083 C 
ATOM     21  C   UNL A   1      32.816  22.614  27.718  1.00  0.00     0.031 C 
BRANCH  20  22
ATOM     22  C   UNL A   1      30.592  22.790  26.429  1.00  0.00     0.021 C 
ATOM     23  C   UNL A   1      29.321  22.689  27.257  1.00  0.00     0.006 C 
ENDBRANCH  20  22
ENDBRANCH  18  20
ENDBRANCH  16  18
ENDBRANCH   7  16
ENDBRANCH   3   6
ENDBRANCH   1   2
BRANCH   1  24
ATOM     24  C   UNL A   1      31.695  30.688  26.050  1.00  0.00     0.023 C 
BRANCH  24  25
ATOM     25  C   UNL A   1      31.445  32.113  26.538  1.00  0.00     0.023 C 
BRANCH  25  26
ATOM     26  C   UNL A   1      32.601  32.731  27.316  1.00  0.00     0.116 C 
BRANCH  26  27
ATOM     27  N   UNL A   1      32.370  34.126  27.652  1.00  0.00    -0.352 N 
ATOM     28  C   UNL A   1      32.998  34.898  28.601  1.00  0.00     0.251 C 
ATOM     29  H   UNL A   1      31.669  34.579  27.130  1.00  0.00     0.163 HD
ATOM     30  O   UNL A   1      32.578  36.008  28.884  1.00  0.00    -0.269 OA
BRANCH  28  31
ATOM     31  C   UNL A   1      34.178  34.348  29.300  1.00  0.00     0.039 A 
ATOM     32  C   UNL A   1      33.980  33.578  30.446  1.00  0.00     0.014 A 
ATOM     33  C   UNL A   1      35.465  34.565  28.802  1.00  0.00     0.014 A 
ATOM     34  C   UNL A   1      35.075  32.970  31.060  1.00  0.00     0.010 A 
ATOM     35  C   UNL A   1      36.543  33.892  29.365  1.00  0.00     0.010 A 
ATOM     36  C   UNL A   1      36.360  33.091  30.502  1.00  0.00    -0.014 A 
BRANCH  36  37
ATOM     37  C   UNL A   1      37.516  32.377  31.098  1.00  0.00     0.031 A 
ATOM     38  C   UNL A   1      38.031  32.763  32.454  1.00  0.00     0.074 A 
ATOM     39  C   UNL A   1      38.134  31.411  30.390  1.00  0.00     0.049 A 
ATOM     40  N   UNL A   1      39.041  32.270  33.128  1.00  0.00    -0.248 NA
ATOM     41  C   UNL A   1      37.339  33.869  33.133  1.00  0.00     0.031 C 
ATOM     42  C   UNL A   1      37.770  30.993  29.036  1.00  0.00     0.029 A 
ATOM     43  N   UNL A   1      39.203  30.613  30.708  1.00  0.00    -0.354 N 
ATOM     44  C   UNL A   1      39.104  33.005  34.304  1.00  0.00     0.074 A 
ATOM     45  C   UNL A   1      38.079  34.024  34.220  1.00  0.00     0.031 C 
ATOM     46  C   UNL A   1      38.586  30.000  28.648  1.00  0.00     0.029 A 
ATOM     47  C   UNL A   1      39.552  29.737  29.711  1.00  0.00     0.049 A 
ATOM     48  H   UNL A   1      39.677  30.664  31.571  1.00  0.00     0.167 HD
ATOM     49  C   UNL A   1      39.919  32.828  35.370  1.00  0.00     0.037 A 
ATOM     50  C   UNL A   1      40.541  28.825  29.656  1.00  0.00     0.037 A 
ATOM     51  C   UNL A   1      40.936  31.810  35.450  1.00  0.00     0.049 A 
ATOM     52  C   UNL A   1      41.439  28.647  30.849  1.00  0.00     0.074 A 
ATOM     53  C   UNL A   1      41.785  31.516  36.502  1.00  0.00     0.029 A 
ATOM     54  N   UNL A   1      41.248  30.925  34.426  1.00  0.00    -0.354 N 
ATOM     55  N   UNL A   1      41.439  29.295  31.990  1.00  0.00    -0.248 NA
ATOM     56  C   UNL A   1      42.466  27.602  30.753  1.00  0.00     0.031 C 
ATOM     57  C   UNL A   1      42.645  30.489  36.096  1.00  0.00     0.029 A 
ATOM     58  C   UNL A   1      42.293  30.100  34.814  1.00  0.00     0.049 A 
ATOM     59  H   UNL A   1      40.793  30.889  33.553  1.00  0.00     0.167 HD
ATOM     60  C   UNL A   1      42.448  28.725  32.754  1.00  0.00     0.074 A 
ATOM     61  C   UNL A   1      43.024  27.662  31.955  1.00  0.00     0.031 C 
ATOM     62  C   UNL A   1      42.863  29.053  34.002  1.00  0.00     0.037 A 
BRANCH  49  63
ATOM     63  C   UNL A   1      39.740  33.759  36.536  1.00  0.00     0.064 A 
ATOM     64  C   UNL A   1      40.385  35.007  36.587  1.00  0.00     0.173 A 
ATOM     65  C   UNL A   1      38.911  33.410  37.611  1.00  0.00     0.173 A 
ATOM     66  F   UNL A   1      41.199  35.387  35.591  1.00  0.00    -0.203 F 
ATOM     67  C   UNL A   1      40.240  35.846  37.689  1.00  0.00     0.198 A 
ATOM     68  C   UNL A   1      38.739  34.268  38.695  1.00  0.00     0.198 A 
ATOM     69  F   UNL A   1      38.264  32.235  37.614  1.00  0.00    -0.203 F 
ATOM     70  F   UNL A   1      40.919  37.000  37.743  1.00  0.00    -0.200 F 
ATOM     71  C   UNL A   1      39.413  35.478  38.738  1.00  0.00     0.200 A 
ATOM     72  F   UNL A   1      37.928  33.919  39.702  1.00  0.00    -0.200 F 
ATOM     73  F   UNL A   1      39.274  36.288  39.798  1.00  0.00    -0.200 F 
ENDBRANCH  49  63
BRANCH  50  74
ATOM     74  C   UNL A   1      40.716  28.002  28.431  1.00  0.00     0.064 A 
ATOM     75  C   UNL A   1      41.498  28.454  27.359  1.00  0.00     0.173 A 
ATOM     76  C   UNL A   1      40.118  26.739  28.315  1.00  0.00     0.173 A 
ATOM     77  F   UNL A   1      42.075  29.663  27.415  1.00  0.00    -0.203 F 
ATOM     78  C   UNL A   1      41.661  27.681  26.211  1.00  0.00     0.198 A 
ATOM     79  C   UNL A   1      40.306  25.954  27.179  1.00  0.00     0.198 A 
ATOM     80  F   UNL A   1      39.365  26.258  29.315  1.00  0.00    -0.203 F 
ATOM     81  F   UNL A   1      42.380  28.154  25.185  1.00  0.00    -0.200 F 
ATOM     82  C   UNL A   1      41.072  26.428  26.126  1.00  0.00     0.200 A 
ATOM     83  F   UNL A   1      39.749  24.738  27.108  1.00  0.00    -0.200 F 
ATOM     84  F   UNL A   1      41.237  25.681  25.025  1.00  0.00    -0.200 F 
ENDBRANCH  50  74
BRANCH  62  85
ATOM     85  C   UNL A   1      43.982  28.239  34.589  1.00  0.00     0.064 A 
ATOM     86  C   UNL A   1      45.322  28.641  34.480  1.00  0.00     0.173 A 
ATOM     87  C   UNL A   1      43.709  27.054  35.289  1.00  0.00     0.173 A 
ATOM     88  F   UNL A   1      45.639  29.759  33.809  1.00  0.00    -0.203 F 
ATOM     89  C   UNL A   1      46.347  27.869  35.019  1.00  0.00     0.198 A 
ATOM     90  C   UNL A   1      44.733  26.303  35.857  1.00  0.00     0.198 A 
ATOM     91  F   UNL A   1      42.445  26.628  35.429  1.00  0.00    -0.203 F 
ATOM     92  F   UNL A   1      47.624  28.242  34.851  1.00  0.00    -0.200 F 
ATOM     93  C   UNL A   1      46.053  26.704  35.713  1.00  0.00     0.200 A 
ATOM     94  F   UNL A   1      44.445  25.187  36.540  1.00  0.00    -0.200 F 
ATOM     95  F   UNL A   1      47.041  25.965  36.234  1.00  0.00    -0.200 F 
ENDBRANCH  62  85
ENDBRANCH  36  37
ENDBRANCH  28  31
ENDBRANCH  26  27
ENDBRANCH  25  26
ENDBRANCH  24  25
ENDBRANCH   1  24
TORSDOF 15
ENDMDL
MODEL 3
REMARK VINA RESULT:     -12.1      1.157      2.510
REMARK SMILES CC[C@@H](C)N(C)C(=O)N1[C@@H](C(=O)NCCCCNC(=O)c2ccc(-c3c4nc(c(-c5c(F)c(F)c(F)c(F)c5F)c5ccc([nH]5)c(-c5c(F)c(F)c(F)c(F)c5F)c5nc(c(-c6c(F)c(F)c(F)c(F)c6F)c6ccc3[nH]6)C=C5)C=C4)cc2)CC[C@H]2CCCC[C@H]21
REMARK SMILES IDX 14 1 13 2 11 3 12 4 10 6 9 7 91 8 84 9 86 10 90 11 85 12
REMARK SMILES IDX 87 13 89 14 88 15 7 16 8 17 5 18 6 19 3 20 4 21 2 22 1 23
REMARK SMILES IDX 15 24 16 25 17 26 18 27 19 28 20 30 21 31 22 32 83 33 23 34
REMARK SMILES IDX 82 35 24 36 25 37 26 38 76 39 27 40 81 41 75 42 77 43 28 44
REMARK SMILES IDX 80 45 74 46 73 47 29 49 61 50 41 51 60 52 42 53 45 54 59 55
REMARK SMILES IDX 78 56 43 57 44 58 58 60 79 61 46 62 30 63 31 64 39 65 32 66
REMARK SMILES IDX 33 67 37 68 40 69 34 70 35 71 38 72 36 73 62 74 63 75 71 76
REMARK SMILES IDX 64 77 65 78 69 79 72 80 66 81 67 82 70 83 68 84 47 85 48 86
REMARK SMILES IDX 56 87 49 88 50 89 54 90 57 91 51 92 52 93 55 94 53 95
REMARK H PARENT 13 5 18 29 77 48 45 59
REMARK Flexibility Score: inf
ROOT
ATOM      1  C   UNL A   1      32.342  29.725  27.195  1.00  0.00     0.116 C 
ENDROOT
BRANCH   1   2
ATOM      2  N   UNL A   1      31.512  28.541  27.307  1.00  0.00    -0.354 N 
ATOM      3  C   UNL A   1      31.588  27.372  26.612  1.00  0.00     0.242 C 
ATOM      4  O   UNL A   1      30.669  26.561  26.757  1.00  0.00    -0.273 OA
ATOM      5  H   UNL A   1      30.793  28.590  27.977  1.00  0.00     0.163 HD
BRANCH   3   6
ATOM      6  C   UNL A   1      32.693  27.126  25.558  1.00  0.00     0.176 C 
ATOM      7  N   UNL A   1      32.240  26.865  24.169  1.00  0.00    -0.309 N 
ATOM      8  C   UNL A   1      33.282  26.379  23.241  1.00  0.00     0.091 C 
ATOM      9  C   UNL A   1      33.561  25.973  26.127  1.00  0.00     0.036 C 
ATOM     10  C   UNL A   1      34.023  25.145  23.768  1.00  0.00     0.012 C 
ATOM     11  C   UNL A   1      32.909  26.140  21.769  1.00  0.00     0.025 C 
ATOM     12  C   UNL A   1      34.598  25.421  25.158  1.00  0.00     0.008 C 
ATOM     13  C   UNL A   1      33.189  23.855  23.700  1.00  0.00     0.006 C 
ATOM     14  C   UNL A   1      32.281  24.778  21.462  1.00  0.00     0.002 C 
ATOM     15  C   UNL A   1      32.072  23.856  22.657  1.00  0.00     0.000 C 
BRANCH   7  16
ATOM     16  C   UNL A   1      31.003  27.225  23.668  1.00  0.00     0.320 C 
ATOM     17  O   UNL A   1      30.121  26.369  23.584  1.00  0.00    -0.248 OA
BRANCH  16  18
ATOM     18  N   UNL A   1      30.744  28.530  23.296  1.00  0.00    -0.325 N 
ATOM     19  C   UNL A   1      31.572  29.325  22.399  1.00  0.00     0.149 C 
BRANCH  18  20
ATOM     20  C   UNL A   1      29.404  29.106  23.594  1.00  0.00     0.083 C 
ATOM     21  C   UNL A   1      28.288  28.472  22.754  1.00  0.00     0.031 C 
BRANCH  20  22
ATOM     22  C   UNL A   1      29.428  30.650  23.523  1.00  0.00     0.021 C 
ATOM     23  C   UNL A   1      28.053  31.299  23.514  1.00  0.00     0.006 C 
ENDBRANCH  20  22
ENDBRANCH  18  20
ENDBRANCH  16  18
ENDBRANCH   7  16
ENDBRANCH   3   6
ENDBRANCH   1   2
BRANCH   1  24
ATOM     24  C   UNL A   1      31.770  30.704  26.180  1.00  0.00     0.023 C 
BRANCH  24  25
ATOM     25  C   UNL A   1      31.470  32.084  26.759  1.00  0.00     0.023 C 
BRANCH  25  26
ATOM     26  C   UNL A   1      32.683  32.813  27.325  1.00  0.00     0.116 C 
BRANCH  26  27
ATOM     27  N   UNL A   1      32.412  34.211  27.618  1.00  0.00    -0.352 N 
ATOM     28  C   UNL A   1      32.977  35.014  28.580  1.00  0.00     0.251 C 
ATOM     29  H   UNL A   1      31.731  34.640  27.051  1.00  0.00     0.163 HD
ATOM     30  O   UNL A   1      32.524  36.123  28.817  1.00  0.00    -0.269 OA
BRANCH  28  31
ATOM     31  C   UNL A   1      34.129  34.500  29.351  1.00  0.00     0.039 A 
ATOM     32  C   UNL A   1      33.894  33.897  30.587  1.00  0.00     0.014 A 
ATOM     33  C   UNL A   1      35.425  34.585  28.835  1.00  0.00     0.014 A 
ATOM     34  C   UNL A   1      34.958  33.320  31.280  1.00  0.00     0.010 A 
ATOM     35  C   UNL A   1      36.468  33.936  29.486  1.00  0.00     0.010 A 
ATOM     36  C   UNL A   1      36.246  33.301  30.717  1.00  0.00    -0.014 A 
BRANCH  36  37
ATOM     37  C   UNL A   1      37.365  32.612  31.406  1.00  0.00     0.031 A 
ATOM     38  C   UNL A   1      38.060  31.451  30.754  1.00  0.00     0.074 A 
ATOM     39  C   UNL A   1      37.722  33.004  32.645  1.00  0.00     0.049 A 
ATOM     40  N   UNL A   1      39.041  30.712  31.208  1.00  0.00    -0.248 NA
ATOM     41  C   UNL A   1      37.568  31.047  29.428  1.00  0.00     0.031 C 
ATOM     42  C   UNL A   1      37.079  34.073  33.409  1.00  0.00     0.029 A 
ATOM     43  N   UNL A   1      38.706  32.542  33.481  1.00  0.00    -0.354 N 
ATOM     44  C   UNL A   1      39.281  29.760  30.227  1.00  0.00     0.074 A 
ATOM     45  C   UNL A   1      38.296  29.968  29.187  1.00  0.00     0.031 C 
ATOM     46  C   UNL A   1      37.700  34.201  34.592  1.00  0.00     0.029 A 
ATOM     47  C   UNL A   1      38.760  33.202  34.684  1.00  0.00     0.049 A 
ATOM     48  H   UNL A   1      39.316  31.807  33.242  1.00  0.00     0.167 HD
ATOM     49  C   UNL A   1      40.254  28.819  30.181  1.00  0.00     0.037 A 
ATOM     50  C   UNL A   1      39.569  33.019  35.744  1.00  0.00     0.037 A 
ATOM     51  C   UNL A   1      41.234  28.618  31.217  1.00  0.00     0.049 A 
ATOM     52  C   UNL A   1      40.639  31.965  35.674  1.00  0.00     0.074 A 
ATOM     53  C   UNL A   1      42.289  27.724  31.248  1.00  0.00     0.029 A 
ATOM     54  N   UNL A   1      41.271  29.319  32.415  1.00  0.00    -0.354 N 
ATOM     55  N   UNL A   1      40.910  31.121  34.707  1.00  0.00    -0.248 NA
ATOM     56  C   UNL A   1      41.527  31.846  36.838  1.00  0.00     0.031 C 
ATOM     57  C   UNL A   1      42.931  27.847  32.485  1.00  0.00     0.029 A 
ATOM     58  C   UNL A   1      42.316  28.860  33.202  1.00  0.00     0.049 A 
ATOM     59  H   UNL A   1      40.646  30.038  32.668  1.00  0.00     0.167 HD
ATOM     60  C   UNL A   1      42.007  30.387  35.135  1.00  0.00     0.074 A 
ATOM     61  C   UNL A   1      42.368  30.901  36.440  1.00  0.00     0.031 C 
ATOM     62  C   UNL A   1      42.656  29.376  34.505  1.00  0.00     0.037 A 
BRANCH  49  63
ATOM     63  C   UNL A   1      40.299  27.937  28.965  1.00  0.00     0.064 A 
ATOM     64  C   UNL A   1      39.609  26.713  28.917  1.00  0.00     0.173 A 
ATOM     65  C   UNL A   1      41.033  28.316  27.831  1.00  0.00     0.173 A 
ATOM     66  F   UNL A   1      38.901  26.296  29.978  1.00  0.00    -0.203 F 
ATOM     67  C   UNL A   1      39.688  25.887  27.799  1.00  0.00     0.198 A 
ATOM     68  C   UNL A   1      41.079  27.503  26.701  1.00  0.00     0.198 A 
ATOM     69  F   UNL A   1      41.706  29.476  27.817  1.00  0.00    -0.203 F 
ATOM     70  F   UNL A   1      39.075  24.695  27.805  1.00  0.00    -0.200 F 
ATOM     71  C   UNL A   1      40.418  26.285  26.691  1.00  0.00     0.200 A 
ATOM     72  F   UNL A   1      41.773  27.896  25.624  1.00  0.00    -0.200 F 
ATOM     73  F   UNL A   1      40.493  25.488  25.615  1.00  0.00    -0.200 F 
ENDBRANCH  49  63
BRANCH  50  74
ATOM     74  C   UNL A   1      39.404  33.870  36.950  1.00  0.00     0.064 A 
ATOM     75  C   UNL A   1      38.687  33.416  38.066  1.00  0.00     0.173 A 
ATOM     76  C   UNL A   1      39.975  35.150  37.019  1.00  0.00     0.173 A 
ATOM     77  F   UNL A   1      38.108  32.207  38.042  1.00  0.00    -0.203 F 
ATOM     78  C   UNL A   1      38.534  34.215  39.197  1.00  0.00     0.198 A 
ATOM     79  C   UNL A   1      39.846  35.936  38.162  1.00  0.00     0.198 A 
ATOM     80  F   UNL A   1      40.676  35.628  35.981  1.00  0.00    -0.203 F 
ATOM     81  F   UNL A   1      37.810  33.773  40.234  1.00  0.00    -0.200 F 
ATOM     82  C   UNL A   1      39.120  35.471  39.247  1.00  0.00     0.200 A 
ATOM     83  F   UNL A   1      40.428  37.142  38.212  1.00  0.00    -0.200 F 
ATOM     84  F   UNL A   1      38.980  36.235  40.339  1.00  0.00    -0.200 F 
ENDBRANCH  50  74
BRANCH  62  85
ATOM     85  C   UNL A   1      43.836  28.773  35.214  1.00  0.00     0.064 A 
ATOM     86  C   UNL A   1      45.138  29.263  35.027  1.00  0.00     0.173 A 
ATOM     87  C   UNL A   1      43.660  27.705  36.107  1.00  0.00     0.173 A 
ATOM     88  F   UNL A   1      45.363  30.272  34.173  1.00  0.00    -0.203 F 
ATOM     89  C   UNL A   1      46.222  28.684  35.682  1.00  0.00     0.198 A 
ATOM     90  C   UNL A   1      44.741  27.152  36.787  1.00  0.00     0.198 A 
ATOM     91  F   UNL A   1      42.436  27.203  36.328  1.00  0.00    -0.203 F 
ATOM     92  F   UNL A   1      47.463  29.131  35.443  1.00  0.00    -0.200 F 
ATOM     93  C   UNL A   1      46.023  27.634  36.566  1.00  0.00     0.200 A 
ATOM     94  F   UNL A   1      44.545  26.148  37.652  1.00  0.00    -0.200 F 
ATOM     95  F   UNL A   1      47.067  27.081  37.198  1.00  0.00    -0.200 F 
ENDBRANCH  62  85
ENDBRANCH  36  37
ENDBRANCH  28  31
ENDBRANCH  26  27
ENDBRANCH  25  26
ENDBRANCH  24  25
ENDBRANCH   1  24
TORSDOF 15
ENDMDL
