MODEL 1
REMARK VINA RESULT:     -13.3      0.000      0.000
REMARK SMILES CCc1cc(S(F)(F)(F)(F)F)cc2c1O[C@@H](C(F)(F)F)C(C(=O)NCCCCNC(=O)c1ccc(-c3c4nc(c(-c5c(F)c(F)c(F)c(F)c5F)c5ccc([nH]5)c(-c5c(F)c(F)c(F)c(F)c5F)c5nc(c(-c6c(F)c(F)c(F)c(F)c6F)c6ccc3[nH]6)C=C5)C=C4)cc1)=C2
REMARK SMILES IDX 27 1 26 2 25 3 24 4 22 5 23 6 21 8 3 9 4 10 14 11 5 12 13 13
REMARK SMILES IDX 15 14 12 15 95 16 16 17 2 18 1 19 6 20 7 21 8 22 9 23 10 24
REMARK SMILES IDX 11 25 17 26 18 27 19 28 20 29 28 30 29 31 30 32 31 34 32 35
REMARK SMILES IDX 33 36 94 37 34 38 93 39 35 40 36 41 37 42 87 43 38 44 92 45
REMARK SMILES IDX 86 46 88 47 39 48 91 49 85 50 84 51 40 53 72 54 52 55 71 56
REMARK SMILES IDX 53 57 56 58 70 59 89 60 54 61 55 62 69 64 90 65 57 66 41 67
REMARK SMILES IDX 42 68 50 69 43 70 44 71 48 72 51 73 45 74 46 75 49 76 47 77
REMARK SMILES IDX 73 78 74 79 82 80 75 81 76 82 80 83 83 84 77 85 78 86 81 87
REMARK SMILES IDX 79 88 58 89 59 90 67 91 60 92 61 93 65 94 68 95 62 96 63 97
REMARK SMILES IDX 66 98 64 99
REMARK H PARENT 24 7 29 33 88 52 56 63
REMARK Flexibility Score: inf
ROOT
ATOM      1  C   UNL A   1      37.734  20.107  24.982  1.00  0.00     0.023 C 
ENDROOT
BRANCH   1   2
ATOM      2  C   UNL A   1      37.204  21.437  24.470  1.00  0.00     0.023 C 
BRANCH   2   3
ATOM      3  C   UNL A   1      36.452  22.146  25.584  1.00  0.00     0.116 C 
BRANCH   3   4
ATOM      4  N   UNL A   1      35.603  21.179  26.295  1.00  0.00    -0.352 N 
ATOM      5  C   UNL A   1      34.158  21.421  26.419  1.00  0.00     0.251 C 
ATOM      6  O   UNL A   1      33.425  20.585  27.034  1.00  0.00    -0.270 OA
ATOM      7  H   UNL A   1      36.003  20.370  26.689  1.00  0.00     0.163 HD
BRANCH   5   8
ATOM      8  C   UNL A   1      33.543  22.670  25.812  1.00  0.00     0.067 C 
ATOM      9  C   UNL A   1      32.189  26.048  23.761  1.00  0.00    -0.004 A 
ATOM     10  C   UNL A   1      32.372  27.306  24.305  1.00  0.00     0.032 A 
ATOM     11  C   UNL A   1      32.691  24.959  24.430  1.00  0.00     0.131 A 
ATOM     12  C   UNL A   1      33.046  27.470  25.487  1.00  0.00     0.108 A 
ATOM     13  C   UNL A   1      33.360  25.084  25.635  1.00  0.00     0.019 A 
ATOM     14  O   UNL A   1      32.599  23.730  23.823  1.00  0.00    -0.475 OA
ATOM     15  C   UNL A   1      33.532  26.363  26.152  1.00  0.00     0.036 A 
ATOM     16  C   UNL A   1      33.887  23.876  26.245  1.00  0.00     0.025 C 
ATOM     17  C   UNL A   1      32.516  22.566  24.691  1.00  0.00     0.314 C 
BRANCH   9  18
ATOM     18  C   UNL A   1      31.294  25.792  22.559  1.00  0.00     0.036 C 
ATOM     19  C   UNL A   1      32.126  25.847  21.288  1.00  0.00     0.009 C 
ENDBRANCH   9  18
BRANCH  12  20
ATOM     20  S   UNL A   1      33.297  29.127  26.170  1.00  0.00     0.310 S 
ATOM     21  F   UNL A   1      34.064  28.691  27.487  1.00  0.00    -0.094 F 
ATOM     22  F   UNL A   1      31.958  29.011  26.994  1.00  0.00    -0.094 F 
ATOM     23  F   UNL A   1      33.481  30.602  26.626  1.00  0.00    -0.094 F 
ATOM     24  F   UNL A   1      34.704  29.181  25.454  1.00  0.00    -0.094 F 
ATOM     25  F   UNL A   1      33.180  27.597  25.793  1.00  0.00    -0.094 F 
ENDBRANCH  12  20
BRANCH  17  26
ATOM     26  C   UNL A   1      32.800  21.316  23.873  1.00  0.00     0.429 C 
ATOM     27  F   UNL A   1      32.249  20.262  24.468  1.00  0.00    -0.167 F 
ATOM     28  F   UNL A   1      32.284  21.457  22.655  1.00  0.00    -0.167 F 
ATOM     29  F   UNL A   1      34.115  21.136  23.780  1.00  0.00    -0.167 F 
ENDBRANCH  17  26
ENDBRANCH   5   8
ENDBRANCH   3   4
ENDBRANCH   2   3
ENDBRANCH   1   2
BRANCH   1  30
ATOM     30  C   UNL A   1      38.984  20.346  25.814  1.00  0.00     0.116 C 
BRANCH  30  31
ATOM     31  N   UNL A   1      39.869  19.176  25.716  1.00  0.00    -0.352 N 
ATOM     32  C   UNL A   1      41.299  19.308  26.031  1.00  0.00     0.251 C 
ATOM     33  H   UNL A   1      39.504  18.305  25.439  1.00  0.00     0.163 HD
ATOM     34  O   UNL A   1      42.064  18.297  25.946  1.00  0.00    -0.269 OA
BRANCH  32  35
ATOM     35  C   UNL A   1      41.861  20.655  26.458  1.00  0.00     0.039 A 
ATOM     36  C   UNL A   1      41.983  20.944  27.807  1.00  0.00     0.014 A 
ATOM     37  C   UNL A   1      42.202  21.541  25.530  1.00  0.00     0.014 A 
ATOM     38  C   UNL A   1      42.207  22.314  28.081  1.00  0.00     0.010 A 
ATOM     39  C   UNL A   1      42.541  22.826  25.880  1.00  0.00     0.010 A 
ATOM     40  C   UNL A   1      42.624  23.198  27.193  1.00  0.00    -0.014 A 
BRANCH  40  41
ATOM     41  C   UNL A   1      43.167  24.555  27.608  1.00  0.00     0.031 A 
ATOM     42  C   UNL A   1      44.546  24.772  27.606  1.00  0.00     0.074 A 
ATOM     43  C   UNL A   1      42.231  25.526  27.921  1.00  0.00     0.049 A 
ATOM     44  N   UNL A   1      45.191  25.911  27.859  1.00  0.00    -0.248 NA
ATOM     45  C   UNL A   1      45.543  23.733  27.307  1.00  0.00     0.031 C 
ATOM     46  C   UNL A   1      40.838  25.318  27.917  1.00  0.00     0.029 A 
ATOM     47  N   UNL A   1      42.461  26.835  28.284  1.00  0.00    -0.354 N 
ATOM     48  C   UNL A   1      46.509  25.732  27.742  1.00  0.00     0.074 A 
ATOM     49  C   UNL A   1      46.754  24.327  27.391  1.00  0.00     0.031 C 
ATOM     50  C   UNL A   1      40.237  26.481  28.284  1.00  0.00     0.029 A 
ATOM     51  C   UNL A   1      41.244  27.435  28.523  1.00  0.00     0.049 A 
ATOM     52  H   UNL A   1      43.342  27.266  28.361  1.00  0.00     0.167 HD
ATOM     53  C   UNL A   1      47.513  26.684  27.912  1.00  0.00     0.037 A 
ATOM     54  C   UNL A   1      41.006  28.738  28.928  1.00  0.00     0.037 A 
ATOM     55  C   UNL A   1      47.273  28.000  28.275  1.00  0.00     0.049 A 
ATOM     56  C   UNL A   1      42.015  29.677  29.155  1.00  0.00     0.074 A 
ATOM     57  C   UNL A   1      48.274  28.976  28.443  1.00  0.00     0.029 A 
ATOM     58  N   UNL A   1      46.058  28.594  28.537  1.00  0.00    -0.354 N 
ATOM     59  N   UNL A   1      43.329  29.507  28.999  1.00  0.00    -0.248 NA
ATOM     60  C   UNL A   1      41.776  31.051  29.616  1.00  0.00     0.031 C 
ATOM     61  C   UNL A   1      47.673  30.138  28.810  1.00  0.00     0.029 A 
ATOM     62  C   UNL A   1      46.286  29.908  28.879  1.00  0.00     0.049 A 
ATOM     63  H   UNL A   1      45.178  28.154  28.488  1.00  0.00     0.167 HD
ATOM     64  C   UNL A   1      43.976  30.636  29.294  1.00  0.00     0.074 A 
ATOM     65  C   UNL A   1      42.987  31.644  29.701  1.00  0.00     0.031 C 
ATOM     66  C   UNL A   1      45.352  30.869  29.235  1.00  0.00     0.037 A 
BRANCH  53  67
ATOM     67  C   UNL A   1      48.954  26.256  27.686  1.00  0.00     0.064 A 
ATOM     68  C   UNL A   1      49.740  25.913  28.774  1.00  0.00     0.173 A 
ATOM     69  C   UNL A   1      49.437  26.219  26.450  1.00  0.00     0.173 A 
ATOM     70  F   UNL A   1      49.241  25.690  29.987  1.00  0.00    -0.203 F 
ATOM     71  C   UNL A   1      51.120  25.820  28.478  1.00  0.00     0.198 A 
ATOM     72  C   UNL A   1      50.773  25.989  26.226  1.00  0.00     0.198 A 
ATOM     73  F   UNL A   1      48.619  26.408  25.418  1.00  0.00    -0.203 F 
ATOM     74  F   UNL A   1      51.975  25.855  29.497  1.00  0.00    -0.200 F 
ATOM     75  C   UNL A   1      51.619  25.702  27.262  1.00  0.00     0.200 A 
ATOM     76  F   UNL A   1      51.249  26.046  24.987  1.00  0.00    -0.200 F 
ATOM     77  F   UNL A   1      52.876  25.322  27.053  1.00  0.00    -0.200 F 
ENDBRANCH  53  67
BRANCH  54  78
ATOM     78  C   UNL A   1      39.564  29.172  29.138  1.00  0.00     0.064 A 
ATOM     79  C   UNL A   1      39.034  29.172  30.418  1.00  0.00     0.173 A 
ATOM     80  C   UNL A   1      38.838  29.547  28.092  1.00  0.00     0.173 A 
ATOM     81  F   UNL A   1      39.781  29.052  31.512  1.00  0.00    -0.203 F 
ATOM     82  C   UNL A   1      37.626  29.309  30.456  1.00  0.00     0.198 A 
ATOM     83  C   UNL A   1      37.493  29.799  28.228  1.00  0.00     0.198 A 
ATOM     84  F   UNL A   1      39.416  29.682  26.902  1.00  0.00    -0.203 F 
ATOM     85  F   UNL A   1      37.001  28.965  31.577  1.00  0.00    -0.200 F 
ATOM     86  C   UNL A   1      36.891  29.758  29.454  1.00  0.00     0.200 A 
ATOM     87  F   UNL A   1      36.769  30.086  27.151  1.00  0.00    -0.200 F 
ATOM     88  F   UNL A   1      35.632  30.149  29.631  1.00  0.00    -0.200 F 
ENDBRANCH  54  78
BRANCH  66  89
ATOM     89  C   UNL A   1      45.856  32.261  29.582  1.00  0.00     0.064 A 
ATOM     90  C   UNL A   1      46.217  32.546  30.888  1.00  0.00     0.173 A 
ATOM     91  C   UNL A   1      45.947  33.178  28.625  1.00  0.00     0.173 A 
ATOM     92  F   UNL A   1      46.385  31.607  31.817  1.00  0.00    -0.203 F 
ATOM     93  C   UNL A   1      46.391  33.926  31.146  1.00  0.00     0.198 A 
ATOM     94  C   UNL A   1      46.255  34.480  28.934  1.00  0.00     0.198 A 
ATOM     95  F   UNL A   1      45.737  32.831  27.359  1.00  0.00    -0.203 F 
ATOM     96  F   UNL A   1      46.381  34.325  32.415  1.00  0.00    -0.200 F 
ATOM     97  C   UNL A   1      46.565  34.846  30.214  1.00  0.00     0.200 A 
ATOM     98  F   UNL A   1      46.252  35.400  27.973  1.00  0.00    -0.200 F 
ATOM     99  F   UNL A   1      47.017  36.063  30.506  1.00  0.00    -0.200 F 
ENDBRANCH  66  89
ENDBRANCH  40  41
ENDBRANCH  32  35
ENDBRANCH  30  31
ENDBRANCH   1  30
TORSDOF 14
ENDMDL
MODEL 2
REMARK VINA RESULT:     -13.2      0.509      1.637
REMARK SMILES CCc1cc(S(F)(F)(F)(F)F)cc2c1O[C@@H](C(F)(F)F)C(C(=O)NCCCCNC(=O)c1ccc(-c3c4nc(c(-c5c(F)c(F)c(F)c(F)c5F)c5ccc([nH]5)c(-c5c(F)c(F)c(F)c(F)c5F)c5nc(c(-c6c(F)c(F)c(F)c(F)c6F)c6ccc3[nH]6)C=C5)C=C4)cc1)=C2
REMARK SMILES IDX 27 1 26 2 25 3 24 4 22 5 23 6 21 8 3 9 4 10 14 11 5 12 13 13
REMARK SMILES IDX 15 14 12 15 95 16 16 17 2 18 1 19 6 20 7 21 8 22 9 23 10 24
REMARK SMILES IDX 11 25 17 26 18 27 19 28 20 29 28 30 29 31 30 32 31 34 32 35
REMARK SMILES IDX 33 36 94 37 34 38 93 39 35 40 36 41 37 42 87 43 38 44 92 45
REMARK SMILES IDX 86 46 88 47 39 48 91 49 85 50 84 51 40 53 72 54 52 55 71 56
REMARK SMILES IDX 53 57 56 58 70 59 89 60 54 61 55 62 69 64 90 65 57 66 41 67
REMARK SMILES IDX 42 68 50 69 43 70 44 71 48 72 51 73 45 74 46 75 49 76 47 77
REMARK SMILES IDX 73 78 74 79 82 80 75 81 76 82 80 83 83 84 77 85 78 86 81 87
REMARK SMILES IDX 79 88 58 89 59 90 67 91 60 92 61 93 65 94 68 95 62 96 63 97
REMARK SMILES IDX 66 98 64 99
REMARK H PARENT 24 7 29 33 88 52 56 63
REMARK Flexibility Score: inf
ROOT
ATOM      1  C   UNL A   1      37.724  20.070  25.006  1.00  0.00     0.023 C 
ENDROOT
BRANCH   1   2
ATOM      2  C   UNL A   1      37.218  21.360  24.381  1.00  0.00     0.023 C 
BRANCH   2   3
ATOM      3  C   UNL A   1      36.392  22.127  25.400  1.00  0.00     0.116 C 
BRANCH   3   4
ATOM      4  N   UNL A   1      35.470  21.205  26.078  1.00  0.00    -0.352 N 
ATOM      5  C   UNL A   1      34.050  21.558  26.221  1.00  0.00     0.251 C 
ATOM      6  O   UNL A   1      33.253  20.760  26.808  1.00  0.00    -0.270 OA
ATOM      7  H   UNL A   1      35.804  20.351  26.437  1.00  0.00     0.163 HD
BRANCH   5   8
ATOM      8  C   UNL A   1      33.535  22.875  25.667  1.00  0.00     0.067 C 
ATOM      9  C   UNL A   1      32.474  26.446  23.777  1.00  0.00    -0.004 A 
ATOM     10  C   UNL A   1      32.701  27.656  24.408  1.00  0.00     0.032 A 
ATOM     11  C   UNL A   1      32.882  25.290  24.397  1.00  0.00     0.131 A 
ATOM     12  C   UNL A   1      33.324  27.707  25.627  1.00  0.00     0.108 A 
ATOM     13  C   UNL A   1      33.496  25.303  25.637  1.00  0.00     0.019 A 
ATOM     14  O   UNL A   1      32.751  24.109  23.709  1.00  0.00    -0.475 OA
ATOM     15  C   UNL A   1      33.713  26.535  26.242  1.00  0.00     0.036 A 
ATOM     16  C   UNL A   1      33.925  24.031  26.192  1.00  0.00     0.025 C 
ATOM     17  C   UNL A   1      32.561  22.900  24.496  1.00  0.00     0.314 C 
BRANCH   9  18
ATOM     18  C   UNL A   1      31.627  26.317  22.521  1.00  0.00     0.036 C 
ATOM     19  C   UNL A   1      30.696  27.514  22.413  1.00  0.00     0.009 C 
ENDBRANCH   9  18
BRANCH  12  20
ATOM     20  S   UNL A   1      33.633  29.302  26.425  1.00  0.00     0.310 S 
ATOM     21  F   UNL A   1      33.913  28.749  27.884  1.00  0.00    -0.094 F 
ATOM     22  F   UNL A   1      32.114  29.413  26.833  1.00  0.00    -0.094 F 
ATOM     23  F   UNL A   1      33.914  30.728  26.979  1.00  0.00    -0.094 F 
ATOM     24  F   UNL A   1      35.175  29.118  26.137  1.00  0.00    -0.094 F 
ATOM     25  F   UNL A   1      33.383  27.812  25.963  1.00  0.00    -0.094 F 
ENDBRANCH  12  20
BRANCH  17  26
ATOM     26  C   UNL A   1      32.815  21.689  23.614  1.00  0.00     0.429 C 
ATOM     27  F   UNL A   1      32.263  21.886  22.420  1.00  0.00    -0.167 F 
ATOM     28  F   UNL A   1      34.124  21.510  23.472  1.00  0.00    -0.167 F 
ATOM     29  F   UNL A   1      32.277  20.610  24.177  1.00  0.00    -0.167 F 
ENDBRANCH  17  26
ENDBRANCH   5   8
ENDBRANCH   3   4
ENDBRANCH   2   3
ENDBRANCH   1   2
BRANCH   1  30
ATOM     30  C   UNL A   1      38.983  20.355  25.808  1.00  0.00     0.116 C 
BRANCH  30  31
ATOM     31  N   UNL A   1      39.902  19.212  25.701  1.00  0.00    -0.352 N 
ATOM     32  C   UNL A   1      41.321  19.375  26.049  1.00  0.00     0.251 C 
ATOM     33  H   UNL A   1      39.567  18.338  25.396  1.00  0.00     0.163 HD
ATOM     34  O   UNL A   1      42.115  18.387  25.956  1.00  0.00    -0.269 OA
BRANCH  32  35
ATOM     35  C   UNL A   1      41.838  20.725  26.520  1.00  0.00     0.039 A 
ATOM     36  C   UNL A   1      41.928  20.982  27.878  1.00  0.00     0.014 A 
ATOM     37  C   UNL A   1      42.168  21.644  25.621  1.00  0.00     0.014 A 
ATOM     38  C   UNL A   1      42.109  22.350  28.191  1.00  0.00     0.010 A 
ATOM     39  C   UNL A   1      42.464  22.929  26.009  1.00  0.00     0.010 A 
ATOM     40  C   UNL A   1      42.515  23.268  27.332  1.00  0.00    -0.014 A 
BRANCH  40  41
ATOM     41  C   UNL A   1      43.012  24.629  27.791  1.00  0.00     0.031 A 
ATOM     42  C   UNL A   1      44.385  24.875  27.846  1.00  0.00     0.074 A 
ATOM     43  C   UNL A   1      42.044  25.575  28.084  1.00  0.00     0.049 A 
ATOM     44  N   UNL A   1      44.995  26.023  28.144  1.00  0.00    -0.248 NA
ATOM     45  C   UNL A   1      45.415  23.862  27.569  1.00  0.00     0.031 C 
ATOM     46  C   UNL A   1      40.657  25.338  28.022  1.00  0.00     0.029 A 
ATOM     47  N   UNL A   1      42.231  26.882  28.478  1.00  0.00    -0.354 N 
ATOM     48  C   UNL A   1      46.320  25.873  28.075  1.00  0.00     0.074 A 
ATOM     49  C   UNL A   1      46.609  24.480  27.710  1.00  0.00     0.031 C 
ATOM     50  C   UNL A   1      40.017  26.481  28.385  1.00  0.00     0.029 A 
ATOM     51  C   UNL A   1      40.994  27.451  28.679  1.00  0.00     0.049 A 
ATOM     52  H   UNL A   1      43.099  27.330  28.596  1.00  0.00     0.167 HD
ATOM     53  C   UNL A   1      47.296  26.844  28.300  1.00  0.00     0.037 A 
ATOM     54  C   UNL A   1      40.711  28.742  29.096  1.00  0.00     0.037 A 
ATOM     55  C   UNL A   1      47.014  28.148  28.675  1.00  0.00     0.049 A 
ATOM     56  C   UNL A   1      41.691  29.698  29.378  1.00  0.00     0.074 A 
ATOM     57  C   UNL A   1      47.986  29.141  28.899  1.00  0.00     0.029 A 
ATOM     58  N   UNL A   1      45.777  28.711  28.900  1.00  0.00    -0.354 N 
ATOM     59  N   UNL A   1      43.013  29.558  29.271  1.00  0.00    -0.248 NA
ATOM     60  C   UNL A   1      41.405  31.058  29.853  1.00  0.00     0.031 C 
ATOM     61  C   UNL A   1      47.346  30.284  29.261  1.00  0.00     0.029 A 
ATOM     62  C   UNL A   1      45.963  30.023  29.272  1.00  0.00     0.049 A 
ATOM     63  H   UNL A   1      44.909  28.254  28.810  1.00  0.00     0.167 HD
ATOM     64  C   UNL A   1      43.624  30.696  29.609  1.00  0.00     0.074 A 
ATOM     65  C   UNL A   1      42.598  31.675  29.995  1.00  0.00     0.031 C 
ATOM     66  C   UNL A   1      44.995  30.958  29.608  1.00  0.00     0.037 A 
BRANCH  53  67
ATOM     67  C   UNL A   1      48.753  26.450  28.123  1.00  0.00     0.064 A 
ATOM     68  C   UNL A   1      49.468  25.980  29.213  1.00  0.00     0.173 A 
ATOM     69  C   UNL A   1      49.319  26.563  26.927  1.00  0.00     0.173 A 
ATOM     70  F   UNL A   1      48.891  25.612  30.354  1.00  0.00    -0.203 F 
ATOM     71  C   UNL A   1      50.866  25.928  29.003  1.00  0.00     0.198 A 
ATOM     72  C   UNL A   1      50.669  26.366  26.769  1.00  0.00     0.198 A 
ATOM     73  F   UNL A   1      48.570  26.873  25.872  1.00  0.00    -0.203 F 
ATOM     74  F   UNL A   1      51.650  25.842  30.075  1.00  0.00    -0.200 F 
ATOM     75  C   UNL A   1      51.447  25.958  27.818  1.00  0.00     0.200 A 
ATOM     76  F   UNL A   1      51.228  26.574  25.581  1.00  0.00    -0.200 F 
ATOM     77  F   UNL A   1      52.720  25.611  27.652  1.00  0.00    -0.200 F 
ENDBRANCH  53  67
BRANCH  54  78
ATOM     78  C   UNL A   1      39.253  29.142  29.258  1.00  0.00     0.064 A 
ATOM     79  C   UNL A   1      38.557  29.631  28.165  1.00  0.00     0.173 A 
ATOM     80  C   UNL A   1      38.671  29.013  30.444  1.00  0.00     0.173 A 
ATOM     81  F   UNL A   1      39.011  29.542  26.918  1.00  0.00    -0.203 F 
ATOM     82  C   UNL A   1      37.321  30.233  28.495  1.00  0.00     0.198 A 
ATOM     83  C   UNL A   1      37.405  29.505  30.659  1.00  0.00     0.198 A 
ATOM     84  F   UNL A   1      39.317  28.402  31.433  1.00  0.00    -0.203 F 
ATOM     85  F   UNL A   1      36.762  31.034  27.592  1.00  0.00    -0.200 F 
ATOM     86  C   UNL A   1      36.682  30.055  29.638  1.00  0.00     0.200 A 
ATOM     87  F   UNL A   1      36.878  29.444  31.877  1.00  0.00    -0.200 F 
ATOM     88  F   UNL A   1      35.405  30.392  29.786  1.00  0.00    -0.200 F 
ENDBRANCH  54  78
BRANCH  66  89
ATOM     89  C   UNL A   1      45.455  32.354  29.998  1.00  0.00     0.064 A 
ATOM     90  C   UNL A   1      45.547  33.335  29.026  1.00  0.00     0.173 A 
ATOM     91  C   UNL A   1      45.756  32.609  31.267  1.00  0.00     0.173 A 
ATOM     92  F   UNL A   1      45.023  33.204  27.810  1.00  0.00    -0.203 F 
ATOM     93  C   UNL A   1      46.249  34.491  29.443  1.00  0.00     0.198 A 
ATOM     94  C   UNL A   1      46.314  33.812  31.624  1.00  0.00     0.198 A 
ATOM     95  F   UNL A   1      45.514  31.691  32.198  1.00  0.00    -0.203 F 
ATOM     96  F   UNL A   1      46.697  35.317  28.501  1.00  0.00    -0.200 F 
ATOM     97  C   UNL A   1      46.489  34.808  30.702  1.00  0.00     0.200 A 
ATOM     98  F   UNL A   1      46.690  34.012  32.884  1.00  0.00    -0.200 F 
ATOM     99  F   UNL A   1      46.880  36.029  31.056  1.00  0.00    -0.200 F 
ENDBRANCH  66  89
ENDBRANCH  40  41
ENDBRANCH  32  35
ENDBRANCH  30  31
ENDBRANCH   1  30
TORSDOF 14
ENDMDL
MODEL 3
REMARK VINA RESULT:     -13.2      5.252     10.217
REMARK SMILES CCc1cc(S(F)(F)(F)(F)F)cc2c1O[C@@H](C(F)(F)F)C(C(=O)NCCCCNC(=O)c1ccc(-c3c4nc(c(-c5c(F)c(F)c(F)c(F)c5F)c5ccc([nH]5)c(-c5c(F)c(F)c(F)c(F)c5F)c5nc(c(-c6c(F)c(F)c(F)c(F)c6F)c6ccc3[nH]6)C=C5)C=C4)cc1)=C2
REMARK SMILES IDX 27 1 26 2 25 3 24 4 22 5 23 6 21 8 3 9 4 10 14 11 5 12 13 13
REMARK SMILES IDX 15 14 12 15 95 16 16 17 2 18 1 19 6 20 7 21 8 22 9 23 10 24
REMARK SMILES IDX 11 25 17 26 18 27 19 28 20 29 28 30 29 31 30 32 31 34 32 35
REMARK SMILES IDX 33 36 94 37 34 38 93 39 35 40 36 41 37 42 87 43 38 44 92 45
REMARK SMILES IDX 86 46 88 47 39 48 91 49 85 50 84 51 40 53 72 54 52 55 71 56
REMARK SMILES IDX 53 57 56 58 70 59 89 60 54 61 55 62 69 64 90 65 57 66 41 67
REMARK SMILES IDX 42 68 50 69 43 70 44 71 48 72 51 73 45 74 46 75 49 76 47 77
REMARK SMILES IDX 73 78 74 79 82 80 75 81 76 82 80 83 83 84 77 85 78 86 81 87
REMARK SMILES IDX 79 88 58 89 59 90 67 91 60 92 61 93 65 94 68 95 62 96 63 97
REMARK SMILES IDX 66 98 64 99
REMARK H PARENT 24 7 29 33 88 52 56 63
REMARK Flexibility Score: inf
ROOT
ATOM      1  C   UNL A   1      31.590  31.453  26.500  1.00  0.00     0.023 C 
ENDROOT
BRANCH   1   2
ATOM      2  C   UNL A   1      31.784  29.996  26.889  1.00  0.00     0.023 C 
BRANCH   2   3
ATOM      3  C   UNL A   1      32.740  29.334  25.910  1.00  0.00     0.116 C 
BRANCH   3   4
ATOM      4  N   UNL A   1      32.357  29.687  24.535  1.00  0.00    -0.352 N 
ATOM      5  C   UNL A   1      32.204  28.633  23.521  1.00  0.00     0.251 C 
ATOM      6  O   UNL A   1      31.873  28.939  22.333  1.00  0.00    -0.270 OA
ATOM      7  H   UNL A   1      32.202  30.629  24.294  1.00  0.00     0.163 HD
BRANCH   5   8
ATOM      8  C   UNL A   1      32.443  27.180  23.894  1.00  0.00     0.067 C 
ATOM      9  C   UNL A   1      32.917  23.306  25.383  1.00  0.00    -0.004 A 
ATOM     10  C   UNL A   1      34.186  22.783  25.556  1.00  0.00     0.032 A 
ATOM     11  C   UNL A   1      32.790  24.601  24.943  1.00  0.00     0.131 A 
ATOM     12  C   UNL A   1      35.299  23.539  25.300  1.00  0.00     0.108 A 
ATOM     13  C   UNL A   1      33.892  25.387  24.656  1.00  0.00     0.019 A 
ATOM     14  O   UNL A   1      31.529  25.142  24.884  1.00  0.00    -0.475 OA
ATOM     15  C   UNL A   1      35.153  24.833  24.845  1.00  0.00     0.036 A 
ATOM     16  C   UNL A   1      33.654  26.757  24.233  1.00  0.00     0.025 C 
ATOM     17  C   UNL A   1      31.297  26.176  23.888  1.00  0.00     0.314 C 
BRANCH   9  18
ATOM     18  C   UNL A   1      31.657  22.460  25.472  1.00  0.00     0.036 C 
ATOM     19  C   UNL A   1      31.961  21.047  25.002  1.00  0.00     0.009 C 
ENDBRANCH   9  18
BRANCH  12  20
ATOM     20  S   UNL A   1      36.950  22.843  25.556  1.00  0.00     0.310 S 
ATOM     21  F   UNL A   1      37.769  23.985  24.820  1.00  0.00    -0.094 F 
ATOM     22  F   UNL A   1      36.873  22.100  24.168  1.00  0.00    -0.094 F 
ATOM     23  F   UNL A   1      38.310  22.160  25.876  1.00  0.00    -0.094 F 
ATOM     24  F   UNL A   1      37.078  23.700  26.876  1.00  0.00    -0.094 F 
ATOM     25  F   UNL A   1      35.628  23.627  25.192  1.00  0.00    -0.094 F 
ENDBRANCH  12  20
BRANCH  17  26
ATOM     26  C   UNL A   1      30.001  26.900  24.218  1.00  0.00     0.429 C 
ATOM     27  F   UNL A   1      29.064  26.011  24.532  1.00  0.00    -0.167 F 
ATOM     28  F   UNL A   1      30.200  27.717  25.248  1.00  0.00    -0.167 F 
ATOM     29  F   UNL A   1      29.607  27.605  23.162  1.00  0.00    -0.167 F 
ENDBRANCH  17  26
ENDBRANCH   5   8
ENDBRANCH   3   4
ENDBRANCH   2   3
ENDBRANCH   1   2
BRANCH   1  30
ATOM     30  C   UNL A   1      32.772  32.271  26.993  1.00  0.00     0.116 C 
BRANCH  30  31
ATOM     31  N   UNL A   1      32.321  33.628  27.338  1.00  0.00    -0.352 N 
ATOM     32  C   UNL A   1      33.028  34.396  28.373  1.00  0.00     0.251 C 
ATOM     33  H   UNL A   1      31.546  34.020  26.875  1.00  0.00     0.163 HD
ATOM     34  O   UNL A   1      32.637  35.569  28.671  1.00  0.00    -0.269 OA
BRANCH  32  35
ATOM     35  C   UNL A   1      34.224  33.788  29.087  1.00  0.00     0.039 A 
ATOM     36  C   UNL A   1      35.495  34.262  28.808  1.00  0.00     0.014 A 
ATOM     37  C   UNL A   1      34.032  32.794  29.945  1.00  0.00     0.014 A 
ATOM     38  C   UNL A   1      36.535  33.424  29.276  1.00  0.00     0.010 A 
ATOM     39  C   UNL A   1      35.100  32.105  30.468  1.00  0.00     0.010 A 
ATOM     40  C   UNL A   1      36.384  32.482  30.189  1.00  0.00    -0.014 A 
BRANCH  40  41
ATOM     41  C   UNL A   1      37.575  31.852  30.893  1.00  0.00     0.031 A 
ATOM     42  C   UNL A   1      37.868  32.219  32.208  1.00  0.00     0.074 A 
ATOM     43  C   UNL A   1      38.278  30.894  30.182  1.00  0.00     0.049 A 
ATOM     44  N   UNL A   1      38.815  31.715  33.001  1.00  0.00    -0.248 NA
ATOM     45  C   UNL A   1      37.145  33.260  32.952  1.00  0.00     0.031 C 
ATOM     46  C   UNL A   1      37.983  30.511  28.858  1.00  0.00     0.029 A 
ATOM     47  N   UNL A   1      39.360  30.153  30.603  1.00  0.00    -0.354 N 
ATOM     48  C   UNL A   1      38.777  32.308  34.197  1.00  0.00     0.074 A 
ATOM     49  C   UNL A   1      37.706  33.314  34.181  1.00  0.00     0.031 C 
ATOM     50  C   UNL A   1      38.881  29.563  28.483  1.00  0.00     0.029 A 
ATOM     51  C   UNL A   1      39.752  29.336  29.566  1.00  0.00     0.049 A 
ATOM     52  H   UNL A   1      39.781  30.201  31.492  1.00  0.00     0.167 HD
ATOM     53  C   UNL A   1      39.591  32.047  35.299  1.00  0.00     0.037 A 
ATOM     54  C   UNL A   1      40.807  28.439  29.546  1.00  0.00     0.037 A 
ATOM     55  C   UNL A   1      40.620  31.118  35.293  1.00  0.00     0.049 A 
ATOM     56  C   UNL A   1      41.660  28.219  30.630  1.00  0.00     0.074 A 
ATOM     57  C   UNL A   1      41.446  30.837  36.398  1.00  0.00     0.029 A 
ATOM     58  N   UNL A   1      41.028  30.318  34.248  1.00  0.00    -0.354 N 
ATOM     59  N   UNL A   1      41.597  28.783  31.837  1.00  0.00    -0.248 NA
ATOM     60  C   UNL A   1      42.802  27.295  30.609  1.00  0.00     0.031 C 
ATOM     61  C   UNL A   1      42.344  29.888  36.023  1.00  0.00     0.029 A 
ATOM     62  C   UNL A   1      42.095  29.562  34.677  1.00  0.00     0.049 A 
ATOM     63  H   UNL A   1      40.625  30.292  33.350  1.00  0.00     0.167 HD
ATOM     64  C   UNL A   1      42.571  28.309  32.618  1.00  0.00     0.074 A 
ATOM     65  C   UNL A   1      43.364  27.350  31.836  1.00  0.00     0.031 C 
ATOM     66  C   UNL A   1      42.827  28.634  33.951  1.00  0.00     0.037 A 
BRANCH  53  67
ATOM     67  C   UNL A   1      39.336  32.825  36.580  1.00  0.00     0.064 A 
ATOM     68  C   UNL A   1      38.391  32.362  37.480  1.00  0.00     0.173 A 
ATOM     69  C   UNL A   1      40.022  33.937  36.813  1.00  0.00     0.173 A 
ATOM     70  F   UNL A   1      37.868  31.140  37.418  1.00  0.00    -0.203 F 
ATOM     71  C   UNL A   1      38.033  33.305  38.472  1.00  0.00     0.198 A 
ATOM     72  C   UNL A   1      39.706  34.744  37.880  1.00  0.00     0.198 A 
ATOM     73  F   UNL A   1      41.025  34.275  36.007  1.00  0.00    -0.203 F 
ATOM     74  F   UNL A   1      36.903  33.098  39.143  1.00  0.00    -0.200 F 
ATOM     75  C   UNL A   1      38.741  34.376  38.777  1.00  0.00     0.200 A 
ATOM     76  F   UNL A   1      40.347  35.897  38.042  1.00  0.00    -0.200 F 
ATOM     77  F   UNL A   1      38.530  35.061  39.897  1.00  0.00    -0.200 F 
ENDBRANCH  53  67
BRANCH  54  78
ATOM     78  C   UNL A   1      41.053  27.648  28.270  1.00  0.00     0.064 A 
ATOM     79  C   UNL A   1      41.887  28.172  27.296  1.00  0.00     0.173 A 
ATOM     80  C   UNL A   1      40.466  26.468  28.113  1.00  0.00     0.173 A 
ATOM     81  F   UNL A   1      42.686  29.213  27.510  1.00  0.00    -0.203 F 
ATOM     82  C   UNL A   1      41.810  27.499  26.054  1.00  0.00     0.198 A 
ATOM     83  C   UNL A   1      40.546  25.801  26.914  1.00  0.00     0.198 A 
ATOM     84  F   UNL A   1      39.795  25.925  29.124  1.00  0.00    -0.203 F 
ATOM     85  F   UNL A   1      42.281  28.127  24.980  1.00  0.00    -0.200 F 
ATOM     86  C   UNL A   1      41.304  26.291  25.887  1.00  0.00     0.200 A 
ATOM     87  F   UNL A   1      39.877  24.664  26.750  1.00  0.00    -0.200 F 
ATOM     88  F   UNL A   1      41.522  25.588  24.779  1.00  0.00    -0.200 F 
ENDBRANCH  54  78
BRANCH  66  89
ATOM     89  C   UNL A   1      43.978  27.928  34.649  1.00  0.00     0.064 A 
ATOM     90  C   UNL A   1      43.754  26.710  35.266  1.00  0.00     0.173 A 
ATOM     91  C   UNL A   1      45.182  28.491  34.650  1.00  0.00     0.173 A 
ATOM     92  F   UNL A   1      42.648  25.993  35.078  1.00  0.00    -0.203 F 
ATOM     93  C   UNL A   1      44.807  26.294  36.115  1.00  0.00     0.198 A 
ATOM     94  C   UNL A   1      46.203  27.954  35.395  1.00  0.00     0.198 A 
ATOM     95  F   UNL A   1      45.399  29.583  33.923  1.00  0.00    -0.203 F 
ATOM     96  F   UNL A   1      44.544  25.346  37.010  1.00  0.00    -0.200 F 
ATOM     97  C   UNL A   1      46.034  26.782  36.080  1.00  0.00     0.200 A 
ATOM     98  F   UNL A   1      47.373  28.583  35.454  1.00  0.00    -0.200 F 
ATOM     99  F   UNL A   1      47.051  26.166  36.676  1.00  0.00    -0.200 F 
ENDBRANCH  66  89
ENDBRANCH  40  41
ENDBRANCH  32  35
ENDBRANCH  30  31
ENDBRANCH   1  30
TORSDOF 14
ENDMDL
