MODEL 1
REMARK VINA RESULT:     -13.8      0.000      0.000
REMARK SMILES CC(C)(C)c1cc(Nc2ccccc2C(=O)NCCCCNC(=O)c2ccc(-c3c4nc(c(-c5c(F)c(F)c(F)c(F)c5F)c5ccc([nH]5)c(-c5c(F)c(F)c(F)c(F)c5F)c5nc(c(-c6c(F)c(F)c(F)c(F)c6F)c6ccc3[nH]6)C=C5)C=C4)cc2)cc2c1OCC2(C)C
REMARK SMILES IDX 19 1 18 2 17 3 15 4 16 5 14 7 9 8 10 9 11 10 13 11 12 12
REMARK SMILES IDX 8 13 7 15 5 16 6 17 90 18 89 19 91 20 88 21 93 22 92 23
REMARK SMILES IDX 94 24 95 25 2 26 1 27 3 28 4 29 20 30 21 31 22 32 23 33
REMARK SMILES IDX 24 35 25 36 26 37 87 38 27 39 86 40 28 41 29 42 30 43 80 44
REMARK SMILES IDX 31 45 85 46 79 47 81 48 32 49 84 50 78 51 77 52 33 54 65 55
REMARK SMILES IDX 45 56 64 57 46 58 49 59 63 60 82 61 47 62 48 63 62 65 83 66
REMARK SMILES IDX 50 67 34 68 35 69 43 70 36 71 37 72 41 73 44 74 38 75 39 76
REMARK SMILES IDX 42 77 40 78 66 79 67 80 75 81 68 82 69 83 73 84 76 85 70 86
REMARK SMILES IDX 71 87 74 88 72 89 51 90 52 91 60 92 53 93 54 94 58 95 61 96
REMARK SMILES IDX 55 97 56 98 59 99 57 100
REMARK H PARENT 17 6 8 14 22 34 81 53 49 64
REMARK Flexibility Score: inf
ROOT
ATOM      1  C   UNL A   1      32.343  27.078  26.693  1.00  0.00     0.023 C 
ENDROOT
BRANCH   1   2
ATOM      2  C   UNL A   1      31.461  25.862  26.499  1.00  0.00     0.116 C 
BRANCH   2   3
ATOM      3  N   UNL A   1      30.211  26.024  25.822  1.00  0.00    -0.352 N 
ATOM      4  C   UNL A   1      29.969  25.894  24.474  1.00  0.00     0.253 C 
ATOM      5  O   UNL A   1      28.789  25.986  24.122  1.00  0.00    -0.269 OA
ATOM      6  H   UNL A   1      29.436  26.254  26.384  1.00  0.00     0.163 HD
BRANCH   4   7
ATOM      7  C   UNL A   1      31.023  25.738  23.406  1.00  0.00     0.063 A 
ATOM      8  C   UNL A   1      31.666  24.577  22.912  1.00  0.00     0.051 A 
ATOM      9  C   UNL A   1      32.524  24.711  21.791  1.00  0.00     0.027 A 
ATOM     10  C   UNL A   1      32.847  25.949  21.240  1.00  0.00     0.002 A 
ATOM     11  C   UNL A   1      31.367  26.985  22.820  1.00  0.00     0.016 A 
ATOM     12  C   UNL A   1      32.283  27.094  21.771  1.00  0.00     0.001 A 
BRANCH   8  13
ATOM     13  N   UNL A   1      31.581  23.273  23.464  1.00  0.00    -0.355 N 
ATOM     14  H   UNL A   1      30.685  22.940  23.694  1.00  0.00     0.167 HD
BRANCH  13  15
ATOM     15  C   UNL A   1      32.683  22.404  23.713  1.00  0.00     0.039 A 
ATOM     16  C   UNL A   1      33.535  20.107  24.230  1.00  0.00     0.002 A 
ATOM     17  C   UNL A   1      32.528  20.991  23.732  1.00  0.00     0.034 A 
ATOM     18  C   UNL A   1      34.739  20.711  24.585  1.00  0.00     0.127 A 
ATOM     19  C   UNL A   1      34.916  22.080  24.550  1.00  0.00     0.006 A 
ATOM     20  O   UNL A   1      35.861  20.049  25.004  1.00  0.00    -0.492 OA
ATOM     21  C   UNL A   1      33.902  22.927  24.150  1.00  0.00     0.034 A 
ATOM     22  C   UNL A   1      36.288  22.458  24.985  1.00  0.00     0.028 C 
ATOM     23  C   UNL A   1      36.872  21.056  25.228  1.00  0.00     0.240 C 
ATOM     24  C   UNL A   1      37.019  23.194  23.859  1.00  0.00     0.020 C 
ATOM     25  C   UNL A   1      36.275  23.297  26.267  1.00  0.00     0.020 C 
BRANCH  16  26
ATOM     26  C   UNL A   1      33.312  18.584  24.373  1.00  0.00    -0.009 C 
ATOM     27  C   UNL A   1      32.309  18.122  23.304  1.00  0.00     0.016 C 
ATOM     28  C   UNL A   1      32.735  18.223  25.749  1.00  0.00     0.016 C 
ATOM     29  C   UNL A   1      34.597  17.727  24.253  1.00  0.00     0.016 C 
ENDBRANCH  16  26
ENDBRANCH  13  15
ENDBRANCH   8  13
ENDBRANCH   4   7
ENDBRANCH   2   3
ENDBRANCH   1   2
BRANCH   1  30
ATOM     30  C   UNL A   1      33.487  27.298  25.707  1.00  0.00     0.023 C 
BRANCH  30  31
ATOM     31  C   UNL A   1      33.802  28.728  25.272  1.00  0.00     0.116 C 
BRANCH  31  32
ATOM     32  N   UNL A   1      33.013  29.787  25.897  1.00  0.00    -0.352 N 
ATOM     33  C   UNL A   1      33.332  30.705  26.875  1.00  0.00     0.251 C 
ATOM     34  H   UNL A   1      32.091  29.858  25.559  1.00  0.00     0.163 HD
ATOM     35  O   UNL A   1      32.529  31.571  27.219  1.00  0.00    -0.269 OA
BRANCH  33  36
ATOM     36  C   UNL A   1      34.637  30.646  27.542  1.00  0.00     0.039 A 
ATOM     37  C   UNL A   1      35.054  29.437  28.073  1.00  0.00     0.014 A 
ATOM     38  C   UNL A   1      35.456  31.780  27.626  1.00  0.00     0.014 A 
ATOM     39  C   UNL A   1      36.164  29.405  28.890  1.00  0.00     0.010 A 
ATOM     40  C   UNL A   1      36.669  31.705  28.322  1.00  0.00     0.010 A 
ATOM     41  C   UNL A   1      37.011  30.524  28.992  1.00  0.00    -0.014 A 
BRANCH  41  42
ATOM     42  C   UNL A   1      38.270  30.330  29.752  1.00  0.00     0.031 A 
ATOM     43  C   UNL A   1      38.404  30.770  31.176  1.00  0.00     0.074 A 
ATOM     44  C   UNL A   1      39.220  29.568  29.170  1.00  0.00     0.049 A 
ATOM     45  N   UNL A   1      39.316  30.433  32.052  1.00  0.00    -0.248 NA
ATOM     46  C   UNL A   1      37.399  31.711  31.692  1.00  0.00     0.031 C 
ATOM     47  C   UNL A   1      39.176  29.107  27.778  1.00  0.00     0.029 A 
ATOM     48  N   UNL A   1      40.338  28.962  29.682  1.00  0.00    -0.354 N 
ATOM     49  C   UNL A   1      38.997  31.117  33.216  1.00  0.00     0.074 A 
ATOM     50  C   UNL A   1      37.831  31.921  32.929  1.00  0.00     0.031 C 
ATOM     51  C   UNL A   1      40.129  28.187  27.589  1.00  0.00     0.029 A 
ATOM     52  C   UNL A   1      40.910  28.062  28.812  1.00  0.00     0.049 A 
ATOM     53  H   UNL A   1      40.694  29.151  30.580  1.00  0.00     0.167 HD
ATOM     54  C   UNL A   1      39.622  31.059  34.415  1.00  0.00     0.037 A 
ATOM     55  C   UNL A   1      41.945  27.218  28.983  1.00  0.00     0.037 A 
ATOM     56  C   UNL A   1      40.775  30.238  34.680  1.00  0.00     0.049 A 
ATOM     57  C   UNL A   1      42.631  27.195  30.318  1.00  0.00     0.074 A 
ATOM     58  C   UNL A   1      41.478  30.096  35.864  1.00  0.00     0.029 A 
ATOM     59  N   UNL A   1      41.396  29.421  33.745  1.00  0.00    -0.354 N 
ATOM     60  N   UNL A   1      42.301  27.821  31.422  1.00  0.00    -0.248 NA
ATOM     61  C   UNL A   1      43.840  26.372  30.429  1.00  0.00     0.031 C 
ATOM     62  C   UNL A   1      42.554  29.237  35.631  1.00  0.00     0.029 A 
ATOM     63  C   UNL A   1      42.492  28.796  34.319  1.00  0.00     0.049 A 
ATOM     64  H   UNL A   1      41.102  29.302  32.813  1.00  0.00     0.167 HD
ATOM     65  C   UNL A   1      43.257  27.468  32.360  1.00  0.00     0.074 A 
ATOM     66  C   UNL A   1      44.166  26.550  31.703  1.00  0.00     0.031 C 
ATOM     67  C   UNL A   1      43.378  27.879  33.645  1.00  0.00     0.037 A 
BRANCH  54  68
ATOM     68  C   UNL A   1      39.086  31.902  35.536  1.00  0.00     0.064 A 
ATOM     69  C   UNL A   1      38.262  31.361  36.534  1.00  0.00     0.173 A 
ATOM     70  C   UNL A   1      39.468  33.247  35.659  1.00  0.00     0.173 A 
ATOM     71  F   UNL A   1      37.861  30.083  36.460  1.00  0.00    -0.203 F 
ATOM     72  C   UNL A   1      37.831  32.139  37.607  1.00  0.00     0.198 A 
ATOM     73  C   UNL A   1      39.058  34.014  36.748  1.00  0.00     0.198 A 
ATOM     74  F   UNL A   1      40.262  33.812  34.737  1.00  0.00    -0.203 F 
ATOM     75  F   UNL A   1      37.021  31.609  38.533  1.00  0.00    -0.200 F 
ATOM     76  C   UNL A   1      38.238  33.460  37.719  1.00  0.00     0.200 A 
ATOM     77  F   UNL A   1      39.466  35.285  36.862  1.00  0.00    -0.200 F 
ATOM     78  F   UNL A   1      37.837  34.201  38.762  1.00  0.00    -0.200 F 
ENDBRANCH  54  68
BRANCH  55  79
ATOM     79  C   UNL A   1      42.372  26.339  27.864  1.00  0.00     0.064 A 
ATOM     80  C   UNL A   1      41.756  25.101  27.633  1.00  0.00     0.173 A 
ATOM     81  C   UNL A   1      43.375  26.742  26.967  1.00  0.00     0.173 A 
ATOM     82  F   UNL A   1      40.801  24.662  28.467  1.00  0.00    -0.203 F 
ATOM     83  C   UNL A   1      42.126  24.303  26.551  1.00  0.00     0.198 A 
ATOM     84  C   UNL A   1      43.719  25.960  25.866  1.00  0.00     0.198 A 
ATOM     85  F   UNL A   1      43.994  27.919  27.137  1.00  0.00    -0.203 F 
ATOM     86  F   UNL A   1      41.541  23.111  26.369  1.00  0.00    -0.200 F 
ATOM     87  C   UNL A   1      43.098  24.738  25.663  1.00  0.00     0.200 A 
ATOM     88  F   UNL A   1      44.641  26.399  24.999  1.00  0.00    -0.200 F 
ATOM     89  F   UNL A   1      43.438  23.980  24.611  1.00  0.00    -0.200 F 
ENDBRANCH  55  79
BRANCH  67  90
ATOM     90  C   UNL A   1      44.529  27.342  34.440  1.00  0.00     0.064 A 
ATOM     91  C   UNL A   1      45.743  28.038  34.519  1.00  0.00     0.173 A 
ATOM     92  C   UNL A   1      44.374  26.189  35.223  1.00  0.00     0.173 A 
ATOM     93  F   UNL A   1      45.940  29.138  33.776  1.00  0.00    -0.203 F 
ATOM     94  C   UNL A   1      46.762  27.600  35.359  1.00  0.00     0.198 A 
ATOM     95  C   UNL A   1      45.385  25.771  36.083  1.00  0.00     0.198 A 
ATOM     96  F   UNL A   1      43.228  25.494  35.185  1.00  0.00    -0.203 F 
ATOM     97  F   UNL A   1      47.921  28.272  35.408  1.00  0.00    -0.200 F 
ATOM     98  C   UNL A   1      46.576  26.477  36.151  1.00  0.00     0.200 A 
ATOM     99  F   UNL A   1      45.197  24.696  36.861  1.00  0.00    -0.200 F 
ATOM    100  F   UNL A   1      47.546  26.076  36.985  1.00  0.00    -0.200 F 
ENDBRANCH  67  90
ENDBRANCH  41  42
ENDBRANCH  33  36
ENDBRANCH  31  32
ENDBRANCH  30  31
ENDBRANCH   1  30
TORSDOF 14
ENDMDL
MODEL 2
REMARK VINA RESULT:     -13.8      0.348      2.118
REMARK SMILES CC(C)(C)c1cc(Nc2ccccc2C(=O)NCCCCNC(=O)c2ccc(-c3c4nc(c(-c5c(F)c(F)c(F)c(F)c5F)c5ccc([nH]5)c(-c5c(F)c(F)c(F)c(F)c5F)c5nc(c(-c6c(F)c(F)c(F)c(F)c6F)c6ccc3[nH]6)C=C5)C=C4)cc2)cc2c1OCC2(C)C
REMARK SMILES IDX 19 1 18 2 17 3 15 4 16 5 14 7 9 8 10 9 11 10 13 11 12 12
REMARK SMILES IDX 8 13 7 15 5 16 6 17 90 18 89 19 91 20 88 21 93 22 92 23
REMARK SMILES IDX 94 24 95 25 2 26 1 27 3 28 4 29 20 30 21 31 22 32 23 33
REMARK SMILES IDX 24 35 25 36 26 37 87 38 27 39 86 40 28 41 29 42 30 43 80 44
REMARK SMILES IDX 31 45 85 46 79 47 81 48 32 49 84 50 78 51 77 52 33 54 65 55
REMARK SMILES IDX 45 56 64 57 46 58 49 59 63 60 82 61 47 62 48 63 62 65 83 66
REMARK SMILES IDX 50 67 34 68 35 69 43 70 36 71 37 72 41 73 44 74 38 75 39 76
REMARK SMILES IDX 42 77 40 78 66 79 67 80 75 81 68 82 69 83 73 84 76 85 70 86
REMARK SMILES IDX 71 87 74 88 72 89 51 90 52 91 60 92 53 93 54 94 58 95 61 96
REMARK SMILES IDX 55 97 56 98 59 99 57 100
REMARK H PARENT 17 6 8 14 22 34 81 53 49 64
REMARK Flexibility Score: inf
ROOT
ATOM      1  C   UNL A   1      32.441  27.192  26.650  1.00  0.00     0.023 C 
ENDROOT
BRANCH   1   2
ATOM      2  C   UNL A   1      31.458  26.050  26.501  1.00  0.00     0.116 C 
BRANCH   2   3
ATOM      3  N   UNL A   1      30.244  26.281  25.781  1.00  0.00    -0.352 N 
ATOM      4  C   UNL A   1      29.981  25.974  24.467  1.00  0.00     0.253 C 
ATOM      5  O   UNL A   1      28.826  26.179  24.080  1.00  0.00    -0.269 OA
ATOM      6  H   UNL A   1      29.513  26.709  26.284  1.00  0.00     0.163 HD
BRANCH   4   7
ATOM      7  C   UNL A   1      30.997  25.497  23.460  1.00  0.00     0.063 A 
ATOM      8  C   UNL A   1      31.612  24.230  23.303  1.00  0.00     0.051 A 
ATOM      9  C   UNL A   1      32.434  24.019  22.167  1.00  0.00     0.027 A 
ATOM     10  C   UNL A   1      32.750  25.038  21.273  1.00  0.00     0.002 A 
ATOM     11  C   UNL A   1      31.333  26.514  22.528  1.00  0.00     0.016 A 
ATOM     12  C   UNL A   1      32.214  26.298  21.466  1.00  0.00     0.001 A 
BRANCH   8  13
ATOM     13  N   UNL A   1      31.533  23.143  24.211  1.00  0.00    -0.355 N 
ATOM     14  H   UNL A   1      30.688  23.026  24.701  1.00  0.00     0.167 HD
BRANCH  13  15
ATOM     15  C   UNL A   1      32.573  22.204  24.474  1.00  0.00     0.039 A 
ATOM     16  C   UNL A   1      35.020  21.703  24.660  1.00  0.00     0.002 A 
ATOM     17  C   UNL A   1      33.921  22.618  24.656  1.00  0.00     0.034 A 
ATOM     18  C   UNL A   1      34.675  20.355  24.598  1.00  0.00     0.127 A 
ATOM     19  C   UNL A   1      33.369  19.933  24.446  1.00  0.00     0.006 A 
ATOM     20  O   UNL A   1      35.555  19.311  24.673  1.00  0.00    -0.492 OA
ATOM     21  C   UNL A   1      32.327  20.835  24.354  1.00  0.00     0.034 A 
ATOM     22  C   UNL A   1      33.282  18.448  24.401  1.00  0.00     0.028 C 
ATOM     23  C   UNL A   1      34.768  18.102  24.603  1.00  0.00     0.240 C 
ATOM     24  C   UNL A   1      32.414  17.932  25.552  1.00  0.00     0.020 C 
ATOM     25  C   UNL A   1      32.760  17.943  23.054  1.00  0.00     0.020 C 
BRANCH  16  26
ATOM     26  C   UNL A   1      36.492  22.167  24.724  1.00  0.00    -0.009 C 
ATOM     27  C   UNL A   1      36.634  23.236  25.820  1.00  0.00     0.016 C 
ATOM     28  C   UNL A   1      36.948  22.789  23.396  1.00  0.00     0.016 C 
ATOM     29  C   UNL A   1      37.517  21.037  24.996  1.00  0.00     0.016 C 
ENDBRANCH  16  26
ENDBRANCH  13  15
ENDBRANCH   8  13
ENDBRANCH   4   7
ENDBRANCH   2   3
ENDBRANCH   1   2
BRANCH   1  30
ATOM     30  C   UNL A   1      33.361  27.505  25.472  1.00  0.00     0.023 C 
BRANCH  30  31
ATOM     31  C   UNL A   1      33.715  28.965  25.197  1.00  0.00     0.116 C 
BRANCH  31  32
ATOM     32  N   UNL A   1      32.912  29.970  25.890  1.00  0.00    -0.352 N 
ATOM     33  C   UNL A   1      33.227  30.847  26.907  1.00  0.00     0.251 C 
ATOM     34  H   UNL A   1      31.982  30.033  25.574  1.00  0.00     0.163 HD
ATOM     35  O   UNL A   1      32.410  31.673  27.309  1.00  0.00    -0.269 OA
BRANCH  33  36
ATOM     36  C   UNL A   1      34.547  30.789  27.544  1.00  0.00     0.039 A 
ATOM     37  C   UNL A   1      34.993  29.572  28.034  1.00  0.00     0.014 A 
ATOM     38  C   UNL A   1      35.351  31.933  27.643  1.00  0.00     0.014 A 
ATOM     39  C   UNL A   1      36.120  29.536  28.827  1.00  0.00     0.010 A 
ATOM     40  C   UNL A   1      36.579  31.857  28.310  1.00  0.00     0.010 A 
ATOM     41  C   UNL A   1      36.952  30.664  28.941  1.00  0.00    -0.014 A 
BRANCH  41  42
ATOM     42  C   UNL A   1      38.230  30.468  29.669  1.00  0.00     0.031 A 
ATOM     43  C   UNL A   1      38.397  30.902  31.092  1.00  0.00     0.074 A 
ATOM     44  C   UNL A   1      39.167  29.711  29.060  1.00  0.00     0.049 A 
ATOM     45  N   UNL A   1      39.331  30.562  31.944  1.00  0.00    -0.248 NA
ATOM     46  C   UNL A   1      37.403  31.838  31.637  1.00  0.00     0.031 C 
ATOM     47  C   UNL A   1      39.090  29.258  27.668  1.00  0.00     0.029 A 
ATOM     48  N   UNL A   1      40.298  29.105  29.542  1.00  0.00    -0.354 N 
ATOM     49  C   UNL A   1      39.040  31.239  33.119  1.00  0.00     0.074 A 
ATOM     50  C   UNL A   1      37.865  32.043  32.864  1.00  0.00     0.031 C 
ATOM     51  C   UNL A   1      40.040  28.340  27.451  1.00  0.00     0.029 A 
ATOM     52  C   UNL A   1      40.851  28.211  28.654  1.00  0.00     0.049 A 
ATOM     53  H   UNL A   1      40.675  29.290  30.432  1.00  0.00     0.167 HD
ATOM     54  C   UNL A   1      39.694  31.176  34.302  1.00  0.00     0.037 A 
ATOM     55  C   UNL A   1      41.891  27.368  28.796  1.00  0.00     0.037 A 
ATOM     56  C   UNL A   1      40.854  30.356  34.535  1.00  0.00     0.049 A 
ATOM     57  C   UNL A   1      42.609  27.339  30.112  1.00  0.00     0.074 A 
ATOM     58  C   UNL A   1      41.585  30.209  35.700  1.00  0.00     0.029 A 
ATOM     59  N   UNL A   1      41.454  29.545  33.581  1.00  0.00    -0.354 N 
ATOM     60  N   UNL A   1      42.305  27.959  31.227  1.00  0.00    -0.248 NA
ATOM     61  C   UNL A   1      43.822  26.518  30.190  1.00  0.00     0.031 C 
ATOM     62  C   UNL A   1      42.657  29.353  35.436  1.00  0.00     0.029 A 
ATOM     63  C   UNL A   1      42.564  28.919  34.124  1.00  0.00     0.049 A 
ATOM     64  H   UNL A   1      41.137  29.431  32.655  1.00  0.00     0.167 HD
ATOM     65  C   UNL A   1      43.284  27.603  32.140  1.00  0.00     0.074 A 
ATOM     66  C   UNL A   1      44.179  26.690  31.457  1.00  0.00     0.031 C 
ATOM     67  C   UNL A   1      43.435  28.007  33.424  1.00  0.00     0.037 A 
BRANCH  54  68
ATOM     68  C   UNL A   1      39.183  32.013  35.440  1.00  0.00     0.064 A 
ATOM     69  C   UNL A   1      38.381  31.466  36.452  1.00  0.00     0.173 A 
ATOM     70  C   UNL A   1      39.569  33.356  35.564  1.00  0.00     0.173 A 
ATOM     71  F   UNL A   1      37.976  30.189  36.378  1.00  0.00    -0.203 F 
ATOM     72  C   UNL A   1      37.974  32.237  37.540  1.00  0.00     0.198 A 
ATOM     73  C   UNL A   1      39.185  34.116  36.666  1.00  0.00     0.198 A 
ATOM     74  F   UNL A   1      40.343  33.926  34.628  1.00  0.00    -0.203 F 
ATOM     75  F   UNL A   1      37.184  31.702  38.479  1.00  0.00    -0.200 F 
ATOM     76  C   UNL A   1      38.385  33.557  37.651  1.00  0.00     0.200 A 
ATOM     77  F   UNL A   1      39.596  35.386  36.780  1.00  0.00    -0.200 F 
ATOM     78  F   UNL A   1      38.009  34.291  38.707  1.00  0.00    -0.200 F 
ENDBRANCH  54  68
BRANCH  55  79
ATOM     79  C   UNL A   1      42.292  26.495  27.661  1.00  0.00     0.064 A 
ATOM     80  C   UNL A   1      43.286  26.889  26.755  1.00  0.00     0.173 A 
ATOM     81  C   UNL A   1      41.724  25.223  27.489  1.00  0.00     0.173 A 
ATOM     82  F   UNL A   1      43.852  28.100  26.865  1.00  0.00    -0.203 F 
ATOM     83  C   UNL A   1      43.694  26.045  25.722  1.00  0.00     0.198 A 
ATOM     84  C   UNL A   1      42.157  24.366  26.479  1.00  0.00     0.198 A 
ATOM     85  F   UNL A   1      40.772  24.793  28.331  1.00  0.00    -0.203 F 
ATOM     86  F   UNL A   1      44.626  26.457  24.852  1.00  0.00    -0.200 F 
ATOM     87  C   UNL A   1      43.138  24.781  25.592  1.00  0.00     0.200 A 
ATOM     88  F   UNL A   1      41.633  23.138  26.376  1.00  0.00    -0.200 F 
ATOM     89  F   UNL A   1      43.547  23.963  24.613  1.00  0.00    -0.200 F 
ENDBRANCH  55  79
BRANCH  67  90
ATOM     90  C   UNL A   1      44.606  27.469  34.188  1.00  0.00     0.064 A 
ATOM     91  C   UNL A   1      45.807  28.187  34.275  1.00  0.00     0.173 A 
ATOM     92  C   UNL A   1      44.484  26.289  34.935  1.00  0.00     0.173 A 
ATOM     93  F   UNL A   1      45.974  29.314  33.566  1.00  0.00    -0.203 F 
ATOM     94  C   UNL A   1      46.845  27.743  35.089  1.00  0.00     0.198 A 
ATOM     95  C   UNL A   1      45.513  25.863  35.770  1.00  0.00     0.198 A 
ATOM     96  F   UNL A   1      43.351  25.572  34.888  1.00  0.00    -0.203 F 
ATOM     97  F   UNL A   1      47.991  28.436  35.147  1.00  0.00    -0.200 F 
ATOM     98  C   UNL A   1      46.691  26.591  35.847  1.00  0.00     0.200 A 
ATOM     99  F   UNL A   1      45.356  24.761  36.515  1.00  0.00    -0.200 F 
ATOM    100  F   UNL A   1      47.679  26.184  36.656  1.00  0.00    -0.200 F 
ENDBRANCH  67  90
ENDBRANCH  41  42
ENDBRANCH  33  36
ENDBRANCH  31  32
ENDBRANCH  30  31
ENDBRANCH   1  30
TORSDOF 14
ENDMDL
MODEL 3
REMARK VINA RESULT:     -12.8      5.192      9.481
REMARK SMILES CC(C)(C)c1cc(Nc2ccccc2C(=O)NCCCCNC(=O)c2ccc(-c3c4nc(c(-c5c(F)c(F)c(F)c(F)c5F)c5ccc([nH]5)c(-c5c(F)c(F)c(F)c(F)c5F)c5nc(c(-c6c(F)c(F)c(F)c(F)c6F)c6ccc3[nH]6)C=C5)C=C4)cc2)cc2c1OCC2(C)C
REMARK SMILES IDX 19 1 18 2 17 3 15 4 16 5 14 7 9 8 10 9 11 10 13 11 12 12
REMARK SMILES IDX 8 13 7 15 5 16 6 17 90 18 89 19 91 20 88 21 93 22 92 23
REMARK SMILES IDX 94 24 95 25 2 26 1 27 3 28 4 29 20 30 21 31 22 32 23 33
REMARK SMILES IDX 24 35 25 36 26 37 87 38 27 39 86 40 28 41 29 42 30 43 80 44
REMARK SMILES IDX 31 45 85 46 79 47 81 48 32 49 84 50 78 51 77 52 33 54 65 55
REMARK SMILES IDX 45 56 64 57 46 58 49 59 63 60 82 61 47 62 48 63 62 65 83 66
REMARK SMILES IDX 50 67 34 68 35 69 43 70 36 71 37 72 41 73 44 74 38 75 39 76
REMARK SMILES IDX 42 77 40 78 66 79 67 80 75 81 68 82 69 83 73 84 76 85 70 86
REMARK SMILES IDX 71 87 74 88 72 89 51 90 52 91 60 92 53 93 54 94 58 95 61 96
REMARK SMILES IDX 55 97 56 98 59 99 57 100
REMARK H PARENT 17 6 8 14 22 34 81 53 49 64
REMARK Flexibility Score: inf
ROOT
ATOM      1  C   UNL A   1      42.088  21.236  27.439  1.00  0.00     0.023 C 
ENDROOT
BRANCH   1   2
ATOM      2  C   UNL A   1      40.642  21.642  27.633  1.00  0.00     0.116 C 
BRANCH   2   3
ATOM      3  N   UNL A   1      40.223  22.928  27.167  1.00  0.00    -0.352 N 
ATOM      4  C   UNL A   1      39.053  23.240  26.516  1.00  0.00     0.253 C 
ATOM      5  O   UNL A   1      38.859  24.438  26.290  1.00  0.00    -0.269 OA
ATOM      6  H   UNL A   1      40.844  23.675  27.332  1.00  0.00     0.163 HD
BRANCH   4   7
ATOM      7  C   UNL A   1      38.051  22.243  25.992  1.00  0.00     0.063 A 
ATOM      8  C   UNL A   1      36.646  22.345  25.839  1.00  0.00     0.051 A 
ATOM      9  C   UNL A   1      35.965  21.291  25.178  1.00  0.00     0.027 A 
ATOM     10  C   UNL A   1      36.604  20.118  24.785  1.00  0.00     0.002 A 
ATOM     11  C   UNL A   1      38.675  21.038  25.575  1.00  0.00     0.016 A 
ATOM     12  C   UNL A   1      37.962  19.981  25.004  1.00  0.00     0.001 A 
BRANCH   8  13
ATOM     13  N   UNL A   1      35.822  23.388  26.334  1.00  0.00    -0.355 N 
ATOM     14  H   UNL A   1      35.861  23.570  27.300  1.00  0.00     0.167 HD
BRANCH  13  15
ATOM     15  C   UNL A   1      34.944  24.194  25.554  1.00  0.00     0.039 A 
ATOM     16  C   UNL A   1      33.634  26.313  25.292  1.00  0.00     0.002 A 
ATOM     17  C   UNL A   1      34.693  25.555  25.882  1.00  0.00     0.034 A 
ATOM     18  C   UNL A   1      32.933  25.669  24.275  1.00  0.00     0.127 A 
ATOM     19  C   UNL A   1      33.179  24.356  23.926  1.00  0.00     0.006 A 
ATOM     20  O   UNL A   1      31.942  26.233  23.520  1.00  0.00    -0.492 OA
ATOM     21  C   UNL A   1      34.147  23.610  24.568  1.00  0.00     0.034 A 
ATOM     22  C   UNL A   1      32.287  23.915  22.820  1.00  0.00     0.028 C 
ATOM     23  C   UNL A   1      31.523  25.228  22.572  1.00  0.00     0.240 C 
ATOM     24  C   UNL A   1      33.117  23.498  21.602  1.00  0.00     0.020 C 
ATOM     25  C   UNL A   1      31.348  22.786  23.253  1.00  0.00     0.020 C 
BRANCH  16  26
ATOM     26  C   UNL A   1      33.280  27.747  25.747  1.00  0.00    -0.009 C 
ATOM     27  C   UNL A   1      34.311  28.211  26.789  1.00  0.00     0.016 C 
ATOM     28  C   UNL A   1      31.891  27.809  26.397  1.00  0.00     0.016 C 
ATOM     29  C   UNL A   1      33.223  28.793  24.605  1.00  0.00     0.016 C 
ENDBRANCH  16  26
ENDBRANCH  13  15
ENDBRANCH   8  13
ENDBRANCH   4   7
ENDBRANCH   2   3
ENDBRANCH   1   2
BRANCH   1  30
ATOM     30  C   UNL A   1      42.386  19.769  27.140  1.00  0.00     0.023 C 
BRANCH  30  31
ATOM     31  C   UNL A   1      42.341  19.303  25.686  1.00  0.00     0.116 C 
BRANCH  31  32
ATOM     32  N   UNL A   1      43.584  18.768  25.136  1.00  0.00    -0.352 N 
ATOM     33  C   UNL A   1      44.779  19.378  24.818  1.00  0.00     0.251 C 
ATOM     34  H   UNL A   1      43.565  17.799  24.962  1.00  0.00     0.163 HD
ATOM     35  O   UNL A   1      45.742  18.723  24.422  1.00  0.00    -0.269 OA
BRANCH  33  36
ATOM     36  C   UNL A   1      44.913  20.835  24.927  1.00  0.00     0.039 A 
ATOM     37  C   UNL A   1      45.479  21.363  26.076  1.00  0.00     0.014 A 
ATOM     38  C   UNL A   1      44.495  21.678  23.888  1.00  0.00     0.014 A 
ATOM     39  C   UNL A   1      45.413  22.722  26.297  1.00  0.00     0.010 A 
ATOM     40  C   UNL A   1      44.580  23.066  24.049  1.00  0.00     0.010 A 
ATOM     41  C   UNL A   1      45.004  23.596  25.273  1.00  0.00    -0.014 A 
BRANCH  41  42
ATOM     42  C   UNL A   1      45.140  25.047  25.553  1.00  0.00     0.031 A 
ATOM     43  C   UNL A   1      44.049  25.822  26.224  1.00  0.00     0.074 A 
ATOM     44  C   UNL A   1      46.359  25.593  25.355  1.00  0.00     0.049 A 
ATOM     45  N   UNL A   1      44.114  27.005  26.781  1.00  0.00    -0.248 NA
ATOM     46  C   UNL A   1      42.714  25.209  26.276  1.00  0.00     0.031 C 
ATOM     47  C   UNL A   1      47.475  24.911  24.693  1.00  0.00     0.029 A 
ATOM     48  N   UNL A   1      46.898  26.782  25.770  1.00  0.00    -0.354 N 
ATOM     49  C   UNL A   1      42.836  27.276  27.247  1.00  0.00     0.074 A 
ATOM     50  C   UNL A   1      42.003  26.154  26.875  1.00  0.00     0.031 C 
ATOM     51  C   UNL A   1      48.594  25.624  24.872  1.00  0.00     0.029 A 
ATOM     52  C   UNL A   1      48.258  26.855  25.574  1.00  0.00     0.049 A 
ATOM     53  H   UNL A   1      46.368  27.509  26.169  1.00  0.00     0.167 HD
ATOM     54  C   UNL A   1      42.412  28.361  27.937  1.00  0.00     0.037 A 
ATOM     55  C   UNL A   1      49.144  27.805  25.930  1.00  0.00     0.037 A 
ATOM     56  C   UNL A   1      43.266  29.459  28.308  1.00  0.00     0.049 A 
ATOM     57  C   UNL A   1      48.637  29.006  26.673  1.00  0.00     0.074 A 
ATOM     58  C   UNL A   1      42.940  30.601  29.018  1.00  0.00     0.029 A 
ATOM     59  N   UNL A   1      44.616  29.551  27.998  1.00  0.00    -0.354 N 
ATOM     60  N   UNL A   1      47.433  29.237  27.139  1.00  0.00    -0.248 NA
ATOM     61  C   UNL A   1      49.598  30.087  26.922  1.00  0.00     0.031 C 
ATOM     62  C   UNL A   1      44.077  31.409  29.089  1.00  0.00     0.029 A 
ATOM     63  C   UNL A   1      45.128  30.746  28.475  1.00  0.00     0.049 A 
ATOM     64  H   UNL A   1      45.133  28.869  27.511  1.00  0.00     0.167 HD
ATOM     65  C   UNL A   1      47.489  30.485  27.737  1.00  0.00     0.074 A 
ATOM     66  C   UNL A   1      48.854  30.952  27.600  1.00  0.00     0.031 C 
ATOM     67  C   UNL A   1      46.495  31.186  28.333  1.00  0.00     0.037 A 
BRANCH  54  68
ATOM     68  C   UNL A   1      40.966  28.427  28.334  1.00  0.00     0.064 A 
ATOM     69  C   UNL A   1      40.532  28.012  29.602  1.00  0.00     0.173 A 
ATOM     70  C   UNL A   1      40.015  28.990  27.468  1.00  0.00     0.173 A 
ATOM     71  F   UNL A   1      41.398  27.460  30.465  1.00  0.00    -0.203 F 
ATOM     72  C   UNL A   1      39.198  28.148  29.983  1.00  0.00     0.198 A 
ATOM     73  C   UNL A   1      38.689  29.149  27.862  1.00  0.00     0.198 A 
ATOM     74  F   UNL A   1      40.378  29.410  26.247  1.00  0.00    -0.203 F 
ATOM     75  F   UNL A   1      38.801  27.717  31.188  1.00  0.00    -0.200 F 
ATOM     76  C   UNL A   1      38.281  28.725  29.118  1.00  0.00     0.200 A 
ATOM     77  F   UNL A   1      37.807  29.722  27.031  1.00  0.00    -0.200 F 
ATOM     78  F   UNL A   1      37.002  28.871  29.494  1.00  0.00    -0.200 F 
ENDBRANCH  54  68
BRANCH  55  79
ATOM     79  C   UNL A   1      50.581  27.638  25.589  1.00  0.00     0.064 A 
ATOM     80  C   UNL A   1      51.506  27.174  26.535  1.00  0.00     0.173 A 
ATOM     81  C   UNL A   1      51.052  27.892  24.291  1.00  0.00     0.173 A 
ATOM     82  F   UNL A   1      51.111  26.930  27.794  1.00  0.00    -0.203 F 
ATOM     83  C   UNL A   1      52.843  26.973  26.195  1.00  0.00     0.198 A 
ATOM     84  C   UNL A   1      52.380  27.657  23.943  1.00  0.00     0.198 A 
ATOM     85  F   UNL A   1      50.209  28.332  23.345  1.00  0.00    -0.203 F 
ATOM     86  F   UNL A   1      53.712  26.555  27.126  1.00  0.00    -0.200 F 
ATOM     87  C   UNL A   1      53.276  27.202  24.898  1.00  0.00     0.200 A 
ATOM     88  F   UNL A   1      52.785  27.856  22.682  1.00  0.00    -0.200 F 
ATOM     89  F   UNL A   1      54.557  26.986  24.567  1.00  0.00    -0.200 F 
ENDBRANCH  55  79
BRANCH  67  90
ATOM     90  C   UNL A   1      46.835  32.534  28.891  1.00  0.00     0.064 A 
ATOM     91  C   UNL A   1      47.344  32.675  30.190  1.00  0.00     0.173 A 
ATOM     92  C   UNL A   1      46.765  33.676  28.080  1.00  0.00     0.173 A 
ATOM     93  F   UNL A   1      47.415  31.612  31.006  1.00  0.00    -0.203 F 
ATOM     94  C   UNL A   1      47.776  33.913  30.656  1.00  0.00     0.198 A 
ATOM     95  C   UNL A   1      47.224  34.906  28.539  1.00  0.00     0.198 A 
ATOM     96  F   UNL A   1      46.290  33.588  26.828  1.00  0.00    -0.203 F 
ATOM     97  F   UNL A   1      48.245  34.028  31.905  1.00  0.00    -0.200 F 
ATOM     98  C   UNL A   1      47.730  35.023  29.825  1.00  0.00     0.200 A 
ATOM     99  F   UNL A   1      47.196  35.974  27.730  1.00  0.00    -0.200 F 
ATOM    100  F   UNL A   1      48.178  36.207  30.264  1.00  0.00    -0.200 F 
ENDBRANCH  67  90
ENDBRANCH  41  42
ENDBRANCH  33  36
ENDBRANCH  31  32
ENDBRANCH  30  31
ENDBRANCH   1  30
TORSDOF 14
ENDMDL
