MODEL 1
REMARK VINA RESULT:     -11.5      0.000      0.000
REMARK SMILES O=C(NCCCCNC(=O)[C@@H]1CCCCN1c1ccccc1[N+](=O)[O-])c1ccc(-c2c3nc(c(-c4c(F)c(F)c(F)c(F)c4F)c4ccc([nH]4)c(-c4c(F)c(F)c(F)c(F)c4F)c4nc(c(-c5c(F)c(F)c(F)c(F)c5F)c5ccc2[nH]5)C=C4)C=C3)cc1
REMARK SMILES IDX 5 1 4 2 3 3 1 4 2 5 26 7 27 8 88 9 28 10 87 11 29 12 30 13
REMARK SMILES IDX 31 14 81 15 32 16 86 17 80 18 82 19 33 20 85 21 79 22 78 23
REMARK SMILES IDX 34 25 66 26 46 27 65 28 47 29 50 30 64 31 83 32 48 33 49 34
REMARK SMILES IDX 63 36 84 37 51 38 35 39 36 40 44 41 37 42 38 43 42 44 45 45
REMARK SMILES IDX 39 46 40 47 43 48 41 49 67 50 68 51 76 52 69 53 70 54 74 55
REMARK SMILES IDX 77 56 71 57 72 58 75 59 73 60 52 61 53 62 61 63 54 64 55 65
REMARK SMILES IDX 59 66 62 67 56 68 57 69 60 70 58 71 6 72 7 73 8 74 9 75
REMARK SMILES IDX 10 77 11 78 12 79 16 80 13 81 15 82 14 83 17 84 18 85 22 86
REMARK SMILES IDX 19 87 21 88 20 89 23 90 24 91 25 92
REMARK H PARENT 3 6 82 24 50 35 8 76
REMARK Flexibility Score: inf
ROOT
ATOM      1  C   UNL A   1      31.531  32.048  26.876  1.00  0.00     0.023 C 
ENDROOT
BRANCH   1   2
ATOM      2  C   UNL A   1      32.782  32.904  27.035  1.00  0.00     0.116 C 
BRANCH   2   3
ATOM      3  N   UNL A   1      32.506  34.203  27.627  1.00  0.00    -0.352 N 
ATOM      4  O   UNL A   1      32.648  35.843  29.173  1.00  0.00    -0.269 OA
ATOM      5  C   UNL A   1      33.094  34.794  28.718  1.00  0.00     0.251 C 
ATOM      6  H   UNL A   1      31.801  34.731  27.185  1.00  0.00     0.163 HD
BRANCH   5   7
ATOM      7  C   UNL A   1      34.254  34.144  29.363  1.00  0.00     0.039 A 
ATOM      8  C   UNL A   1      35.558  34.521  29.034  1.00  0.00     0.014 A 
ATOM      9  C   UNL A   1      34.028  33.146  30.315  1.00  0.00     0.014 A 
ATOM     10  C   UNL A   1      36.634  33.815  29.560  1.00  0.00     0.010 A 
ATOM     11  C   UNL A   1      35.113  32.487  30.899  1.00  0.00     0.010 A 
ATOM     12  C   UNL A   1      36.423  32.799  30.507  1.00  0.00    -0.014 A 
BRANCH  12  13
ATOM     13  C   UNL A   1      37.592  32.121  31.118  1.00  0.00     0.031 A 
ATOM     14  C   UNL A   1      38.048  32.457  32.509  1.00  0.00     0.074 A 
ATOM     15  C   UNL A   1      38.234  31.177  30.403  1.00  0.00     0.049 A 
ATOM     16  N   UNL A   1      39.042  31.951  33.194  1.00  0.00    -0.248 NA
ATOM     17  C   UNL A   1      37.296  33.500  33.222  1.00  0.00     0.031 C 
ATOM     18  C   UNL A   1      37.891  30.783  29.036  1.00  0.00     0.029 A 
ATOM     19  N   UNL A   1      39.297  30.374  30.725  1.00  0.00    -0.354 N 
ATOM     20  C   UNL A   1      39.048  32.624  34.409  1.00  0.00     0.074 A 
ATOM     21  C   UNL A   1      37.972  33.591  34.360  1.00  0.00     0.031 C 
ATOM     22  C   UNL A   1      38.702  29.788  28.649  1.00  0.00     0.029 A 
ATOM     23  C   UNL A   1      39.655  29.513  29.717  1.00  0.00     0.049 A 
ATOM     24  H   UNL A   1      39.758  30.411  31.593  1.00  0.00     0.167 HD
ATOM     25  C   UNL A   1      39.874  32.443  35.469  1.00  0.00     0.037 A 
ATOM     26  C   UNL A   1      40.652  28.612  29.654  1.00  0.00     0.037 A 
ATOM     27  C   UNL A   1      40.932  31.465  35.516  1.00  0.00     0.049 A 
ATOM     28  C   UNL A   1      41.558  28.440  30.838  1.00  0.00     0.074 A 
ATOM     29  C   UNL A   1      41.791  31.173  36.561  1.00  0.00     0.029 A 
ATOM     30  N   UNL A   1      41.278  30.624  34.469  1.00  0.00    -0.354 N 
ATOM     31  N   UNL A   1      41.526  29.054  31.997  1.00  0.00    -0.248 NA
ATOM     32  C   UNL A   1      42.637  27.454  30.707  1.00  0.00     0.031 C 
ATOM     33  C   UNL A   1      42.685  30.186  36.132  1.00  0.00     0.029 A 
ATOM     34  C   UNL A   1      42.354  29.829  34.835  1.00  0.00     0.049 A 
ATOM     35  H   UNL A   1      40.826  30.594  33.594  1.00  0.00     0.167 HD
ATOM     36  C   UNL A   1      42.572  28.522  32.736  1.00  0.00     0.074 A 
ATOM     37  C   UNL A   1      43.205  27.519  31.904  1.00  0.00     0.031 C 
ATOM     38  C   UNL A   1      42.974  28.840  33.991  1.00  0.00     0.037 A 
BRANCH  25  39
ATOM     39  C   UNL A   1      39.680  33.330  36.663  1.00  0.00     0.064 A 
ATOM     40  C   UNL A   1      40.344  34.559  36.785  1.00  0.00     0.173 A 
ATOM     41  C   UNL A   1      38.776  32.969  37.675  1.00  0.00     0.173 A 
ATOM     42  F   UNL A   1      41.225  34.946  35.850  1.00  0.00    -0.203 F 
ATOM     43  C   UNL A   1      40.126  35.385  37.886  1.00  0.00     0.198 A 
ATOM     44  C   UNL A   1      38.542  33.810  38.761  1.00  0.00     0.198 A 
ATOM     45  F   UNL A   1      38.110  31.808  37.604  1.00  0.00    -0.203 F 
ATOM     46  F   UNL A   1      40.800  36.539  38.000  1.00  0.00    -0.200 F 
ATOM     47  C   UNL A   1      39.221  35.013  38.869  1.00  0.00     0.200 A 
ATOM     48  F   UNL A   1      37.659  33.454  39.703  1.00  0.00    -0.200 F 
ATOM     49  F   UNL A   1      39.007  35.813  39.922  1.00  0.00    -0.200 F 
ENDBRANCH  25  39
BRANCH  26  50
ATOM     50  C   UNL A   1      40.836  27.810  28.418  1.00  0.00     0.064 A 
ATOM     51  C   UNL A   1      41.649  28.270  27.375  1.00  0.00     0.173 A 
ATOM     52  C   UNL A   1      40.224  26.557  28.269  1.00  0.00     0.173 A 
ATOM     53  F   UNL A   1      42.240  29.471  27.465  1.00  0.00    -0.203 F 
ATOM     54  C   UNL A   1      41.836  27.510  26.223  1.00  0.00     0.198 A 
ATOM     55  C   UNL A   1      40.435  25.786  27.129  1.00  0.00     0.198 A 
ATOM     56  F   UNL A   1      39.441  26.072  29.244  1.00  0.00    -0.203 F 
ATOM     57  F   UNL A   1      42.592  27.986  25.224  1.00  0.00    -0.200 F 
ATOM     58  C   UNL A   1      41.235  26.265  26.104  1.00  0.00     0.200 A 
ATOM     59  F   UNL A   1      39.865  24.577  27.026  1.00  0.00    -0.200 F 
ATOM     60  F   UNL A   1      41.425  25.529  25.000  1.00  0.00    -0.200 F 
ENDBRANCH  26  50
BRANCH  38  61
ATOM     61  C   UNL A   1      44.145  28.080  34.542  1.00  0.00     0.064 A 
ATOM     62  C   UNL A   1      45.455  28.566  34.419  1.00  0.00     0.173 A 
ATOM     63  C   UNL A   1      43.951  26.868  35.219  1.00  0.00     0.173 A 
ATOM     64  F   UNL A   1      45.691  29.712  33.763  1.00  0.00    -0.203 F 
ATOM     65  C   UNL A   1      46.533  27.851  34.934  1.00  0.00     0.198 A 
ATOM     66  C   UNL A   1      45.028  26.169  35.756  1.00  0.00     0.198 A 
ATOM     67  F   UNL A   1      42.717  26.364  35.366  1.00  0.00    -0.203 F 
ATOM     68  F   UNL A   1      47.780  28.309  34.763  1.00  0.00    -0.200 F 
ATOM     69  C   UNL A   1      46.318  26.656  35.607  1.00  0.00     0.200 A 
ATOM     70  F   UNL A   1      44.819  25.020  36.414  1.00  0.00    -0.200 F 
ATOM     71  F   UNL A   1      47.357  25.971  36.103  1.00  0.00    -0.200 F 
ENDBRANCH  38  61
ENDBRANCH  12  13
ENDBRANCH   5   7
ENDBRANCH   2   3
ENDBRANCH   1   2
BRANCH   1  72
ATOM     72  C   UNL A   1      31.776  30.534  26.877  1.00  0.00     0.023 C 
BRANCH  72  73
ATOM     73  C   UNL A   1      33.255  30.134  26.835  1.00  0.00     0.116 C 
BRANCH  73  74
ATOM     74  N   UNL A   1      33.643  29.774  25.484  1.00  0.00    -0.354 N 
ATOM     75  C   UNL A   1      33.767  28.533  24.922  1.00  0.00     0.242 C 
ATOM     76  H   UNL A   1      33.848  30.530  24.888  1.00  0.00     0.163 HD
ATOM     77  O   UNL A   1      34.426  28.452  23.881  1.00  0.00    -0.273 OA
BRANCH  75  78
ATOM     78  C   UNL A   1      33.085  27.315  25.582  1.00  0.00     0.171 C 
ATOM     79  C   UNL A   1      33.919  26.047  25.376  1.00  0.00     0.035 C 
ATOM     80  N   UNL A   1      31.696  27.048  25.131  1.00  0.00    -0.354 N 
ATOM     81  C   UNL A   1      33.281  24.877  26.128  1.00  0.00     0.004 C 
ATOM     82  C   UNL A   1      30.999  25.950  25.801  1.00  0.00     0.117 C 
ATOM     83  C   UNL A   1      31.830  24.669  25.693  1.00  0.00     0.022 C 
BRANCH  80  84
ATOM     84  C   UNL A   1      31.060  27.756  24.130  1.00  0.00     0.116 A 
ATOM     85  C   UNL A   1      30.277  28.874  24.469  1.00  0.00     0.033 A 
ATOM     86  C   UNL A   1      31.162  27.472  22.756  1.00  0.00     0.292 A 
ATOM     87  C   UNL A   1      29.619  29.645  23.501  1.00  0.00     0.003 A 
ATOM     88  C   UNL A   1      30.521  28.245  21.770  1.00  0.00     0.088 A 
ATOM     89  C   UNL A   1      29.743  29.334  22.151  1.00  0.00     0.007 A 
BRANCH  86  90
ATOM     90  N   UNL A   1      31.917  26.320  22.291  1.00  0.00     0.064 N 
ATOM     91  O   UNL A   1      33.032  26.544  21.795  1.00  0.00    -0.258 OA
ATOM     92  O   UNL A   1      31.390  25.200  22.375  1.00  0.00    -0.258 OA
ENDBRANCH  86  90
ENDBRANCH  80  84
ENDBRANCH  75  78
ENDBRANCH  73  74
ENDBRANCH  72  73
ENDBRANCH   1  72
TORSDOF 13
ENDMDL
MODEL 2
REMARK VINA RESULT:     -11.4      3.991      8.819
REMARK SMILES O=C(NCCCCNC(=O)[C@@H]1CCCCN1c1ccccc1[N+](=O)[O-])c1ccc(-c2c3nc(c(-c4c(F)c(F)c(F)c(F)c4F)c4ccc([nH]4)c(-c4c(F)c(F)c(F)c(F)c4F)c4nc(c(-c5c(F)c(F)c(F)c(F)c5F)c5ccc2[nH]5)C=C4)C=C3)cc1
REMARK SMILES IDX 5 1 4 2 3 3 1 4 2 5 26 7 27 8 88 9 28 10 87 11 29 12 30 13
REMARK SMILES IDX 31 14 81 15 32 16 86 17 80 18 82 19 33 20 85 21 79 22 78 23
REMARK SMILES IDX 34 25 66 26 46 27 65 28 47 29 50 30 64 31 83 32 48 33 49 34
REMARK SMILES IDX 63 36 84 37 51 38 35 39 36 40 44 41 37 42 38 43 42 44 45 45
REMARK SMILES IDX 39 46 40 47 43 48 41 49 67 50 68 51 76 52 69 53 70 54 74 55
REMARK SMILES IDX 77 56 71 57 72 58 75 59 73 60 52 61 53 62 61 63 54 64 55 65
REMARK SMILES IDX 59 66 62 67 56 68 57 69 60 70 58 71 6 72 7 73 8 74 9 75
REMARK SMILES IDX 10 77 11 78 12 79 16 80 13 81 15 82 14 83 17 84 18 85 22 86
REMARK SMILES IDX 19 87 21 88 20 89 23 90 24 91 25 92
REMARK H PARENT 3 6 82 24 50 35 8 76
REMARK Flexibility Score: inf
ROOT
ATOM      1  C   UNL A   1      35.488  23.503  24.829  1.00  0.00     0.023 C 
ENDROOT
BRANCH   1   2
ATOM      2  C   UNL A   1      36.637  23.865  25.764  1.00  0.00     0.116 C 
BRANCH   2   3
ATOM      3  N   UNL A   1      37.619  22.800  25.889  1.00  0.00    -0.352 N 
ATOM      4  O   UNL A   1      39.655  21.901  26.270  1.00  0.00    -0.269 OA
ATOM      5  C   UNL A   1      38.908  22.870  26.359  1.00  0.00     0.251 C 
ATOM      6  H   UNL A   1      37.321  21.908  25.597  1.00  0.00     0.163 HD
BRANCH   5   7
ATOM      7  C   UNL A   1      39.403  24.133  26.948  1.00  0.00     0.039 A 
ATOM      8  C   UNL A   1      39.219  24.407  28.305  1.00  0.00     0.014 A 
ATOM      9  C   UNL A   1      40.063  25.051  26.126  1.00  0.00     0.014 A 
ATOM     10  C   UNL A   1      39.582  25.649  28.813  1.00  0.00     0.010 A 
ATOM     11  C   UNL A   1      40.494  26.269  26.656  1.00  0.00     0.010 A 
ATOM     12  C   UNL A   1      40.234  26.588  27.997  1.00  0.00    -0.014 A 
BRANCH  12  13
ATOM     13  C   UNL A   1      40.688  27.871  28.586  1.00  0.00     0.031 A 
ATOM     14  C   UNL A   1      42.133  28.107  28.918  1.00  0.00     0.074 A 
ATOM     15  C   UNL A   1      39.775  28.837  28.805  1.00  0.00     0.049 A 
ATOM     16  N   UNL A   1      42.698  29.174  29.426  1.00  0.00    -0.248 NA
ATOM     17  C   UNL A   1      43.066  27.002  28.652  1.00  0.00     0.031 C 
ATOM     18  C   UNL A   1      38.341  28.712  28.538  1.00  0.00     0.029 A 
ATOM     19  N   UNL A   1      39.915  30.112  29.288  1.00  0.00    -0.354 N 
ATOM     20  C   UNL A   1      44.045  28.864  29.558  1.00  0.00     0.074 A 
ATOM     21  C   UNL A   1      44.212  27.502  29.098  1.00  0.00     0.031 C 
ATOM     22  C   UNL A   1      37.738  29.874  28.826  1.00  0.00     0.029 A 
ATOM     23  C   UNL A   1      38.731  30.805  29.348  1.00  0.00     0.049 A 
ATOM     24  H   UNL A   1      40.778  30.493  29.565  1.00  0.00     0.167 HD
ATOM     25  C   UNL A   1      45.050  29.651  30.016  1.00  0.00     0.037 A 
ATOM     26  C   UNL A   1      38.471  32.050  29.789  1.00  0.00     0.037 A 
ATOM     27  C   UNL A   1      44.878  31.013  30.456  1.00  0.00     0.049 A 
ATOM     28  C   UNL A   1      39.601  32.894  30.301  1.00  0.00     0.074 A 
ATOM     29  C   UNL A   1      45.842  31.906  30.891  1.00  0.00     0.029 A 
ATOM     30  N   UNL A   1      43.662  31.675  30.521  1.00  0.00    -0.354 N 
ATOM     31  N   UNL A   1      40.877  32.604  30.381  1.00  0.00    -0.248 NA
ATOM     32  C   UNL A   1      39.255  34.237  30.783  1.00  0.00     0.031 C 
ATOM     33  C   UNL A   1      45.202  33.095  31.261  1.00  0.00     0.029 A 
ATOM     34  C   UNL A   1      43.846  32.959  31.012  1.00  0.00     0.049 A 
ATOM     35  H   UNL A   1      42.794  31.291  30.256  1.00  0.00     0.167 HD
ATOM     36  C   UNL A   1      41.489  33.729  30.912  1.00  0.00     0.074 A 
ATOM     37  C   UNL A   1      40.448  34.716  31.114  1.00  0.00     0.031 C 
ATOM     38  C   UNL A   1      42.796  33.925  31.211  1.00  0.00     0.037 A 
BRANCH  25  39
ATOM     39  C   UNL A   1      46.426  29.058  30.080  1.00  0.00     0.064 A 
ATOM     40  C   UNL A   1      46.891  28.395  31.226  1.00  0.00     0.173 A 
ATOM     41  C   UNL A   1      47.272  29.105  28.961  1.00  0.00     0.173 A 
ATOM     42  F   UNL A   1      46.125  28.329  32.325  1.00  0.00    -0.203 F 
ATOM     43  C   UNL A   1      48.160  27.821  31.256  1.00  0.00     0.198 A 
ATOM     44  C   UNL A   1      48.531  28.507  28.986  1.00  0.00     0.198 A 
ATOM     45  F   UNL A   1      46.875  29.720  27.838  1.00  0.00    -0.203 F 
ATOM     46  F   UNL A   1      48.598  27.225  32.375  1.00  0.00    -0.200 F 
ATOM     47  C   UNL A   1      48.976  27.871  30.135  1.00  0.00     0.200 A 
ATOM     48  F   UNL A   1      49.312  28.548  27.899  1.00  0.00    -0.200 F 
ATOM     49  F   UNL A   1      50.193  27.311  30.163  1.00  0.00    -0.200 F 
ENDBRANCH  25  39
BRANCH  26  50
ATOM     50  C   UNL A   1      37.076  32.558  29.763  1.00  0.00     0.064 A 
ATOM     51  C   UNL A   1      36.219  32.366  30.854  1.00  0.00     0.173 A 
ATOM     52  C   UNL A   1      36.584  33.268  28.659  1.00  0.00     0.173 A 
ATOM     53  F   UNL A   1      36.640  31.677  31.924  1.00  0.00    -0.203 F 
ATOM     54  C   UNL A   1      34.915  32.859  30.836  1.00  0.00     0.198 A 
ATOM     55  C   UNL A   1      35.291  33.785  28.655  1.00  0.00     0.198 A 
ATOM     56  F   UNL A   1      37.370  33.483  27.594  1.00  0.00    -0.203 F 
ATOM     57  F   UNL A   1      34.103  32.634  31.878  1.00  0.00    -0.200 F 
ATOM     58  C   UNL A   1      34.456  33.574  29.741  1.00  0.00     0.200 A 
ATOM     59  F   UNL A   1      34.857  34.490  27.601  1.00  0.00    -0.200 F 
ATOM     60  F   UNL A   1      33.206  34.059  29.730  1.00  0.00    -0.200 F 
ENDBRANCH  26  50
BRANCH  38  61
ATOM     61  C   UNL A   1      43.172  35.265  31.772  1.00  0.00     0.064 A 
ATOM     62  C   UNL A   1      43.665  36.290  30.950  1.00  0.00     0.173 A 
ATOM     63  C   UNL A   1      43.014  35.533  33.139  1.00  0.00     0.173 A 
ATOM     64  F   UNL A   1      43.850  36.074  29.640  1.00  0.00    -0.203 F 
ATOM     65  C   UNL A   1      44.010  37.528  31.484  1.00  0.00     0.198 A 
ATOM     66  C   UNL A   1      43.334  36.781  33.664  1.00  0.00     0.198 A 
ATOM     67  F   UNL A   1      42.542  34.587  33.964  1.00  0.00    -0.203 F 
ATOM     68  F   UNL A   1      44.524  38.477  30.690  1.00  0.00    -0.200 F 
ATOM     69  C   UNL A   1      43.839  37.775  32.839  1.00  0.00     0.200 A 
ATOM     70  F   UNL A   1      43.160  37.022  34.971  1.00  0.00    -0.200 F 
ATOM     71  F   UNL A   1      44.170  38.969  33.350  1.00  0.00    -0.200 F 
ENDBRANCH  38  61
ENDBRANCH  12  13
ENDBRANCH   5   7
ENDBRANCH   2   3
ENDBRANCH   1   2
BRANCH   1  72
ATOM     72  C   UNL A   1      34.210  23.024  25.528  1.00  0.00     0.023 C 
BRANCH  72  73
ATOM     73  C   UNL A   1      33.604  24.041  26.502  1.00  0.00     0.116 C 
BRANCH  73  74
ATOM     74  N   UNL A   1      32.235  24.343  26.131  1.00  0.00    -0.354 N 
ATOM     75  C   UNL A   1      31.548  25.521  26.245  1.00  0.00     0.242 C 
ATOM     76  H   UNL A   1      31.728  23.594  25.743  1.00  0.00     0.163 HD
ATOM     77  O   UNL A   1      30.316  25.460  26.185  1.00  0.00    -0.273 OA
BRANCH  75  78
ATOM     78  C   UNL A   1      32.316  26.848  26.426  1.00  0.00     0.171 C 
ATOM     79  C   UNL A   1      31.436  27.896  27.113  1.00  0.00     0.035 C 
ATOM     80  N   UNL A   1      32.867  27.434  25.178  1.00  0.00    -0.354 N 
ATOM     81  C   UNL A   1      32.249  29.165  27.379  1.00  0.00     0.004 C 
ATOM     82  C   UNL A   1      33.669  28.648  25.332  1.00  0.00     0.117 C 
ATOM     83  C   UNL A   1      32.861  29.707  26.086  1.00  0.00     0.022 C 
BRANCH  80  84
ATOM     84  C   UNL A   1      32.649  26.911  23.918  1.00  0.00     0.116 A 
ATOM     85  C   UNL A   1      33.601  26.040  23.361  1.00  0.00     0.033 A 
ATOM     86  C   UNL A   1      31.503  27.148  23.137  1.00  0.00     0.292 A 
ATOM     87  C   UNL A   1      33.434  25.462  22.095  1.00  0.00     0.003 A 
ATOM     88  C   UNL A   1      31.311  26.564  21.871  1.00  0.00     0.088 A 
ATOM     89  C   UNL A   1      32.288  25.720  21.351  1.00  0.00     0.007 A 
BRANCH  86  90
ATOM     90  N   UNL A   1      30.467  28.058  23.597  1.00  0.00     0.064 N 
ATOM     91  O   UNL A   1      29.415  27.546  24.012  1.00  0.00    -0.258 OA
ATOM     92  O   UNL A   1      30.675  29.278  23.508  1.00  0.00    -0.258 OA
ENDBRANCH  86  90
ENDBRANCH  80  84
ENDBRANCH  75  78
ENDBRANCH  73  74
ENDBRANCH  72  73
ENDBRANCH   1  72
TORSDOF 13
ENDMDL
MODEL 3
REMARK VINA RESULT:     -11.4      2.149      3.510
REMARK SMILES O=C(NCCCCNC(=O)[C@@H]1CCCCN1c1ccccc1[N+](=O)[O-])c1ccc(-c2c3nc(c(-c4c(F)c(F)c(F)c(F)c4F)c4ccc([nH]4)c(-c4c(F)c(F)c(F)c(F)c4F)c4nc(c(-c5c(F)c(F)c(F)c(F)c5F)c5ccc2[nH]5)C=C4)C=C3)cc1
REMARK SMILES IDX 5 1 4 2 3 3 1 4 2 5 26 7 27 8 88 9 28 10 87 11 29 12 30 13
REMARK SMILES IDX 31 14 81 15 32 16 86 17 80 18 82 19 33 20 85 21 79 22 78 23
REMARK SMILES IDX 34 25 66 26 46 27 65 28 47 29 50 30 64 31 83 32 48 33 49 34
REMARK SMILES IDX 63 36 84 37 51 38 35 39 36 40 44 41 37 42 38 43 42 44 45 45
REMARK SMILES IDX 39 46 40 47 43 48 41 49 67 50 68 51 76 52 69 53 70 54 74 55
REMARK SMILES IDX 77 56 71 57 72 58 75 59 73 60 52 61 53 62 61 63 54 64 55 65
REMARK SMILES IDX 59 66 62 67 56 68 57 69 60 70 58 71 6 72 7 73 8 74 9 75
REMARK SMILES IDX 10 77 11 78 12 79 16 80 13 81 15 82 14 83 17 84 18 85 22 86
REMARK SMILES IDX 19 87 21 88 20 89 23 90 24 91 25 92
REMARK H PARENT 3 6 82 24 50 35 8 76
REMARK Flexibility Score: inf
ROOT
ATOM      1  C   UNL A   1      33.152  28.953  23.985  1.00  0.00     0.023 C 
ENDROOT
BRANCH   1   2
ATOM      2  C   UNL A   1      33.301  29.181  25.484  1.00  0.00     0.116 C 
BRANCH   2   3
ATOM      3  N   UNL A   1      32.790  30.473  25.912  1.00  0.00    -0.352 N 
ATOM      4  O   UNL A   1      32.604  32.282  27.251  1.00  0.00    -0.269 OA
ATOM      5  C   UNL A   1      33.235  31.280  26.931  1.00  0.00     0.251 C 
ATOM      6  H   UNL A   1      32.020  30.816  25.403  1.00  0.00     0.163 HD
BRANCH   5   7
ATOM      7  C   UNL A   1      34.468  30.919  27.662  1.00  0.00     0.039 A 
ATOM      8  C   UNL A   1      34.665  29.617  28.130  1.00  0.00     0.014 A 
ATOM      9  C   UNL A   1      35.441  31.899  27.875  1.00  0.00     0.014 A 
ATOM     10  C   UNL A   1      35.772  29.328  28.918  1.00  0.00     0.010 A 
ATOM     11  C   UNL A   1      36.591  31.587  28.605  1.00  0.00     0.010 A 
ATOM     12  C   UNL A   1      36.753  30.306  29.154  1.00  0.00    -0.014 A 
BRANCH  12  13
ATOM     13  C   UNL A   1      37.967  29.947  29.925  1.00  0.00     0.031 A 
ATOM     14  C   UNL A   1      38.175  30.445  31.326  1.00  0.00     0.074 A 
ATOM     15  C   UNL A   1      38.882  29.144  29.348  1.00  0.00     0.049 A 
ATOM     16  N   UNL A   1      39.173  30.216  32.143  1.00  0.00    -0.248 NA
ATOM     17  C   UNL A   1      37.133  31.319  31.884  1.00  0.00     0.031 C 
ATOM     18  C   UNL A   1      38.793  28.616  27.985  1.00  0.00     0.029 A 
ATOM     19  N   UNL A   1      40.054  28.624  29.832  1.00  0.00    -0.354 N 
ATOM     20  C   UNL A   1      38.890  30.929  33.299  1.00  0.00     0.074 A 
ATOM     21  C   UNL A   1      37.637  31.618  33.074  1.00  0.00     0.031 C 
ATOM     22  C   UNL A   1      39.846  27.819  27.754  1.00  0.00     0.029 A 
ATOM     23  C   UNL A   1      40.708  27.822  28.929  1.00  0.00     0.049 A 
ATOM     24  H   UNL A   1      40.394  28.808  30.736  1.00  0.00     0.167 HD
ATOM     25  C   UNL A   1      39.610  30.994  34.447  1.00  0.00     0.037 A 
ATOM     26  C   UNL A   1      41.883  27.174  29.031  1.00  0.00     0.037 A 
ATOM     27  C   UNL A   1      40.848  30.291  34.670  1.00  0.00     0.049 A 
ATOM     28  C   UNL A   1      42.664  27.273  30.309  1.00  0.00     0.074 A 
ATOM     29  C   UNL A   1      41.626  30.255  35.814  1.00  0.00     0.029 A 
ATOM     30  N   UNL A   1      41.491  29.503  33.726  1.00  0.00    -0.354 N 
ATOM     31  N   UNL A   1      42.364  27.917  31.411  1.00  0.00    -0.248 NA
ATOM     32  C   UNL A   1      43.944  26.557  30.357  1.00  0.00     0.031 C 
ATOM     33  C   UNL A   1      42.762  29.482  35.548  1.00  0.00     0.029 A 
ATOM     34  C   UNL A   1      42.669  28.997  34.254  1.00  0.00     0.049 A 
ATOM     35  H   UNL A   1      41.159  29.329  32.815  1.00  0.00     0.167 HD
ATOM     36  C   UNL A   1      43.411  27.677  32.287  1.00  0.00     0.074 A 
ATOM     37  C   UNL A   1      44.344  26.809  31.597  1.00  0.00     0.031 C 
ATOM     38  C   UNL A   1      43.587  28.139  33.549  1.00  0.00     0.037 A 
BRANCH  25  39
ATOM     39  C   UNL A   1      39.088  31.868  35.549  1.00  0.00     0.064 A 
ATOM     40  C   UNL A   1      38.266  31.361  36.566  1.00  0.00     0.173 A 
ATOM     41  C   UNL A   1      39.459  33.220  35.619  1.00  0.00     0.173 A 
ATOM     42  F   UNL A   1      37.875  30.078  36.541  1.00  0.00    -0.203 F 
ATOM     43  C   UNL A   1      37.817  32.180  37.600  1.00  0.00     0.198 A 
ATOM     44  C   UNL A   1      39.029  34.030  36.668  1.00  0.00     0.198 A 
ATOM     45  F   UNL A   1      40.249  33.753  34.676  1.00  0.00    -0.203 F 
ATOM     46  F   UNL A   1      37.001  31.683  38.541  1.00  0.00    -0.200 F 
ATOM     47  C   UNL A   1      38.204  33.511  37.654  1.00  0.00     0.200 A 
ATOM     48  F   UNL A   1      39.414  35.312  36.724  1.00  0.00    -0.200 F 
ATOM     49  F   UNL A   1      37.778  34.295  38.653  1.00  0.00    -0.200 F 
ENDBRANCH  25  39
BRANCH  26  50
ATOM     50  C   UNL A   1      42.381  26.379  27.881  1.00  0.00     0.064 A 
ATOM     51  C   UNL A   1      43.280  26.930  26.959  1.00  0.00     0.173 A 
ATOM     52  C   UNL A   1      41.989  25.044  27.697  1.00  0.00     0.173 A 
ATOM     53  F   UNL A   1      43.668  28.207  27.083  1.00  0.00    -0.203 F 
ATOM     54  C   UNL A   1      43.761  26.177  25.889  1.00  0.00     0.198 A 
ATOM     55  C   UNL A   1      42.493  24.285  26.645  1.00  0.00     0.198 A 
ATOM     56  F   UNL A   1      41.135  24.471  28.559  1.00  0.00    -0.203 F 
ATOM     57  F   UNL A   1      44.594  26.737  25.001  1.00  0.00    -0.200 F 
ATOM     58  C   UNL A   1      43.373  24.854  25.738  1.00  0.00     0.200 A 
ATOM     59  F   UNL A   1      42.129  23.003  26.512  1.00  0.00    -0.200 F 
ATOM     60  F   UNL A   1      43.847  24.128  24.716  1.00  0.00    -0.200 F 
ENDBRANCH  26  50
BRANCH  38  61
ATOM     61  C   UNL A   1      44.828  27.697  34.267  1.00  0.00     0.064 A 
ATOM     62  C   UNL A   1      46.009  28.454  34.220  1.00  0.00     0.173 A 
ATOM     63  C   UNL A   1      44.829  26.520  35.029  1.00  0.00     0.173 A 
ATOM     64  F   UNL A   1      46.061  29.577  33.489  1.00  0.00    -0.203 F 
ATOM     65  C   UNL A   1      47.154  28.032  34.890  1.00  0.00     0.198 A 
ATOM     66  C   UNL A   1      45.967  26.116  35.720  1.00  0.00     0.198 A 
ATOM     67  F   UNL A   1      43.723  25.765  35.109  1.00  0.00    -0.203 F 
ATOM     68  F   UNL A   1      48.284  28.744  34.792  1.00  0.00    -0.200 F 
ATOM     69  C   UNL A   1      47.130  26.867  35.644  1.00  0.00     0.200 A 
ATOM     70  F   UNL A   1      45.941  24.996  36.455  1.00  0.00    -0.200 F 
ATOM     71  F   UNL A   1      48.233  26.465  36.290  1.00  0.00    -0.200 F 
ENDBRANCH  38  61
ENDBRANCH  12  13
ENDBRANCH   5   7
ENDBRANCH   2   3
ENDBRANCH   1   2
BRANCH   1  72
ATOM     72  C   UNL A   1      32.563  27.593  23.590  1.00  0.00     0.023 C 
BRANCH  72  73
ATOM     73  C   UNL A   1      33.455  26.765  22.660  1.00  0.00     0.116 C 
BRANCH  73  74
ATOM     74  N   UNL A   1      32.881  25.449  22.448  1.00  0.00    -0.354 N 
ATOM     75  C   UNL A   1      33.434  24.218  22.673  1.00  0.00     0.242 C 
ATOM     76  H   UNL A   1      31.963  25.442  22.092  1.00  0.00     0.163 HD
ATOM     77  O   UNL A   1      32.903  23.254  22.112  1.00  0.00    -0.273 OA
BRANCH  75  78
ATOM     78  C   UNL A   1      34.658  24.080  23.603  1.00  0.00     0.171 C 
ATOM     79  C   UNL A   1      35.579  22.953  23.126  1.00  0.00     0.035 C 
ATOM     80  N   UNL A   1      34.340  23.859  25.036  1.00  0.00    -0.354 N 
ATOM     81  C   UNL A   1      36.836  22.904  23.997  1.00  0.00     0.004 C 
ATOM     82  C   UNL A   1      35.481  23.807  25.951  1.00  0.00     0.117 C 
ATOM     83  C   UNL A   1      36.476  22.746  25.475  1.00  0.00     0.022 C 
BRANCH  80  84
ATOM     84  C   UNL A   1      33.060  23.690  25.525  1.00  0.00     0.116 A 
ATOM     85  C   UNL A   1      32.330  24.816  25.946  1.00  0.00     0.033 A 
ATOM     86  C   UNL A   1      32.387  22.457  25.605  1.00  0.00     0.292 A 
ATOM     87  C   UNL A   1      31.021  24.716  26.436  1.00  0.00     0.003 A 
ATOM     88  C   UNL A   1      31.067  22.341  26.080  1.00  0.00     0.088 A 
ATOM     89  C   UNL A   1      30.387  23.480  26.501  1.00  0.00     0.007 A 
BRANCH  86  90
ATOM     90  N   UNL A   1      33.055  21.222  25.230  1.00  0.00     0.064 N 
ATOM     91  O   UNL A   1      33.762  20.682  26.095  1.00  0.00    -0.258 OA
ATOM     92  O   UNL A   1      32.916  20.810  24.068  1.00  0.00    -0.258 OA
ENDBRANCH  86  90
ENDBRANCH  80  84
ENDBRANCH  75  78
ENDBRANCH  73  74
ENDBRANCH  72  73
ENDBRANCH   1  72
TORSDOF 13
ENDMDL
