MODEL 1
REMARK VINA RESULT:     -11.4      0.000      0.000
REMARK SMILES COc1ccc(F)c(Nc2ccc(C(=O)NCCCCNC(=O)c3ccc(-c4c5nc(c(-c6c(F)c(F)c(F)c(F)c6F)c6ccc([nH]6)c(-c6c(F)c(F)c(F)c(F)c6F)c6nc(c(-c7c(F)c(F)c(F)c(F)c7F)c7ccc4[nH]7)C=C6)C=C5)cc3)cc2)c1
REMARK SMILES IDX 18 1 17 2 16 3 14 4 15 5 13 7 10 8 11 9 88 10 12 11 87 12
REMARK SMILES IDX 9 13 8 15 3 16 4 17 89 18 5 19 6 20 7 21 2 22 1 23 19 24
REMARK SMILES IDX 20 25 21 26 22 27 23 29 24 30 25 31 86 32 26 33 85 34 27 35
REMARK SMILES IDX 28 36 29 37 79 38 30 39 84 40 78 41 80 42 31 43 83 44 77 45
REMARK SMILES IDX 76 46 32 48 64 49 44 50 63 51 45 52 48 53 62 54 81 55 46 56
REMARK SMILES IDX 47 57 61 59 82 60 49 61 33 62 34 63 42 64 35 65 36 66 40 67
REMARK SMILES IDX 43 68 37 69 38 70 41 71 39 72 65 73 66 74 74 75 67 76 68 77
REMARK SMILES IDX 72 78 75 79 69 80 70 81 73 82 71 83 50 84 51 85 59 86 52 87
REMARK SMILES IDX 53 88 57 89 60 90 54 91 55 92 58 93 56 94
REMARK H PARENT 16 6 9 14 21 28 80 47 48 58
REMARK Flexibility Score: inf
ROOT
ATOM      1  C   UNL A   1      47.412  25.852  32.025  1.00  0.00     0.023 C 
ENDROOT
BRANCH   1   2
ATOM      2  C   UNL A   1      47.774  25.709  30.545  1.00  0.00     0.116 C 
BRANCH   2   3
ATOM      3  N   UNL A   1      47.201  26.794  29.772  1.00  0.00    -0.352 N 
ATOM      4  C   UNL A   1      46.635  26.829  28.522  1.00  0.00     0.251 C 
ATOM      5  O   UNL A   1      46.193  27.908  28.125  1.00  0.00    -0.269 OA
ATOM      6  H   UNL A   1      47.223  27.666  30.228  1.00  0.00     0.163 HD
BRANCH   4   7
ATOM      7  C   UNL A   1      46.476  25.621  27.664  1.00  0.00     0.039 A 
ATOM      8  C   UNL A   1      46.154  23.482  25.851  1.00  0.00     0.038 A 
ATOM      9  C   UNL A   1      46.971  24.565  25.525  1.00  0.00     0.027 A 
ATOM     10  C   UNL A   1      45.557  23.447  27.113  1.00  0.00     0.027 A 
ATOM     11  C   UNL A   1      47.120  25.631  26.418  1.00  0.00     0.016 A 
ATOM     12  C   UNL A   1      45.747  24.487  28.027  1.00  0.00     0.016 A 
BRANCH   8  13
ATOM     13  N   UNL A   1      45.877  22.492  24.901  1.00  0.00    -0.353 N 
ATOM     14  H   UNL A   1      46.208  22.664  23.990  1.00  0.00     0.167 HD
BRANCH  13  15
ATOM     15  C   UNL A   1      45.180  21.281  25.087  1.00  0.00     0.078 A 
ATOM     16  C   UNL A   1      43.166  20.031  25.658  1.00  0.00     0.121 A 
ATOM     17  C   UNL A   1      43.850  18.827  25.502  1.00  0.00     0.049 A 
ATOM     18  C   UNL A   1      43.826  21.245  25.447  1.00  0.00     0.075 A 
ATOM     19  C   UNL A   1      45.203  18.843  25.159  1.00  0.00     0.045 A 
ATOM     20  C   UNL A   1      45.853  20.059  24.960  1.00  0.00     0.146 A 
ATOM     21  F   UNL A   1      47.153  20.051  24.628  1.00  0.00    -0.205 F 
BRANCH  16  22
ATOM     22  O   UNL A   1      41.830  20.126  25.944  1.00  0.00    -0.497 OA
ATOM     23  C   UNL A   1      41.544  20.608  27.252  1.00  0.00     0.278 C 
ENDBRANCH  16  22
ENDBRANCH  13  15
ENDBRANCH   8  13
ENDBRANCH   4   7
ENDBRANCH   2   3
ENDBRANCH   1   2
BRANCH   1  24
ATOM     24  C   UNL A   1      48.463  25.286  32.986  1.00  0.00     0.023 C 
BRANCH  24  25
ATOM     25  C   UNL A   1      47.913  24.351  34.057  1.00  0.00     0.116 C 
BRANCH  25  26
ATOM     26  N   UNL A   1      48.189  24.804  35.411  1.00  0.00    -0.352 N 
ATOM     27  C   UNL A   1      47.539  25.770  36.141  1.00  0.00     0.251 C 
ATOM     28  H   UNL A   1      48.942  24.361  35.865  1.00  0.00     0.163 HD
ATOM     29  O   UNL A   1      47.961  26.110  37.239  1.00  0.00    -0.269 OA
BRANCH  27  30
ATOM     30  C   UNL A   1      46.347  26.429  35.569  1.00  0.00     0.039 A 
ATOM     31  C   UNL A   1      46.487  27.703  35.014  1.00  0.00     0.014 A 
ATOM     32  C   UNL A   1      45.107  25.783  35.555  1.00  0.00     0.014 A 
ATOM     33  C   UNL A   1      45.398  28.304  34.383  1.00  0.00     0.010 A 
ATOM     34  C   UNL A   1      44.039  26.356  34.871  1.00  0.00     0.010 A 
ATOM     35  C   UNL A   1      44.177  27.619  34.275  1.00  0.00    -0.014 A 
BRANCH  35  36
ATOM     36  C   UNL A   1      43.035  28.201  33.530  1.00  0.00     0.031 A 
ATOM     37  C   UNL A   1      42.835  27.873  32.079  1.00  0.00     0.074 A 
ATOM     38  C   UNL A   1      42.216  29.074  34.147  1.00  0.00     0.049 A 
ATOM     39  N   UNL A   1      41.941  28.336  31.243  1.00  0.00    -0.248 NA
ATOM     40  C   UNL A   1      43.779  26.918  31.480  1.00  0.00     0.031 C 
ATOM     41  C   UNL A   1      42.337  29.503  35.541  1.00  0.00     0.029 A 
ATOM     42  N   UNL A   1      41.127  29.764  33.680  1.00  0.00    -0.354 N 
ATOM     43  C   UNL A   1      42.223  27.740  30.022  1.00  0.00     0.074 A 
ATOM     44  C   UNL A   1      43.399  26.920  30.211  1.00  0.00     0.031 C 
ATOM     45  C   UNL A   1      41.346  30.362  35.823  1.00  0.00     0.029 A 
ATOM     46  C   UNL A   1      40.541  30.572  34.623  1.00  0.00     0.049 A 
ATOM     47  H   UNL A   1      40.796  29.687  32.756  1.00  0.00     0.167 HD
ATOM     48  C   UNL A   1      41.546  27.852  28.855  1.00  0.00     0.037 A 
ATOM     49  C   UNL A   1      39.478  31.393  34.530  1.00  0.00     0.037 A 
ATOM     50  C   UNL A   1      40.358  28.646  28.681  1.00  0.00     0.049 A 
ATOM     51  C   UNL A   1      38.743  31.498  33.222  1.00  0.00     0.074 A 
ATOM     52  C   UNL A   1      39.567  28.773  27.552  1.00  0.00     0.029 A 
ATOM     53  N   UNL A   1      39.790  29.444  29.662  1.00  0.00    -0.354 N 
ATOM     54  N   UNL A   1      38.987  30.890  32.088  1.00  0.00    -0.248 NA
ATOM     55  C   UNL A   1      37.584  32.403  33.182  1.00  0.00     0.031 C 
ATOM     56  C   UNL A   1      38.542  29.680  27.839  1.00  0.00     0.029 A 
ATOM     57  C   UNL A   1      38.669  30.082  29.159  1.00  0.00     0.049 A 
ATOM     58  H   UNL A   1      40.134  29.543  30.579  1.00  0.00     0.167 HD
ATOM     59  C   UNL A   1      38.005  31.319  31.205  1.00  0.00     0.074 A 
ATOM     60  C   UNL A   1      37.153  32.232  31.939  1.00  0.00     0.031 C 
ATOM     61  C   UNL A   1      37.828  30.985  29.905  1.00  0.00     0.037 A 
BRANCH  48  62
ATOM     62  C   UNL A   1      42.063  27.085  27.674  1.00  0.00     0.064 A 
ATOM     63  C   UNL A   1      41.632  25.773  27.432  1.00  0.00     0.173 A 
ATOM     64  C   UNL A   1      43.028  27.629  26.814  1.00  0.00     0.173 A 
ATOM     65  F   UNL A   1      40.713  25.205  28.228  1.00  0.00    -0.203 F 
ATOM     66  C   UNL A   1      42.154  25.031  26.377  1.00  0.00     0.198 A 
ATOM     67  C   UNL A   1      43.529  26.894  25.743  1.00  0.00     0.198 A 
ATOM     68  F   UNL A   1      43.465  28.885  26.996  1.00  0.00    -0.203 F 
ATOM     69  F   UNL A   1      41.747  23.769  26.180  1.00  0.00    -0.200 F 
ATOM     70  C   UNL A   1      43.099  25.593  25.531  1.00  0.00     0.200 A 
ATOM     71  F   UNL A   1      44.423  27.447  24.913  1.00  0.00    -0.200 F 
ATOM     72  F   UNL A   1      43.591  24.881  24.507  1.00  0.00    -0.200 F 
ENDBRANCH  48  62
BRANCH  49  73
ATOM     73  C   UNL A   1      39.026  32.144  35.729  1.00  0.00     0.064 A 
ATOM     74  C   UNL A   1      39.431  33.466  35.960  1.00  0.00     0.173 A 
ATOM     75  C   UNL A   1      38.208  31.533  36.688  1.00  0.00     0.173 A 
ATOM     76  F   UNL A   1      40.220  34.092  35.073  1.00  0.00    -0.203 F 
ATOM     77  C   UNL A   1      39.050  34.142  37.117  1.00  0.00     0.198 A 
ATOM     78  C   UNL A   1      37.808  32.218  37.833  1.00  0.00     0.198 A 
ATOM     79  F   UNL A   1      37.780  30.275  36.499  1.00  0.00    -0.203 F 
ATOM     80  F   UNL A   1      39.478  35.394  37.330  1.00  0.00    -0.200 F 
ATOM     81  C   UNL A   1      38.236  33.518  38.051  1.00  0.00     0.200 A 
ATOM     82  F   UNL A   1      37.006  31.619  38.723  1.00  0.00    -0.200 F 
ATOM     83  F   UNL A   1      37.864  34.171  39.160  1.00  0.00    -0.200 F 
ENDBRANCH  49  73
BRANCH  61  84
ATOM     84  C   UNL A   1      36.662  31.591  29.183  1.00  0.00     0.064 A 
ATOM     85  C   UNL A   1      36.648  32.962  28.882  1.00  0.00     0.173 A 
ATOM     86  C   UNL A   1      35.524  30.836  28.868  1.00  0.00     0.173 A 
ATOM     87  F   UNL A   1      37.711  33.728  29.171  1.00  0.00    -0.203 F 
ATOM     88  C   UNL A   1      35.530  33.556  28.306  1.00  0.00     0.198 A 
ATOM     89  C   UNL A   1      34.416  31.429  28.270  1.00  0.00     0.198 A 
ATOM     90  F   UNL A   1      35.495  29.519  29.125  1.00  0.00    -0.203 F 
ATOM     91  F   UNL A   1      35.525  34.874  28.059  1.00  0.00    -0.200 F 
ATOM     92  C   UNL A   1      34.416  32.790  28.000  1.00  0.00     0.200 A 
ATOM     93  F   UNL A   1      33.349  30.684  27.954  1.00  0.00    -0.200 F 
ATOM     94  F   UNL A   1      33.340  33.363  27.441  1.00  0.00    -0.200 F 
ENDBRANCH  61  84
ENDBRANCH  35  36
ENDBRANCH  27  30
ENDBRANCH  25  26
ENDBRANCH  24  25
ENDBRANCH   1  24
TORSDOF 14
ENDMDL
MODEL 2
REMARK VINA RESULT:     -11.1      5.572     12.818
REMARK SMILES COc1ccc(F)c(Nc2ccc(C(=O)NCCCCNC(=O)c3ccc(-c4c5nc(c(-c6c(F)c(F)c(F)c(F)c6F)c6ccc([nH]6)c(-c6c(F)c(F)c(F)c(F)c6F)c6nc(c(-c7c(F)c(F)c(F)c(F)c7F)c7ccc4[nH]7)C=C6)C=C5)cc3)cc2)c1
REMARK SMILES IDX 18 1 17 2 16 3 14 4 15 5 13 7 10 8 11 9 88 10 12 11 87 12
REMARK SMILES IDX 9 13 8 15 3 16 4 17 89 18 5 19 6 20 7 21 2 22 1 23 19 24
REMARK SMILES IDX 20 25 21 26 22 27 23 29 24 30 25 31 86 32 26 33 85 34 27 35
REMARK SMILES IDX 28 36 29 37 79 38 30 39 84 40 78 41 80 42 31 43 83 44 77 45
REMARK SMILES IDX 76 46 32 48 64 49 44 50 63 51 45 52 48 53 62 54 81 55 46 56
REMARK SMILES IDX 47 57 61 59 82 60 49 61 33 62 34 63 42 64 35 65 36 66 40 67
REMARK SMILES IDX 43 68 37 69 38 70 41 71 39 72 65 73 66 74 74 75 67 76 68 77
REMARK SMILES IDX 72 78 75 79 69 80 70 81 73 82 71 83 50 84 51 85 59 86 52 87
REMARK SMILES IDX 53 88 57 89 60 90 54 91 55 92 58 93 56 94
REMARK H PARENT 16 6 9 14 21 28 80 47 48 58
REMARK Flexibility Score: inf
ROOT
ATOM      1  C   UNL A   1      32.942  29.448  24.988  1.00  0.00     0.023 C 
ENDROOT
BRANCH   1   2
ATOM      2  C   UNL A   1      31.415  29.429  25.101  1.00  0.00     0.116 C 
BRANCH   2   3
ATOM      3  N   UNL A   1      30.805  29.611  23.798  1.00  0.00    -0.352 N 
ATOM      4  C   UNL A   1      30.666  28.768  22.725  1.00  0.00     0.251 C 
ATOM      5  O   UNL A   1      30.060  29.191  21.740  1.00  0.00    -0.269 OA
ATOM      6  H   UNL A   1      30.419  30.507  23.658  1.00  0.00     0.163 HD
BRANCH   4   7
ATOM      7  C   UNL A   1      31.153  27.359  22.726  1.00  0.00     0.039 A 
ATOM      8  C   UNL A   1      32.149  24.728  22.503  1.00  0.00     0.038 A 
ATOM      9  C   UNL A   1      32.884  25.804  22.003  1.00  0.00     0.027 A 
ATOM     10  C   UNL A   1      30.951  24.985  23.171  1.00  0.00     0.027 A 
ATOM     11  C   UNL A   1      32.383  27.107  22.103  1.00  0.00     0.016 A 
ATOM     12  C   UNL A   1      30.475  26.291  23.316  1.00  0.00     0.016 A 
BRANCH   8  13
ATOM     13  N   UNL A   1      32.568  23.414  22.266  1.00  0.00    -0.353 N 
ATOM     14  H   UNL A   1      32.477  23.092  21.339  1.00  0.00     0.167 HD
BRANCH  13  15
ATOM     15  C   UNL A   1      33.103  22.493  23.189  1.00  0.00     0.078 A 
ATOM     16  C   UNL A   1      32.889  20.553  24.652  1.00  0.00     0.121 A 
ATOM     17  C   UNL A   1      34.207  20.712  25.079  1.00  0.00     0.049 A 
ATOM     18  C   UNL A   1      32.347  21.433  23.711  1.00  0.00     0.075 A 
ATOM     19  C   UNL A   1      34.970  21.770  24.582  1.00  0.00     0.045 A 
ATOM     20  C   UNL A   1      34.415  22.646  23.652  1.00  0.00     0.146 A 
ATOM     21  F   UNL A   1      35.168  23.655  23.185  1.00  0.00    -0.205 F 
BRANCH  16  22
ATOM     22  O   UNL A   1      32.074  19.524  25.038  1.00  0.00    -0.497 OA
ATOM     23  C   UNL A   1      32.734  18.268  25.158  1.00  0.00     0.278 C 
ENDBRANCH  16  22
ENDBRANCH  13  15
ENDBRANCH   8  13
ENDBRANCH   4   7
ENDBRANCH   2   3
ENDBRANCH   1   2
BRANCH   1  24
ATOM     24  C   UNL A   1      33.639  28.285  25.701  1.00  0.00     0.023 C 
BRANCH  24  25
ATOM     25  C   UNL A   1      33.858  28.489  27.196  1.00  0.00     0.116 C 
BRANCH  25  26
ATOM     26  N   UNL A   1      33.764  29.881  27.604  1.00  0.00    -0.352 N 
ATOM     27  C   UNL A   1      34.713  30.660  28.223  1.00  0.00     0.251 C 
ATOM     28  H   UNL A   1      32.907  30.326  27.412  1.00  0.00     0.163 HD
ATOM     29  O   UNL A   1      34.440  31.793  28.597  1.00  0.00    -0.269 OA
BRANCH  27  30
ATOM     30  C   UNL A   1      36.056  30.099  28.476  1.00  0.00     0.039 A 
ATOM     31  C   UNL A   1      37.027  30.210  27.478  1.00  0.00     0.014 A 
ATOM     32  C   UNL A   1      36.363  29.495  29.698  1.00  0.00     0.014 A 
ATOM     33  C   UNL A   1      38.328  29.776  27.729  1.00  0.00     0.010 A 
ATOM     34  C   UNL A   1      37.675  29.119  29.971  1.00  0.00     0.010 A 
ATOM     35  C   UNL A   1      38.669  29.261  28.990  1.00  0.00    -0.014 A 
BRANCH  35  36
ATOM     36  C   UNL A   1      40.066  28.877  29.309  1.00  0.00     0.031 A 
ATOM     37  C   UNL A   1      40.934  29.794  30.120  1.00  0.00     0.074 A 
ATOM     38  C   UNL A   1      40.568  27.730  28.813  1.00  0.00     0.049 A 
ATOM     39  N   UNL A   1      42.197  29.668  30.440  1.00  0.00    -0.248 NA
ATOM     40  C   UNL A   1      40.310  31.030  30.614  1.00  0.00     0.031 C 
ATOM     41  C   UNL A   1      39.834  26.780  27.976  1.00  0.00     0.029 A 
ATOM     42  N   UNL A   1      41.816  27.173  28.932  1.00  0.00    -0.354 N 
ATOM     43  C   UNL A   1      42.519  30.810  31.160  1.00  0.00     0.074 A 
ATOM     44  C   UNL A   1      41.335  31.641  31.189  1.00  0.00     0.031 C 
ATOM     45  C   UNL A   1      40.636  25.745  27.680  1.00  0.00     0.029 A 
ATOM     46  C   UNL A   1      41.949  25.976  28.274  1.00  0.00     0.049 A 
ATOM     47  H   UNL A   1      42.547  27.593  29.442  1.00  0.00     0.167 HD
ATOM     48  C   UNL A   1      43.691  31.122  31.761  1.00  0.00     0.037 A 
ATOM     49  C   UNL A   1      43.012  25.157  28.160  1.00  0.00     0.037 A 
ATOM     50  C   UNL A   1      44.855  30.277  31.755  1.00  0.00     0.049 A 
ATOM     51  C   UNL A   1      44.302  25.527  28.838  1.00  0.00     0.074 A 
ATOM     52  C   UNL A   1      46.069  30.481  32.388  1.00  0.00     0.029 A 
ATOM     53  N   UNL A   1      44.949  29.067  31.084  1.00  0.00    -0.354 N 
ATOM     54  N   UNL A   1      44.580  26.584  29.560  1.00  0.00    -0.248 NA
ATOM     55  C   UNL A   1      45.426  24.591  28.686  1.00  0.00     0.031 C 
ATOM     56  C   UNL A   1      46.911  29.411  32.068  1.00  0.00     0.029 A 
ATOM     57  C   UNL A   1      46.207  28.520  31.273  1.00  0.00     0.049 A 
ATOM     58  H   UNL A   1      44.228  28.657  30.553  1.00  0.00     0.167 HD
ATOM     59  C   UNL A   1      45.899  26.434  29.966  1.00  0.00     0.074 A 
ATOM     60  C   UNL A   1      46.364  25.176  29.418  1.00  0.00     0.031 C 
ATOM     61  C   UNL A   1      46.654  27.265  30.725  1.00  0.00     0.037 A 
BRANCH  48  62
ATOM     62  C   UNL A   1      43.771  32.430  32.492  1.00  0.00     0.064 A 
ATOM     63  C   UNL A   1      44.233  33.583  31.842  1.00  0.00     0.173 A 
ATOM     64  C   UNL A   1      43.445  32.529  33.853  1.00  0.00     0.173 A 
ATOM     65  F   UNL A   1      44.562  33.541  30.542  1.00  0.00    -0.203 F 
ATOM     66  C   UNL A   1      44.372  34.786  32.529  1.00  0.00     0.198 A 
ATOM     67  C   UNL A   1      43.559  33.739  34.531  1.00  0.00     0.198 A 
ATOM     68  F   UNL A   1      42.988  31.456  34.517  1.00  0.00    -0.203 F 
ATOM     69  F   UNL A   1      44.841  35.869  31.894  1.00  0.00    -0.200 F 
ATOM     70  C   UNL A   1      44.032  34.863  33.871  1.00  0.00     0.200 A 
ATOM     71  F   UNL A   1      43.207  33.818  35.821  1.00  0.00    -0.200 F 
ATOM     72  F   UNL A   1      44.154  36.025  34.529  1.00  0.00    -0.200 F 
ENDBRANCH  48  62
BRANCH  49  73
ATOM     73  C   UNL A   1      42.878  23.885  27.404  1.00  0.00     0.064 A 
ATOM     74  C   UNL A   1      42.452  22.705  28.029  1.00  0.00     0.173 A 
ATOM     75  C   UNL A   1      43.215  23.823  26.046  1.00  0.00     0.173 A 
ATOM     76  F   UNL A   1      42.124  22.713  29.330  1.00  0.00    -0.203 F 
ATOM     77  C   UNL A   1      42.387  21.503  27.326  1.00  0.00     0.198 A 
ATOM     78  C   UNL A   1      43.128  22.626  25.339  1.00  0.00     0.198 A 
ATOM     79  F   UNL A   1      43.610  24.932  25.403  1.00  0.00    -0.203 F 
ATOM     80  F   UNL A   1      42.008  20.382  27.954  1.00  0.00    -0.200 F 
ATOM     81  C   UNL A   1      42.722  21.466  25.981  1.00  0.00     0.200 A 
ATOM     82  F   UNL A   1      43.432  22.598  24.034  1.00  0.00    -0.200 F 
ATOM     83  F   UNL A   1      42.652  20.312  25.303  1.00  0.00    -0.200 F 
ENDBRANCH  49  73
BRANCH  61  84
ATOM     84  C   UNL A   1      48.060  26.844  31.028  1.00  0.00     0.064 A 
ATOM     85  C   UNL A   1      49.120  27.268  30.211  1.00  0.00     0.173 A 
ATOM     86  C   UNL A   1      48.349  25.954  32.072  1.00  0.00     0.173 A 
ATOM     87  F   UNL A   1      48.893  28.113  29.195  1.00  0.00    -0.203 F 
ATOM     88  C   UNL A   1      50.415  26.801  30.420  1.00  0.00     0.198 A 
ATOM     89  C   UNL A   1      49.649  25.510  32.293  1.00  0.00     0.198 A 
ATOM     90  F   UNL A   1      47.370  25.532  32.888  1.00  0.00    -0.203 F 
ATOM     91  F   UNL A   1      51.405  27.192  29.605  1.00  0.00    -0.200 F 
ATOM     92  C   UNL A   1      50.678  25.925  31.460  1.00  0.00     0.200 A 
ATOM     93  F   UNL A   1      49.906  24.679  33.313  1.00  0.00    -0.200 F 
ATOM     94  F   UNL A   1      51.926  25.480  31.663  1.00  0.00    -0.200 F 
ENDBRANCH  61  84
ENDBRANCH  35  36
ENDBRANCH  27  30
ENDBRANCH  25  26
ENDBRANCH  24  25
ENDBRANCH   1  24
TORSDOF 14
ENDMDL
MODEL 3
REMARK VINA RESULT:     -11.1      5.650     12.466
REMARK SMILES COc1ccc(F)c(Nc2ccc(C(=O)NCCCCNC(=O)c3ccc(-c4c5nc(c(-c6c(F)c(F)c(F)c(F)c6F)c6ccc([nH]6)c(-c6c(F)c(F)c(F)c(F)c6F)c6nc(c(-c7c(F)c(F)c(F)c(F)c7F)c7ccc4[nH]7)C=C6)C=C5)cc3)cc2)c1
REMARK SMILES IDX 18 1 17 2 16 3 14 4 15 5 13 7 10 8 11 9 88 10 12 11 87 12
REMARK SMILES IDX 9 13 8 15 3 16 4 17 89 18 5 19 6 20 7 21 2 22 1 23 19 24
REMARK SMILES IDX 20 25 21 26 22 27 23 29 24 30 25 31 86 32 26 33 85 34 27 35
REMARK SMILES IDX 28 36 29 37 79 38 30 39 84 40 78 41 80 42 31 43 83 44 77 45
REMARK SMILES IDX 76 46 32 48 64 49 44 50 63 51 45 52 48 53 62 54 81 55 46 56
REMARK SMILES IDX 47 57 61 59 82 60 49 61 33 62 34 63 42 64 35 65 36 66 40 67
REMARK SMILES IDX 43 68 37 69 38 70 41 71 39 72 65 73 66 74 74 75 67 76 68 77
REMARK SMILES IDX 72 78 75 79 69 80 70 81 73 82 71 83 50 84 51 85 59 86 52 87
REMARK SMILES IDX 53 88 57 89 60 90 54 91 55 92 58 93 56 94
REMARK H PARENT 16 6 9 14 21 28 80 47 48 58
REMARK Flexibility Score: inf
ROOT
ATOM      1  C   UNL A   1      37.010  21.073  24.678  1.00  0.00     0.023 C 
ENDROOT
BRANCH   1   2
ATOM      2  C   UNL A   1      35.715  21.046  25.494  1.00  0.00     0.116 C 
BRANCH   2   3
ATOM      3  N   UNL A   1      34.814  20.030  24.988  1.00  0.00    -0.352 N 
ATOM      4  C   UNL A   1      33.510  20.090  24.563  1.00  0.00     0.251 C 
ATOM      5  O   UNL A   1      32.996  19.051  24.146  1.00  0.00    -0.269 OA
ATOM      6  H   UNL A   1      35.210  19.129  24.941  1.00  0.00     0.163 HD
BRANCH   4   7
ATOM      7  C   UNL A   1      32.722  21.354  24.525  1.00  0.00     0.039 A 
ATOM      8  C   UNL A   1      31.068  23.641  24.593  1.00  0.00     0.038 A 
ATOM      9  C   UNL A   1      31.297  22.902  25.754  1.00  0.00     0.027 A 
ATOM     10  C   UNL A   1      31.725  23.267  23.419  1.00  0.00     0.027 A 
ATOM     11  C   UNL A   1      32.107  21.761  25.718  1.00  0.00     0.016 A 
ATOM     12  C   UNL A   1      32.575  22.157  23.393  1.00  0.00     0.016 A 
BRANCH   8  13
ATOM     13  N   UNL A   1      30.137  24.685  24.590  1.00  0.00    -0.353 N 
ATOM     14  H   UNL A   1      29.197  24.425  24.723  1.00  0.00     0.167 HD
BRANCH  13  15
ATOM     15  C   UNL A   1      30.378  26.063  24.418  1.00  0.00     0.078 A 
ATOM     16  C   UNL A   1      30.323  28.099  23.077  1.00  0.00     0.121 A 
ATOM     17  C   UNL A   1      30.935  28.812  24.106  1.00  0.00     0.049 A 
ATOM     18  C   UNL A   1      30.043  26.739  23.236  1.00  0.00     0.075 A 
ATOM     19  C   UNL A   1      31.291  28.153  25.284  1.00  0.00     0.045 A 
ATOM     20  C   UNL A   1      31.015  26.795  25.427  1.00  0.00     0.146 A 
ATOM     21  F   UNL A   1      31.362  26.182  26.570  1.00  0.00    -0.205 F 
BRANCH  16  22
ATOM     22  O   UNL A   1      29.891  28.659  21.904  1.00  0.00    -0.497 OA
ATOM     23  C   UNL A   1      29.797  30.080  21.934  1.00  0.00     0.278 C 
ENDBRANCH  16  22
ENDBRANCH  13  15
ENDBRANCH   8  13
ENDBRANCH   4   7
ENDBRANCH   2   3
ENDBRANCH   1   2
BRANCH   1  24
ATOM     24  C   UNL A   1      37.951  19.896  24.956  1.00  0.00     0.023 C 
BRANCH  24  25
ATOM     25  C   UNL A   1      39.202  20.250  25.753  1.00  0.00     0.116 C 
BRANCH  25  26
ATOM     26  N   UNL A   1      40.163  19.161  25.825  1.00  0.00    -0.352 N 
ATOM     27  C   UNL A   1      41.514  19.225  26.072  1.00  0.00     0.251 C 
ATOM     28  H   UNL A   1      39.799  18.259  25.677  1.00  0.00     0.163 HD
ATOM     29  O   UNL A   1      42.208  18.219  25.997  1.00  0.00    -0.269 OA
BRANCH  27  30
ATOM     30  C   UNL A   1      42.131  20.529  26.386  1.00  0.00     0.039 A 
ATOM     31  C   UNL A   1      42.530  21.353  25.331  1.00  0.00     0.014 A 
ATOM     32  C   UNL A   1      42.289  20.948  27.710  1.00  0.00     0.014 A 
ATOM     33  C   UNL A   1      43.026  22.629  25.602  1.00  0.00     0.010 A 
ATOM     34  C   UNL A   1      42.724  22.243  27.977  1.00  0.00     0.010 A 
ATOM     35  C   UNL A   1      43.092  23.095  26.924  1.00  0.00    -0.014 A 
BRANCH  35  36
ATOM     36  C   UNL A   1      43.531  24.479  27.229  1.00  0.00     0.031 A 
ATOM     37  C   UNL A   1      42.547  25.483  27.755  1.00  0.00     0.074 A 
ATOM     38  C   UNL A   1      44.800  24.844  26.969  1.00  0.00     0.049 A 
ATOM     39  N   UNL A   1      42.723  26.755  28.012  1.00  0.00    -0.248 NA
ATOM     40  C   UNL A   1      41.179  25.003  28.002  1.00  0.00     0.031 C 
ATOM     41  C   UNL A   1      45.834  23.969  26.415  1.00  0.00     0.029 A 
ATOM     42  N   UNL A   1      45.436  26.050  27.127  1.00  0.00    -0.354 N 
ATOM     43  C   UNL A   1      41.488  27.226  28.437  1.00  0.00     0.074 A 
ATOM     44  C   UNL A   1      40.560  26.120  28.358  1.00  0.00     0.031 C 
ATOM     45  C   UNL A   1      46.980  24.657  26.306  1.00  0.00     0.029 A 
ATOM     46  C   UNL A   1      46.754  26.031  26.746  1.00  0.00     0.049 A 
ATOM     47  H   UNL A   1      44.988  26.852  27.481  1.00  0.00     0.167 HD
ATOM     48  C   UNL A   1      41.167  28.467  28.875  1.00  0.00     0.037 A 
ATOM     49  C   UNL A   1      47.677  27.012  26.747  1.00  0.00     0.037 A 
ATOM     50  C   UNL A   1      42.102  29.555  28.981  1.00  0.00     0.049 A 
ATOM     51  C   UNL A   1      47.294  28.381  27.239  1.00  0.00     0.074 A 
ATOM     52  C   UNL A   1      41.884  30.831  29.471  1.00  0.00     0.029 A 
ATOM     53  N   UNL A   1      43.432  29.496  28.592  1.00  0.00    -0.354 N 
ATOM     54  N   UNL A   1      46.138  28.802  27.688  1.00  0.00    -0.248 NA
ATOM     55  C   UNL A   1      48.345  29.409  27.227  1.00  0.00     0.031 C 
ATOM     56  C   UNL A   1      43.073  31.555  29.343  1.00  0.00     0.029 A 
ATOM     57  C   UNL A   1      44.043  30.718  28.815  1.00  0.00     0.049 A 
ATOM     58  H   UNL A   1      43.875  28.702  28.214  1.00  0.00     0.167 HD
ATOM     59  C   UNL A   1      46.323  30.135  28.030  1.00  0.00     0.074 A 
ATOM     60  C   UNL A   1      47.708  30.450  27.747  1.00  0.00     0.031 C 
ATOM     61  C   UNL A   1      45.424  31.015  28.532  1.00  0.00     0.037 A 
BRANCH  48  62
ATOM     62  C   UNL A   1      39.747  28.712  29.289  1.00  0.00     0.064 A 
ATOM     63  C   UNL A   1      38.821  29.247  28.380  1.00  0.00     0.173 A 
ATOM     64  C   UNL A   1      39.315  28.473  30.602  1.00  0.00     0.173 A 
ATOM     65  F   UNL A   1      39.184  29.497  27.113  1.00  0.00    -0.203 F 
ATOM     66  C   UNL A   1      37.518  29.538  28.774  1.00  0.00     0.198 A 
ATOM     67  C   UNL A   1      38.004  28.741  30.985  1.00  0.00     0.198 A 
ATOM     68  F   UNL A   1      40.160  27.953  31.506  1.00  0.00    -0.203 F 
ATOM     69  F   UNL A   1      36.658  30.073  27.896  1.00  0.00    -0.200 F 
ATOM     70  C   UNL A   1      37.110  29.282  30.074  1.00  0.00     0.200 A 
ATOM     71  F   UNL A   1      37.605  28.470  32.235  1.00  0.00    -0.200 F 
ATOM     72  F   UNL A   1      35.851  29.551  30.448  1.00  0.00    -0.200 F 
ENDBRANCH  48  62
BRANCH  49  73
ATOM     73  C   UNL A   1      49.063  26.714  26.305  1.00  0.00     0.064 A 
ATOM     74  C   UNL A   1      50.025  26.220  27.197  1.00  0.00     0.173 A 
ATOM     75  C   UNL A   1      49.459  26.958  24.984  1.00  0.00     0.173 A 
ATOM     76  F   UNL A   1      49.695  25.976  28.474  1.00  0.00    -0.203 F 
ATOM     77  C   UNL A   1      51.339  25.999  26.787  1.00  0.00     0.198 A 
ATOM     78  C   UNL A   1      50.767  26.715  24.569  1.00  0.00     0.198 A 
ATOM     79  F   UNL A   1      48.567  27.412  24.091  1.00  0.00    -0.203 F 
ATOM     80  F   UNL A   1      52.248  25.558  27.667  1.00  0.00    -0.200 F 
ATOM     81  C   UNL A   1      51.707  26.244  25.472  1.00  0.00     0.200 A 
ATOM     82  F   UNL A   1      51.113  26.934  23.293  1.00  0.00    -0.200 F 
ATOM     83  F   UNL A   1      52.968  26.026  25.076  1.00  0.00    -0.200 F 
ENDBRANCH  49  73
BRANCH  61  84
ATOM     84  C   UNL A   1      45.903  32.404  28.829  1.00  0.00     0.064 A 
ATOM     85  C   UNL A   1      45.864  33.396  27.836  1.00  0.00     0.173 A 
ATOM     86  C   UNL A   1      46.479  32.732  30.065  1.00  0.00     0.173 A 
ATOM     87  F   UNL A   1      45.330  33.128  26.635  1.00  0.00    -0.203 F 
ATOM     88  C   UNL A   1      46.400  34.659  28.066  1.00  0.00     0.198 A 
ATOM     89  C   UNL A   1      46.991  34.004  30.299  1.00  0.00     0.198 A 
ATOM     90  F   UNL A   1      46.527  31.821  31.049  1.00  0.00    -0.203 F 
ATOM     91  F   UNL A   1      46.383  35.580  27.092  1.00  0.00    -0.200 F 
ATOM     92  C   UNL A   1      46.962  34.963  29.296  1.00  0.00     0.200 A 
ATOM     93  F   UNL A   1      47.515  34.303  31.495  1.00  0.00    -0.200 F 
ATOM     94  F   UNL A   1      47.474  36.181  29.518  1.00  0.00    -0.200 F 
ENDBRANCH  61  84
ENDBRANCH  35  36
ENDBRANCH  27  30
ENDBRANCH  25  26
ENDBRANCH  24  25
ENDBRANCH   1  24
TORSDOF 14
ENDMDL
