MODEL 1
REMARK VINA RESULT:     -11.5      0.000      0.000
REMARK SMILES N#Cc1cccc(NCCCC(=O)NCCCCNC(=O)c2ccc(-c3c4nc(c(-c5c(F)c(F)c(F)c(F)c5F)c5ccc([nH]5)c(-c5c(F)c(F)c(F)c(F)c5F)c5nc(c(-c6c(F)c(F)c(F)c(F)c6F)c6ccc3[nH]6)C=C5)C=C4)cc2)c1
REMARK SMILES IDX 15 1 14 2 12 3 13 4 11 6 10 7 9 8 8 9 7 11 3 12 4 13 85 14
REMARK SMILES IDX 5 15 6 16 2 17 1 18 16 19 17 20 18 21 19 22 20 23 21 25
REMARK SMILES IDX 22 26 23 27 84 28 24 29 83 30 25 31 26 32 27 33 77 34 28 35
REMARK SMILES IDX 82 36 76 37 78 38 29 39 81 40 75 41 74 42 30 44 62 45 42 46
REMARK SMILES IDX 61 47 43 48 46 49 60 50 79 51 44 52 45 53 59 55 80 56 47 57
REMARK SMILES IDX 31 58 32 59 40 60 33 61 34 62 38 63 41 64 35 65 36 66 39 67
REMARK SMILES IDX 37 68 63 69 64 70 72 71 65 72 66 73 70 74 73 75 67 76 68 77
REMARK SMILES IDX 71 78 69 79 48 80 49 81 57 82 50 83 51 84 55 85 58 86 52 87
REMARK SMILES IDX 53 88 56 89 54 90
REMARK H PARENT 14 5 8 10 19 24 78 43 46 54
REMARK Flexibility Score: inf
ROOT
ATOM      1  C   UNL A   1      35.943  20.936  25.240  1.00  0.00     0.116 C 
ENDROOT
BRANCH   1   2
ATOM      2  N   UNL A   1      35.311  21.315  26.484  1.00  0.00    -0.356 N 
ATOM      3  C   UNL A   1      34.467  22.351  26.737  1.00  0.00     0.220 C 
ATOM      4  O   UNL A   1      34.124  22.555  27.902  1.00  0.00    -0.275 OA
ATOM      5  H   UNL A   1      35.521  20.743  27.257  1.00  0.00     0.163 HD
BRANCH   3   6
ATOM      6  C   UNL A   1      33.932  23.202  25.605  1.00  0.00     0.102 C 
BRANCH   6   7
ATOM      7  C   UNL A   1      33.078  22.458  24.575  1.00  0.00     0.031 C 
BRANCH   7   8
ATOM      8  C   UNL A   1      31.860  21.675  25.072  1.00  0.00     0.113 C 
BRANCH   8   9
ATOM      9  N   UNL A   1      32.196  20.317  25.460  1.00  0.00    -0.385 N 
ATOM     10  H   UNL A   1      32.123  20.087  26.415  1.00  0.00     0.160 HD
BRANCH   9  11
ATOM     11  C   UNL A   1      32.612  19.323  24.595  1.00  0.00     0.035 A 
ATOM     12  C   UNL A   1      33.859  17.240  24.287  1.00  0.00     0.054 A 
ATOM     13  C   UNL A   1      33.421  17.159  22.966  1.00  0.00     0.019 A 
ATOM     14  C   UNL A   1      33.466  18.324  25.084  1.00  0.00     0.045 A 
ATOM     15  C   UNL A   1      32.621  18.173  22.444  1.00  0.00     0.003 A 
ATOM     16  C   UNL A   1      32.234  19.251  23.251  1.00  0.00     0.026 A 
BRANCH  12  17
ATOM     17  C   UNL A   1      34.686  16.209  24.842  1.00  0.00     0.099 C 
ATOM     18  N   UNL A   1      35.343  15.366  25.296  1.00  0.00    -0.192 NA
ENDBRANCH  12  17
ENDBRANCH   9  11
ENDBRANCH   8   9
ENDBRANCH   7   8
ENDBRANCH   6   7
ENDBRANCH   3   6
ENDBRANCH   1   2
BRANCH   1  19
ATOM     19  C   UNL A   1      37.399  21.401  25.214  1.00  0.00     0.023 C 
BRANCH  19  20
ATOM     20  C   UNL A   1      38.410  20.274  25.064  1.00  0.00     0.023 C 
BRANCH  20  21
ATOM     21  C   UNL A   1      39.592  20.370  26.010  1.00  0.00     0.116 C 
BRANCH  21  22
ATOM     22  N   UNL A   1      40.457  19.198  25.972  1.00  0.00    -0.352 N 
ATOM     23  C   UNL A   1      41.826  19.150  26.107  1.00  0.00     0.251 C 
ATOM     24  H   UNL A   1      40.007  18.334  25.834  1.00  0.00     0.163 HD
ATOM     25  O   UNL A   1      42.448  18.111  25.923  1.00  0.00    -0.269 OA
BRANCH  23  26
ATOM     26  C   UNL A   1      42.537  20.405  26.424  1.00  0.00     0.039 A 
ATOM     27  C   UNL A   1      43.090  21.147  25.382  1.00  0.00     0.014 A 
ATOM     28  C   UNL A   1      42.517  20.904  27.729  1.00  0.00     0.014 A 
ATOM     29  C   UNL A   1      43.533  22.445  25.633  1.00  0.00     0.010 A 
ATOM     30  C   UNL A   1      42.858  22.231  27.952  1.00  0.00     0.010 A 
ATOM     31  C   UNL A   1      43.358  23.019  26.903  1.00  0.00    -0.014 A 
BRANCH  31  32
ATOM     32  C   UNL A   1      43.663  24.450  27.152  1.00  0.00     0.031 A 
ATOM     33  C   UNL A   1      45.070  24.955  27.004  1.00  0.00     0.074 A 
ATOM     34  C   UNL A   1      42.688  25.274  27.585  1.00  0.00     0.049 A 
ATOM     35  N   UNL A   1      45.551  26.145  27.255  1.00  0.00    -0.248 NA
ATOM     36  C   UNL A   1      46.075  23.986  26.538  1.00  0.00     0.031 C 
ATOM     37  C   UNL A   1      41.293  24.890  27.811  1.00  0.00     0.029 A 
ATOM     38  N   UNL A   1      42.722  26.605  27.923  1.00  0.00    -0.354 N 
ATOM     39  C   UNL A   1      46.911  26.064  26.988  1.00  0.00     0.074 A 
ATOM     40  C   UNL A   1      47.191  24.695  26.616  1.00  0.00     0.031 C 
ATOM     41  C   UNL A   1      40.601  25.964  28.223  1.00  0.00     0.029 A 
ATOM     42  C   UNL A   1      41.510  27.098  28.347  1.00  0.00     0.049 A 
ATOM     43  H   UNL A   1      43.536  27.155  27.866  1.00  0.00     0.167 HD
ATOM     44  C   UNL A   1      47.838  27.050  27.026  1.00  0.00     0.037 A 
ATOM     45  C   UNL A   1      41.177  28.320  28.806  1.00  0.00     0.037 A 
ATOM     46  C   UNL A   1      47.549  28.412  27.387  1.00  0.00     0.049 A 
ATOM     47  C   UNL A   1      42.238  29.386  28.884  1.00  0.00     0.074 A 
ATOM     48  C   UNL A   1      48.405  29.498  27.398  1.00  0.00     0.029 A 
ATOM     49  N   UNL A   1      46.312  28.872  27.816  1.00  0.00    -0.354 N 
ATOM     50  N   UNL A   1      43.503  29.320  28.545  1.00  0.00    -0.248 NA
ATOM     51  C   UNL A   1      41.827  30.696  29.409  1.00  0.00     0.031 C 
ATOM     52  C   UNL A   1      47.708  30.598  27.907  1.00  0.00     0.029 A 
ATOM     53  C   UNL A   1      46.396  30.217  28.140  1.00  0.00     0.049 A 
ATOM     54  H   UNL A   1      45.497  28.325  27.881  1.00  0.00     0.167 HD
ATOM     55  C   UNL A   1      44.031  30.580  28.792  1.00  0.00     0.074 A 
ATOM     56  C   UNL A   1      42.944  31.399  29.286  1.00  0.00     0.031 C 
ATOM     57  C   UNL A   1      45.303  31.019  28.629  1.00  0.00     0.037 A 
BRANCH  44  58
ATOM     58  C   UNL A   1      49.255  26.692  26.680  1.00  0.00     0.064 A 
ATOM     59  C   UNL A   1      49.742  26.784  25.367  1.00  0.00     0.173 A 
ATOM     60  C   UNL A   1      50.152  26.298  27.685  1.00  0.00     0.173 A 
ATOM     61  F   UNL A   1      48.925  27.147  24.366  1.00  0.00    -0.203 F 
ATOM     62  C   UNL A   1      51.065  26.467  25.069  1.00  0.00     0.198 A 
ATOM     63  C   UNL A   1      51.482  26.018  27.389  1.00  0.00     0.198 A 
ATOM     64  F   UNL A   1      49.741  26.198  28.957  1.00  0.00    -0.203 F 
ATOM     65  F   UNL A   1      51.493  26.512  23.800  1.00  0.00    -0.200 F 
ATOM     66  C   UNL A   1      51.936  26.094  26.081  1.00  0.00     0.200 A 
ATOM     67  F   UNL A   1      52.327  25.676  28.371  1.00  0.00    -0.200 F 
ATOM     68  F   UNL A   1      53.213  25.804  25.795  1.00  0.00    -0.200 F 
ENDBRANCH  44  58
BRANCH  45  69
ATOM     69  C   UNL A   1      39.780  28.602  29.239  1.00  0.00     0.064 A 
ATOM     70  C   UNL A   1      38.840  29.142  28.349  1.00  0.00     0.173 A 
ATOM     71  C   UNL A   1      39.361  28.362  30.557  1.00  0.00     0.173 A 
ATOM     72  F   UNL A   1      39.194  29.410  27.084  1.00  0.00    -0.203 F 
ATOM     73  C   UNL A   1      37.548  29.456  28.767  1.00  0.00     0.198 A 
ATOM     74  C   UNL A   1      38.059  28.641  30.963  1.00  0.00     0.198 A 
ATOM     75  F   UNL A   1      40.217  27.843  31.450  1.00  0.00    -0.203 F 
ATOM     76  F   UNL A   1      36.690  30.027  27.910  1.00  0.00    -0.200 F 
ATOM     77  C   UNL A   1      37.157  29.200  30.072  1.00  0.00     0.200 A 
ATOM     78  F   UNL A   1      37.680  28.372  32.221  1.00  0.00    -0.200 F 
ATOM     79  F   UNL A   1      35.914  29.500  30.473  1.00  0.00    -0.200 F 
ENDBRANCH  45  69
BRANCH  57  80
ATOM     80  C   UNL A   1      45.592  32.456  28.966  1.00  0.00     0.064 A 
ATOM     81  C   UNL A   1      46.077  32.833  30.227  1.00  0.00     0.173 A 
ATOM     82  C   UNL A   1      45.440  33.457  27.994  1.00  0.00     0.173 A 
ATOM     83  F   UNL A   1      46.228  31.917  31.195  1.00  0.00    -0.203 F 
ATOM     84  C   UNL A   1      46.380  34.163  30.508  1.00  0.00     0.198 A 
ATOM     85  C   UNL A   1      45.780  34.779  28.267  1.00  0.00     0.198 A 
ATOM     86  F   UNL A   1      44.986  33.149  26.770  1.00  0.00    -0.203 F 
ATOM     87  F   UNL A   1      46.798  34.507  31.734  1.00  0.00    -0.200 F 
ATOM     88  C   UNL A   1      46.243  35.132  29.526  1.00  0.00     0.200 A 
ATOM     89  F   UNL A   1      45.665  35.710  27.310  1.00  0.00    -0.200 F 
ATOM     90  F   UNL A   1      46.551  36.408  29.793  1.00  0.00    -0.200 F 
ENDBRANCH  57  80
ENDBRANCH  31  32
ENDBRANCH  23  26
ENDBRANCH  21  22
ENDBRANCH  20  21
ENDBRANCH  19  20
ENDBRANCH   1  19
TORSDOF 16
ENDMDL
MODEL 2
REMARK VINA RESULT:     -11.4      0.638      7.423
REMARK SMILES N#Cc1cccc(NCCCC(=O)NCCCCNC(=O)c2ccc(-c3c4nc(c(-c5c(F)c(F)c(F)c(F)c5F)c5ccc([nH]5)c(-c5c(F)c(F)c(F)c(F)c5F)c5nc(c(-c6c(F)c(F)c(F)c(F)c6F)c6ccc3[nH]6)C=C5)C=C4)cc2)c1
REMARK SMILES IDX 15 1 14 2 12 3 13 4 11 6 10 7 9 8 8 9 7 11 3 12 4 13 85 14
REMARK SMILES IDX 5 15 6 16 2 17 1 18 16 19 17 20 18 21 19 22 20 23 21 25
REMARK SMILES IDX 22 26 23 27 84 28 24 29 83 30 25 31 26 32 27 33 77 34 28 35
REMARK SMILES IDX 82 36 76 37 78 38 29 39 81 40 75 41 74 42 30 44 62 45 42 46
REMARK SMILES IDX 61 47 43 48 46 49 60 50 79 51 44 52 45 53 59 55 80 56 47 57
REMARK SMILES IDX 31 58 32 59 40 60 33 61 34 62 38 63 41 64 35 65 36 66 39 67
REMARK SMILES IDX 37 68 63 69 64 70 72 71 65 72 66 73 70 74 73 75 67 76 68 77
REMARK SMILES IDX 71 78 69 79 48 80 49 81 57 82 50 83 51 84 55 85 58 86 52 87
REMARK SMILES IDX 53 88 56 89 54 90
REMARK H PARENT 14 5 8 10 19 24 78 43 46 54
REMARK Flexibility Score: inf
ROOT
ATOM      1  C   UNL A   1      36.270  22.383  25.201  1.00  0.00     0.116 C 
ENDROOT
BRANCH   1   2
ATOM      2  N   UNL A   1      35.607  22.239  26.478  1.00  0.00    -0.356 N 
ATOM      3  C   UNL A   1      34.410  22.741  26.885  1.00  0.00     0.220 C 
ATOM      4  O   UNL A   1      34.078  22.582  28.060  1.00  0.00    -0.275 OA
ATOM      5  H   UNL A   1      36.089  21.703  27.148  1.00  0.00     0.163 HD
BRANCH   3   6
ATOM      6  C   UNL A   1      33.494  23.438  25.901  1.00  0.00     0.102 C 
BRANCH   6   7
ATOM      7  C   UNL A   1      32.987  22.566  24.749  1.00  0.00     0.031 C 
BRANCH   7   8
ATOM      8  C   UNL A   1      31.776  21.662  25.001  1.00  0.00     0.113 C 
BRANCH   8   9
ATOM      9  N   UNL A   1      32.161  20.331  25.435  1.00  0.00    -0.385 N 
ATOM     10  H   UNL A   1      32.128  20.141  26.400  1.00  0.00     0.160 HD
BRANCH   9  11
ATOM     11  C   UNL A   1      32.572  19.311  24.598  1.00  0.00     0.035 A 
ATOM     12  C   UNL A   1      33.858  17.245  24.336  1.00  0.00     0.054 A 
ATOM     13  C   UNL A   1      33.380  17.099  23.035  1.00  0.00     0.019 A 
ATOM     14  C   UNL A   1      33.466  18.353  25.100  1.00  0.00     0.045 A 
ATOM     15  C   UNL A   1      32.540  18.072  22.498  1.00  0.00     0.003 A 
ATOM     16  C   UNL A   1      32.154  19.174  23.271  1.00  0.00     0.026 A 
BRANCH  12  17
ATOM     17  C   UNL A   1      34.726  16.258  24.906  1.00  0.00     0.099 C 
ATOM     18  N   UNL A   1      35.418  15.453  25.377  1.00  0.00    -0.192 NA
ENDBRANCH  12  17
ENDBRANCH   9  11
ENDBRANCH   8   9
ENDBRANCH   7   8
ENDBRANCH   6   7
ENDBRANCH   3   6
ENDBRANCH   1   2
BRANCH   1  19
ATOM     19  C   UNL A   1      37.788  22.354  25.379  1.00  0.00     0.023 C 
BRANCH  19  20
ATOM     20  C   UNL A   1      38.389  20.957  25.376  1.00  0.00     0.023 C 
BRANCH  20  21
ATOM     21  C   UNL A   1      39.510  20.761  26.379  1.00  0.00     0.116 C 
BRANCH  21  22
ATOM     22  N   UNL A   1      40.290  19.553  26.144  1.00  0.00    -0.352 N 
ATOM     23  C   UNL A   1      41.659  19.424  26.087  1.00  0.00     0.251 C 
ATOM     24  H   UNL A   1      39.773  18.725  26.010  1.00  0.00     0.163 HD
ATOM     25  O   UNL A   1      42.186  18.371  25.751  1.00  0.00    -0.269 OA
BRANCH  23  26
ATOM     26  C   UNL A   1      42.481  20.613  26.389  1.00  0.00     0.039 A 
ATOM     27  C   UNL A   1      43.003  21.356  25.332  1.00  0.00     0.014 A 
ATOM     28  C   UNL A   1      42.599  21.060  27.708  1.00  0.00     0.014 A 
ATOM     29  C   UNL A   1      43.556  22.610  25.591  1.00  0.00     0.010 A 
ATOM     30  C   UNL A   1      43.051  22.351  27.948  1.00  0.00     0.010 A 
ATOM     31  C   UNL A   1      43.523  23.143  26.890  1.00  0.00    -0.014 A 
BRANCH  31  32
ATOM     32  C   UNL A   1      43.948  24.539  27.162  1.00  0.00     0.031 A 
ATOM     33  C   UNL A   1      42.943  25.552  27.631  1.00  0.00     0.074 A 
ATOM     34  C   UNL A   1      45.219  24.911  26.912  1.00  0.00     0.049 A 
ATOM     35  N   UNL A   1      43.097  26.834  27.842  1.00  0.00    -0.248 NA
ATOM     36  C   UNL A   1      41.574  25.065  27.869  1.00  0.00     0.031 C 
ATOM     37  C   UNL A   1      46.276  24.030  26.410  1.00  0.00     0.029 A 
ATOM     38  N   UNL A   1      45.839  26.130  27.035  1.00  0.00    -0.354 N 
ATOM     39  C   UNL A   1      41.849  27.304  28.226  1.00  0.00     0.074 A 
ATOM     40  C   UNL A   1      40.934  26.187  28.160  1.00  0.00     0.031 C 
ATOM     41  C   UNL A   1      47.416  24.729  26.293  1.00  0.00     0.029 A 
ATOM     42  C   UNL A   1      47.161  26.119  26.655  1.00  0.00     0.049 A 
ATOM     43  H   UNL A   1      45.381  26.937  27.363  1.00  0.00     0.167 HD
ATOM     44  C   UNL A   1      41.505  28.552  28.622  1.00  0.00     0.037 A 
ATOM     45  C   UNL A   1      48.059  27.121  26.587  1.00  0.00     0.037 A 
ATOM     46  C   UNL A   1      42.424  29.656  28.696  1.00  0.00     0.049 A 
ATOM     47  C   UNL A   1      47.636  28.510  26.988  1.00  0.00     0.074 A 
ATOM     48  C   UNL A   1      42.187  30.943  29.143  1.00  0.00     0.029 A 
ATOM     49  N   UNL A   1      43.752  29.608  28.299  1.00  0.00    -0.354 N 
ATOM     50  N   UNL A   1      46.474  28.925  27.432  1.00  0.00    -0.248 NA
ATOM     51  C   UNL A   1      48.647  29.571  26.876  1.00  0.00     0.031 C 
ATOM     52  C   UNL A   1      43.349  31.695  28.944  1.00  0.00     0.029 A 
ATOM     53  C   UNL A   1      44.334  30.857  28.446  1.00  0.00     0.049 A 
ATOM     54  H   UNL A   1      44.214  28.806  27.963  1.00  0.00     0.167 HD
ATOM     55  C   UNL A   1      46.621  30.284  27.676  1.00  0.00     0.074 A 
ATOM     56  C   UNL A   1      47.992  30.620  27.353  1.00  0.00     0.031 C 
ATOM     57  C   UNL A   1      45.702  31.175  28.122  1.00  0.00     0.037 A 
BRANCH  44  58
ATOM     58  C   UNL A   1      40.071  28.797  28.996  1.00  0.00     0.064 A 
ATOM     59  C   UNL A   1      39.111  29.176  28.045  1.00  0.00     0.173 A 
ATOM     60  C   UNL A   1      39.640  28.603  30.317  1.00  0.00     0.173 A 
ATOM     61  F   UNL A   1      39.470  29.385  26.768  1.00  0.00    -0.203 F 
ATOM     62  C   UNL A   1      37.782  29.378  28.407  1.00  0.00     0.198 A 
ATOM     63  C   UNL A   1      38.304  28.770  30.669  1.00  0.00     0.198 A 
ATOM     64  F   UNL A   1      40.514  28.236  31.267  1.00  0.00    -0.203 F 
ATOM     65  F   UNL A   1      36.895  29.792  27.491  1.00  0.00    -0.200 F 
ATOM     66  C   UNL A   1      37.378  29.166  29.716  1.00  0.00     0.200 A 
ATOM     67  F   UNL A   1      37.912  28.545  31.930  1.00  0.00    -0.200 F 
ATOM     68  F   UNL A   1      36.096  29.347  30.061  1.00  0.00    -0.200 F 
ENDBRANCH  44  58
BRANCH  45  69
ATOM     69  C   UNL A   1      49.444  26.855  26.109  1.00  0.00     0.064 A 
ATOM     70  C   UNL A   1      49.788  27.013  24.759  1.00  0.00     0.173 A 
ATOM     71  C   UNL A   1      50.447  26.413  26.986  1.00  0.00     0.173 A 
ATOM     72  F   UNL A   1      48.863  27.412  23.875  1.00  0.00    -0.203 F 
ATOM     73  C   UNL A   1      51.070  26.712  24.301  1.00  0.00     0.198 A 
ATOM     74  C   UNL A   1      51.737  26.150  26.534  1.00  0.00     0.198 A 
ATOM     75  F   UNL A   1      50.175  26.248  28.290  1.00  0.00    -0.203 F 
ATOM     76  F   UNL A   1      51.353  26.814  22.995  1.00  0.00    -0.200 F 
ATOM     77  C   UNL A   1      52.045  26.287  25.190  1.00  0.00     0.200 A 
ATOM     78  F   UNL A   1      52.682  25.758  27.401  1.00  0.00    -0.200 F 
ATOM     79  F   UNL A   1      53.278  26.000  24.750  1.00  0.00    -0.200 F 
ENDBRANCH  45  69
BRANCH  57  80
ATOM     80  C   UNL A   1      46.148  32.598  28.311  1.00  0.00     0.064 A 
ATOM     81  C   UNL A   1      46.733  33.034  29.509  1.00  0.00     0.173 A 
ATOM     82  C   UNL A   1      46.044  33.520  27.258  1.00  0.00     0.173 A 
ATOM     83  F   UNL A   1      46.843  32.196  30.551  1.00  0.00    -0.203 F 
ATOM     84  C   UNL A   1      47.178  34.345  29.652  1.00  0.00     0.198 A 
ATOM     85  C   UNL A   1      46.525  34.820  27.391  1.00  0.00     0.198 A 
ATOM     86  F   UNL A   1      45.499  33.154  26.088  1.00  0.00    -0.203 F 
ATOM     87  F   UNL A   1      47.692  34.752  30.821  1.00  0.00    -0.200 F 
ATOM     88  C   UNL A   1      47.085  35.233  28.591  1.00  0.00     0.200 A 
ATOM     89  F   UNL A   1      46.452  35.669  26.358  1.00  0.00    -0.200 F 
ATOM     90  F   UNL A   1      47.531  36.490  28.725  1.00  0.00    -0.200 F 
ENDBRANCH  57  80
ENDBRANCH  31  32
ENDBRANCH  23  26
ENDBRANCH  21  22
ENDBRANCH  20  21
ENDBRANCH  19  20
ENDBRANCH   1  19
TORSDOF 16
ENDMDL
MODEL 3
REMARK VINA RESULT:     -11.2      0.744      7.702
REMARK SMILES N#Cc1cccc(NCCCC(=O)NCCCCNC(=O)c2ccc(-c3c4nc(c(-c5c(F)c(F)c(F)c(F)c5F)c5ccc([nH]5)c(-c5c(F)c(F)c(F)c(F)c5F)c5nc(c(-c6c(F)c(F)c(F)c(F)c6F)c6ccc3[nH]6)C=C5)C=C4)cc2)c1
REMARK SMILES IDX 15 1 14 2 12 3 13 4 11 6 10 7 9 8 8 9 7 11 3 12 4 13 85 14
REMARK SMILES IDX 5 15 6 16 2 17 1 18 16 19 17 20 18 21 19 22 20 23 21 25
REMARK SMILES IDX 22 26 23 27 84 28 24 29 83 30 25 31 26 32 27 33 77 34 28 35
REMARK SMILES IDX 82 36 76 37 78 38 29 39 81 40 75 41 74 42 30 44 62 45 42 46
REMARK SMILES IDX 61 47 43 48 46 49 60 50 79 51 44 52 45 53 59 55 80 56 47 57
REMARK SMILES IDX 31 58 32 59 40 60 33 61 34 62 38 63 41 64 35 65 36 66 39 67
REMARK SMILES IDX 37 68 63 69 64 70 72 71 65 72 66 73 70 74 73 75 67 76 68 77
REMARK SMILES IDX 71 78 69 79 48 80 49 81 57 82 50 83 51 84 55 85 58 86 52 87
REMARK SMILES IDX 53 88 56 89 54 90
REMARK H PARENT 14 5 8 10 19 24 78 43 46 54
REMARK Flexibility Score: inf
ROOT
ATOM      1  C   UNL A   1      35.987  21.324  24.800  1.00  0.00     0.116 C 
ENDROOT
BRANCH   1   2
ATOM      2  N   UNL A   1      35.249  22.470  24.319  1.00  0.00    -0.356 N 
ATOM      3  C   UNL A   1      34.431  23.314  25.004  1.00  0.00     0.220 C 
ATOM      4  O   UNL A   1      33.813  24.172  24.372  1.00  0.00    -0.275 OA
ATOM      5  H   UNL A   1      35.351  22.668  23.360  1.00  0.00     0.163 HD
BRANCH   3   6
ATOM      6  C   UNL A   1      34.320  23.223  26.511  1.00  0.00     0.102 C 
BRANCH   6   7
ATOM      7  C   UNL A   1      33.168  22.360  27.032  1.00  0.00     0.031 C 
BRANCH   7   8
ATOM      8  C   UNL A   1      33.209  20.853  26.761  1.00  0.00     0.113 C 
BRANCH   8   9
ATOM      9  N   UNL A   1      32.400  20.474  25.617  1.00  0.00    -0.385 N 
ATOM     10  H   UNL A   1      31.566  20.974  25.465  1.00  0.00     0.160 HD
BRANCH   9  11
ATOM     11  C   UNL A   1      32.710  19.466  24.724  1.00  0.00     0.035 A 
ATOM     12  C   UNL A   1      33.820  17.320  24.335  1.00  0.00     0.054 A 
ATOM     13  C   UNL A   1      33.303  17.274  23.042  1.00  0.00     0.019 A 
ATOM     14  C   UNL A   1      33.535  18.417  25.159  1.00  0.00     0.045 A 
ATOM     15  C   UNL A   1      32.532  18.334  22.571  1.00  0.00     0.003 A 
ATOM     16  C   UNL A   1      32.253  19.425  23.404  1.00  0.00     0.026 A 
BRANCH  12  17
ATOM     17  C   UNL A   1      34.619  16.241  24.836  1.00  0.00     0.099 C 
ATOM     18  N   UNL A   1      35.254  15.357  25.242  1.00  0.00    -0.192 NA
ENDBRANCH  12  17
ENDBRANCH   9  11
ENDBRANCH   8   9
ENDBRANCH   7   8
ENDBRANCH   6   7
ENDBRANCH   3   6
ENDBRANCH   1   2
BRANCH   1  19
ATOM     19  C   UNL A   1      37.375  21.745  25.284  1.00  0.00     0.023 C 
BRANCH  19  20
ATOM     20  C   UNL A   1      38.470  20.730  24.992  1.00  0.00     0.023 C 
BRANCH  20  21
ATOM     21  C   UNL A   1      39.536  20.641  26.067  1.00  0.00     0.116 C 
BRANCH  21  22
ATOM     22  N   UNL A   1      40.306  19.405  26.015  1.00  0.00    -0.352 N 
ATOM     23  C   UNL A   1      41.667  19.246  26.151  1.00  0.00     0.251 C 
ATOM     24  H   UNL A   1      39.788  18.581  25.864  1.00  0.00     0.163 HD
ATOM     25  O   UNL A   1      42.204  18.163  25.955  1.00  0.00    -0.269 OA
BRANCH  23  26
ATOM     26  C   UNL A   1      42.474  20.436  26.486  1.00  0.00     0.039 A 
ATOM     27  C   UNL A   1      43.073  21.155  25.453  1.00  0.00     0.014 A 
ATOM     28  C   UNL A   1      42.504  20.907  27.801  1.00  0.00     0.014 A 
ATOM     29  C   UNL A   1      43.616  22.410  25.727  1.00  0.00     0.010 A 
ATOM     30  C   UNL A   1      42.948  22.199  28.048  1.00  0.00     0.010 A 
ATOM     31  C   UNL A   1      43.497  22.969  27.010  1.00  0.00    -0.014 A 
BRANCH  31  32
ATOM     32  C   UNL A   1      43.912  24.367  27.284  1.00  0.00     0.031 A 
ATOM     33  C   UNL A   1      42.891  25.384  27.706  1.00  0.00     0.074 A 
ATOM     34  C   UNL A   1      45.192  24.736  27.077  1.00  0.00     0.049 A 
ATOM     35  N   UNL A   1      43.038  26.668  27.911  1.00  0.00    -0.248 NA
ATOM     36  C   UNL A   1      41.514  24.899  27.898  1.00  0.00     0.031 C 
ATOM     37  C   UNL A   1      46.266  23.850  26.623  1.00  0.00     0.029 A 
ATOM     38  N   UNL A   1      45.808  25.957  27.211  1.00  0.00    -0.354 N 
ATOM     39  C   UNL A   1      41.777  27.142  28.244  1.00  0.00     0.074 A 
ATOM     40  C   UNL A   1      40.865  26.024  28.155  1.00  0.00     0.031 C 
ATOM     41  C   UNL A   1      47.410  24.548  26.542  1.00  0.00     0.029 A 
ATOM     42  C   UNL A   1      47.143  25.942  26.881  1.00  0.00     0.049 A 
ATOM     43  H   UNL A   1      45.338  26.766  27.516  1.00  0.00     0.167 HD
ATOM     44  C   UNL A   1      41.419  28.394  28.615  1.00  0.00     0.037 A 
ATOM     45  C   UNL A   1      48.043  26.943  26.836  1.00  0.00     0.037 A 
ATOM     46  C   UNL A   1      42.336  29.498  28.713  1.00  0.00     0.049 A 
ATOM     47  C   UNL A   1      47.606  28.336  27.209  1.00  0.00     0.074 A 
ATOM     48  C   UNL A   1      42.083  30.789  29.138  1.00  0.00     0.029 A 
ATOM     49  N   UNL A   1      43.677  29.446  28.366  1.00  0.00    -0.354 N 
ATOM     50  N   UNL A   1      46.429  28.755  27.606  1.00  0.00    -0.248 NA
ATOM     51  C   UNL A   1      48.621  29.395  27.124  1.00  0.00     0.031 C 
ATOM     52  C   UNL A   1      43.252  31.539  28.975  1.00  0.00     0.029 A 
ATOM     53  C   UNL A   1      44.254  30.696  28.522  1.00  0.00     0.049 A 
ATOM     54  H   UNL A   1      44.150  28.641  28.054  1.00  0.00     0.167 HD
ATOM     55  C   UNL A   1      46.567  30.116  27.842  1.00  0.00     0.074 A 
ATOM     56  C   UNL A   1      47.949  30.449  27.567  1.00  0.00     0.031 C 
ATOM     57  C   UNL A   1      45.633  31.011  28.245  1.00  0.00     0.037 A 
BRANCH  44  58
ATOM     58  C   UNL A   1      39.972  28.642  28.934  1.00  0.00     0.064 A 
ATOM     59  C   UNL A   1      39.451  28.437  30.221  1.00  0.00     0.173 A 
ATOM     60  C   UNL A   1      39.104  29.136  27.949  1.00  0.00     0.173 A 
ATOM     61  F   UNL A   1      40.235  27.955  31.199  1.00  0.00    -0.203 F 
ATOM     62  C   UNL A   1      38.112  28.692  30.502  1.00  0.00     0.198 A 
ATOM     63  C   UNL A   1      37.775  29.425  28.243  1.00  0.00     0.198 A 
ATOM     64  F   UNL A   1      39.549  29.355  26.703  1.00  0.00    -0.203 F 
ATOM     65  F   UNL A   1      37.626  28.439  31.725  1.00  0.00    -0.200 F 
ATOM     66  C   UNL A   1      37.277  29.194  29.516  1.00  0.00     0.200 A 
ATOM     67  F   UNL A   1      36.975  29.929  27.293  1.00  0.00    -0.200 F 
ATOM     68  F   UNL A   1      35.992  29.453  29.792  1.00  0.00    -0.200 F 
ENDBRANCH  44  58
BRANCH  45  69
ATOM     69  C   UNL A   1      49.444  26.672  26.413  1.00  0.00     0.064 A 
ATOM     70  C   UNL A   1      50.420  26.283  27.342  1.00  0.00     0.173 A 
ATOM     71  C   UNL A   1      49.844  26.819  25.075  1.00  0.00     0.173 A 
ATOM     72  F   UNL A   1      50.096  26.147  28.635  1.00  0.00    -0.203 F 
ATOM     73  C   UNL A   1      51.744  26.081  26.955  1.00  0.00     0.198 A 
ATOM     74  C   UNL A   1      51.160  26.580  24.684  1.00  0.00     0.198 A 
ATOM     75  F   UNL A   1      48.952  27.185  24.143  1.00  0.00    -0.203 F 
ATOM     76  F   UNL A   1      52.667  25.769  27.876  1.00  0.00    -0.200 F 
ATOM     77  C   UNL A   1      52.111  26.223  25.627  1.00  0.00     0.200 A 
ATOM     78  F   UNL A   1      51.505  26.700  23.395  1.00  0.00    -0.200 F 
ATOM     79  F   UNL A   1      53.384  26.026  25.255  1.00  0.00    -0.200 F 
ENDBRANCH  45  69
BRANCH  57  80
ATOM     80  C   UNL A   1      46.072  32.436  28.437  1.00  0.00     0.064 A 
ATOM     81  C   UNL A   1      45.969  33.383  27.408  1.00  0.00     0.173 A 
ATOM     82  C   UNL A   1      46.543  32.872  29.685  1.00  0.00     0.173 A 
ATOM     83  F   UNL A   1      45.538  33.015  26.192  1.00  0.00    -0.203 F 
ATOM     84  C   UNL A   1      46.341  34.709  27.616  1.00  0.00     0.198 A 
ATOM     85  C   UNL A   1      46.877  34.206  29.901  1.00  0.00     0.198 A 
ATOM     86  F   UNL A   1      46.654  32.009  30.706  1.00  0.00    -0.203 F 
ATOM     87  F   UNL A   1      46.278  35.586  26.604  1.00  0.00    -0.200 F 
ATOM     88  C   UNL A   1      46.783  35.122  28.863  1.00  0.00     0.200 A 
ATOM     89  F   UNL A   1      47.285  34.606  31.112  1.00  0.00    -0.200 F 
ATOM     90  F   UNL A   1      47.123  36.402  29.066  1.00  0.00    -0.200 F 
ENDBRANCH  57  80
ENDBRANCH  31  32
ENDBRANCH  23  26
ENDBRANCH  21  22
ENDBRANCH  20  21
ENDBRANCH  19  20
ENDBRANCH   1  19
TORSDOF 16
ENDMDL
