MODEL 1
REMARK VINA RESULT:     -12.4      0.000      0.000
REMARK SMILES O=C(NCCCCNC(=O)[C@@H]1C=C[C@H](NC(=O)[C@@H]2Cc3ccccc3O2)C1)c1ccc(-c2c3nc(c(-c4c(F)c(F)c(F)c(F)c4F)c4ccc([nH]4)c(-c4c(F)c(F)c(F)c(F)c4F)c4nc(c(-c5c(F)c(F)c(F)c(F)c5F)c5ccc2[nH]5)C=C4)C=C3)cc1
REMARK SMILES IDX 5 1 4 2 3 3 1 4 2 5 28 7 29 8 90 9 30 10 89 11 31 12 32 13
REMARK SMILES IDX 33 14 83 15 34 16 88 17 82 18 84 19 35 20 87 21 81 22 80 23
REMARK SMILES IDX 36 25 68 26 48 27 67 28 49 29 52 30 66 31 85 32 50 33 51 34
REMARK SMILES IDX 65 36 86 37 53 38 37 39 38 40 46 41 39 42 40 43 44 44 47 45
REMARK SMILES IDX 41 46 42 47 45 48 43 49 69 50 70 51 78 52 71 53 72 54 76 55
REMARK SMILES IDX 79 56 73 57 74 58 77 59 75 60 54 61 55 62 63 63 56 64 57 65
REMARK SMILES IDX 61 66 64 67 58 68 59 69 62 70 60 71 6 72 7 73 8 74 9 75
REMARK SMILES IDX 10 77 11 78 12 79 27 80 13 81 14 82 15 83 16 84 17 86 18 87
REMARK SMILES IDX 19 88 26 89 20 90 25 91 21 92 24 93 22 94 23 95
REMARK H PARENT 3 6 84 24 52 35 8 76 15 85
REMARK Flexibility Score: inf
ROOT
ATOM      1  C   UNL A   1      39.492  20.989  25.631  1.00  0.00     0.023 C 
ENDROOT
BRANCH   1   2
ATOM      2  C   UNL A   1      39.794  19.761  26.482  1.00  0.00     0.116 C 
BRANCH   2   3
ATOM      3  N   UNL A   1      40.933  18.993  26.006  1.00  0.00    -0.352 N 
ATOM      4  O   UNL A   1      43.071  18.646  25.361  1.00  0.00    -0.269 OA
ATOM      5  C   UNL A   1      42.246  19.387  25.887  1.00  0.00     0.251 C 
ATOM      6  H   UNL A   1      40.740  18.067  25.732  1.00  0.00     0.163 HD
BRANCH   5   7
ATOM      7  C   UNL A   1      42.655  20.724  26.369  1.00  0.00     0.039 A 
ATOM      8  C   UNL A   1      42.619  21.029  27.731  1.00  0.00     0.014 A 
ATOM      9  C   UNL A   1      43.073  21.687  25.445  1.00  0.00     0.014 A 
ATOM     10  C   UNL A   1      42.863  22.331  28.153  1.00  0.00     0.010 A 
ATOM     11  C   UNL A   1      43.398  22.976  25.880  1.00  0.00     0.010 A 
ATOM     12  C   UNL A   1      43.267  23.316  27.235  1.00  0.00    -0.014 A 
BRANCH  12  13
ATOM     13  C   UNL A   1      43.611  24.668  27.744  1.00  0.00     0.031 A 
ATOM     14  C   UNL A   1      45.037  25.122  27.862  1.00  0.00     0.074 A 
ATOM     15  C   UNL A   1      42.603  25.509  28.044  1.00  0.00     0.049 A 
ATOM     16  N   UNL A   1      45.500  26.294  28.225  1.00  0.00    -0.248 NA
ATOM     17  C   UNL A   1      46.083  24.140  27.541  1.00  0.00     0.031 C 
ATOM     18  C   UNL A   1      41.180  25.168  27.986  1.00  0.00     0.029 A 
ATOM     19  N   UNL A   1      42.613  26.826  28.425  1.00  0.00    -0.354 N 
ATOM     20  C   UNL A   1      46.884  26.188  28.184  1.00  0.00     0.074 A 
ATOM     21  C   UNL A   1      47.190  24.830  27.787  1.00  0.00     0.031 C 
ATOM     22  C   UNL A   1      40.453  26.260  28.265  1.00  0.00     0.029 A 
ATOM     23  C   UNL A   1      41.357  27.362  28.573  1.00  0.00     0.049 A 
ATOM     24  H   UNL A   1      43.440  27.338  28.578  1.00  0.00     0.167 HD
ATOM     25  C   UNL A   1      47.809  27.143  28.446  1.00  0.00     0.037 A 
ATOM     26  C   UNL A   1      40.974  28.602  28.926  1.00  0.00     0.037 A 
ATOM     27  C   UNL A   1      47.499  28.498  28.828  1.00  0.00     0.049 A 
ATOM     28  C   UNL A   1      42.024  29.636  29.205  1.00  0.00     0.074 A 
ATOM     29  C   UNL A   1      48.367  29.541  29.098  1.00  0.00     0.029 A 
ATOM     30  N   UNL A   1      46.214  28.997  28.991  1.00  0.00    -0.354 N 
ATOM     31  N   UNL A   1      43.329  29.527  29.141  1.00  0.00    -0.248 NA
ATOM     32  C   UNL A   1      41.550  30.966  29.609  1.00  0.00     0.031 C 
ATOM     33  C   UNL A   1      47.611  30.662  29.458  1.00  0.00     0.029 A 
ATOM     34  C   UNL A   1      46.269  30.329  29.372  1.00  0.00     0.049 A 
ATOM     35  H   UNL A   1      45.386  28.482  28.857  1.00  0.00     0.167 HD
ATOM     36  C   UNL A   1      43.831  30.770  29.493  1.00  0.00     0.074 A 
ATOM     37  C   UNL A   1      42.690  31.629  29.735  1.00  0.00     0.031 C 
ATOM     38  C   UNL A   1      45.122  31.163  29.618  1.00  0.00     0.037 A 
BRANCH  25  39
ATOM     39  C   UNL A   1      49.258  26.765  28.333  1.00  0.00     0.064 A 
ATOM     40  C   UNL A   1      49.936  26.819  27.106  1.00  0.00     0.173 A 
ATOM     41  C   UNL A   1      49.996  26.420  29.476  1.00  0.00     0.173 A 
ATOM     42  F   UNL A   1      49.273  27.134  25.982  1.00  0.00    -0.203 F 
ATOM     43  C   UNL A   1      51.296  26.532  27.026  1.00  0.00     0.198 A 
ATOM     44  C   UNL A   1      51.361  26.156  29.396  1.00  0.00     0.198 A 
ATOM     45  F   UNL A   1      49.396  26.360  30.674  1.00  0.00    -0.203 F 
ATOM     46  F   UNL A   1      51.919  26.566  25.840  1.00  0.00    -0.200 F 
ATOM     47  C   UNL A   1      52.009  26.210  28.172  1.00  0.00     0.200 A 
ATOM     48  F   UNL A   1      52.050  25.856  30.505  1.00  0.00    -0.200 F 
ATOM     49  F   UNL A   1      53.322  25.949  28.095  1.00  0.00    -0.200 F 
ENDBRANCH  25  39
BRANCH  26  50
ATOM     50  C   UNL A   1      39.529  28.924  29.039  1.00  0.00     0.064 A 
ATOM     51  C   UNL A   1      38.790  29.340  27.923  1.00  0.00     0.173 A 
ATOM     52  C   UNL A   1      38.856  28.814  30.264  1.00  0.00     0.173 A 
ATOM     53  F   UNL A   1      39.395  29.476  26.733  1.00  0.00    -0.203 F 
ATOM     54  C   UNL A   1      37.438  29.652  28.032  1.00  0.00     0.198 A 
ATOM     55  C   UNL A   1      37.496  29.096  30.367  1.00  0.00     0.198 A 
ATOM     56  F   UNL A   1      39.517  28.414  31.360  1.00  0.00    -0.203 F 
ATOM     57  F   UNL A   1      36.764  30.089  26.960  1.00  0.00    -0.200 F 
ATOM     58  C   UNL A   1      36.790  29.523  29.252  1.00  0.00     0.200 A 
ATOM     59  F   UNL A   1      36.872  28.954  31.543  1.00  0.00    -0.200 F 
ATOM     60  F   UNL A   1      35.487  29.816  29.356  1.00  0.00    -0.200 F 
ENDBRANCH  26  50
BRANCH  38  61
ATOM     61  C   UNL A   1      45.356  32.585  30.032  1.00  0.00     0.064 A 
ATOM     62  C   UNL A   1      45.442  33.616  29.084  1.00  0.00     0.173 A 
ATOM     63  C   UNL A   1      45.491  32.922  31.387  1.00  0.00     0.173 A 
ATOM     64  F   UNL A   1      45.337  33.339  27.776  1.00  0.00    -0.203 F 
ATOM     65  C   UNL A   1      45.689  34.928  29.477  1.00  0.00     0.198 A 
ATOM     66  C   UNL A   1      45.712  34.238  31.777  1.00  0.00     0.198 A 
ATOM     67  F   UNL A   1      45.412  31.972  32.331  1.00  0.00    -0.203 F 
ATOM     68  F   UNL A   1      45.823  35.888  28.550  1.00  0.00    -0.200 F 
ATOM     69  C   UNL A   1      45.820  35.239  30.822  1.00  0.00     0.200 A 
ATOM     70  F   UNL A   1      45.830  34.540  33.078  1.00  0.00    -0.200 F 
ATOM     71  F   UNL A   1      46.062  36.502  31.198  1.00  0.00    -0.200 F 
ENDBRANCH  38  61
ENDBRANCH  12  13
ENDBRANCH   5   7
ENDBRANCH   2   3
ENDBRANCH   1   2
BRANCH   1  72
ATOM     72  C   UNL A   1      39.339  22.304  26.402  1.00  0.00     0.023 C 
BRANCH  72  73
ATOM     73  C   UNL A   1      38.080  23.101  26.068  1.00  0.00     0.116 C 
BRANCH  73  74
ATOM     74  N   UNL A   1      37.782  23.076  24.648  1.00  0.00    -0.356 N 
ATOM     75  C   UNL A   1      36.587  22.995  23.995  1.00  0.00     0.227 C 
ATOM     76  H   UNL A   1      38.570  23.125  24.061  1.00  0.00     0.163 HD
ATOM     77  O   UNL A   1      36.609  22.994  22.762  1.00  0.00    -0.274 OA
BRANCH  75  78
ATOM     78  C   UNL A   1      35.282  22.926  24.790  1.00  0.00     0.103 C 
ATOM     79  C   UNL A   1      34.341  21.934  24.180  1.00  0.00    -0.016 C 
ATOM     80  C   UNL A   1      34.517  24.258  24.705  1.00  0.00     0.047 C 
ATOM     81  C   UNL A   1      33.261  22.523  23.661  1.00  0.00    -0.006 C 
ATOM     82  C   UNL A   1      33.283  24.007  23.826  1.00  0.00     0.106 C 
BRANCH  82  83
ATOM     83  N   UNL A   1      33.399  24.599  22.513  1.00  0.00    -0.347 N 
ATOM     84  C   UNL A   1      33.105  25.862  22.100  1.00  0.00     0.261 C 
ATOM     85  H   UNL A   1      33.742  23.999  21.813  1.00  0.00     0.164 HD
ATOM     86  O   UNL A   1      33.282  26.135  20.907  1.00  0.00    -0.271 OA
BRANCH  84  87
ATOM     87  C   UNL A   1      32.624  26.958  23.069  1.00  0.00     0.266 C 
ATOM     88  C   UNL A   1      33.856  27.592  23.741  1.00  0.00     0.095 C 
ATOM     89  O   UNL A   1      31.664  26.601  24.077  1.00  0.00    -0.480 OA
ATOM     90  C   UNL A   1      33.292  27.889  25.076  1.00  0.00    -0.002 A 
ATOM     91  C   UNL A   1      32.058  27.278  25.197  1.00  0.00     0.123 A 
ATOM     92  C   UNL A   1      33.839  28.600  26.128  1.00  0.00     0.008 A 
ATOM     93  C   UNL A   1      31.323  27.339  26.363  1.00  0.00     0.047 A 
ATOM     94  C   UNL A   1      33.108  28.686  27.316  1.00  0.00     0.001 A 
ATOM     95  C   UNL A   1      31.857  28.057  27.435  1.00  0.00     0.004 A 
ENDBRANCH  84  87
ENDBRANCH  82  83
ENDBRANCH  75  78
ENDBRANCH  73  74
ENDBRANCH  72  73
ENDBRANCH   1  72
TORSDOF 13
ENDMDL
MODEL 2
REMARK VINA RESULT:     -12.4      0.154      1.591
REMARK SMILES O=C(NCCCCNC(=O)[C@@H]1C=C[C@H](NC(=O)[C@@H]2Cc3ccccc3O2)C1)c1ccc(-c2c3nc(c(-c4c(F)c(F)c(F)c(F)c4F)c4ccc([nH]4)c(-c4c(F)c(F)c(F)c(F)c4F)c4nc(c(-c5c(F)c(F)c(F)c(F)c5F)c5ccc2[nH]5)C=C4)C=C3)cc1
REMARK SMILES IDX 5 1 4 2 3 3 1 4 2 5 28 7 29 8 90 9 30 10 89 11 31 12 32 13
REMARK SMILES IDX 33 14 83 15 34 16 88 17 82 18 84 19 35 20 87 21 81 22 80 23
REMARK SMILES IDX 36 25 68 26 48 27 67 28 49 29 52 30 66 31 85 32 50 33 51 34
REMARK SMILES IDX 65 36 86 37 53 38 37 39 38 40 46 41 39 42 40 43 44 44 47 45
REMARK SMILES IDX 41 46 42 47 45 48 43 49 69 50 70 51 78 52 71 53 72 54 76 55
REMARK SMILES IDX 79 56 73 57 74 58 77 59 75 60 54 61 55 62 63 63 56 64 57 65
REMARK SMILES IDX 61 66 64 67 58 68 59 69 62 70 60 71 6 72 7 73 8 74 9 75
REMARK SMILES IDX 10 77 11 78 12 79 27 80 13 81 14 82 15 83 16 84 17 86 18 87
REMARK SMILES IDX 19 88 26 89 20 90 25 91 21 92 24 93 22 94 23 95
REMARK H PARENT 3 6 84 24 52 35 8 76 15 85
REMARK Flexibility Score: inf
ROOT
ATOM      1  C   UNL A   1      39.431  21.069  25.698  1.00  0.00     0.023 C 
ENDROOT
BRANCH   1   2
ATOM      2  C   UNL A   1      39.814  19.841  26.516  1.00  0.00     0.116 C 
BRANCH   2   3
ATOM      3  N   UNL A   1      40.937  19.103  25.962  1.00  0.00    -0.352 N 
ATOM      4  O   UNL A   1      43.041  18.807  25.192  1.00  0.00    -0.269 OA
ATOM      5  C   UNL A   1      42.234  19.523  25.778  1.00  0.00     0.251 C 
ATOM      6  H   UNL A   1      40.744  18.179  25.680  1.00  0.00     0.163 HD
BRANCH   5   7
ATOM      7  C   UNL A   1      42.647  20.857  26.264  1.00  0.00     0.039 A 
ATOM      8  C   UNL A   1      42.655  21.144  27.630  1.00  0.00     0.014 A 
ATOM      9  C   UNL A   1      43.022  21.836  25.339  1.00  0.00     0.014 A 
ATOM     10  C   UNL A   1      42.901  22.442  28.061  1.00  0.00     0.010 A 
ATOM     11  C   UNL A   1      43.350  23.123  25.781  1.00  0.00     0.010 A 
ATOM     12  C   UNL A   1      43.263  23.443  27.143  1.00  0.00    -0.014 A 
BRANCH  12  13
ATOM     13  C   UNL A   1      43.611  24.792  27.659  1.00  0.00     0.031 A 
ATOM     14  C   UNL A   1      45.039  25.249  27.759  1.00  0.00     0.074 A 
ATOM     15  C   UNL A   1      42.607  25.628  27.981  1.00  0.00     0.049 A 
ATOM     16  N   UNL A   1      45.504  26.419  28.125  1.00  0.00    -0.248 NA
ATOM     17  C   UNL A   1      46.082  24.273  27.414  1.00  0.00     0.031 C 
ATOM     18  C   UNL A   1      41.183  25.284  27.942  1.00  0.00     0.029 A 
ATOM     19  N   UNL A   1      42.619  26.942  28.373  1.00  0.00    -0.354 N 
ATOM     20  C   UNL A   1      46.887  26.317  28.062  1.00  0.00     0.074 A 
ATOM     21  C   UNL A   1      47.191  24.963  27.649  1.00  0.00     0.031 C 
ATOM     22  C   UNL A   1      40.459  26.371  28.241  1.00  0.00     0.029 A 
ATOM     23  C   UNL A   1      41.364  27.473  28.545  1.00  0.00     0.049 A 
ATOM     24  H   UNL A   1      43.447  27.455  28.518  1.00  0.00     0.167 HD
ATOM     25  C   UNL A   1      47.814  27.272  28.318  1.00  0.00     0.037 A 
ATOM     26  C   UNL A   1      40.983  28.709  28.915  1.00  0.00     0.037 A 
ATOM     27  C   UNL A   1      47.506  28.622  28.716  1.00  0.00     0.049 A 
ATOM     28  C   UNL A   1      42.035  29.743  29.186  1.00  0.00     0.074 A 
ATOM     29  C   UNL A   1      48.376  29.666  28.982  1.00  0.00     0.029 A 
ATOM     30  N   UNL A   1      46.223  29.117  28.903  1.00  0.00    -0.354 N 
ATOM     31  N   UNL A   1      43.339  29.638  29.101  1.00  0.00    -0.248 NA
ATOM     32  C   UNL A   1      41.564  31.069  29.609  1.00  0.00     0.031 C 
ATOM     33  C   UNL A   1      47.623  30.782  29.363  1.00  0.00     0.029 A 
ATOM     34  C   UNL A   1      46.280  30.445  29.295  1.00  0.00     0.049 A 
ATOM     35  H   UNL A   1      45.395  28.601  28.777  1.00  0.00     0.167 HD
ATOM     36  C   UNL A   1      43.843  30.880  29.456  1.00  0.00     0.074 A 
ATOM     37  C   UNL A   1      42.704  31.734  29.723  1.00  0.00     0.031 C 
ATOM     38  C   UNL A   1      45.136  31.275  29.565  1.00  0.00     0.037 A 
BRANCH  25  39
ATOM     39  C   UNL A   1      49.262  26.898  28.180  1.00  0.00     0.064 A 
ATOM     40  C   UNL A   1      49.932  27.006  26.952  1.00  0.00     0.173 A 
ATOM     41  C   UNL A   1      50.006  26.504  29.302  1.00  0.00     0.173 A 
ATOM     42  F   UNL A   1      49.263  27.370  25.847  1.00  0.00    -0.203 F 
ATOM     43  C   UNL A   1      51.292  26.722  26.851  1.00  0.00     0.198 A 
ATOM     44  C   UNL A   1      51.370  26.242  29.202  1.00  0.00     0.198 A 
ATOM     45  F   UNL A   1      49.414  26.391  30.500  1.00  0.00    -0.203 F 
ATOM     46  F   UNL A   1      51.908  26.808  25.664  1.00  0.00    -0.200 F 
ATOM     47  C   UNL A   1      52.012  26.350  27.978  1.00  0.00     0.200 A 
ATOM     48  F   UNL A   1      52.066  25.893  30.293  1.00  0.00    -0.200 F 
ATOM     49  F   UNL A   1      53.324  26.092  27.882  1.00  0.00    -0.200 F 
ENDBRANCH  25  39
BRANCH  26  50
ATOM     50  C   UNL A   1      39.539  29.026  29.052  1.00  0.00     0.064 A 
ATOM     51  C   UNL A   1      38.904  28.984  30.300  1.00  0.00     0.173 A 
ATOM     52  C   UNL A   1      38.768  29.387  27.937  1.00  0.00     0.173 A 
ATOM     53  F   UNL A   1      39.597  28.628  31.392  1.00  0.00    -0.203 F 
ATOM     54  C   UNL A   1      37.547  29.272  30.426  1.00  0.00     0.198 A 
ATOM     55  C   UNL A   1      37.419  29.705  28.068  1.00  0.00     0.198 A 
ATOM     56  F   UNL A   1      39.332  29.448  26.722  1.00  0.00    -0.203 F 
ATOM     57  F   UNL A   1      36.953  29.182  31.623  1.00  0.00    -0.200 F 
ATOM     58  C   UNL A   1      36.808  29.639  29.311  1.00  0.00     0.200 A 
ATOM     59  F   UNL A   1      36.713  30.075  26.991  1.00  0.00    -0.200 F 
ATOM     60  F   UNL A   1      35.504  29.923  29.432  1.00  0.00    -0.200 F 
ENDBRANCH  26  50
BRANCH  38  61
ATOM     61  C   UNL A   1      45.372  32.693  29.988  1.00  0.00     0.064 A 
ATOM     62  C   UNL A   1      45.526  33.035  31.340  1.00  0.00     0.173 A 
ATOM     63  C   UNL A   1      45.448  33.720  29.036  1.00  0.00     0.173 A 
ATOM     64  F   UNL A   1      45.444  32.090  32.288  1.00  0.00    -0.203 F 
ATOM     65  C   UNL A   1      45.715  34.359  31.725  1.00  0.00     0.198 A 
ATOM     66  C   UNL A   1      45.663  35.039  29.422  1.00  0.00     0.198 A 
ATOM     67  F   UNL A   1      45.310  33.443  27.730  1.00  0.00    -0.203 F 
ATOM     68  F   UNL A   1      45.805  34.670  33.026  1.00  0.00    -0.200 F 
ATOM     69  C   UNL A   1      45.787  35.359  30.766  1.00  0.00     0.200 A 
ATOM     70  F   UNL A   1      45.740  36.004  28.495  1.00  0.00    -0.200 F 
ATOM     71  F   UNL A   1      45.965  36.634  31.138  1.00  0.00    -0.200 F 
ENDBRANCH  38  61
ENDBRANCH  12  13
ENDBRANCH   5   7
ENDBRANCH   2   3
ENDBRANCH   1   2
BRANCH   1  72
ATOM     72  C   UNL A   1      39.285  22.370  26.492  1.00  0.00     0.023 C 
BRANCH  72  73
ATOM     73  C   UNL A   1      38.078  23.224  26.108  1.00  0.00     0.116 C 
BRANCH  73  74
ATOM     74  N   UNL A   1      37.778  23.133  24.691  1.00  0.00    -0.356 N 
ATOM     75  C   UNL A   1      36.582  23.011  24.045  1.00  0.00     0.227 C 
ATOM     76  H   UNL A   1      38.564  23.165  24.101  1.00  0.00     0.163 HD
ATOM     77  O   UNL A   1      36.601  22.956  22.814  1.00  0.00    -0.274 OA
BRANCH  75  78
ATOM     78  C   UNL A   1      35.280  22.964  24.846  1.00  0.00     0.103 C 
ATOM     79  C   UNL A   1      34.326  21.975  24.249  1.00  0.00    -0.016 C 
ATOM     80  C   UNL A   1      34.528  24.303  24.750  1.00  0.00     0.047 C 
ATOM     81  C   UNL A   1      33.250  22.570  23.728  1.00  0.00    -0.006 C 
ATOM     82  C   UNL A   1      33.288  24.056  23.878  1.00  0.00     0.106 C 
BRANCH  82  83
ATOM     83  N   UNL A   1      33.405  24.633  22.559  1.00  0.00    -0.347 N 
ATOM     84  C   UNL A   1      33.098  25.888  22.129  1.00  0.00     0.261 C 
ATOM     85  H   UNL A   1      33.760  24.029  21.868  1.00  0.00     0.164 HD
ATOM     86  O   UNL A   1      33.279  26.148  20.934  1.00  0.00    -0.271 OA
BRANCH  84  87
ATOM     87  C   UNL A   1      32.598  26.989  23.082  1.00  0.00     0.266 C 
ATOM     88  C   UNL A   1      33.821  27.711  23.680  1.00  0.00     0.095 C 
ATOM     89  O   UNL A   1      31.701  26.616  24.141  1.00  0.00    -0.480 OA
ATOM     90  C   UNL A   1      33.297  28.023  25.027  1.00  0.00    -0.002 A 
ATOM     91  C   UNL A   1      32.104  27.352  25.221  1.00  0.00     0.123 A 
ATOM     92  C   UNL A   1      33.847  28.798  26.031  1.00  0.00     0.008 A 
ATOM     93  C   UNL A   1      31.415  27.414  26.415  1.00  0.00     0.047 A 
ATOM     94  C   UNL A   1      33.162  28.886  27.246  1.00  0.00     0.001 A 
ATOM     95  C   UNL A   1      31.953  28.196  27.439  1.00  0.00     0.004 A 
ENDBRANCH  84  87
ENDBRANCH  82  83
ENDBRANCH  75  78
ENDBRANCH  73  74
ENDBRANCH  72  73
ENDBRANCH   1  72
TORSDOF 13
ENDMDL
MODEL 3
REMARK VINA RESULT:     -12.4      5.092     10.501
REMARK SMILES O=C(NCCCCNC(=O)[C@@H]1C=C[C@H](NC(=O)[C@@H]2Cc3ccccc3O2)C1)c1ccc(-c2c3nc(c(-c4c(F)c(F)c(F)c(F)c4F)c4ccc([nH]4)c(-c4c(F)c(F)c(F)c(F)c4F)c4nc(c(-c5c(F)c(F)c(F)c(F)c5F)c5ccc2[nH]5)C=C4)C=C3)cc1
REMARK SMILES IDX 5 1 4 2 3 3 1 4 2 5 28 7 29 8 90 9 30 10 89 11 31 12 32 13
REMARK SMILES IDX 33 14 83 15 34 16 88 17 82 18 84 19 35 20 87 21 81 22 80 23
REMARK SMILES IDX 36 25 68 26 48 27 67 28 49 29 52 30 66 31 85 32 50 33 51 34
REMARK SMILES IDX 65 36 86 37 53 38 37 39 38 40 46 41 39 42 40 43 44 44 47 45
REMARK SMILES IDX 41 46 42 47 45 48 43 49 69 50 70 51 78 52 71 53 72 54 76 55
REMARK SMILES IDX 79 56 73 57 74 58 77 59 75 60 54 61 55 62 63 63 56 64 57 65
REMARK SMILES IDX 61 66 64 67 58 68 59 69 62 70 60 71 6 72 7 73 8 74 9 75
REMARK SMILES IDX 10 77 11 78 12 79 27 80 13 81 14 82 15 83 16 84 17 86 18 87
REMARK SMILES IDX 19 88 26 89 20 90 25 91 21 92 24 93 22 94 23 95
REMARK H PARENT 3 6 84 24 52 35 8 76 15 85
REMARK Flexibility Score: inf
ROOT
ATOM      1  C   UNL A   1      31.332  32.167  26.574  1.00  0.00     0.023 C 
ENDROOT
BRANCH   1   2
ATOM      2  C   UNL A   1      32.552  32.814  27.223  1.00  0.00     0.116 C 
BRANCH   2   3
ATOM      3  N   UNL A   1      32.315  34.177  27.669  1.00  0.00    -0.352 N 
ATOM      4  O   UNL A   1      32.587  36.006  28.969  1.00  0.00    -0.269 OA
ATOM      5  C   UNL A   1      32.985  34.894  28.634  1.00  0.00     0.251 C 
ATOM      6  H   UNL A   1      31.577  34.651  27.222  1.00  0.00     0.163 HD
BRANCH   5   7
ATOM      7  C   UNL A   1      34.173  34.305  29.289  1.00  0.00     0.039 A 
ATOM      8  C   UNL A   1      35.458  34.608  28.834  1.00  0.00     0.014 A 
ATOM      9  C   UNL A   1      33.998  33.432  30.367  1.00  0.00     0.014 A 
ATOM     10  C   UNL A   1      36.553  33.935  29.362  1.00  0.00     0.010 A 
ATOM     11  C   UNL A   1      35.110  32.817  30.953  1.00  0.00     0.010 A 
ATOM     12  C   UNL A   1      36.394  33.041  30.435  1.00  0.00    -0.014 A 
BRANCH  12  13
ATOM     13  C   UNL A   1      37.603  32.418  31.031  1.00  0.00     0.031 A 
ATOM     14  C   UNL A   1      38.075  32.782  32.409  1.00  0.00     0.074 A 
ATOM     15  C   UNL A   1      38.240  31.465  30.325  1.00  0.00     0.049 A 
ATOM     16  N   UNL A   1      39.072  32.280  33.097  1.00  0.00    -0.248 NA
ATOM     17  C   UNL A   1      37.345  33.849  33.109  1.00  0.00     0.031 C 
ATOM     18  C   UNL A   1      37.881  31.045  28.968  1.00  0.00     0.029 A 
ATOM     19  N   UNL A   1      39.296  30.655  30.654  1.00  0.00    -0.354 N 
ATOM     20  C   UNL A   1      39.094  32.972  34.300  1.00  0.00     0.074 A 
ATOM     21  C   UNL A   1      38.028  33.950  34.242  1.00  0.00     0.031 C 
ATOM     22  C   UNL A   1      38.666  30.021  28.602  1.00  0.00     0.029 A 
ATOM     23  C   UNL A   1      39.616  29.748  29.674  1.00  0.00     0.049 A 
ATOM     24  H   UNL A   1      39.780  30.718  31.509  1.00  0.00     0.167 HD
ATOM     25  C   UNL A   1      39.924  32.798  35.357  1.00  0.00     0.037 A 
ATOM     26  C   UNL A   1      40.573  28.803  29.638  1.00  0.00     0.037 A 
ATOM     27  C   UNL A   1      40.976  31.814  35.414  1.00  0.00     0.049 A 
ATOM     28  C   UNL A   1      41.473  28.634  30.827  1.00  0.00     0.074 A 
ATOM     29  C   UNL A   1      41.859  31.551  36.447  1.00  0.00     0.029 A 
ATOM     30  N   UNL A   1      41.285  30.928  34.392  1.00  0.00    -0.354 N 
ATOM     31  N   UNL A   1      41.467  29.282  31.966  1.00  0.00    -0.248 NA
ATOM     32  C   UNL A   1      42.515  27.604  30.723  1.00  0.00     0.031 C 
ATOM     33  C   UNL A   1      42.724  30.529  36.039  1.00  0.00     0.029 A 
ATOM     34  C   UNL A   1      42.354  30.128  34.765  1.00  0.00     0.049 A 
ATOM     35  H   UNL A   1      40.815  30.875  33.529  1.00  0.00     0.167 HD
ATOM     36  C   UNL A   1      42.499  28.739  32.716  1.00  0.00     0.074 A 
ATOM     37  C   UNL A   1      43.087  27.684  31.916  1.00  0.00     0.031 C 
ATOM     38  C   UNL A   1      42.931  29.091  33.952  1.00  0.00     0.037 A 
BRANCH  25  39
ATOM     39  C   UNL A   1      39.739  33.691  36.549  1.00  0.00     0.064 A 
ATOM     40  C   UNL A   1      40.335  34.960  36.613  1.00  0.00     0.173 A 
ATOM     41  C   UNL A   1      38.894  33.309  37.602  1.00  0.00     0.173 A 
ATOM     42  F   UNL A   1      41.158  35.369  35.636  1.00  0.00    -0.203 F 
ATOM     43  C   UNL A   1      40.100  35.808  37.693  1.00  0.00     0.198 A 
ATOM     44  C   UNL A   1      38.644  34.168  38.670  1.00  0.00     0.198 A 
ATOM     45  F   UNL A   1      38.296  32.109  37.586  1.00  0.00    -0.203 F 
ATOM     46  F   UNL A   1      40.699  37.005  37.746  1.00  0.00    -0.200 F 
ATOM     47  C   UNL A   1      39.248  35.415  38.715  1.00  0.00     0.200 A 
ATOM     48  F   UNL A   1      37.813  33.791  39.651  1.00  0.00    -0.200 F 
ATOM     49  F   UNL A   1      39.012  36.238  39.746  1.00  0.00    -0.200 F 
ENDBRANCH  25  39
BRANCH  26  50
ATOM     50  C   UNL A   1      40.727  27.954  28.430  1.00  0.00     0.064 A 
ATOM     51  C   UNL A   1      40.097  26.705  28.337  1.00  0.00     0.173 A 
ATOM     52  C   UNL A   1      41.501  28.378  27.340  1.00  0.00     0.173 A 
ATOM     53  F   UNL A   1      39.360  26.250  29.362  1.00  0.00    -0.203 F 
ATOM     54  C   UNL A   1      40.250  25.905  27.208  1.00  0.00     0.198 A 
ATOM     55  C   UNL A   1      41.630  27.591  26.199  1.00  0.00     0.198 A 
ATOM     56  F   UNL A   1      42.119  29.567  27.378  1.00  0.00    -0.203 F 
ATOM     57  F   UNL A   1      39.674  24.697  27.162  1.00  0.00    -0.200 F 
ATOM     58  C   UNL A   1      41.011  26.351  26.137  1.00  0.00     0.200 A 
ATOM     59  F   UNL A   1      42.351  28.034  25.161  1.00  0.00    -0.200 F 
ATOM     60  F   UNL A   1      41.153  25.585  25.048  1.00  0.00    -0.200 F 
ENDBRANCH  26  50
BRANCH  38  61
ATOM     61  C   UNL A   1      44.092  28.320  34.503  1.00  0.00     0.064 A 
ATOM     62  C   UNL A   1      45.413  28.752  34.308  1.00  0.00     0.173 A 
ATOM     63  C   UNL A   1      43.885  27.142  35.236  1.00  0.00     0.173 A 
ATOM     64  F   UNL A   1      45.661  29.863  33.599  1.00  0.00    -0.203 F 
ATOM     65  C   UNL A   1      46.485  28.013  34.798  1.00  0.00     0.198 A 
ATOM     66  C   UNL A   1      44.959  26.421  35.746  1.00  0.00     0.198 A 
ATOM     67  F   UNL A   1      42.640  26.690  35.452  1.00  0.00    -0.203 F 
ATOM     68  F   UNL A   1      47.741  28.415  34.552  1.00  0.00    -0.200 F 
ATOM     69  C   UNL A   1      46.258  26.851  35.520  1.00  0.00     0.200 A 
ATOM     70  F   UNL A   1      44.739  25.301  36.451  1.00  0.00    -0.200 F 
ATOM     71  F   UNL A   1      47.292  26.139  35.988  1.00  0.00    -0.200 F 
ENDBRANCH  38  61
ENDBRANCH  12  13
ENDBRANCH   5   7
ENDBRANCH   2   3
ENDBRANCH   1   2
BRANCH   1  72
ATOM     72  C   UNL A   1      31.552  30.757  26.019  1.00  0.00     0.023 C 
BRANCH  72  73
ATOM     73  C   UNL A   1      32.979  30.230  26.152  1.00  0.00     0.116 C 
BRANCH  73  74
ATOM     74  N   UNL A   1      33.428  29.569  24.941  1.00  0.00    -0.356 N 
ATOM     75  C   UNL A   1      33.275  28.277  24.527  1.00  0.00     0.227 C 
ATOM     76  H   UNL A   1      33.924  30.146  24.316  1.00  0.00     0.163 HD
ATOM     77  O   UNL A   1      33.758  27.967  23.436  1.00  0.00    -0.274 OA
BRANCH  75  78
ATOM     78  C   UNL A   1      32.512  27.279  25.398  1.00  0.00     0.103 C 
ATOM     79  C   UNL A   1      33.452  26.292  26.019  1.00  0.00    -0.016 C 
ATOM     80  C   UNL A   1      31.576  26.407  24.543  1.00  0.00     0.047 C 
ATOM     81  C   UNL A   1      33.268  25.059  25.543  1.00  0.00    -0.006 C 
ATOM     82  C   UNL A   1      32.181  24.995  24.520  1.00  0.00     0.106 C 
BRANCH  82  83
ATOM     83  N   UNL A   1      32.784  24.664  23.250  1.00  0.00    -0.347 N 
ATOM     84  C   UNL A   1      32.965  23.449  22.665  1.00  0.00     0.261 C 
ATOM     85  H   UNL A   1      33.113  25.432  22.730  1.00  0.00     0.164 HD
ATOM     86  O   UNL A   1      33.522  23.417  21.562  1.00  0.00    -0.271 OA
BRANCH  84  87
ATOM     87  C   UNL A   1      32.452  22.142  23.297  1.00  0.00     0.266 C 
ATOM     88  C   UNL A   1      33.513  21.628  24.288  1.00  0.00     0.095 C 
ATOM     89  O   UNL A   1      32.060  21.071  22.423  1.00  0.00    -0.480 OA
ATOM     90  C   UNL A   1      33.333  20.169  24.118  1.00  0.00    -0.002 A 
ATOM     91  C   UNL A   1      32.513  19.933  23.031  1.00  0.00     0.123 A 
ATOM     92  C   UNL A   1      33.887  19.122  24.831  1.00  0.00     0.008 A 
ATOM     93  C   UNL A   1      32.215  18.656  22.602  1.00  0.00     0.047 A 
ATOM     94  C   UNL A   1      33.591  17.818  24.423  1.00  0.00     0.001 A 
ATOM     95  C   UNL A   1      32.762  17.586  23.313  1.00  0.00     0.004 A 
ENDBRANCH  84  87
ENDBRANCH  82  83
ENDBRANCH  75  78
ENDBRANCH  73  74
ENDBRANCH  72  73
ENDBRANCH   1  72
TORSDOF 13
ENDMDL
