MODEL 1
REMARK VINA RESULT:     -13.3      0.000      0.000
REMARK SMILES CC[C@@H](Sc1nnc2ccc3ccccc3n12)C(=O)Nc1cccc(C(=O)NCCCCNC(=O)c2ccc(-c3c4nc(c(-c5c(F)c(F)c(F)c(F)c5F)c5ccc([nH]5)c(-c5c(F)c(F)c(F)c(F)c5F)c5nc(c(-c6c(F)c(F)c(F)c(F)c6F)c6ccc3[nH]6)C=C5)C=C4)cc2)c1
REMARK SMILES IDX 29 1 28 2 26 3 27 4 25 6 21 7 22 8 99 9 23 10 24 11 20 12
REMARK SMILES IDX 18 13 19 14 3 16 2 17 1 18 4 19 5 20 6 21 17 22 7 23 8 24
REMARK SMILES IDX 16 25 9 26 11 27 15 28 10 29 12 30 14 31 13 32 30 33 31 34
REMARK SMILES IDX 32 35 33 36 34 37 35 39 36 40 37 41 98 42 38 43 97 44 39 45
REMARK SMILES IDX 40 46 41 47 91 48 42 49 96 50 90 51 92 52 43 53 95 54 89 55
REMARK SMILES IDX 88 56 44 58 76 59 56 60 75 61 57 62 60 63 74 64 93 65 58 66
REMARK SMILES IDX 59 67 73 69 94 70 61 71 45 72 46 73 54 74 47 75 48 76 52 77
REMARK SMILES IDX 55 78 49 79 50 80 53 81 51 82 77 83 78 84 86 85 79 86 80 87
REMARK SMILES IDX 84 88 87 89 81 90 82 91 85 92 83 93 62 94 63 95 71 96 64 97
REMARK SMILES IDX 65 98 69 99 72 100 66 101 67 102 70 103 68 104
REMARK H PARENT 28 5 20 15 33 38 92 57 60 68
REMARK Flexibility Score: inf
ROOT
ATOM      1  C   UNL A   1      39.870  21.635  26.121  1.00  0.00     0.116 C 
ENDROOT
BRANCH   1   2
ATOM      2  N   UNL A   1      38.992  20.548  25.741  1.00  0.00    -0.352 N 
ATOM      3  C   UNL A   1      37.735  20.555  25.185  1.00  0.00     0.251 C 
ATOM      4  O   UNL A   1      37.244  19.462  24.889  1.00  0.00    -0.269 OA
ATOM      5  H   UNL A   1      39.358  19.650  25.908  1.00  0.00     0.163 HD
BRANCH   3   6
ATOM      6  C   UNL A   1      36.928  21.794  24.982  1.00  0.00     0.041 A 
ATOM      7  C   UNL A   1      35.170  23.341  25.588  1.00  0.00     0.041 A 
ATOM      8  C   UNL A   1      35.308  23.991  24.373  1.00  0.00     0.026 A 
ATOM      9  C   UNL A   1      36.095  22.363  25.948  1.00  0.00     0.040 A 
ATOM     10  C   UNL A   1      36.211  23.516  23.426  1.00  0.00     0.003 A 
ATOM     11  C   UNL A   1      36.978  22.389  23.711  1.00  0.00     0.014 A 
BRANCH   7  12
ATOM     12  N   UNL A   1      34.124  23.606  26.483  1.00  0.00    -0.325 N 
ATOM     13  C   UNL A   1      32.782  23.345  26.346  1.00  0.00     0.237 C 
ATOM     14  O   UNL A   1      32.089  23.523  27.361  1.00  0.00    -0.273 OA
ATOM     15  H   UNL A   1      34.388  24.039  27.325  1.00  0.00     0.169 HD
BRANCH  13  16
ATOM     16  C   UNL A   1      32.111  22.761  25.076  1.00  0.00     0.144 C 
BRANCH  16  17
ATOM     17  C   UNL A   1      31.639  21.314  25.248  1.00  0.00     0.021 C 
ATOM     18  C   UNL A   1      32.744  20.274  25.377  1.00  0.00     0.005 C 
ENDBRANCH  16  17
BRANCH  16  19
ATOM     19  S   UNL A   1      30.946  24.019  24.404  1.00  0.00    -0.072 SA
BRANCH  19  20
ATOM     20  C   UNL A   1      31.970  25.065  23.487  1.00  0.00     0.196 A 
ATOM     21  N   UNL A   1      32.333  24.752  22.260  1.00  0.00    -0.122 NA
ATOM     22  N   UNL A   1      32.510  26.292  23.845  1.00  0.00    -0.270 N 
ATOM     23  N   UNL A   1      33.158  25.733  21.791  1.00  0.00    -0.129 NA
ATOM     24  C   UNL A   1      33.274  26.645  22.730  1.00  0.00     0.161 A 
ATOM     25  C   UNL A   1      32.433  27.124  25.003  1.00  0.00     0.057 A 
ATOM     26  C   UNL A   1      34.033  27.837  22.737  1.00  0.00     0.050 A 
ATOM     27  C   UNL A   1      33.190  28.318  24.969  1.00  0.00    -0.001 A 
ATOM     28  C   UNL A   1      31.658  26.836  26.128  1.00  0.00     0.027 A 
ATOM     29  C   UNL A   1      34.011  28.650  23.799  1.00  0.00     0.014 A 
ATOM     30  C   UNL A   1      33.161  29.200  26.055  1.00  0.00     0.010 A 
ATOM     31  C   UNL A   1      31.639  27.729  27.207  1.00  0.00     0.002 A 
ATOM     32  C   UNL A   1      32.384  28.906  27.173  1.00  0.00     0.001 A 
ENDBRANCH  19  20
ENDBRANCH  16  19
ENDBRANCH  13  16
ENDBRANCH   7  12
ENDBRANCH   3   6
ENDBRANCH   1   2
BRANCH   1  33
ATOM     33  C   UNL A   1      40.659  21.408  27.398  1.00  0.00     0.023 C 
BRANCH  33  34
ATOM     34  C   UNL A   1      42.075  20.871  27.242  1.00  0.00     0.023 C 
BRANCH  34  35
ATOM     35  C   UNL A   1      42.256  19.636  26.355  1.00  0.00     0.116 C 
BRANCH  35  36
ATOM     36  N   UNL A   1      43.135  19.780  25.210  1.00  0.00    -0.352 N 
ATOM     37  C   UNL A   1      44.044  20.721  24.806  1.00  0.00     0.251 C 
ATOM     38  H   UNL A   1      43.059  19.030  24.577  1.00  0.00     0.163 HD
ATOM     39  O   UNL A   1      44.800  20.402  23.885  1.00  0.00    -0.269 OA
BRANCH  37  40
ATOM     40  C   UNL A   1      44.107  22.110  25.329  1.00  0.00     0.039 A 
ATOM     41  C   UNL A   1      44.978  22.547  26.322  1.00  0.00     0.014 A 
ATOM     42  C   UNL A   1      43.146  23.010  24.836  1.00  0.00     0.014 A 
ATOM     43  C   UNL A   1      44.765  23.758  26.961  1.00  0.00     0.010 A 
ATOM     44  C   UNL A   1      42.971  24.258  25.422  1.00  0.00     0.010 A 
ATOM     45  C   UNL A   1      43.728  24.592  26.542  1.00  0.00    -0.014 A 
BRANCH  45  46
ATOM     46  C   UNL A   1      43.518  25.823  27.299  1.00  0.00     0.031 A 
ATOM     47  C   UNL A   1      44.504  26.920  27.060  1.00  0.00     0.074 A 
ATOM     48  C   UNL A   1      42.447  26.005  28.095  1.00  0.00     0.049 A 
ATOM     49  N   UNL A   1      45.190  27.603  27.922  1.00  0.00    -0.248 NA
ATOM     50  C   UNL A   1      44.798  27.259  25.658  1.00  0.00     0.031 C 
ATOM     51  C   UNL A   1      41.261  25.155  28.224  1.00  0.00     0.029 A 
ATOM     52  N   UNL A   1      42.147  27.077  28.882  1.00  0.00    -0.354 N 
ATOM     53  C   UNL A   1      45.899  28.553  27.185  1.00  0.00     0.074 A 
ATOM     54  C   UNL A   1      45.693  28.235  25.795  1.00  0.00     0.031 C 
ATOM     55  C   UNL A   1      40.282  25.854  28.836  1.00  0.00     0.029 A 
ATOM     56  C   UNL A   1      40.812  27.142  29.248  1.00  0.00     0.049 A 
ATOM     57  H   UNL A   1      42.815  27.743  29.162  1.00  0.00     0.167 HD
ATOM     58  C   UNL A   1      46.481  29.644  27.752  1.00  0.00     0.037 A 
ATOM     59  C   UNL A   1      40.171  28.224  29.750  1.00  0.00     0.037 A 
ATOM     60  C   UNL A   1      46.730  29.468  29.152  1.00  0.00     0.049 A 
ATOM     61  C   UNL A   1      41.194  29.153  30.290  1.00  0.00     0.074 A 
ATOM     62  C   UNL A   1      47.505  28.598  29.895  1.00  0.00     0.029 A 
ATOM     63  N   UNL A   1      45.911  30.087  30.060  1.00  0.00    -0.354 N 
ATOM     64  N   UNL A   1      41.922  28.920  31.347  1.00  0.00    -0.248 NA
ATOM     65  C   UNL A   1      41.692  30.196  29.405  1.00  0.00     0.031 C 
ATOM     66  C   UNL A   1      46.770  28.379  31.095  1.00  0.00     0.029 A 
ATOM     67  C   UNL A   1      45.609  29.147  31.011  1.00  0.00     0.049 A 
ATOM     68  H   UNL A   1      45.600  31.022  30.035  1.00  0.00     0.167 HD
ATOM     69  C   UNL A   1      43.155  29.485  31.058  1.00  0.00     0.074 A 
ATOM     70  C   UNL A   1      42.924  30.340  29.899  1.00  0.00     0.031 C 
ATOM     71  C   UNL A   1      44.305  29.001  31.610  1.00  0.00     0.037 A 
BRANCH  58  72
ATOM     72  C   UNL A   1      46.573  30.986  27.072  1.00  0.00     0.064 A 
ATOM     73  C   UNL A   1      47.814  31.644  26.968  1.00  0.00     0.173 A 
ATOM     74  C   UNL A   1      45.438  31.769  26.773  1.00  0.00     0.173 A 
ATOM     75  F   UNL A   1      48.954  31.005  27.270  1.00  0.00    -0.203 F 
ATOM     76  C   UNL A   1      47.903  32.998  26.631  1.00  0.00     0.198 A 
ATOM     77  C   UNL A   1      45.534  33.105  26.385  1.00  0.00     0.198 A 
ATOM     78  F   UNL A   1      44.194  31.303  26.947  1.00  0.00    -0.203 F 
ATOM     79  F   UNL A   1      49.094  33.612  26.651  1.00  0.00    -0.200 F 
ATOM     80  C   UNL A   1      46.763  33.726  26.341  1.00  0.00     0.200 A 
ATOM     81  F   UNL A   1      44.416  33.799  26.131  1.00  0.00    -0.200 F 
ATOM     82  F   UNL A   1      46.843  35.036  26.069  1.00  0.00    -0.200 F 
ENDBRANCH  58  72
BRANCH  59  83
ATOM     83  C   UNL A   1      38.777  28.641  29.465  1.00  0.00     0.064 A 
ATOM     84  C   UNL A   1      37.876  28.912  30.506  1.00  0.00     0.173 A 
ATOM     85  C   UNL A   1      38.374  29.028  28.170  1.00  0.00     0.173 A 
ATOM     86  F   UNL A   1      38.204  28.626  31.774  1.00  0.00    -0.203 F 
ATOM     87  C   UNL A   1      36.650  29.542  30.266  1.00  0.00     0.198 A 
ATOM     88  C   UNL A   1      37.144  29.640  27.931  1.00  0.00     0.198 A 
ATOM     89  F   UNL A   1      39.201  28.906  27.123  1.00  0.00    -0.203 F 
ATOM     90  F   UNL A   1      35.841  29.840  31.292  1.00  0.00    -0.200 F 
ATOM     91  C   UNL A   1      36.288  29.909  28.980  1.00  0.00     0.200 A 
ATOM     92  F   UNL A   1      36.826  30.022  26.686  1.00  0.00    -0.200 F 
ATOM     93  F   UNL A   1      35.136  30.557  28.757  1.00  0.00    -0.200 F 
ENDBRANCH  59  83
BRANCH  71  94
ATOM     94  C   UNL A   1      44.190  28.009  32.732  1.00  0.00     0.064 A 
ATOM     95  C   UNL A   1      44.041  26.627  32.525  1.00  0.00     0.173 A 
ATOM     96  C   UNL A   1      44.415  28.446  34.043  1.00  0.00     0.173 A 
ATOM     97  F   UNL A   1      43.933  26.122  31.290  1.00  0.00    -0.203 F 
ATOM     98  C   UNL A   1      44.074  25.730  33.591  1.00  0.00     0.198 A 
ATOM     99  C   UNL A   1      44.484  27.544  35.102  1.00  0.00     0.198 A 
ATOM    100  F   UNL A   1      44.628  29.748  34.292  1.00  0.00    -0.203 F 
ATOM    101  F   UNL A   1      43.927  24.415  33.368  1.00  0.00    -0.200 F 
ATOM    102  C   UNL A   1      44.306  26.189  34.877  1.00  0.00     0.200 A 
ATOM    103  F   UNL A   1      44.761  27.985  36.337  1.00  0.00    -0.200 F 
ATOM    104  F   UNL A   1      44.388  25.321  35.896  1.00  0.00    -0.200 F 
ENDBRANCH  71  94
ENDBRANCH  45  46
ENDBRANCH  37  40
ENDBRANCH  35  36
ENDBRANCH  34  35
ENDBRANCH  33  34
ENDBRANCH   1  33
TORSDOF 16
ENDMDL
MODEL 2
REMARK VINA RESULT:     -13.1      3.082      8.641
REMARK SMILES CC[C@@H](Sc1nnc2ccc3ccccc3n12)C(=O)Nc1cccc(C(=O)NCCCCNC(=O)c2ccc(-c3c4nc(c(-c5c(F)c(F)c(F)c(F)c5F)c5ccc([nH]5)c(-c5c(F)c(F)c(F)c(F)c5F)c5nc(c(-c6c(F)c(F)c(F)c(F)c6F)c6ccc3[nH]6)C=C5)C=C4)cc2)c1
REMARK SMILES IDX 29 1 28 2 26 3 27 4 25 6 21 7 22 8 99 9 23 10 24 11 20 12
REMARK SMILES IDX 18 13 19 14 3 16 2 17 1 18 4 19 5 20 6 21 17 22 7 23 8 24
REMARK SMILES IDX 16 25 9 26 11 27 15 28 10 29 12 30 14 31 13 32 30 33 31 34
REMARK SMILES IDX 32 35 33 36 34 37 35 39 36 40 37 41 98 42 38 43 97 44 39 45
REMARK SMILES IDX 40 46 41 47 91 48 42 49 96 50 90 51 92 52 43 53 95 54 89 55
REMARK SMILES IDX 88 56 44 58 76 59 56 60 75 61 57 62 60 63 74 64 93 65 58 66
REMARK SMILES IDX 59 67 73 69 94 70 61 71 45 72 46 73 54 74 47 75 48 76 52 77
REMARK SMILES IDX 55 78 49 79 50 80 53 81 51 82 77 83 78 84 86 85 79 86 80 87
REMARK SMILES IDX 84 88 87 89 81 90 82 91 85 92 83 93 62 94 63 95 71 96 64 97
REMARK SMILES IDX 65 98 69 99 72 100 66 101 67 102 70 103 68 104
REMARK H PARENT 28 5 20 15 33 38 92 57 60 68
REMARK Flexibility Score: inf
ROOT
ATOM      1  C   UNL A   1      32.910  30.027  25.949  1.00  0.00     0.116 C 
ENDROOT
BRANCH   1   2
ATOM      2  N   UNL A   1      33.487  29.299  24.839  1.00  0.00    -0.352 N 
ATOM      3  C   UNL A   1      32.939  28.372  23.984  1.00  0.00     0.251 C 
ATOM      4  O   UNL A   1      33.653  27.963  23.065  1.00  0.00    -0.269 OA
ATOM      5  H   UNL A   1      34.434  29.502  24.665  1.00  0.00     0.163 HD
BRANCH   3   6
ATOM      6  C   UNL A   1      31.569  27.804  24.151  1.00  0.00     0.041 A 
ATOM      7  C   UNL A   1      29.961  26.336  25.206  1.00  0.00     0.041 A 
ATOM      8  C   UNL A   1      29.038  26.615  24.212  1.00  0.00     0.026 A 
ATOM      9  C   UNL A   1      31.148  27.064  25.258  1.00  0.00     0.040 A 
ATOM     10  C   UNL A   1      29.387  27.441  23.146  1.00  0.00     0.003 A 
ATOM     11  C   UNL A   1      30.667  27.988  23.091  1.00  0.00     0.014 A 
BRANCH   7  12
ATOM     12  N   UNL A   1      29.770  25.334  26.166  1.00  0.00    -0.325 N 
ATOM     13  C   UNL A   1      30.278  24.057  26.198  1.00  0.00     0.237 C 
ATOM     14  O   UNL A   1      30.094  23.427  27.251  1.00  0.00    -0.273 OA
ATOM     15  H   UNL A   1      29.192  25.579  26.923  1.00  0.00     0.169 HD
BRANCH  13  16
ATOM     16  C   UNL A   1      31.131  23.408  25.077  1.00  0.00     0.144 C 
BRANCH  16  17
ATOM     17  C   UNL A   1      30.674  23.793  23.667  1.00  0.00     0.021 C 
ATOM     18  C   UNL A   1      31.762  24.335  22.749  1.00  0.00     0.005 C 
ENDBRANCH  16  17
BRANCH  16  19
ATOM     19  S   UNL A   1      32.908  23.572  25.529  1.00  0.00    -0.072 SA
BRANCH  19  20
ATOM     20  C   UNL A   1      33.575  22.038  25.097  1.00  0.00     0.196 A 
ATOM     21  N   UNL A   1      32.807  21.070  24.644  1.00  0.00    -0.122 NA
ATOM     22  N   UNL A   1      34.897  21.620  25.134  1.00  0.00    -0.270 N 
ATOM     23  N   UNL A   1      33.586  19.973  24.414  1.00  0.00    -0.129 NA
ATOM     24  C   UNL A   1      34.826  20.290  24.712  1.00  0.00     0.161 A 
ATOM     25  C   UNL A   1      36.135  22.235  25.492  1.00  0.00     0.057 A 
ATOM     26  C   UNL A   1      35.994  19.496  24.665  1.00  0.00     0.050 A 
ATOM     27  C   UNL A   1      37.287  21.416  25.416  1.00  0.00    -0.001 A 
ATOM     28  C   UNL A   1      36.267  23.567  25.886  1.00  0.00     0.027 A 
ATOM     29  C   UNL A   1      37.181  20.013  25.002  1.00  0.00     0.014 A 
ATOM     30  C   UNL A   1      38.545  21.941  25.735  1.00  0.00     0.010 A 
ATOM     31  C   UNL A   1      37.533  24.078  26.201  1.00  0.00     0.002 A 
ATOM     32  C   UNL A   1      38.667  23.272  26.125  1.00  0.00     0.001 A 
ENDBRANCH  19  20
ENDBRANCH  16  19
ENDBRANCH  13  16
ENDBRANCH   7  12
ENDBRANCH   3   6
ENDBRANCH   1   2
BRANCH   1  33
ATOM     33  C   UNL A   1      33.560  29.768  27.296  1.00  0.00     0.023 C 
BRANCH  33  34
ATOM     34  C   UNL A   1      34.835  30.542  27.602  1.00  0.00     0.023 C 
BRANCH  34  35
ATOM     35  C   UNL A   1      34.675  31.909  28.272  1.00  0.00     0.116 C 
BRANCH  35  36
ATOM     36  N   UNL A   1      34.779  31.943  29.718  1.00  0.00    -0.352 N 
ATOM     37  C   UNL A   1      35.749  31.600  30.622  1.00  0.00     0.251 C 
ATOM     38  H   UNL A   1      33.965  32.291  30.150  1.00  0.00     0.163 HD
ATOM     39  O   UNL A   1      35.590  31.990  31.780  1.00  0.00    -0.269 OA
BRANCH  37  40
ATOM     40  C   UNL A   1      36.905  30.717  30.321  1.00  0.00     0.039 A 
ATOM     41  C   UNL A   1      36.884  29.327  30.394  1.00  0.00     0.014 A 
ATOM     42  C   UNL A   1      38.124  31.355  30.031  1.00  0.00     0.014 A 
ATOM     43  C   UNL A   1      38.067  28.606  30.400  1.00  0.00     0.010 A 
ATOM     44  C   UNL A   1      39.308  30.631  29.962  1.00  0.00     0.010 A 
ATOM     45  C   UNL A   1      39.285  29.266  30.234  1.00  0.00    -0.014 A 
BRANCH  45  46
ATOM     46  C   UNL A   1      40.497  28.455  30.314  1.00  0.00     0.031 A 
ATOM     47  C   UNL A   1      41.072  28.261  31.678  1.00  0.00     0.074 A 
ATOM     48  C   UNL A   1      41.019  27.834  29.239  1.00  0.00     0.049 A 
ATOM     49  N   UNL A   1      42.288  28.452  32.087  1.00  0.00    -0.248 NA
ATOM     50  C   UNL A   1      40.143  27.845  32.741  1.00  0.00     0.031 C 
ATOM     51  C   UNL A   1      40.434  27.693  27.902  1.00  0.00     0.029 A 
ATOM     52  N   UNL A   1      42.155  27.084  29.160  1.00  0.00    -0.354 N 
ATOM     53  C   UNL A   1      42.313  28.050  33.423  1.00  0.00     0.074 A 
ATOM     54  C   UNL A   1      40.949  27.774  33.798  1.00  0.00     0.031 C 
ATOM     55  C   UNL A   1      41.087  26.718  27.236  1.00  0.00     0.029 A 
ATOM     56  C   UNL A   1      42.202  26.261  28.046  1.00  0.00     0.049 A 
ATOM     57  H   UNL A   1      42.874  27.124  29.831  1.00  0.00     0.167 HD
ATOM     58  C   UNL A   1      43.468  27.806  34.100  1.00  0.00     0.037 A 
ATOM     59  C   UNL A   1      43.032  25.206  27.865  1.00  0.00     0.037 A 
ATOM     60  C   UNL A   1      44.597  28.463  33.511  1.00  0.00     0.049 A 
ATOM     61  C   UNL A   1      44.178  25.360  28.794  1.00  0.00     0.074 A 
ATOM     62  C   UNL A   1      44.941  29.782  33.285  1.00  0.00     0.029 A 
ATOM     63  N   UNL A   1      45.490  27.726  32.776  1.00  0.00    -0.354 N 
ATOM     64  N   UNL A   1      45.097  26.280  28.692  1.00  0.00    -0.248 NA
ATOM     65  C   UNL A   1      44.082  24.715  30.096  1.00  0.00     0.031 C 
ATOM     66  C   UNL A   1      45.668  29.772  32.060  1.00  0.00     0.029 A 
ATOM     67  C   UNL A   1      45.737  28.445  31.635  1.00  0.00     0.049 A 
ATOM     68  H   UNL A   1      45.878  26.854  33.019  1.00  0.00     0.167 HD
ATOM     69  C   UNL A   1      45.414  26.611  30.001  1.00  0.00     0.074 A 
ATOM     70  C   UNL A   1      44.834  25.549  30.816  1.00  0.00     0.031 C 
ATOM     71  C   UNL A   1      45.877  27.852  30.327  1.00  0.00     0.037 A 
BRANCH  58  72
ATOM     72  C   UNL A   1      43.606  26.737  35.152  1.00  0.00     0.064 A 
ATOM     73  C   UNL A   1      44.004  27.078  36.460  1.00  0.00     0.173 A 
ATOM     74  C   UNL A   1      43.634  25.361  34.843  1.00  0.00     0.173 A 
ATOM     75  F   UNL A   1      44.054  28.361  36.847  1.00  0.00    -0.203 F 
ATOM     76  C   UNL A   1      44.439  26.112  37.373  1.00  0.00     0.198 A 
ATOM     77  C   UNL A   1      44.017  24.395  35.772  1.00  0.00     0.198 A 
ATOM     78  F   UNL A   1      43.397  24.912  33.604  1.00  0.00    -0.203 F 
ATOM     79  F   UNL A   1      44.912  26.490  38.567  1.00  0.00    -0.200 F 
ATOM     80  C   UNL A   1      44.445  24.772  37.027  1.00  0.00     0.200 A 
ATOM     81  F   UNL A   1      44.038  23.105  35.411  1.00  0.00    -0.200 F 
ATOM     82  F   UNL A   1      44.910  23.851  37.882  1.00  0.00    -0.200 F 
ENDBRANCH  58  72
BRANCH  59  83
ATOM     83  C   UNL A   1      42.704  23.923  27.198  1.00  0.00     0.064 A 
ATOM     84  C   UNL A   1      43.391  23.510  26.047  1.00  0.00     0.173 A 
ATOM     85  C   UNL A   1      41.887  22.957  27.822  1.00  0.00     0.173 A 
ATOM     86  F   UNL A   1      44.232  24.349  25.425  1.00  0.00    -0.203 F 
ATOM     87  C   UNL A   1      43.274  22.205  25.555  1.00  0.00     0.198 A 
ATOM     88  C   UNL A   1      41.758  21.663  27.320  1.00  0.00     0.198 A 
ATOM     89  F   UNL A   1      41.268  23.219  28.981  1.00  0.00    -0.203 F 
ATOM     90  F   UNL A   1      43.992  21.828  24.487  1.00  0.00    -0.200 F 
ATOM     91  C   UNL A   1      42.462  21.283  26.194  1.00  0.00     0.200 A 
ATOM     92  F   UNL A   1      40.998  20.772  27.972  1.00  0.00    -0.200 F 
ATOM     93  F   UNL A   1      42.389  20.019  25.753  1.00  0.00    -0.200 F 
ENDBRANCH  59  83
BRANCH  71  94
ATOM     94  C   UNL A   1      46.279  28.774  29.213  1.00  0.00     0.064 A 
ATOM     95  C   UNL A   1      45.368  29.596  28.527  1.00  0.00     0.173 A 
ATOM     96  C   UNL A   1      47.642  28.963  28.953  1.00  0.00     0.173 A 
ATOM     97  F   UNL A   1      44.059  29.553  28.801  1.00  0.00    -0.203 F 
ATOM     98  C   UNL A   1      45.804  30.534  27.593  1.00  0.00     0.198 A 
ATOM     99  C   UNL A   1      48.077  29.926  28.047  1.00  0.00     0.198 A 
ATOM    100  F   UNL A   1      48.560  28.251  29.626  1.00  0.00    -0.203 F 
ATOM    101  F   UNL A   1      44.915  31.306  26.950  1.00  0.00    -0.200 F 
ATOM    102  C   UNL A   1      47.159  30.705  27.361  1.00  0.00     0.200 A 
ATOM    103  F   UNL A   1      49.390  30.126  27.864  1.00  0.00    -0.200 F 
ATOM    104  F   UNL A   1      47.581  31.642  26.501  1.00  0.00    -0.200 F 
ENDBRANCH  71  94
ENDBRANCH  45  46
ENDBRANCH  37  40
ENDBRANCH  35  36
ENDBRANCH  34  35
ENDBRANCH  33  34
ENDBRANCH   1  33
TORSDOF 16
ENDMDL
MODEL 3
REMARK VINA RESULT:     -13.0      0.949      1.929
REMARK SMILES CC[C@@H](Sc1nnc2ccc3ccccc3n12)C(=O)Nc1cccc(C(=O)NCCCCNC(=O)c2ccc(-c3c4nc(c(-c5c(F)c(F)c(F)c(F)c5F)c5ccc([nH]5)c(-c5c(F)c(F)c(F)c(F)c5F)c5nc(c(-c6c(F)c(F)c(F)c(F)c6F)c6ccc3[nH]6)C=C5)C=C4)cc2)c1
REMARK SMILES IDX 29 1 28 2 26 3 27 4 25 6 21 7 22 8 99 9 23 10 24 11 20 12
REMARK SMILES IDX 18 13 19 14 3 16 2 17 1 18 4 19 5 20 6 21 17 22 7 23 8 24
REMARK SMILES IDX 16 25 9 26 11 27 15 28 10 29 12 30 14 31 13 32 30 33 31 34
REMARK SMILES IDX 32 35 33 36 34 37 35 39 36 40 37 41 98 42 38 43 97 44 39 45
REMARK SMILES IDX 40 46 41 47 91 48 42 49 96 50 90 51 92 52 43 53 95 54 89 55
REMARK SMILES IDX 88 56 44 58 76 59 56 60 75 61 57 62 60 63 74 64 93 65 58 66
REMARK SMILES IDX 59 67 73 69 94 70 61 71 45 72 46 73 54 74 47 75 48 76 52 77
REMARK SMILES IDX 55 78 49 79 50 80 53 81 51 82 77 83 78 84 86 85 79 86 80 87
REMARK SMILES IDX 84 88 87 89 81 90 82 91 85 92 83 93 62 94 63 95 71 96 64 97
REMARK SMILES IDX 65 98 69 99 72 100 66 101 67 102 70 103 68 104
REMARK H PARENT 28 5 20 15 33 38 92 57 60 68
REMARK Flexibility Score: inf
ROOT
ATOM      1  C   UNL A   1      39.068  22.015  26.243  1.00  0.00     0.116 C 
ENDROOT
BRANCH   1   2
ATOM      2  N   UNL A   1      38.238  21.021  25.597  1.00  0.00    -0.352 N 
ATOM      3  C   UNL A   1      36.920  21.060  25.206  1.00  0.00     0.251 C 
ATOM      4  O   UNL A   1      36.484  20.080  24.598  1.00  0.00    -0.269 OA
ATOM      5  H   UNL A   1      38.694  20.171  25.403  1.00  0.00     0.163 HD
BRANCH   3   6
ATOM      6  C   UNL A   1      35.996  22.187  25.530  1.00  0.00     0.041 A 
ATOM      7  C   UNL A   1      33.849  23.089  26.185  1.00  0.00     0.041 A 
ATOM      8  C   UNL A   1      34.275  24.367  25.863  1.00  0.00     0.026 A 
ATOM      9  C   UNL A   1      34.768  22.042  26.179  1.00  0.00     0.040 A 
ATOM     10  C   UNL A   1      35.540  24.563  25.314  1.00  0.00     0.003 A 
ATOM     11  C   UNL A   1      36.374  23.469  25.099  1.00  0.00     0.014 A 
BRANCH   7  12
ATOM     12  N   UNL A   1      32.519  22.785  26.506  1.00  0.00    -0.325 N 
ATOM     13  C   UNL A   1      31.379  23.011  25.773  1.00  0.00     0.237 C 
ATOM     14  O   UNL A   1      30.341  22.489  26.211  1.00  0.00    -0.273 OA
ATOM     15  H   UNL A   1      32.384  22.349  27.377  1.00  0.00     0.169 HD
BRANCH  13  16
ATOM     16  C   UNL A   1      31.322  23.769  24.421  1.00  0.00     0.144 C 
BRANCH  16  17
ATOM     17  C   UNL A   1      31.279  22.838  23.205  1.00  0.00     0.021 C 
ATOM     18  C   UNL A   1      32.308  21.715  23.201  1.00  0.00     0.005 C 
ENDBRANCH  16  17
BRANCH  16  19
ATOM     19  S   UNL A   1      30.086  25.125  24.567  1.00  0.00    -0.072 SA
BRANCH  19  20
ATOM     20  C   UNL A   1      30.846  26.247  25.638  1.00  0.00     0.196 A 
ATOM     21  N   UNL A   1      30.486  26.325  26.902  1.00  0.00    -0.122 NA
ATOM     22  N   UNL A   1      31.869  27.148  25.377  1.00  0.00    -0.270 N 
ATOM     23  N   UNL A   1      31.223  27.306  27.500  1.00  0.00    -0.129 NA
ATOM     24  C   UNL A   1      32.038  27.804  26.598  1.00  0.00     0.161 A 
ATOM     25  C   UNL A   1      32.653  27.472  24.229  1.00  0.00     0.057 A 
ATOM     26  C   UNL A   1      32.980  28.851  26.718  1.00  0.00     0.050 A 
ATOM     27  C   UNL A   1      33.598  28.512  24.389  1.00  0.00    -0.001 A 
ATOM     28  C   UNL A   1      32.548  26.825  22.996  1.00  0.00     0.027 A 
ATOM     29  C   UNL A   1      33.734  29.209  25.672  1.00  0.00     0.014 A 
ATOM     30  C   UNL A   1      34.420  28.886  23.318  1.00  0.00     0.010 A 
ATOM     31  C   UNL A   1      33.378  27.210  21.935  1.00  0.00     0.002 A 
ATOM     32  C   UNL A   1      34.310  28.233  22.093  1.00  0.00     0.001 A 
ENDBRANCH  19  20
ENDBRANCH  16  19
ENDBRANCH  13  16
ENDBRANCH   7  12
ENDBRANCH   3   6
ENDBRANCH   1   2
BRANCH   1  33
ATOM     33  C   UNL A   1      40.428  21.519  26.701  1.00  0.00     0.023 C 
BRANCH  33  34
ATOM     34  C   UNL A   1      40.847  20.134  26.227  1.00  0.00     0.023 C 
BRANCH  34  35
ATOM     35  C   UNL A   1      42.310  19.739  26.444  1.00  0.00     0.116 C 
BRANCH  35  36
ATOM     36  N   UNL A   1      43.197  19.870  25.305  1.00  0.00    -0.352 N 
ATOM     37  C   UNL A   1      44.106  20.810  24.895  1.00  0.00     0.251 C 
ATOM     38  H   UNL A   1      43.131  19.110  24.682  1.00  0.00     0.163 HD
ATOM     39  O   UNL A   1      44.870  20.482  23.985  1.00  0.00    -0.269 OA
BRANCH  37  40
ATOM     40  C   UNL A   1      44.157  22.206  25.399  1.00  0.00     0.039 A 
ATOM     41  C   UNL A   1      45.025  22.664  26.385  1.00  0.00     0.014 A 
ATOM     42  C   UNL A   1      43.189  23.092  24.893  1.00  0.00     0.014 A 
ATOM     43  C   UNL A   1      44.802  23.883  27.007  1.00  0.00     0.010 A 
ATOM     44  C   UNL A   1      43.004  24.346  25.461  1.00  0.00     0.010 A 
ATOM     45  C   UNL A   1      43.758  24.702  26.577  1.00  0.00    -0.014 A 
BRANCH  45  46
ATOM     46  C   UNL A   1      43.538  25.942  27.316  1.00  0.00     0.031 A 
ATOM     47  C   UNL A   1      44.500  27.052  27.043  1.00  0.00     0.074 A 
ATOM     48  C   UNL A   1      42.477  26.119  28.127  1.00  0.00     0.049 A 
ATOM     49  N   UNL A   1      45.188  27.762  27.883  1.00  0.00    -0.248 NA
ATOM     50  C   UNL A   1      44.766  27.372  25.631  1.00  0.00     0.031 C 
ATOM     51  C   UNL A   1      41.308  25.250  28.288  1.00  0.00     0.029 A 
ATOM     52  N   UNL A   1      42.170  27.198  28.900  1.00  0.00    -0.354 N 
ATOM     53  C   UNL A   1      45.868  28.711  27.118  1.00  0.00     0.074 A 
ATOM     54  C   UNL A   1      45.645  28.366  25.737  1.00  0.00     0.031 C 
ATOM     55  C   UNL A   1      40.327  25.942  28.905  1.00  0.00     0.029 A 
ATOM     56  C   UNL A   1      40.840  27.246  29.287  1.00  0.00     0.049 A 
ATOM     57  H   UNL A   1      42.831  27.881  29.159  1.00  0.00     0.167 HD
ATOM     58  C   UNL A   1      46.439  29.822  27.657  1.00  0.00     0.037 A 
ATOM     59  C   UNL A   1      40.188  28.324  29.781  1.00  0.00     0.037 A 
ATOM     60  C   UNL A   1      46.714  29.674  29.056  1.00  0.00     0.049 A 
ATOM     61  C   UNL A   1      41.203  29.280  30.289  1.00  0.00     0.074 A 
ATOM     62  C   UNL A   1      47.516  28.830  29.801  1.00  0.00     0.029 A 
ATOM     63  N   UNL A   1      45.898  30.294  29.967  1.00  0.00    -0.354 N 
ATOM     64  N   UNL A   1      41.952  29.078  31.337  1.00  0.00    -0.248 NA
ATOM     65  C   UNL A   1      41.668  30.317  29.379  1.00  0.00     0.031 C 
ATOM     66  C   UNL A   1      46.804  28.619  31.016  1.00  0.00     0.029 A 
ATOM     67  C   UNL A   1      45.628  29.365  30.938  1.00  0.00     0.049 A 
ATOM     68  H   UNL A   1      45.570  31.222  29.931  1.00  0.00     0.167 HD
ATOM     69  C   UNL A   1      43.170  29.660  31.020  1.00  0.00     0.074 A 
ATOM     70  C   UNL A   1      42.905  30.491  29.850  1.00  0.00     0.031 C 
ATOM     71  C   UNL A   1      44.337  29.206  31.561  1.00  0.00     0.037 A 
BRANCH  58  72
ATOM     72  C   UNL A   1      46.496  31.153  26.954  1.00  0.00     0.064 A 
ATOM     73  C   UNL A   1      47.709  31.865  26.882  1.00  0.00     0.173 A 
ATOM     74  C   UNL A   1      45.339  31.877  26.596  1.00  0.00     0.173 A 
ATOM     75  F   UNL A   1      48.864  31.286  27.240  1.00  0.00    -0.203 F 
ATOM     76  C   UNL A   1      47.750  33.216  26.522  1.00  0.00     0.198 A 
ATOM     77  C   UNL A   1      45.389  33.208  26.185  1.00  0.00     0.198 A 
ATOM     78  F   UNL A   1      44.112  31.358  26.734  1.00  0.00    -0.203 F 
ATOM     79  F   UNL A   1      48.910  33.884  26.574  1.00  0.00    -0.200 F 
ATOM     80  C   UNL A   1      46.590  33.885  26.174  1.00  0.00     0.200 A 
ATOM     81  F   UNL A   1      44.252  33.845  25.874  1.00  0.00    -0.200 F 
ATOM     82  F   UNL A   1      46.621  35.191  25.878  1.00  0.00    -0.200 F 
ENDBRANCH  58  72
BRANCH  59  83
ATOM     83  C   UNL A   1      38.782  28.712  29.512  1.00  0.00     0.064 A 
ATOM     84  C   UNL A   1      37.889  28.968  30.563  1.00  0.00     0.173 A 
ATOM     85  C   UNL A   1      38.355  29.086  28.221  1.00  0.00     0.173 A 
ATOM     86  F   UNL A   1      38.239  28.694  31.828  1.00  0.00    -0.203 F 
ATOM     87  C   UNL A   1      36.647  29.573  30.336  1.00  0.00     0.198 A 
ATOM     88  C   UNL A   1      37.111  29.672  27.995  1.00  0.00     0.198 A 
ATOM     89  F   UNL A   1      39.172  28.977  27.164  1.00  0.00    -0.203 F 
ATOM     90  F   UNL A   1      35.845  29.857  31.371  1.00  0.00    -0.200 F 
ATOM     91  C   UNL A   1      36.262  29.927  29.054  1.00  0.00     0.200 A 
ATOM     92  F   UNL A   1      36.769  30.043  26.753  1.00  0.00    -0.200 F 
ATOM     93  F   UNL A   1      35.095  30.551  28.842  1.00  0.00    -0.200 F 
ENDBRANCH  59  83
BRANCH  71  94
ATOM     94  C   UNL A   1      44.257  28.231  32.700  1.00  0.00     0.064 A 
ATOM     95  C   UNL A   1      44.088  28.623  34.039  1.00  0.00     0.173 A 
ATOM     96  C   UNL A   1      44.172  26.863  32.411  1.00  0.00     0.173 A 
ATOM     97  F   UNL A   1      44.046  29.917  34.379  1.00  0.00    -0.203 F 
ATOM     98  C   UNL A   1      43.883  27.682  35.046  1.00  0.00     0.198 A 
ATOM     99  C   UNL A   1      43.931  25.928  33.414  1.00  0.00     0.198 A 
ATOM    100  F   UNL A   1      44.262  26.436  31.141  1.00  0.00    -0.203 F 
ATOM    101  F   UNL A   1      43.726  28.081  36.317  1.00  0.00    -0.200 F 
ATOM    102  C   UNL A   1      43.796  26.336  34.731  1.00  0.00     0.200 A 
ATOM    103  F   UNL A   1      43.794  24.632  33.099  1.00  0.00    -0.200 F 
ATOM    104  F   UNL A   1      43.548  25.435  35.693  1.00  0.00    -0.200 F 
ENDBRANCH  71  94
ENDBRANCH  45  46
ENDBRANCH  37  40
ENDBRANCH  35  36
ENDBRANCH  34  35
ENDBRANCH  33  34
ENDBRANCH   1  33
TORSDOF 16
ENDMDL
