MODEL 1
REMARK VINA RESULT:     -12.2      0.000      0.000
REMARK SMILES O=C(CCc1ccccc1)Nc1ccccc1Oc1ccsc1C(=O)NCCCCNC(=O)c1ccc(-c2c3nc(c(-c4c(F)c(F)c(F)c(F)c4F)c4ccc([nH]4)c(-c4c(F)c(F)c(F)c(F)c4F)c4nc(c(-c5c(F)c(F)c(F)c(F)c5F)c5ccc2[nH]5)C=C4)C=C3)cc1
REMARK SMILES IDX 24 1 25 2 26 3 23 5 19 6 20 7 21 8 22 9 18 10 17 11 12 12
REMARK SMILES IDX 13 13 14 14 16 15 15 16 11 17 1 18 2 19 3 21 4 22 5 23 6 24
REMARK SMILES IDX 10 25 7 26 9 27 8 28 27 29 28 30 29 31 30 32 31 33 32 34
REMARK SMILES IDX 33 36 34 37 35 38 96 39 36 40 95 41 37 42 38 43 39 44 89 45
REMARK SMILES IDX 40 46 94 47 88 48 90 49 41 50 93 51 87 52 86 53 42 55 74 56
REMARK SMILES IDX 54 57 73 58 55 59 58 60 72 61 91 62 56 63 57 64 71 66 92 67
REMARK SMILES IDX 59 68 43 69 44 70 52 71 45 72 46 73 50 74 53 75 47 76 48 77
REMARK SMILES IDX 51 78 49 79 75 80 76 81 84 82 77 83 78 84 82 85 85 86 79 87
REMARK SMILES IDX 80 88 83 89 81 90 60 91 61 92 69 93 62 94 63 95 67 96 70 97
REMARK SMILES IDX 64 98 65 99 68 100 66 101
REMARK H PARENT 26 4 11 20 31 35 90 54 58 65
REMARK Flexibility Score: inf
ROOT
ATOM      1  C   UNL A   1      30.802  23.732  26.752  1.00  0.00     0.265 C 
ATOM      2  O   UNL A   1      29.795  23.357  27.369  1.00  0.00    -0.268 OA
ATOM      3  N   UNL A   1      31.014  25.080  26.861  1.00  0.00    -0.351 N 
ATOM      4  H   UNL A   1      30.294  25.542  27.352  1.00  0.00     0.163 HD
ENDROOT
BRANCH   1   5
ATOM      5  C   UNL A   1      31.646  22.795  26.008  1.00  0.00     0.135 A 
ATOM      6  C   UNL A   1      31.809  22.411  24.683  1.00  0.00     0.151 A 
ATOM      7  C   UNL A   1      32.726  21.329  24.507  1.00  0.00     0.059 A 
ATOM      8  C   UNL A   1      33.256  20.896  25.696  1.00  0.00     0.069 A 
ATOM      9  S   UNL A   1      32.692  21.816  27.009  1.00  0.00    -0.135 S 
BRANCH   6  10
ATOM     10  O   UNL A   1      31.235  23.032  23.636  1.00  0.00    -0.453 OA
BRANCH  10  11
ATOM     11  C   UNL A   1      31.498  24.325  23.238  1.00  0.00     0.151 A 
ATOM     12  C   UNL A   1      32.676  24.790  22.643  1.00  0.00     0.084 A 
ATOM     13  C   UNL A   1      32.700  26.056  22.047  1.00  0.00     0.030 A 
ATOM     14  C   UNL A   1      31.559  26.863  22.054  1.00  0.00     0.002 A 
ATOM     15  C   UNL A   1      30.364  25.150  23.254  1.00  0.00     0.049 A 
ATOM     16  C   UNL A   1      30.391  26.412  22.663  1.00  0.00     0.004 A 
BRANCH  12  17
ATOM     17  N   UNL A   1      33.870  24.064  22.715  1.00  0.00    -0.323 N 
ATOM     18  O   UNL A   1      34.709  24.995  24.664  1.00  0.00    -0.275 OA
ATOM     19  C   UNL A   1      34.825  24.252  23.694  1.00  0.00     0.224 C 
ATOM     20  H   UNL A   1      34.038  23.380  22.029  1.00  0.00     0.170 HD
BRANCH  19  21
ATOM     21  C   UNL A   1      36.091  23.451  23.431  1.00  0.00     0.105 C 
BRANCH  21  22
ATOM     22  C   UNL A   1      36.305  22.353  24.467  1.00  0.00     0.045 C 
BRANCH  22  23
ATOM     23  C   UNL A   1      37.558  22.570  25.283  1.00  0.00    -0.048 A 
ATOM     24  C   UNL A   1      37.794  23.819  25.871  1.00  0.00     0.004 A 
ATOM     25  C   UNL A   1      38.439  21.512  25.549  1.00  0.00     0.004 A 
ATOM     26  C   UNL A   1      38.876  24.004  26.731  1.00  0.00     0.000 A 
ATOM     27  C   UNL A   1      39.519  21.698  26.412  1.00  0.00     0.000 A 
ATOM     28  C   UNL A   1      39.734  22.941  27.007  1.00  0.00     0.000 A 
ENDBRANCH  22  23
ENDBRANCH  21  22
ENDBRANCH  19  21
ENDBRANCH  12  17
ENDBRANCH  10  11
ENDBRANCH   6  10
ENDBRANCH   1   5
BRANCH   3  29
ATOM     29  C   UNL A   1      32.055  25.976  26.422  1.00  0.00     0.116 C 
BRANCH  29  30
ATOM     30  C   UNL A   1      31.475  27.341  26.046  1.00  0.00     0.023 C 
BRANCH  30  31
ATOM     31  C   UNL A   1      31.850  28.483  26.992  1.00  0.00     0.023 C 
BRANCH  31  32
ATOM     32  C   UNL A   1      32.881  29.461  26.440  1.00  0.00     0.116 C 
BRANCH  32  33
ATOM     33  N   UNL A   1      32.634  30.859  26.774  1.00  0.00    -0.352 N 
ATOM     34  C   UNL A   1      33.471  31.729  27.431  1.00  0.00     0.251 C 
ATOM     35  H   UNL A   1      31.762  31.223  26.495  1.00  0.00     0.163 HD
ATOM     36  O   UNL A   1      33.117  32.872  27.697  1.00  0.00    -0.269 OA
BRANCH  34  37
ATOM     37  C   UNL A   1      34.790  31.234  27.869  1.00  0.00     0.039 A 
ATOM     38  C   UNL A   1      35.844  32.142  27.985  1.00  0.00     0.014 A 
ATOM     39  C   UNL A   1      34.946  29.905  28.269  1.00  0.00     0.014 A 
ATOM     40  C   UNL A   1      37.031  31.737  28.597  1.00  0.00     0.010 A 
ATOM     41  C   UNL A   1      36.097  29.527  28.947  1.00  0.00     0.010 A 
ATOM     42  C   UNL A   1      37.145  30.442  29.130  1.00  0.00    -0.014 A 
BRANCH  42  43
ATOM     43  C   UNL A   1      38.346  30.024  29.893  1.00  0.00     0.031 A 
ATOM     44  C   UNL A   1      38.564  30.544  31.286  1.00  0.00     0.074 A 
ATOM     45  C   UNL A   1      39.276  29.246  29.305  1.00  0.00     0.049 A 
ATOM     46  N   UNL A   1      39.596  30.392  32.076  1.00  0.00    -0.248 NA
ATOM     47  C   UNL A   1      37.489  31.375  31.854  1.00  0.00     0.031 C 
ATOM     48  C   UNL A   1      39.206  28.725  27.939  1.00  0.00     0.029 A 
ATOM     49  N   UNL A   1      40.473  28.769  29.779  1.00  0.00    -0.354 N 
ATOM     50  C   UNL A   1      39.300  31.115  33.223  1.00  0.00     0.074 A 
ATOM     51  C   UNL A   1      38.021  31.755  33.006  1.00  0.00     0.031 C 
ATOM     52  C   UNL A   1      40.300  27.986  27.692  1.00  0.00     0.029 A 
ATOM     53  C   UNL A   1      41.164  28.009  28.867  1.00  0.00     0.049 A 
ATOM     54  H   UNL A   1      40.804  28.954  30.688  1.00  0.00     0.167 HD
ATOM     55  C   UNL A   1      40.016  31.211  34.368  1.00  0.00     0.037 A 
ATOM     56  C   UNL A   1      42.364  27.406  28.969  1.00  0.00     0.037 A 
ATOM     57  C   UNL A   1      41.275  30.552  34.593  1.00  0.00     0.049 A 
ATOM     58  C   UNL A   1      43.133  27.521  30.258  1.00  0.00     0.074 A 
ATOM     59  C   UNL A   1      42.067  30.564  35.727  1.00  0.00     0.029 A 
ATOM     60  N   UNL A   1      41.918  29.749  33.662  1.00  0.00    -0.354 N 
ATOM     61  N   UNL A   1      42.820  28.168  31.354  1.00  0.00    -0.248 NA
ATOM     62  C   UNL A   1      44.420  26.815  30.326  1.00  0.00     0.031 C 
ATOM     63  C   UNL A   1      43.202  29.787  35.476  1.00  0.00     0.029 A 
ATOM     64  C   UNL A   1      43.098  29.260  34.199  1.00  0.00     0.049 A 
ATOM     65  H   UNL A   1      41.585  29.556  32.756  1.00  0.00     0.167 HD
ATOM     66  C   UNL A   1      43.851  27.922  32.250  1.00  0.00     0.074 A 
ATOM     67  C   UNL A   1      44.794  27.055  31.576  1.00  0.00     0.031 C 
ATOM     68  C   UNL A   1      44.007  28.377  33.517  1.00  0.00     0.037 A 
BRANCH  55  69
ATOM     69  C   UNL A   1      39.438  32.039  35.476  1.00  0.00     0.064 A 
ATOM     70  C   UNL A   1      38.587  31.473  36.438  1.00  0.00     0.173 A 
ATOM     71  C   UNL A   1      39.760  33.398  35.600  1.00  0.00     0.173 A 
ATOM     72  F   UNL A   1      38.237  30.180  36.353  1.00  0.00    -0.203 F 
ATOM     73  C   UNL A   1      38.062  32.243  37.472  1.00  0.00     0.198 A 
ATOM     74  C   UNL A   1      39.255  34.159  36.652  1.00  0.00     0.198 A 
ATOM     75  F   UNL A   1      40.570  33.987  34.708  1.00  0.00    -0.203 F 
ATOM     76  F   UNL A   1      37.216  31.691  38.353  1.00  0.00    -0.200 F 
ATOM     77  C   UNL A   1      38.401  33.583  37.582  1.00  0.00     0.200 A 
ATOM     78  F   UNL A   1      39.591  35.451  36.764  1.00  0.00    -0.200 F 
ATOM     79  F   UNL A   1      37.902  34.321  38.582  1.00  0.00    -0.200 F 
ENDBRANCH  55  69
BRANCH  56  80
ATOM     80  C   UNL A   1      42.909  26.619  27.832  1.00  0.00     0.064 A 
ATOM     81  C   UNL A   1      43.653  27.242  26.819  1.00  0.00     0.173 A 
ATOM     82  C   UNL A   1      42.673  25.243  27.716  1.00  0.00     0.173 A 
ATOM     83  F   UNL A   1      43.887  28.562  26.876  1.00  0.00    -0.203 F 
ATOM     84  C   UNL A   1      44.112  26.524  25.717  1.00  0.00     0.198 A 
ATOM     85  C   UNL A   1      43.157  24.520  26.626  1.00  0.00     0.198 A 
ATOM     86  F   UNL A   1      41.972  24.598  28.660  1.00  0.00    -0.203 F 
ATOM     87  F   UNL A   1      44.771  27.156  24.736  1.00  0.00    -0.200 F 
ATOM     88  C   UNL A   1      43.866  25.163  25.623  1.00  0.00     0.200 A 
ATOM     89  F   UNL A   1      42.927  23.202  26.544  1.00  0.00    -0.200 F 
ATOM     90  F   UNL A   1      44.302  24.474  24.559  1.00  0.00    -0.200 F 
ENDBRANCH  56  80
BRANCH  68  91
ATOM     91  C   UNL A   1      45.215  27.907  34.270  1.00  0.00     0.064 A 
ATOM     92  C   UNL A   1      45.196  26.729  35.031  1.00  0.00     0.173 A 
ATOM     93  C   UNL A   1      46.418  28.625  34.196  1.00  0.00     0.173 A 
ATOM     94  F   UNL A   1      44.063  26.018  35.143  1.00  0.00    -0.203 F 
ATOM     95  C   UNL A   1      46.331  26.298  35.708  1.00  0.00     0.198 A 
ATOM     96  C   UNL A   1      47.559  28.177  34.854  1.00  0.00     0.198 A 
ATOM     97  F   UNL A   1      46.488  29.756  33.477  1.00  0.00    -0.203 F 
ATOM     98  F   UNL A   1      46.280  25.193  36.464  1.00  0.00    -0.200 F 
ATOM     99  C   UNL A   1      47.514  27.018  35.614  1.00  0.00     0.200 A 
ATOM    100  F   UNL A   1      48.704  28.868  34.752  1.00  0.00    -0.200 F 
ATOM    101  F   UNL A   1      48.609  26.598  36.262  1.00  0.00    -0.200 F 
ENDBRANCH  68  91
ENDBRANCH  42  43
ENDBRANCH  34  37
ENDBRANCH  32  33
ENDBRANCH  31  32
ENDBRANCH  30  31
ENDBRANCH  29  30
ENDBRANCH   3  29
TORSDOF 17
ENDMDL
MODEL 2
REMARK VINA RESULT:     -12.0      2.180      4.022
REMARK SMILES O=C(CCc1ccccc1)Nc1ccccc1Oc1ccsc1C(=O)NCCCCNC(=O)c1ccc(-c2c3nc(c(-c4c(F)c(F)c(F)c(F)c4F)c4ccc([nH]4)c(-c4c(F)c(F)c(F)c(F)c4F)c4nc(c(-c5c(F)c(F)c(F)c(F)c5F)c5ccc2[nH]5)C=C4)C=C3)cc1
REMARK SMILES IDX 24 1 25 2 26 3 23 5 19 6 20 7 21 8 22 9 18 10 17 11 12 12
REMARK SMILES IDX 13 13 14 14 16 15 15 16 11 17 1 18 2 19 3 21 4 22 5 23 6 24
REMARK SMILES IDX 10 25 7 26 9 27 8 28 27 29 28 30 29 31 30 32 31 33 32 34
REMARK SMILES IDX 33 36 34 37 35 38 96 39 36 40 95 41 37 42 38 43 39 44 89 45
REMARK SMILES IDX 40 46 94 47 88 48 90 49 41 50 93 51 87 52 86 53 42 55 74 56
REMARK SMILES IDX 54 57 73 58 55 59 58 60 72 61 91 62 56 63 57 64 71 66 92 67
REMARK SMILES IDX 59 68 43 69 44 70 52 71 45 72 46 73 50 74 53 75 47 76 48 77
REMARK SMILES IDX 51 78 49 79 75 80 76 81 84 82 77 83 78 84 82 85 85 86 79 87
REMARK SMILES IDX 80 88 83 89 81 90 60 91 61 92 69 93 62 94 63 95 67 96 70 97
REMARK SMILES IDX 64 98 65 99 68 100 66 101
REMARK H PARENT 26 4 11 20 31 35 90 54 58 65
REMARK Flexibility Score: inf
ROOT
ATOM      1  C   UNL A   1      31.602  26.514  26.041  1.00  0.00     0.265 C 
ATOM      2  O   UNL A   1      30.962  25.723  26.747  1.00  0.00    -0.268 OA
ATOM      3  N   UNL A   1      31.451  27.815  26.439  1.00  0.00    -0.351 N 
ATOM      4  H   UNL A   1      30.804  27.917  27.176  1.00  0.00     0.163 HD
ENDROOT
BRANCH   1   5
ATOM      5  C   UNL A   1      32.422  26.058  24.917  1.00  0.00     0.135 A 
ATOM      6  C   UNL A   1      33.540  25.252  24.741  1.00  0.00     0.151 A 
ATOM      7  C   UNL A   1      34.026  25.229  23.397  1.00  0.00     0.059 A 
ATOM      8  C   UNL A   1      33.278  26.016  22.559  1.00  0.00     0.069 A 
ATOM      9  S   UNL A   1      31.971  26.738  23.372  1.00  0.00    -0.135 S 
BRANCH   6  10
ATOM     10  O   UNL A   1      34.086  24.489  25.706  1.00  0.00    -0.453 OA
BRANCH  10  11
ATOM     11  C   UNL A   1      35.166  23.649  25.539  1.00  0.00     0.151 A 
ATOM     12  C   UNL A   1      35.170  22.423  24.864  1.00  0.00     0.084 A 
ATOM     13  C   UNL A   1      36.388  21.814  24.539  1.00  0.00     0.030 A 
ATOM     14  C   UNL A   1      37.597  22.416  24.896  1.00  0.00     0.002 A 
ATOM     15  C   UNL A   1      36.385  24.235  25.907  1.00  0.00     0.049 A 
ATOM     16  C   UNL A   1      37.596  23.625  25.586  1.00  0.00     0.004 A 
BRANCH  12  17
ATOM     17  N   UNL A   1      33.985  21.732  24.590  1.00  0.00    -0.323 N 
ATOM     18  O   UNL A   1      33.529  20.991  26.737  1.00  0.00    -0.275 OA
ATOM     19  C   UNL A   1      33.273  21.023  25.538  1.00  0.00     0.224 C 
ATOM     20  H   UNL A   1      33.639  21.753  23.670  1.00  0.00     0.170 HD
BRANCH  19  21
ATOM     21  C   UNL A   1      32.124  20.234  24.929  1.00  0.00     0.105 C 
BRANCH  21  22
ATOM     22  C   UNL A   1      32.598  19.253  23.863  1.00  0.00     0.045 C 
BRANCH  22  23
ATOM     23  C   UNL A   1      33.114  17.964  24.457  1.00  0.00    -0.048 A 
ATOM     24  C   UNL A   1      32.284  17.205  25.294  1.00  0.00     0.004 A 
ATOM     25  C   UNL A   1      34.373  17.458  24.105  1.00  0.00     0.004 A 
ATOM     26  C   UNL A   1      32.693  15.953  25.750  1.00  0.00     0.000 A 
ATOM     27  C   UNL A   1      34.779  16.203  24.559  1.00  0.00     0.000 A 
ATOM     28  C   UNL A   1      33.937  15.449  25.376  1.00  0.00     0.000 A 
ENDBRANCH  22  23
ENDBRANCH  21  22
ENDBRANCH  19  21
ENDBRANCH  12  17
ENDBRANCH  10  11
ENDBRANCH   6  10
ENDBRANCH   1   5
BRANCH   3  29
ATOM     29  C   UNL A   1      32.028  29.070  26.024  1.00  0.00     0.116 C 
BRANCH  29  30
ATOM     30  C   UNL A   1      32.064  30.064  27.188  1.00  0.00     0.023 C 
BRANCH  30  31
ATOM     31  C   UNL A   1      31.883  31.528  26.790  1.00  0.00     0.023 C 
BRANCH  31  32
ATOM     32  C   UNL A   1      32.979  32.467  27.281  1.00  0.00     0.116 C 
BRANCH  32  33
ATOM     33  N   UNL A   1      32.528  33.816  27.603  1.00  0.00    -0.352 N 
ATOM     34  C   UNL A   1      33.045  34.677  28.542  1.00  0.00     0.251 C 
ATOM     35  H   UNL A   1      31.759  34.149  27.085  1.00  0.00     0.163 HD
ATOM     36  O   UNL A   1      32.534  35.771  28.750  1.00  0.00    -0.269 OA
BRANCH  34  37
ATOM     37  C   UNL A   1      34.199  34.225  29.343  1.00  0.00     0.039 A 
ATOM     38  C   UNL A   1      33.963  33.474  30.496  1.00  0.00     0.014 A 
ATOM     39  C   UNL A   1      35.502  34.447  28.890  1.00  0.00     0.014 A 
ATOM     40  C   UNL A   1      35.036  32.861  31.144  1.00  0.00     0.010 A 
ATOM     41  C   UNL A   1      36.557  33.772  29.489  1.00  0.00     0.010 A 
ATOM     42  C   UNL A   1      36.333  32.963  30.613  1.00  0.00    -0.014 A 
BRANCH  42  43
ATOM     43  C   UNL A   1      37.472  32.221  31.209  1.00  0.00     0.031 A 
ATOM     44  C   UNL A   1      37.964  32.587  32.580  1.00  0.00     0.074 A 
ATOM     45  C   UNL A   1      38.110  31.281  30.485  1.00  0.00     0.049 A 
ATOM     46  N   UNL A   1      39.009  32.142  33.232  1.00  0.00    -0.248 NA
ATOM     47  C   UNL A   1      37.197  33.615  33.304  1.00  0.00     0.031 C 
ATOM     48  C   UNL A   1      37.762  30.878  29.122  1.00  0.00     0.029 A 
ATOM     49  N   UNL A   1      39.198  30.502  30.792  1.00  0.00    -0.354 N 
ATOM     50  C   UNL A   1      39.030  32.842  34.430  1.00  0.00     0.074 A 
ATOM     51  C   UNL A   1      37.931  33.783  34.393  1.00  0.00     0.031 C 
ATOM     52  C   UNL A   1      38.607  29.915  28.717  1.00  0.00     0.029 A 
ATOM     53  C   UNL A   1      39.575  29.657  29.777  1.00  0.00     0.049 A 
ATOM     54  H   UNL A   1      39.664  30.545  31.659  1.00  0.00     0.167 HD
ATOM     55  C   UNL A   1      39.870  32.691  35.481  1.00  0.00     0.037 A 
ATOM     56  C   UNL A   1      40.594  28.778  29.710  1.00  0.00     0.037 A 
ATOM     57  C   UNL A   1      40.944  31.737  35.527  1.00  0.00     0.049 A 
ATOM     58  C   UNL A   1      41.506  28.625  30.898  1.00  0.00     0.074 A 
ATOM     59  C   UNL A   1      41.837  31.488  36.554  1.00  0.00     0.029 A 
ATOM     60  N   UNL A   1      41.263  30.863  34.498  1.00  0.00    -0.354 N 
ATOM     61  N   UNL A   1      41.486  29.258  32.045  1.00  0.00    -0.248 NA
ATOM     62  C   UNL A   1      42.580  27.627  30.784  1.00  0.00     0.031 C 
ATOM     63  C   UNL A   1      42.710  30.478  36.140  1.00  0.00     0.029 A 
ATOM     64  C   UNL A   1      42.339  30.073  34.869  1.00  0.00     0.049 A 
ATOM     65  H   UNL A   1      40.794  30.812  33.634  1.00  0.00     0.167 HD
ATOM     66  C   UNL A   1      42.518  28.716  32.798  1.00  0.00     0.074 A 
ATOM     67  C   UNL A   1      43.137  27.692  31.985  1.00  0.00     0.031 C 
ATOM     68  C   UNL A   1      42.921  29.041  34.051  1.00  0.00     0.037 A 
BRANCH  55  69
ATOM     69  C   UNL A   1      39.640  33.564  36.678  1.00  0.00     0.064 A 
ATOM     70  C   UNL A   1      40.238  34.829  36.781  1.00  0.00     0.173 A 
ATOM     71  C   UNL A   1      38.791  33.151  37.715  1.00  0.00     0.173 A 
ATOM     72  F   UNL A   1      41.071  35.262  35.822  1.00  0.00    -0.203 F 
ATOM     73  C   UNL A   1      40.013  35.640  37.890  1.00  0.00     0.198 A 
ATOM     74  C   UNL A   1      38.546  33.977  38.809  1.00  0.00     0.198 A 
ATOM     75  F   UNL A   1      38.193  31.952  37.665  1.00  0.00    -0.203 F 
ATOM     76  F   UNL A   1      40.631  36.826  37.987  1.00  0.00    -0.200 F 
ATOM     77  C   UNL A   1      39.162  35.217  38.899  1.00  0.00     0.200 A 
ATOM     78  F   UNL A   1      37.715  33.573  39.780  1.00  0.00    -0.200 F 
ATOM     79  F   UNL A   1      38.939  36.002  39.961  1.00  0.00    -0.200 F 
ENDBRANCH  55  69
BRANCH  56  80
ATOM     80  C   UNL A   1      40.798  27.956  28.490  1.00  0.00     0.064 A 
ATOM     81  C   UNL A   1      41.509  28.464  27.392  1.00  0.00     0.173 A 
ATOM     82  C   UNL A   1      40.265  26.665  28.379  1.00  0.00     0.173 A 
ATOM     83  F   UNL A   1      42.022  29.703  27.443  1.00  0.00    -0.203 F 
ATOM     84  C   UNL A   1      41.650  27.725  26.220  1.00  0.00     0.198 A 
ATOM     85  C   UNL A   1      40.430  25.915  27.216  1.00  0.00     0.198 A 
ATOM     86  F   UNL A   1      39.581  26.130  29.402  1.00  0.00    -0.203 F 
ATOM     87  F   UNL A   1      42.285  28.258  25.167  1.00  0.00    -0.200 F 
ATOM     88  C   UNL A   1      41.112  26.450  26.133  1.00  0.00     0.200 A 
ATOM     89  F   UNL A   1      39.919  24.678  27.140  1.00  0.00    -0.200 F 
ATOM     90  F   UNL A   1      41.242  25.742  25.003  1.00  0.00    -0.200 F 
ENDBRANCH  56  80
BRANCH  68  91
ATOM     91  C   UNL A   1      44.053  28.249  34.634  1.00  0.00     0.064 A 
ATOM     92  C   UNL A   1      45.386  28.666  34.505  1.00  0.00     0.173 A 
ATOM     93  C   UNL A   1      43.794  27.080  35.366  1.00  0.00     0.173 A 
ATOM     94  F   UNL A   1      45.682  29.769  33.800  1.00  0.00    -0.203 F 
ATOM     95  C   UNL A   1      46.421  27.928  35.069  1.00  0.00     0.198 A 
ATOM     96  C   UNL A   1      44.831  26.360  35.951  1.00  0.00     0.198 A 
ATOM     97  F   UNL A   1      42.535  26.645  35.522  1.00  0.00    -0.203 F 
ATOM     98  F   UNL A   1      47.691  28.320  34.897  1.00  0.00    -0.200 F 
ATOM     99  C   UNL A   1      46.143  26.780  35.797  1.00  0.00     0.200 A 
ATOM    100  F   UNL A   1      44.560  25.258  36.664  1.00  0.00    -0.200 F 
ATOM    101  F   UNL A   1      47.142  26.075  36.344  1.00  0.00    -0.200 F 
ENDBRANCH  68  91
ENDBRANCH  42  43
ENDBRANCH  34  37
ENDBRANCH  32  33
ENDBRANCH  31  32
ENDBRANCH  30  31
ENDBRANCH  29  30
ENDBRANCH   3  29
TORSDOF 17
ENDMDL
MODEL 3
REMARK VINA RESULT:     -12.0      2.203      4.711
REMARK SMILES O=C(CCc1ccccc1)Nc1ccccc1Oc1ccsc1C(=O)NCCCCNC(=O)c1ccc(-c2c3nc(c(-c4c(F)c(F)c(F)c(F)c4F)c4ccc([nH]4)c(-c4c(F)c(F)c(F)c(F)c4F)c4nc(c(-c5c(F)c(F)c(F)c(F)c5F)c5ccc2[nH]5)C=C4)C=C3)cc1
REMARK SMILES IDX 24 1 25 2 26 3 23 5 19 6 20 7 21 8 22 9 18 10 17 11 12 12
REMARK SMILES IDX 13 13 14 14 16 15 15 16 11 17 1 18 2 19 3 21 4 22 5 23 6 24
REMARK SMILES IDX 10 25 7 26 9 27 8 28 27 29 28 30 29 31 30 32 31 33 32 34
REMARK SMILES IDX 33 36 34 37 35 38 96 39 36 40 95 41 37 42 38 43 39 44 89 45
REMARK SMILES IDX 40 46 94 47 88 48 90 49 41 50 93 51 87 52 86 53 42 55 74 56
REMARK SMILES IDX 54 57 73 58 55 59 58 60 72 61 91 62 56 63 57 64 71 66 92 67
REMARK SMILES IDX 59 68 43 69 44 70 52 71 45 72 46 73 50 74 53 75 47 76 48 77
REMARK SMILES IDX 51 78 49 79 75 80 76 81 84 82 77 83 78 84 82 85 85 86 79 87
REMARK SMILES IDX 80 88 83 89 81 90 60 91 61 92 69 93 62 94 63 95 67 96 70 97
REMARK SMILES IDX 64 98 65 99 68 100 66 101
REMARK H PARENT 26 4 11 20 31 35 90 54 58 65
REMARK Flexibility Score: inf
ROOT
ATOM      1  C   UNL A   1      33.647  28.824  26.406  1.00  0.00     0.265 C 
ATOM      2  O   UNL A   1      34.822  28.991  26.761  1.00  0.00    -0.268 OA
ATOM      3  N   UNL A   1      33.049  29.986  26.001  1.00  0.00    -0.351 N 
ATOM      4  H   UNL A   1      33.625  30.776  26.125  1.00  0.00     0.163 HD
ENDROOT
BRANCH   1   5
ATOM      5  C   UNL A   1      33.014  27.504  26.428  1.00  0.00     0.135 A 
ATOM      6  C   UNL A   1      33.313  26.229  25.962  1.00  0.00     0.151 A 
ATOM      7  C   UNL A   1      32.258  25.284  26.156  1.00  0.00     0.059 A 
ATOM      8  C   UNL A   1      31.164  25.843  26.765  1.00  0.00     0.069 A 
ATOM      9  S   UNL A   1      31.421  27.479  27.147  1.00  0.00    -0.135 S 
BRANCH   6  10
ATOM     10  O   UNL A   1      34.504  25.867  25.450  1.00  0.00    -0.453 OA
BRANCH  10  11
ATOM     11  C   UNL A   1      34.747  24.708  24.747  1.00  0.00     0.151 A 
ATOM     12  C   UNL A   1      34.166  24.334  23.529  1.00  0.00     0.084 A 
ATOM     13  C   UNL A   1      34.705  23.268  22.801  1.00  0.00     0.030 A 
ATOM     14  C   UNL A   1      35.811  22.565  23.288  1.00  0.00     0.002 A 
ATOM     15  C   UNL A   1      35.846  23.985  25.235  1.00  0.00     0.049 A 
ATOM     16  C   UNL A   1      36.378  22.920  24.509  1.00  0.00     0.004 A 
BRANCH  12  17
ATOM     17  N   UNL A   1      32.992  24.934  23.063  1.00  0.00    -0.323 N 
ATOM     18  O   UNL A   1      33.955  26.509  21.664  1.00  0.00    -0.275 OA
ATOM     19  C   UNL A   1      32.970  26.012  22.200  1.00  0.00     0.224 C 
ATOM     20  H   UNL A   1      32.132  24.567  23.367  1.00  0.00     0.170 HD
BRANCH  19  21
ATOM     21  C   UNL A   1      31.567  26.563  21.996  1.00  0.00     0.105 C 
BRANCH  21  22
ATOM     22  C   UNL A   1      31.032  27.256  23.244  1.00  0.00     0.045 C 
BRANCH  22  23
ATOM     23  C   UNL A   1      29.967  28.278  22.922  1.00  0.00    -0.048 A 
ATOM     24  C   UNL A   1      30.303  29.417  22.177  1.00  0.00     0.004 A 
ATOM     25  C   UNL A   1      28.626  28.058  23.266  1.00  0.00     0.004 A 
ATOM     26  C   UNL A   1      29.314  30.307  21.761  1.00  0.00     0.000 A 
ATOM     27  C   UNL A   1      27.637  28.948  22.845  1.00  0.00     0.000 A 
ATOM     28  C   UNL A   1      27.981  30.068  22.088  1.00  0.00     0.000 A 
ENDBRANCH  22  23
ENDBRANCH  21  22
ENDBRANCH  19  21
ENDBRANCH  12  17
ENDBRANCH  10  11
ENDBRANCH   6  10
ENDBRANCH   1   5
BRANCH   3  29
ATOM     29  C   UNL A   1      31.765  30.315  25.433  1.00  0.00     0.116 C 
BRANCH  29  30
ATOM     30  C   UNL A   1      31.197  31.585  26.070  1.00  0.00     0.023 C 
BRANCH  30  31
ATOM     31  C   UNL A   1      31.827  31.973  27.407  1.00  0.00     0.023 C 
BRANCH  31  32
ATOM     32  C   UNL A   1      32.897  33.056  27.323  1.00  0.00     0.116 C 
BRANCH  32  33
ATOM     33  N   UNL A   1      32.448  34.388  27.707  1.00  0.00    -0.352 N 
ATOM     34  C   UNL A   1      32.970  35.206  28.681  1.00  0.00     0.251 C 
ATOM     35  H   UNL A   1      31.677  34.745  27.209  1.00  0.00     0.163 HD
ATOM     36  O   UNL A   1      32.459  36.290  28.941  1.00  0.00    -0.269 OA
BRANCH  34  37
ATOM     37  C   UNL A   1      34.127  34.719  29.456  1.00  0.00     0.039 A 
ATOM     38  C   UNL A   1      33.900  34.103  30.688  1.00  0.00     0.014 A 
ATOM     39  C   UNL A   1      35.412  34.769  28.911  1.00  0.00     0.014 A 
ATOM     40  C   UNL A   1      34.952  33.450  31.331  1.00  0.00     0.010 A 
ATOM     41  C   UNL A   1      36.437  34.052  29.512  1.00  0.00     0.010 A 
ATOM     42  C   UNL A   1      36.214  33.375  30.720  1.00  0.00    -0.014 A 
BRANCH  42  43
ATOM     43  C   UNL A   1      37.317  32.583  31.320  1.00  0.00     0.031 A 
ATOM     44  C   UNL A   1      37.833  32.937  32.685  1.00  0.00     0.074 A 
ATOM     45  C   UNL A   1      37.904  31.604  30.604  1.00  0.00     0.049 A 
ATOM     46  N   UNL A   1      38.856  32.447  33.338  1.00  0.00    -0.248 NA
ATOM     47  C   UNL A   1      37.121  34.010  33.401  1.00  0.00     0.031 C 
ATOM     48  C   UNL A   1      37.531  31.205  29.246  1.00  0.00     0.029 A 
ATOM     49  N   UNL A   1      38.953  30.774  30.915  1.00  0.00    -0.354 N 
ATOM     50  C   UNL A   1      38.917  33.158  34.529  1.00  0.00     0.074 A 
ATOM     51  C   UNL A   1      37.867  34.152  34.486  1.00  0.00     0.031 C 
ATOM     52  C   UNL A   1      38.324  30.196  28.848  1.00  0.00     0.029 A 
ATOM     53  C   UNL A   1      39.282  29.900  29.908  1.00  0.00     0.049 A 
ATOM     54  H   UNL A   1      39.423  30.802  31.780  1.00  0.00     0.167 HD
ATOM     55  C   UNL A   1      39.753  32.976  35.577  1.00  0.00     0.037 A 
ATOM     56  C   UNL A   1      40.255  28.971  29.846  1.00  0.00     0.037 A 
ATOM     57  C   UNL A   1      40.778  31.968  35.630  1.00  0.00     0.049 A 
ATOM     58  C   UNL A   1      41.163  28.784  31.033  1.00  0.00     0.074 A 
ATOM     59  C   UNL A   1      41.661  31.686  36.657  1.00  0.00     0.029 A 
ATOM     60  N   UNL A   1      41.048  31.069  34.609  1.00  0.00    -0.354 N 
ATOM     61  N   UNL A   1      41.180  29.429  32.173  1.00  0.00    -0.248 NA
ATOM     62  C   UNL A   1      42.184  27.732  30.925  1.00  0.00     0.031 C 
ATOM     63  C   UNL A   1      42.481  30.628  36.250  1.00  0.00     0.029 A 
ATOM     64  C   UNL A   1      42.084  30.229  34.984  1.00  0.00     0.049 A 
ATOM     65  H   UNL A   1      40.574  31.033  33.748  1.00  0.00     0.167 HD
ATOM     66  C   UNL A   1      42.186  28.844  32.928  1.00  0.00     0.074 A 
ATOM     67  C   UNL A   1      42.750  27.781  32.123  1.00  0.00     0.031 C 
ATOM     68  C   UNL A   1      42.610  29.161  34.175  1.00  0.00     0.037 A 
BRANCH  55  69
ATOM     69  C   UNL A   1      39.573  33.871  36.767  1.00  0.00     0.064 A 
ATOM     70  C   UNL A   1      38.800  33.470  37.867  1.00  0.00     0.173 A 
ATOM     71  C   UNL A   1      40.201  35.123  36.825  1.00  0.00     0.173 A 
ATOM     72  F   UNL A   1      38.167  32.287  37.852  1.00  0.00    -0.203 F 
ATOM     73  C   UNL A   1      38.645  34.299  38.974  1.00  0.00     0.198 A 
ATOM     74  C   UNL A   1      40.066  35.939  37.946  1.00  0.00     0.198 A 
ATOM     75  F   UNL A   1      40.952  35.553  35.800  1.00  0.00    -0.203 F 
ATOM     76  F   UNL A   1      37.866  33.913  39.995  1.00  0.00    -0.200 F 
ATOM     77  C   UNL A   1      39.283  35.529  39.016  1.00  0.00     0.200 A 
ATOM     78  F   UNL A   1      40.691  37.123  37.991  1.00  0.00    -0.200 F 
ATOM     79  F   UNL A   1      39.139  36.323  40.085  1.00  0.00    -0.200 F 
ENDBRANCH  55  69
BRANCH  56  80
ATOM     80  C   UNL A   1      40.413  28.127  28.634  1.00  0.00     0.064 A 
ATOM     81  C   UNL A   1      39.790  26.872  28.547  1.00  0.00     0.173 A 
ATOM     82  C   UNL A   1      41.209  28.535  27.556  1.00  0.00     0.173 A 
ATOM     83  F   UNL A   1      39.034  26.428  29.562  1.00  0.00    -0.203 F 
ATOM     84  C   UNL A   1      39.986  26.046  27.442  1.00  0.00     0.198 A 
ATOM     85  C   UNL A   1      41.382  27.719  26.439  1.00  0.00     0.198 A 
ATOM     86  F   UNL A   1      41.822  29.727  27.587  1.00  0.00    -0.203 F 
ATOM     87  F   UNL A   1      39.424  24.829  27.411  1.00  0.00    -0.200 F 
ATOM     88  C   UNL A   1      40.779  26.471  26.388  1.00  0.00     0.200 A 
ATOM     89  F   UNL A   1      42.141  28.139  25.416  1.00  0.00    -0.200 F 
ATOM     90  F   UNL A   1      40.972  25.674  25.329  1.00  0.00    -0.200 F 
ENDBRANCH  56  80
BRANCH  68  91
ATOM     91  C   UNL A   1      43.703  28.319  34.763  1.00  0.00     0.064 A 
ATOM     92  C   UNL A   1      43.423  27.139  35.469  1.00  0.00     0.173 A 
ATOM     93  C   UNL A   1      45.047  28.676  34.580  1.00  0.00     0.173 A 
ATOM     94  F   UNL A   1      42.152  26.766  35.682  1.00  0.00    -0.203 F 
ATOM     95  C   UNL A   1      44.451  26.361  35.991  1.00  0.00     0.198 A 
ATOM     96  C   UNL A   1      46.072  27.880  35.081  1.00  0.00     0.198 A 
ATOM     97  F   UNL A   1      45.364  29.792  33.907  1.00  0.00    -0.203 F 
ATOM     98  F   UNL A   1      44.161  25.261  36.700  1.00  0.00    -0.200 F 
ATOM     99  C   UNL A   1      45.774  26.727  35.791  1.00  0.00     0.200 A 
ATOM    100  F   UNL A   1      47.350  28.230  34.877  1.00  0.00    -0.200 F 
ATOM    101  F   UNL A   1      46.762  25.972  36.289  1.00  0.00    -0.200 F 
ENDBRANCH  68  91
ENDBRANCH  42  43
ENDBRANCH  34  37
ENDBRANCH  32  33
ENDBRANCH  31  32
ENDBRANCH  30  31
ENDBRANCH  29  30
ENDBRANCH   3  29
TORSDOF 17
ENDMDL
