MODEL 1
REMARK VINA RESULT:     -12.9      0.000      0.000
REMARK SMILES CSc1cccc(NC(=O)N[C@@H]2C=C[C@@H](C(=O)NCCCCNC(=O)c3ccc(-c4c5nc(c(-c6c(F)c(F)c(F)c(F)c6F)c6ccc([nH]6)c(-c6c(F)c(F)c(F)c(F)c6F)c6nc(c(-c7c(F)c(F)c(F)c(F)c7F)c7ccc4[nH]7)C=C6)C=C5)cc3)C2)c1
REMARK SMILES IDX 20 1 19 2 18 3 16 4 17 5 15 7 12 8 13 9 89 10 14 11 11 12
REMARK SMILES IDX 8 13 9 14 10 16 7 18 3 19 4 20 90 21 5 22 6 23 2 24 1 25
REMARK SMILES IDX 21 26 22 27 23 28 24 29 25 31 26 32 27 33 88 34 28 35 87 36
REMARK SMILES IDX 29 37 30 38 31 39 81 40 32 41 86 42 80 43 82 44 33 45 85 46
REMARK SMILES IDX 79 47 78 48 34 50 66 51 46 52 65 53 47 54 50 55 64 56 83 57
REMARK SMILES IDX 48 58 49 59 63 61 84 62 51 63 35 64 36 65 44 66 37 67 38 68
REMARK SMILES IDX 42 69 45 70 39 71 40 72 43 73 41 74 67 75 68 76 76 77 69 78
REMARK SMILES IDX 70 79 74 80 77 81 71 82 72 83 75 84 73 85 52 86 53 87 61 88
REMARK SMILES IDX 54 89 55 90 59 91 62 92 56 93 57 94 60 95 58 96
REMARK H PARENT 18 6 8 15 11 17 23 30 82 49 50 60
REMARK Flexibility Score: inf
ROOT
ATOM      1  C   UNL A   1      38.998  22.652  26.301  1.00  0.00     0.023 C 
ENDROOT
BRANCH   1   2
ATOM      2  C   UNL A   1      37.616  23.089  25.853  1.00  0.00     0.116 C 
BRANCH   2   3
ATOM      3  N   UNL A   1      37.421  22.950  24.426  1.00  0.00    -0.356 N 
ATOM      4  C   UNL A   1      36.389  22.874  23.553  1.00  0.00     0.227 C 
ATOM      5  O   UNL A   1      36.737  23.120  22.382  1.00  0.00    -0.274 OA
ATOM      6  H   UNL A   1      38.285  22.894  23.957  1.00  0.00     0.163 HD
BRANCH   4   7
ATOM      7  C   UNL A   1      34.771  22.389  23.806  1.00  0.00     0.103 C 
ATOM      8  C   UNL A   1      32.076  24.182  24.618  1.00  0.00     0.107 C 
ATOM      9  C   UNL A   1      31.631  22.968  23.015  1.00  0.00    -0.006 C 
ATOM     10  C   UNL A   1      34.150  24.030  25.011  1.00  0.00     0.047 C 
ATOM     11  C   UNL A   1      32.939  21.875  22.656  1.00  0.00    -0.016 C 
BRANCH   8  12
ATOM     12  N   UNL A   1      31.334  23.503  25.686  1.00  0.00    -0.332 N 
ATOM     13  N   UNL A   1      30.022  25.258  26.734  1.00  0.00    -0.308 N 
ATOM     14  C   UNL A   1      30.460  23.955  26.633  1.00  0.00     0.319 C 
ATOM     15  H   UNL A   1      29.367  25.449  27.444  1.00  0.00     0.171 HD
ATOM     16  O   UNL A   1      30.067  23.129  27.462  1.00  0.00    -0.248 OA
ATOM     17  H   UNL A   1      31.498  22.533  25.727  1.00  0.00     0.165 HD
BRANCH  13  18
ATOM     18  C   UNL A   1      30.413  26.338  25.931  1.00  0.00     0.043 A 
ATOM     19  C   UNL A   1      30.262  28.410  23.816  1.00  0.00     0.009 A 
ATOM     20  C   UNL A   1      31.204  29.588  24.621  1.00  0.00     0.015 A 
ATOM     21  C   UNL A   1      29.828  26.867  24.456  1.00  0.00     0.041 A 
ATOM     22  C   UNL A   1      31.865  29.208  26.112  1.00  0.00     0.003 A 
ATOM     23  C   UNL A   1      31.462  27.445  26.735  1.00  0.00     0.026 A 
BRANCH  19  24
ATOM     24  S   UNL A   1      29.745  29.000  22.189  1.00  0.00    -0.130 SA
ATOM     25  C   UNL A   1      28.034  29.490  22.463  1.00  0.00     0.091 C 
ENDBRANCH  19  24
ENDBRANCH  13  18
ENDBRANCH   8  12
ENDBRANCH   4   7
ENDBRANCH   2   3
ENDBRANCH   1   2
BRANCH   1  26
ATOM     26  C   UNL A   1      39.319  21.285  25.724  1.00  0.00     0.023 C 
BRANCH  26  27
ATOM     27  C   UNL A   1      39.871  20.311  26.756  1.00  0.00     0.116 C 
BRANCH  27  28
ATOM     28  N   UNL A   1      40.755  19.301  26.191  1.00  0.00    -0.352 N 
ATOM     29  C   UNL A   1      42.087  19.466  25.893  1.00  0.00     0.251 C 
ATOM     30  H   UNL A   1      40.362  18.417  26.006  1.00  0.00     0.163 HD
ATOM     31  O   UNL A   1      42.723  18.626  25.271  1.00  0.00    -0.269 OA
BRANCH  29  32
ATOM     32  C   UNL A   1      42.702  20.730  26.326  1.00  0.00     0.039 A 
ATOM     33  C   UNL A   1      43.062  21.667  25.363  1.00  0.00     0.014 A 
ATOM     34  C   UNL A   1      42.704  21.045  27.690  1.00  0.00     0.014 A 
ATOM     35  C   UNL A   1      43.390  22.955  25.773  1.00  0.00     0.010 A 
ATOM     36  C   UNL A   1      42.907  22.360  28.078  1.00  0.00     0.010 A 
ATOM     37  C   UNL A   1      43.274  23.322  27.126  1.00  0.00    -0.014 A 
BRANCH  37  38
ATOM     38  C   UNL A   1      43.561  24.709  27.564  1.00  0.00     0.031 A 
ATOM     39  C   UNL A   1      44.987  25.166  27.688  1.00  0.00     0.074 A 
ATOM     40  C   UNL A   1      42.548  25.543  27.866  1.00  0.00     0.049 A 
ATOM     41  N   UNL A   1      45.451  26.329  28.067  1.00  0.00    -0.248 NA
ATOM     42  C   UNL A   1      46.034  24.180  27.369  1.00  0.00     0.031 C 
ATOM     43  C   UNL A   1      41.125  25.196  27.826  1.00  0.00     0.029 A 
ATOM     44  N   UNL A   1      42.558  26.856  28.264  1.00  0.00    -0.354 N 
ATOM     45  C   UNL A   1      46.834  26.212  28.024  1.00  0.00     0.074 A 
ATOM     46  C   UNL A   1      47.137  24.844  27.671  1.00  0.00     0.031 C 
ATOM     47  C   UNL A   1      40.401  26.280  28.142  1.00  0.00     0.029 A 
ATOM     48  C   UNL A   1      41.305  27.379  28.466  1.00  0.00     0.049 A 
ATOM     49  H   UNL A   1      43.385  27.373  28.392  1.00  0.00     0.167 HD
ATOM     50  C   UNL A   1      47.767  27.170  28.225  1.00  0.00     0.037 A 
ATOM     51  C   UNL A   1      40.930  28.604  28.883  1.00  0.00     0.037 A 
ATOM     52  C   UNL A   1      47.458  28.528  28.583  1.00  0.00     0.049 A 
ATOM     53  C   UNL A   1      41.993  29.631  29.171  1.00  0.00     0.074 A 
ATOM     54  C   UNL A   1      48.329  29.582  28.788  1.00  0.00     0.029 A 
ATOM     55  N   UNL A   1      46.178  29.015  28.804  1.00  0.00    -0.354 N 
ATOM     56  N   UNL A   1      43.296  29.529  29.061  1.00  0.00    -0.248 NA
ATOM     57  C   UNL A   1      41.534  30.947  29.633  1.00  0.00     0.031 C 
ATOM     58  C   UNL A   1      47.584  30.685  29.212  1.00  0.00     0.029 A 
ATOM     59  C   UNL A   1      46.240  30.348  29.179  1.00  0.00     0.049 A 
ATOM     60  H   UNL A   1      45.349  28.492  28.709  1.00  0.00     0.167 HD
ATOM     61  C   UNL A   1      43.807  30.774  29.404  1.00  0.00     0.074 A 
ATOM     62  C   UNL A   1      42.672  31.620  29.703  1.00  0.00     0.031 C 
ATOM     63  C   UNL A   1      45.100  31.181  29.464  1.00  0.00     0.037 A 
BRANCH  50  64
ATOM     64  C   UNL A   1      49.208  26.778  28.067  1.00  0.00     0.064 A 
ATOM     65  C   UNL A   1      50.017  26.472  29.174  1.00  0.00     0.173 A 
ATOM     66  C   UNL A   1      49.782  26.677  26.792  1.00  0.00     0.173 A 
ATOM     67  F   UNL A   1      49.524  26.562  30.419  1.00  0.00    -0.203 F 
ATOM     68  C   UNL A   1      51.353  26.120  29.011  1.00  0.00     0.198 A 
ATOM     69  C   UNL A   1      51.106  26.280  26.629  1.00  0.00     0.198 A 
ATOM     70  F   UNL A   1      49.055  26.953  25.697  1.00  0.00    -0.203 F 
ATOM     71  F   UNL A   1      52.122  25.896  30.086  1.00  0.00    -0.200 F 
ATOM     72  C   UNL A   1      51.894  26.013  27.738  1.00  0.00     0.200 A 
ATOM     73  F   UNL A   1      51.621  26.157  25.398  1.00  0.00    -0.200 F 
ATOM     74  F   UNL A   1      53.178  25.661  27.582  1.00  0.00    -0.200 F 
ENDBRANCH  50  64
BRANCH  51  75
ATOM     75  C   UNL A   1      39.488  28.927  29.071  1.00  0.00     0.064 A 
ATOM     76  C   UNL A   1      38.707  29.412  28.011  1.00  0.00     0.173 A 
ATOM     77  C   UNL A   1      38.872  28.798  30.325  1.00  0.00     0.173 A 
ATOM     78  F   UNL A   1      39.249  29.568  26.795  1.00  0.00    -0.203 F 
ATOM     79  C   UNL A   1      37.383  29.799  28.211  1.00  0.00     0.198 A 
ATOM     80  C   UNL A   1      37.535  29.142  30.513  1.00  0.00     0.198 A 
ATOM     81  F   UNL A   1      39.568  28.331  31.372  1.00  0.00    -0.203 F 
ATOM     82  F   UNL A   1      36.685  30.334  27.200  1.00  0.00    -0.200 F 
ATOM     83  C   UNL A   1      36.797  29.659  29.460  1.00  0.00     0.200 A 
ATOM     84  F   UNL A   1      36.968  28.982  31.715  1.00  0.00    -0.200 F 
ATOM     85  F   UNL A   1      35.526  30.035  29.652  1.00  0.00    -0.200 F 
ENDBRANCH  51  75
BRANCH  63  86
ATOM     86  C   UNL A   1      45.359  32.621  29.813  1.00  0.00     0.064 A 
ATOM     87  C   UNL A   1      45.390  33.631  28.841  1.00  0.00     0.173 A 
ATOM     88  C   UNL A   1      45.542  32.998  31.154  1.00  0.00     0.173 A 
ATOM     89  F   UNL A   1      45.229  33.327  27.544  1.00  0.00    -0.203 F 
ATOM     90  C   UNL A   1      45.639  34.955  29.191  1.00  0.00     0.198 A 
ATOM     91  C   UNL A   1      45.742  34.330  31.505  1.00  0.00     0.198 A 
ATOM     92  F   UNL A   1      45.510  32.077  32.128  1.00  0.00    -0.203 F 
ATOM     93  F   UNL A   1      45.736  35.892  28.237  1.00  0.00    -0.200 F 
ATOM     94  C   UNL A   1      45.805  35.305  30.522  1.00  0.00     0.200 A 
ATOM     95  F   UNL A   1      45.874  34.667  32.795  1.00  0.00    -0.200 F 
ATOM     96  F   UNL A   1      46.032  36.582  30.859  1.00  0.00    -0.200 F 
ENDBRANCH  63  86
ENDBRANCH  37  38
ENDBRANCH  29  32
ENDBRANCH  27  28
ENDBRANCH  26  27
ENDBRANCH   1  26
TORSDOF 14
ENDMDL
MODEL 2
REMARK VINA RESULT:     -12.8      1.114      7.474
REMARK SMILES CSc1cccc(NC(=O)N[C@@H]2C=C[C@@H](C(=O)NCCCCNC(=O)c3ccc(-c4c5nc(c(-c6c(F)c(F)c(F)c(F)c6F)c6ccc([nH]6)c(-c6c(F)c(F)c(F)c(F)c6F)c6nc(c(-c7c(F)c(F)c(F)c(F)c7F)c7ccc4[nH]7)C=C6)C=C5)cc3)C2)c1
REMARK SMILES IDX 20 1 19 2 18 3 16 4 17 5 15 7 12 8 13 9 89 10 14 11 11 12
REMARK SMILES IDX 8 13 9 14 10 16 7 18 3 19 4 20 90 21 5 22 6 23 2 24 1 25
REMARK SMILES IDX 21 26 22 27 23 28 24 29 25 31 26 32 27 33 88 34 28 35 87 36
REMARK SMILES IDX 29 37 30 38 31 39 81 40 32 41 86 42 80 43 82 44 33 45 85 46
REMARK SMILES IDX 79 47 78 48 34 50 66 51 46 52 65 53 47 54 50 55 64 56 83 57
REMARK SMILES IDX 48 58 49 59 63 61 84 62 51 63 35 64 36 65 44 66 37 67 38 68
REMARK SMILES IDX 42 69 45 70 39 71 40 72 43 73 41 74 67 75 68 76 76 77 69 78
REMARK SMILES IDX 70 79 74 80 77 81 71 82 72 83 75 84 73 85 52 86 53 87 61 88
REMARK SMILES IDX 54 89 55 90 59 91 62 92 56 93 57 94 60 95 58 96
REMARK H PARENT 18 6 8 15 11 17 23 30 82 49 50 60
REMARK Flexibility Score: inf
ROOT
ATOM      1  C   UNL A   1      39.018  22.552  26.254  1.00  0.00     0.023 C 
ENDROOT
BRANCH   1   2
ATOM      2  C   UNL A   1      37.558  22.611  25.846  1.00  0.00     0.116 C 
BRANCH   2   3
ATOM      3  N   UNL A   1      37.382  22.687  24.412  1.00  0.00    -0.356 N 
ATOM      4  C   UNL A   1      36.366  22.834  23.528  1.00  0.00     0.227 C 
ATOM      5  O   UNL A   1      36.762  23.200  22.405  1.00  0.00    -0.274 OA
ATOM      6  H   UNL A   1      38.246  22.610  23.947  1.00  0.00     0.163 HD
BRANCH   4   7
ATOM      7  C   UNL A   1      34.703  22.481  23.699  1.00  0.00     0.103 C 
ATOM      8  C   UNL A   1      32.246  24.263  25.084  1.00  0.00     0.107 C 
ATOM      9  C   UNL A   1      31.650  23.608  23.225  1.00  0.00    -0.006 C 
ATOM     10  C   UNL A   1      34.289  23.775  25.337  1.00  0.00     0.047 C 
ATOM     11  C   UNL A   1      32.817  22.522  22.524  1.00  0.00    -0.016 C 
BRANCH   8  12
ATOM     12  N   UNL A   1      31.435  23.399  25.948  1.00  0.00    -0.332 N 
ATOM     13  N   UNL A   1      29.622  24.822  26.715  1.00  0.00    -0.308 N 
ATOM     14  C   UNL A   1      30.309  23.628  26.687  1.00  0.00     0.319 C 
ATOM     15  H   UNL A   1      28.806  24.849  27.265  1.00  0.00     0.171 HD
ATOM     16  O   UNL A   1      29.912  22.696  27.393  1.00  0.00    -0.248 OA
ATOM     17  H   UNL A   1      31.766  22.474  26.005  1.00  0.00     0.165 HD
BRANCH  13  18
ATOM     18  C   UNL A   1      29.963  26.002  26.038  1.00  0.00     0.043 A 
ATOM     19  C   UNL A   1      31.589  28.327  25.179  1.00  0.00     0.009 A 
ATOM     20  C   UNL A   1      30.945  28.451  23.600  1.00  0.00     0.015 A 
ATOM     21  C   UNL A   1      31.167  27.123  26.341  1.00  0.00     0.041 A 
ATOM     22  C   UNL A   1      29.726  27.396  23.144  1.00  0.00     0.003 A 
ATOM     23  C   UNL A   1      29.201  26.153  24.500  1.00  0.00     0.026 A 
BRANCH  19  24
ATOM     24  S   UNL A   1      32.809  29.624  25.480  1.00  0.00    -0.130 SA
ATOM     25  C   UNL A   1      31.873  30.850  26.410  1.00  0.00     0.091 C 
ENDBRANCH  19  24
ENDBRANCH  13  18
ENDBRANCH   8  12
ENDBRANCH   4   7
ENDBRANCH   2   3
ENDBRANCH   1   2
BRANCH   1  26
ATOM     26  C   UNL A   1      39.643  21.263  25.751  1.00  0.00     0.023 C 
BRANCH  26  27
ATOM     27  C   UNL A   1      40.062  20.321  26.871  1.00  0.00     0.116 C 
BRANCH  27  28
ATOM     28  N   UNL A   1      40.865  19.194  26.416  1.00  0.00    -0.352 N 
ATOM     29  C   UNL A   1      42.203  19.228  26.100  1.00  0.00     0.251 C 
ATOM     30  H   UNL A   1      40.407  18.327  26.328  1.00  0.00     0.163 HD
ATOM     31  O   UNL A   1      42.770  18.283  25.571  1.00  0.00    -0.269 OA
BRANCH  29  32
ATOM     32  C   UNL A   1      42.912  20.483  26.395  1.00  0.00     0.039 A 
ATOM     33  C   UNL A   1      43.392  21.248  25.336  1.00  0.00     0.014 A 
ATOM     34  C   UNL A   1      42.890  20.978  27.704  1.00  0.00     0.014 A 
ATOM     35  C   UNL A   1      43.819  22.547  25.590  1.00  0.00     0.010 A 
ATOM     36  C   UNL A   1      43.195  22.311  27.925  1.00  0.00     0.010 A 
ATOM     37  C   UNL A   1      43.684  23.102  26.876  1.00  0.00    -0.014 A 
BRANCH  37  38
ATOM     38  C   UNL A   1      44.078  24.506  27.142  1.00  0.00     0.031 A 
ATOM     39  C   UNL A   1      43.032  25.504  27.551  1.00  0.00     0.074 A 
ATOM     40  C   UNL A   1      45.363  24.883  26.998  1.00  0.00     0.049 A 
ATOM     41  N   UNL A   1      43.166  26.779  27.814  1.00  0.00    -0.248 NA
ATOM     42  C   UNL A   1      41.647  25.015  27.653  1.00  0.00     0.031 C 
ATOM     43  C   UNL A   1      46.457  24.012  26.563  1.00  0.00     0.029 A 
ATOM     44  N   UNL A   1      45.967  26.097  27.204  1.00  0.00    -0.354 N 
ATOM     45  C   UNL A   1      41.890  27.234  28.117  1.00  0.00     0.074 A 
ATOM     46  C   UNL A   1      40.983  26.127  27.920  1.00  0.00     0.031 C 
ATOM     47  C   UNL A   1      47.604  24.708  26.577  1.00  0.00     0.029 A 
ATOM     48  C   UNL A   1      47.319  26.087  26.962  1.00  0.00     0.049 A 
ATOM     49  H   UNL A   1      45.479  26.898  27.498  1.00  0.00     0.167 HD
ATOM     50  C   UNL A   1      41.514  28.457  28.557  1.00  0.00     0.037 A 
ATOM     51  C   UNL A   1      48.223  27.083  27.027  1.00  0.00     0.037 A 
ATOM     52  C   UNL A   1      42.421  29.555  28.745  1.00  0.00     0.049 A 
ATOM     53  C   UNL A   1      47.763  28.454  27.449  1.00  0.00     0.074 A 
ATOM     54  C   UNL A   1      42.146  30.828  29.208  1.00  0.00     0.029 A 
ATOM     55  N   UNL A   1      43.780  29.515  28.465  1.00  0.00    -0.354 N 
ATOM     56  N   UNL A   1      46.565  28.856  27.799  1.00  0.00    -0.248 NA
ATOM     57  C   UNL A   1      48.784  29.509  27.494  1.00  0.00     0.031 C 
ATOM     58  C   UNL A   1      43.319  31.583  29.131  1.00  0.00     0.029 A 
ATOM     59  C   UNL A   1      44.348  30.755  28.712  1.00  0.00     0.049 A 
ATOM     60  H   UNL A   1      44.267  28.724  28.139  1.00  0.00     0.167 HD
ATOM     61  C   UNL A   1      46.696  30.196  28.140  1.00  0.00     0.074 A 
ATOM     62  C   UNL A   1      48.094  30.532  27.975  1.00  0.00     0.031 C 
ATOM     63  C   UNL A   1      45.745  31.071  28.553  1.00  0.00     0.037 A 
BRANCH  50  64
ATOM     64  C   UNL A   1      40.058  28.667  28.859  1.00  0.00     0.064 A 
ATOM     65  C   UNL A   1      39.525  28.426  30.135  1.00  0.00     0.173 A 
ATOM     66  C   UNL A   1      39.188  29.146  27.868  1.00  0.00     0.173 A 
ATOM     67  F   UNL A   1      40.308  27.958  31.119  1.00  0.00    -0.203 F 
ATOM     68  C   UNL A   1      38.171  28.618  30.396  1.00  0.00     0.198 A 
ATOM     69  C   UNL A   1      37.844  29.380  28.144  1.00  0.00     0.198 A 
ATOM     70  F   UNL A   1      39.643  29.399  26.630  1.00  0.00    -0.203 F 
ATOM     71  F   UNL A   1      37.674  28.318  31.604  1.00  0.00    -0.200 F 
ATOM     72  C   UNL A   1      37.334  29.105  29.403  1.00  0.00     0.200 A 
ATOM     73  F   UNL A   1      37.041  29.871  27.189  1.00  0.00    -0.200 F 
ATOM     74  F   UNL A   1      36.033  29.301  29.659  1.00  0.00    -0.200 F 
ENDBRANCH  50  64
BRANCH  51  75
ATOM     75  C   UNL A   1      49.647  26.833  26.670  1.00  0.00     0.064 A 
ATOM     76  C   UNL A   1      50.588  26.467  27.644  1.00  0.00     0.173 A 
ATOM     77  C   UNL A   1      50.106  26.998  25.354  1.00  0.00     0.173 A 
ATOM     78  F   UNL A   1      50.206  26.309  28.919  1.00  0.00    -0.203 F 
ATOM     79  C   UNL A   1      51.937  26.322  27.324  1.00  0.00     0.198 A 
ATOM     80  C   UNL A   1      51.446  26.808  25.027  1.00  0.00     0.198 A 
ATOM     81  F   UNL A   1      49.249  27.339  24.380  1.00  0.00    -0.203 F 
ATOM     82  F   UNL A   1      52.825  26.050  28.289  1.00  0.00    -0.200 F 
ATOM     83  C   UNL A   1      52.364  26.488  26.015  1.00  0.00     0.200 A 
ATOM     84  F   UNL A   1      51.848  26.946  23.757  1.00  0.00    -0.200 F 
ATOM     85  F   UNL A   1      53.661  26.352  25.709  1.00  0.00    -0.200 F 
ENDBRANCH  51  75
BRANCH  63  86
ATOM     86  C   UNL A   1      46.189  32.462  28.912  1.00  0.00     0.064 A 
ATOM     87  C   UNL A   1      46.613  32.799  30.206  1.00  0.00     0.173 A 
ATOM     88  C   UNL A   1      46.226  33.465  27.930  1.00  0.00     0.173 A 
ATOM     89  F   UNL A   1      46.592  31.882  31.186  1.00  0.00    -0.203 F 
ATOM     90  C   UNL A   1      47.013  34.097  30.513  1.00  0.00     0.198 A 
ATOM     91  C   UNL A   1      46.672  34.749  28.229  1.00  0.00     0.198 A 
ATOM     92  F   UNL A   1      45.844  33.197  26.673  1.00  0.00    -0.203 F 
ATOM     93  F   UNL A   1      47.345  34.413  31.772  1.00  0.00    -0.200 F 
ATOM     94  C   UNL A   1      47.052  35.068  29.524  1.00  0.00     0.200 A 
ATOM     95  F   UNL A   1      46.735  35.676  27.264  1.00  0.00    -0.200 F 
ATOM     96  F   UNL A   1      47.449  36.313  29.818  1.00  0.00    -0.200 F 
ENDBRANCH  63  86
ENDBRANCH  37  38
ENDBRANCH  29  32
ENDBRANCH  27  28
ENDBRANCH  26  27
ENDBRANCH   1  26
TORSDOF 14
ENDMDL
MODEL 3
REMARK VINA RESULT:     -12.7      0.987      2.110
REMARK SMILES CSc1cccc(NC(=O)N[C@@H]2C=C[C@@H](C(=O)NCCCCNC(=O)c3ccc(-c4c5nc(c(-c6c(F)c(F)c(F)c(F)c6F)c6ccc([nH]6)c(-c6c(F)c(F)c(F)c(F)c6F)c6nc(c(-c7c(F)c(F)c(F)c(F)c7F)c7ccc4[nH]7)C=C6)C=C5)cc3)C2)c1
REMARK SMILES IDX 20 1 19 2 18 3 16 4 17 5 15 7 12 8 13 9 89 10 14 11 11 12
REMARK SMILES IDX 8 13 9 14 10 16 7 18 3 19 4 20 90 21 5 22 6 23 2 24 1 25
REMARK SMILES IDX 21 26 22 27 23 28 24 29 25 31 26 32 27 33 88 34 28 35 87 36
REMARK SMILES IDX 29 37 30 38 31 39 81 40 32 41 86 42 80 43 82 44 33 45 85 46
REMARK SMILES IDX 79 47 78 48 34 50 66 51 46 52 65 53 47 54 50 55 64 56 83 57
REMARK SMILES IDX 48 58 49 59 63 61 84 62 51 63 35 64 36 65 44 66 37 67 38 68
REMARK SMILES IDX 42 69 45 70 39 71 40 72 43 73 41 74 67 75 68 76 76 77 69 78
REMARK SMILES IDX 70 79 74 80 77 81 71 82 72 83 75 84 73 85 52 86 53 87 61 88
REMARK SMILES IDX 54 89 55 90 59 91 62 92 56 93 57 94 60 95 58 96
REMARK H PARENT 18 6 8 15 11 17 23 30 82 49 50 60
REMARK Flexibility Score: inf
ROOT
ATOM      1  C   UNL A   1      38.994  22.510  26.300  1.00  0.00     0.023 C 
ENDROOT
BRANCH   1   2
ATOM      2  C   UNL A   1      37.561  22.774  25.874  1.00  0.00     0.116 C 
BRANCH   2   3
ATOM      3  N   UNL A   1      37.399  22.783  24.436  1.00  0.00    -0.356 N 
ATOM      4  C   UNL A   1      36.391  22.878  23.536  1.00  0.00     0.227 C 
ATOM      5  O   UNL A   1      36.795  23.199  22.402  1.00  0.00    -0.274 OA
ATOM      6  H   UNL A   1      38.269  22.696  23.984  1.00  0.00     0.163 HD
BRANCH   4   7
ATOM      7  C   UNL A   1      34.731  22.514  23.706  1.00  0.00     0.103 C 
ATOM      8  C   UNL A   1      32.260  24.281  25.087  1.00  0.00     0.107 C 
ATOM      9  C   UNL A   1      31.670  23.619  23.228  1.00  0.00    -0.006 C 
ATOM     10  C   UNL A   1      34.306  23.807  25.342  1.00  0.00     0.047 C 
ATOM     11  C   UNL A   1      32.845  22.539  22.530  1.00  0.00    -0.016 C 
BRANCH   8  12
ATOM     12  N   UNL A   1      31.454  23.412  25.951  1.00  0.00    -0.332 N 
ATOM     13  N   UNL A   1      29.633  24.825  26.717  1.00  0.00    -0.308 N 
ATOM     14  C   UNL A   1      30.327  23.635  26.691  1.00  0.00     0.319 C 
ATOM     15  H   UNL A   1      28.817  24.848  27.268  1.00  0.00     0.171 HD
ATOM     16  O   UNL A   1      29.935  22.701  27.397  1.00  0.00    -0.248 OA
ATOM     17  H   UNL A   1      31.791  22.489  26.009  1.00  0.00     0.165 HD
BRANCH  13  18
ATOM     18  C   UNL A   1      29.967  26.006  26.040  1.00  0.00     0.043 A 
ATOM     19  C   UNL A   1      31.559  28.368  25.218  1.00  0.00     0.009 A 
ATOM     20  C   UNL A   1      30.975  28.455  23.613  1.00  0.00     0.015 A 
ATOM     21  C   UNL A   1      31.126  27.165  26.377  1.00  0.00     0.041 A 
ATOM     22  C   UNL A   1      29.806  27.361  23.122  1.00  0.00     0.003 A 
ATOM     23  C   UNL A   1      29.262  26.118  24.471  1.00  0.00     0.026 A 
BRANCH  19  24
ATOM     24  S   UNL A   1      32.729  29.703  25.551  1.00  0.00    -0.130 SA
ATOM     25  C   UNL A   1      34.183  28.826  26.149  1.00  0.00     0.091 C 
ENDBRANCH  19  24
ENDBRANCH  13  18
ENDBRANCH   8  12
ENDBRANCH   4   7
ENDBRANCH   2   3
ENDBRANCH   1   2
BRANCH   1  26
ATOM     26  C   UNL A   1      39.451  21.164  25.769  1.00  0.00     0.023 C 
BRANCH  26  27
ATOM     27  C   UNL A   1      40.099  20.287  26.831  1.00  0.00     0.116 C 
BRANCH  27  28
ATOM     28  N   UNL A   1      40.994  19.275  26.286  1.00  0.00    -0.352 N 
ATOM     29  C   UNL A   1      42.307  19.464  25.924  1.00  0.00     0.251 C 
ATOM     30  H   UNL A   1      40.624  18.371  26.165  1.00  0.00     0.163 HD
ATOM     31  O   UNL A   1      42.945  18.612  25.323  1.00  0.00    -0.269 OA
BRANCH  29  32
ATOM     32  C   UNL A   1      42.896  20.769  26.263  1.00  0.00     0.039 A 
ATOM     33  C   UNL A   1      43.116  21.692  25.245  1.00  0.00     0.014 A 
ATOM     34  C   UNL A   1      43.011  21.127  27.612  1.00  0.00     0.014 A 
ATOM     35  C   UNL A   1      43.416  23.006  25.587  1.00  0.00     0.010 A 
ATOM     36  C   UNL A   1      43.183  22.461  27.942  1.00  0.00     0.010 A 
ATOM     37  C   UNL A   1      43.410  23.409  26.935  1.00  0.00    -0.014 A 
BRANCH  37  38
ATOM     38  C   UNL A   1      43.668  24.821  27.306  1.00  0.00     0.031 A 
ATOM     39  C   UNL A   1      45.053  25.384  27.162  1.00  0.00     0.074 A 
ATOM     40  C   UNL A   1      42.667  25.584  27.786  1.00  0.00     0.049 A 
ATOM     41  N   UNL A   1      45.490  26.584  27.443  1.00  0.00    -0.248 NA
ATOM     42  C   UNL A   1      46.095  24.471  26.660  1.00  0.00     0.031 C 
ATOM     43  C   UNL A   1      41.292  25.134  28.011  1.00  0.00     0.029 A 
ATOM     44  N   UNL A   1      42.652  26.901  28.169  1.00  0.00    -0.354 N 
ATOM     45  C   UNL A   1      46.846  26.568  27.146  1.00  0.00     0.074 A 
ATOM     46  C   UNL A   1      47.181  25.220  26.750  1.00  0.00     0.031 C 
ATOM     47  C   UNL A   1      40.558  26.167  28.451  1.00  0.00     0.029 A 
ATOM     48  C   UNL A   1      41.421  27.335  28.597  1.00  0.00     0.049 A 
ATOM     49  H   UNL A   1      43.447  27.480  28.140  1.00  0.00     0.167 HD
ATOM     50  C   UNL A   1      47.726  27.596  27.168  1.00  0.00     0.037 A 
ATOM     51  C   UNL A   1      41.038  28.536  29.071  1.00  0.00     0.037 A 
ATOM     52  C   UNL A   1      47.386  28.933  27.570  1.00  0.00     0.049 A 
ATOM     53  C   UNL A   1      42.055  29.643  29.152  1.00  0.00     0.074 A 
ATOM     54  C   UNL A   1      48.198  30.052  27.606  1.00  0.00     0.029 A 
ATOM     55  N   UNL A   1      46.136  29.330  28.022  1.00  0.00    -0.354 N 
ATOM     56  N   UNL A   1      43.320  29.635  28.805  1.00  0.00    -0.248 NA
ATOM     57  C   UNL A   1      41.591  30.931  29.686  1.00  0.00     0.031 C 
ATOM     58  C   UNL A   1      47.463  31.105  28.156  1.00  0.00     0.029 A 
ATOM     59  C   UNL A   1      46.165  30.670  28.373  1.00  0.00     0.049 A 
ATOM     60  H   UNL A   1      45.345  28.746  28.083  1.00  0.00     0.167 HD
ATOM     61  C   UNL A   1      43.790  30.920  29.041  1.00  0.00     0.074 A 
ATOM     62  C   UNL A   1      42.669  31.687  29.542  1.00  0.00     0.031 C 
ATOM     63  C   UNL A   1      45.037  31.423  28.860  1.00  0.00     0.037 A 
BRANCH  50  64
ATOM     64  C   UNL A   1      49.139  27.308  26.748  1.00  0.00     0.064 A 
ATOM     65  C   UNL A   1      49.540  27.378  25.404  1.00  0.00     0.173 A 
ATOM     66  C   UNL A   1      50.113  26.987  27.704  1.00  0.00     0.173 A 
ATOM     67  F   UNL A   1      48.647  27.670  24.445  1.00  0.00    -0.203 F 
ATOM     68  C   UNL A   1      50.851  27.099  25.031  1.00  0.00     0.198 A 
ATOM     69  C   UNL A   1      51.434  26.754  27.333  1.00  0.00     0.198 A 
ATOM     70  F   UNL A   1      49.788  26.911  29.004  1.00  0.00    -0.203 F 
ATOM     71  F   UNL A   1      51.194  27.109  23.735  1.00  0.00    -0.200 F 
ATOM     72  C   UNL A   1      51.800  26.798  25.996  1.00  0.00     0.200 A 
ATOM     73  F   UNL A   1      52.354  26.484  28.269  1.00  0.00    -0.200 F 
ATOM     74  F   UNL A   1      53.065  26.542  25.637  1.00  0.00    -0.200 F 
ENDBRANCH  50  64
BRANCH  51  75
ATOM     75  C   UNL A   1      39.635  28.756  29.520  1.00  0.00     0.064 A 
ATOM     76  C   UNL A   1      38.667  29.287  28.654  1.00  0.00     0.173 A 
ATOM     77  C   UNL A   1      39.243  28.481  30.839  1.00  0.00     0.173 A 
ATOM     78  F   UNL A   1      38.992  29.581  27.386  1.00  0.00    -0.203 F 
ATOM     79  C   UNL A   1      37.380  29.576  29.102  1.00  0.00     0.198 A 
ATOM     80  C   UNL A   1      37.942  28.728  31.274  1.00  0.00     0.198 A 
ATOM     81  F   UNL A   1      40.123  27.964  31.709  1.00  0.00    -0.203 F 
ATOM     82  F   UNL A   1      36.501  30.157  28.274  1.00  0.00    -0.200 F 
ATOM     83  C   UNL A   1      37.017  29.292  30.409  1.00  0.00     0.200 A 
ATOM     84  F   UNL A   1      37.592  28.428  32.530  1.00  0.00    -0.200 F 
ATOM     85  F   UNL A   1      35.781  29.574  30.841  1.00  0.00    -0.200 F 
ENDBRANCH  51  75
BRANCH  63  86
ATOM     86  C   UNL A   1      45.247  32.883  29.149  1.00  0.00     0.064 A 
ATOM     87  C   UNL A   1      45.730  33.339  30.384  1.00  0.00     0.173 A 
ATOM     88  C   UNL A   1      44.992  33.841  28.154  1.00  0.00     0.173 A 
ATOM     89  F   UNL A   1      45.984  32.468  31.374  1.00  0.00    -0.203 F 
ATOM     90  C   UNL A   1      45.909  34.698  30.627  1.00  0.00     0.198 A 
ATOM     91  C   UNL A   1      45.218  35.195  28.384  1.00  0.00     0.198 A 
ATOM     92  F   UNL A   1      44.539  33.463  26.949  1.00  0.00    -0.203 F 
ATOM     93  F   UNL A   1      46.304  35.114  31.838  1.00  0.00    -0.200 F 
ATOM     94  C   UNL A   1      45.662  35.624  29.625  1.00  0.00     0.200 A 
ATOM     95  F   UNL A   1      45.004  36.083  27.403  1.00  0.00    -0.200 F 
ATOM     96  F   UNL A   1      45.846  36.931  29.856  1.00  0.00    -0.200 F 
ENDBRANCH  63  86
ENDBRANCH  37  38
ENDBRANCH  29  32
ENDBRANCH  27  28
ENDBRANCH  26  27
ENDBRANCH   1  26
TORSDOF 14
ENDMDL
