MODEL 1
REMARK VINA RESULT:     -12.5      0.000      0.000
REMARK SMILES COc1ccc(C(=O)NCCCCNC(=O)c2ccc(-c3c4nc(c(-c5c(F)c(F)c(F)c(F)c5F)c5ccc([nH]5)c(-c5c(F)c(F)c(F)c(F)c5F)c5nc(c(-c6c(F)c(F)c(F)c(F)c6F)c6ccc3[nH]6)C=C5)C=C4)cc2)cc1S(=O)(=O)N(C)Cc1cccc(F)c1
REMARK SMILES IDX 10 1 9 2 7 3 8 4 6 6 3 7 4 8 81 9 5 10 80 11 2 12 1 13 82 14
REMARK SMILES IDX 83 15 84 16 85 17 86 18 87 19 88 20 89 21 94 22 90 23 92 24
REMARK SMILES IDX 91 25 93 26 11 27 12 28 13 29 14 30 15 31 16 33 17 34 18 35
REMARK SMILES IDX 79 36 19 37 78 38 20 39 21 40 22 41 72 42 23 43 77 44 71 45
REMARK SMILES IDX 73 46 24 47 76 48 70 49 69 50 25 52 57 53 37 54 56 55 38 56
REMARK SMILES IDX 41 57 55 58 74 59 39 60 40 61 54 63 75 64 42 65 26 66 27 67
REMARK SMILES IDX 35 68 28 69 29 70 33 71 36 72 30 73 31 74 34 75 32 76 58 77
REMARK SMILES IDX 59 78 67 79 60 80 61 81 65 82 68 83 62 84 63 85 66 86 64 87
REMARK SMILES IDX 43 88 44 89 52 90 45 91 46 92 50 93 53 94 47 95 48 96 51 97
REMARK SMILES IDX 49 98
REMARK H PARENT 9 5 14 32 73 51 41 62
REMARK Flexibility Score: inf
ROOT
ATOM      1  C   UNL A   1      31.625  29.630  26.901  1.00  0.00     0.116 C 
ENDROOT
BRANCH   1   2
ATOM      2  N   UNL A   1      33.010  29.492  27.327  1.00  0.00    -0.352 N 
ATOM      3  C   UNL A   1      34.077  28.787  26.822  1.00  0.00     0.251 C 
ATOM      4  O   UNL A   1      35.166  28.923  27.381  1.00  0.00    -0.269 OA
ATOM      5  H   UNL A   1      33.226  30.006  28.139  1.00  0.00     0.163 HD
BRANCH   3   6
ATOM      6  C   UNL A   1      33.994  27.907  25.619  1.00  0.00     0.041 A 
ATOM      7  C   UNL A   1      33.733  26.318  23.289  1.00  0.00     0.138 A 
ATOM      8  C   UNL A   1      33.742  27.714  23.202  1.00  0.00     0.049 A 
ATOM      9  C   UNL A   1      33.901  25.722  24.531  1.00  0.00     0.125 A 
ATOM     10  C   UNL A   1      33.844  28.501  24.360  1.00  0.00     0.018 A 
ATOM     11  C   UNL A   1      34.089  26.522  25.672  1.00  0.00     0.039 A 
BRANCH   7  12
ATOM     12  O   UNL A   1      33.716  25.609  22.125  1.00  0.00    -0.495 OA
ATOM     13  C   UNL A   1      32.510  25.816  21.395  1.00  0.00     0.278 C 
ENDBRANCH   7  12
BRANCH   9  14
ATOM     14  S   UNL A   1      33.786  23.984  24.850  1.00  0.00     0.246 S 
ATOM     15  O   UNL A   1      34.730  23.357  23.951  1.00  0.00    -0.207 OA
ATOM     16  O   UNL A   1      33.960  23.832  26.284  1.00  0.00    -0.207 OA
BRANCH  14  17
ATOM     17  N   UNL A   1      32.255  23.407  24.458  1.00  0.00    -0.196 NA
ATOM     18  C   UNL A   1      31.053  24.238  24.598  1.00  0.00     0.125 C 
BRANCH  17  19
ATOM     19  C   UNL A   1      32.226  22.459  23.313  1.00  0.00     0.137 C 
BRANCH  19  20
ATOM     20  C   UNL A   1      32.327  20.964  23.583  1.00  0.00    -0.030 A 
ATOM     21  C   UNL A   1      32.557  20.541  24.906  1.00  0.00     0.005 A 
ATOM     22  C   UNL A   1      32.206  19.973  22.599  1.00  0.00     0.044 A 
ATOM     23  C   UNL A   1      32.659  19.181  25.226  1.00  0.00     0.003 A 
ATOM     24  C   UNL A   1      32.313  18.624  22.923  1.00  0.00     0.123 A 
ATOM     25  C   UNL A   1      32.535  18.219  24.228  1.00  0.00     0.039 A 
ATOM     26  F   UNL A   1      32.191  17.705  21.955  1.00  0.00    -0.207 F 
ENDBRANCH  19  20
ENDBRANCH  17  19
ENDBRANCH  14  17
ENDBRANCH   9  14
ENDBRANCH   3   6
ENDBRANCH   1   2
BRANCH   1  27
ATOM     27  C   UNL A   1      31.453  30.834  25.967  1.00  0.00     0.023 C 
BRANCH  27  28
ATOM     28  C   UNL A   1      31.289  32.176  26.690  1.00  0.00     0.023 C 
BRANCH  28  29
ATOM     29  C   UNL A   1      32.599  32.891  27.011  1.00  0.00     0.116 C 
BRANCH  29  30
ATOM     30  N   UNL A   1      32.406  34.192  27.627  1.00  0.00    -0.352 N 
ATOM     31  C   UNL A   1      33.113  34.778  28.647  1.00  0.00     0.251 C 
ATOM     32  H   UNL A   1      31.667  34.730  27.262  1.00  0.00     0.163 HD
ATOM     33  O   UNL A   1      32.742  35.850  29.115  1.00  0.00    -0.269 OA
BRANCH  31  34
ATOM     34  C   UNL A   1      34.302  34.105  29.220  1.00  0.00     0.039 A 
ATOM     35  C   UNL A   1      34.099  33.103  30.174  1.00  0.00     0.014 A 
ATOM     36  C   UNL A   1      35.599  34.473  28.857  1.00  0.00     0.014 A 
ATOM     37  C   UNL A   1      35.196  32.450  30.739  1.00  0.00     0.010 A 
ATOM     38  C   UNL A   1      36.691  33.775  29.370  1.00  0.00     0.010 A 
ATOM     39  C   UNL A   1      36.500  32.772  30.331  1.00  0.00    -0.014 A 
BRANCH  39  40
ATOM     40  C   UNL A   1      37.671  32.093  30.936  1.00  0.00     0.031 A 
ATOM     41  C   UNL A   1      38.132  32.467  32.316  1.00  0.00     0.074 A 
ATOM     42  C   UNL A   1      38.348  31.173  30.225  1.00  0.00     0.049 A 
ATOM     43  N   UNL A   1      39.129  31.987  33.017  1.00  0.00    -0.248 NA
ATOM     44  C   UNL A   1      37.393  33.547  32.988  1.00  0.00     0.031 C 
ATOM     45  C   UNL A   1      38.046  30.779  28.850  1.00  0.00     0.029 A 
ATOM     46  N   UNL A   1      39.436  30.408  30.562  1.00  0.00    -0.354 N 
ATOM     47  C   UNL A   1      39.145  32.717  34.197  1.00  0.00     0.074 A 
ATOM     48  C   UNL A   1      38.098  33.709  34.096  1.00  0.00     0.031 C 
ATOM     49  C   UNL A   1      38.917  29.832  28.464  1.00  0.00     0.029 A 
ATOM     50  C   UNL A   1      39.843  29.563  29.561  1.00  0.00     0.049 A 
ATOM     51  H   UNL A   1      39.882  30.460  31.438  1.00  0.00     0.167 HD
ATOM     52  C   UNL A   1      39.945  32.557  35.281  1.00  0.00     0.037 A 
ATOM     53  C   UNL A   1      40.843  28.663  29.535  1.00  0.00     0.037 A 
ATOM     54  C   UNL A   1      40.967  31.550  35.388  1.00  0.00     0.049 A 
ATOM     55  C   UNL A   1      41.674  28.453  30.772  1.00  0.00     0.074 A 
ATOM     56  C   UNL A   1      41.787  31.260  36.465  1.00  0.00     0.029 A 
ATOM     57  N   UNL A   1      41.308  30.665  34.376  1.00  0.00    -0.354 N 
ATOM     58  N   UNL A   1      41.626  29.088  31.917  1.00  0.00    -0.248 NA
ATOM     59  C   UNL A   1      42.680  27.385  30.718  1.00  0.00     0.031 C 
ATOM     60  C   UNL A   1      42.646  30.220  36.092  1.00  0.00     0.029 A 
ATOM     61  C   UNL A   1      42.332  29.833  34.798  1.00  0.00     0.049 A 
ATOM     62  H   UNL A   1      40.883  30.631  33.488  1.00  0.00     0.167 HD
ATOM     63  C   UNL A   1      42.574  28.482  32.730  1.00  0.00     0.074 A 
ATOM     64  C   UNL A   1      43.174  27.419  31.948  1.00  0.00     0.031 C 
ATOM     65  C   UNL A   1      42.916  28.779  34.008  1.00  0.00     0.037 A 
BRANCH  52  66
ATOM     66  C   UNL A   1      39.735  33.501  36.429  1.00  0.00     0.064 A 
ATOM     67  C   UNL A   1      38.891  33.176  37.504  1.00  0.00     0.173 A 
ATOM     68  C   UNL A   1      40.374  34.749  36.454  1.00  0.00     0.173 A 
ATOM     69  F   UNL A   1      38.245  31.999  37.523  1.00  0.00    -0.203 F 
ATOM     70  C   UNL A   1      38.659  34.083  38.535  1.00  0.00     0.198 A 
ATOM     71  C   UNL A   1      40.165  35.642  37.503  1.00  0.00     0.198 A 
ATOM     72  F   UNL A   1      41.195  35.109  35.456  1.00  0.00    -0.203 F 
ATOM     73  F   UNL A   1      37.797  33.776  39.514  1.00  0.00    -0.200 F 
ATOM     74  C   UNL A   1      39.299  35.313  38.535  1.00  0.00     0.200 A 
ATOM     75  F   UNL A   1      40.792  36.825  37.508  1.00  0.00    -0.200 F 
ATOM     76  F   UNL A   1      39.071  36.188  39.524  1.00  0.00    -0.200 F 
ENDBRANCH  52  66
BRANCH  53  77
ATOM     77  C   UNL A   1      41.065  27.854  28.312  1.00  0.00     0.064 A 
ATOM     78  C   UNL A   1      41.955  28.282  27.317  1.00  0.00     0.173 A 
ATOM     79  C   UNL A   1      40.424  26.620  28.131  1.00  0.00     0.173 A 
ATOM     80  F   UNL A   1      42.579  29.463  27.442  1.00  0.00    -0.203 F 
ATOM     81  C   UNL A   1      42.189  27.511  26.182  1.00  0.00     0.198 A 
ATOM     82  C   UNL A   1      40.675  25.839  27.005  1.00  0.00     0.198 A 
ATOM     83  F   UNL A   1      39.571  26.164  29.059  1.00  0.00    -0.203 F 
ATOM     84  F   UNL A   1      43.023  27.956  25.232  1.00  0.00    -0.200 F 
ATOM     85  C   UNL A   1      41.554  26.287  26.030  1.00  0.00     0.200 A 
ATOM     86  F   UNL A   1      40.071  24.651  26.867  1.00  0.00    -0.200 F 
ATOM     87  F   UNL A   1      41.788  25.540  24.942  1.00  0.00    -0.200 F 
ENDBRANCH  53  77
BRANCH  65  88
ATOM     88  C   UNL A   1      43.966  27.922  34.651  1.00  0.00     0.064 A 
ATOM     89  C   UNL A   1      45.320  28.289  34.649  1.00  0.00     0.173 A 
ATOM     90  C   UNL A   1      43.608  26.730  35.300  1.00  0.00     0.173 A 
ATOM     91  F   UNL A   1      45.713  29.412  34.029  1.00  0.00    -0.203 F 
ATOM     92  C   UNL A   1      46.281  27.480  35.249  1.00  0.00     0.198 A 
ATOM     93  C   UNL A   1      44.569  25.938  35.923  1.00  0.00     0.198 A 
ATOM     94  F   UNL A   1      42.327  26.338  35.335  1.00  0.00    -0.203 F 
ATOM     95  F   UNL A   1      47.575  27.825  35.192  1.00  0.00    -0.200 F 
ATOM     96  C   UNL A   1      45.905  26.309  35.889  1.00  0.00     0.200 A 
ATOM     97  F   UNL A   1      44.203  24.812  36.550  1.00  0.00    -0.200 F 
ATOM     98  F   UNL A   1      46.831  25.533  36.467  1.00  0.00    -0.200 F 
ENDBRANCH  65  88
ENDBRANCH  39  40
ENDBRANCH  31  34
ENDBRANCH  29  30
ENDBRANCH  28  29
ENDBRANCH  27  28
ENDBRANCH   1  27
TORSDOF 16
ENDMDL
MODEL 2
REMARK VINA RESULT:     -12.4      1.562      7.538
REMARK SMILES COc1ccc(C(=O)NCCCCNC(=O)c2ccc(-c3c4nc(c(-c5c(F)c(F)c(F)c(F)c5F)c5ccc([nH]5)c(-c5c(F)c(F)c(F)c(F)c5F)c5nc(c(-c6c(F)c(F)c(F)c(F)c6F)c6ccc3[nH]6)C=C5)C=C4)cc2)cc1S(=O)(=O)N(C)Cc1cccc(F)c1
REMARK SMILES IDX 10 1 9 2 7 3 8 4 6 6 3 7 4 8 81 9 5 10 80 11 2 12 1 13 82 14
REMARK SMILES IDX 83 15 84 16 85 17 86 18 87 19 88 20 89 21 94 22 90 23 92 24
REMARK SMILES IDX 91 25 93 26 11 27 12 28 13 29 14 30 15 31 16 33 17 34 18 35
REMARK SMILES IDX 79 36 19 37 78 38 20 39 21 40 22 41 72 42 23 43 77 44 71 45
REMARK SMILES IDX 73 46 24 47 76 48 70 49 69 50 25 52 57 53 37 54 56 55 38 56
REMARK SMILES IDX 41 57 55 58 74 59 39 60 40 61 54 63 75 64 42 65 26 66 27 67
REMARK SMILES IDX 35 68 28 69 29 70 33 71 36 72 30 73 31 74 34 75 32 76 58 77
REMARK SMILES IDX 59 78 67 79 60 80 61 81 65 82 68 83 62 84 63 85 66 86 64 87
REMARK SMILES IDX 43 88 44 89 52 90 45 91 46 92 50 93 53 94 47 95 48 96 51 97
REMARK SMILES IDX 49 98
REMARK H PARENT 9 5 14 32 73 51 41 62
REMARK Flexibility Score: inf
ROOT
ATOM      1  C   UNL A   1      31.704  29.877  27.200  1.00  0.00     0.116 C 
ENDROOT
BRANCH   1   2
ATOM      2  N   UNL A   1      33.126  29.651  27.413  1.00  0.00    -0.352 N 
ATOM      3  C   UNL A   1      34.022  28.760  26.870  1.00  0.00     0.251 C 
ATOM      4  O   UNL A   1      35.201  28.857  27.213  1.00  0.00    -0.269 OA
ATOM      5  H   UNL A   1      33.526  30.256  28.079  1.00  0.00     0.163 HD
BRANCH   3   6
ATOM      6  C   UNL A   1      33.651  27.720  25.866  1.00  0.00     0.041 A 
ATOM      7  C   UNL A   1      32.904  25.848  23.876  1.00  0.00     0.138 A 
ATOM      8  C   UNL A   1      33.613  27.005  23.535  1.00  0.00     0.049 A 
ATOM      9  C   UNL A   1      32.612  25.609  25.212  1.00  0.00     0.125 A 
ATOM     10  C   UNL A   1      33.960  27.945  24.519  1.00  0.00     0.018 A 
ATOM     11  C   UNL A   1      33.041  26.517  26.196  1.00  0.00     0.039 A 
BRANCH   7  12
ATOM     12  O   UNL A   1      32.670  24.934  22.893  1.00  0.00    -0.495 OA
ATOM     13  C   UNL A   1      32.872  25.487  21.595  1.00  0.00     0.278 C 
ENDBRANCH   7  12
BRANCH   9  14
ATOM     14  S   UNL A   1      31.616  24.273  25.813  1.00  0.00     0.246 S 
ATOM     15  O   UNL A   1      31.282  24.617  27.177  1.00  0.00    -0.207 OA
ATOM     16  O   UNL A   1      30.551  24.105  24.840  1.00  0.00    -0.207 OA
BRANCH  14  17
ATOM     17  N   UNL A   1      32.501  22.843  25.853  1.00  0.00    -0.196 NA
ATOM     18  C   UNL A   1      32.623  21.971  24.679  1.00  0.00     0.125 C 
BRANCH  17  19
ATOM     19  C   UNL A   1      33.706  22.886  26.724  1.00  0.00     0.137 C 
BRANCH  19  20
ATOM     20  C   UNL A   1      35.080  22.687  26.100  1.00  0.00    -0.030 A 
ATOM     21  C   UNL A   1      35.808  23.828  25.714  1.00  0.00     0.005 A 
ATOM     22  C   UNL A   1      35.675  21.437  25.881  1.00  0.00     0.044 A 
ATOM     23  C   UNL A   1      37.079  23.718  25.135  1.00  0.00     0.003 A 
ATOM     24  C   UNL A   1      36.936  21.334  25.302  1.00  0.00     0.123 A 
ATOM     25  C   UNL A   1      37.645  22.464  24.930  1.00  0.00     0.039 A 
ATOM     26  F   UNL A   1      37.473  20.122  25.109  1.00  0.00    -0.207 F 
ENDBRANCH  19  20
ENDBRANCH  17  19
ENDBRANCH  14  17
ENDBRANCH   9  14
ENDBRANCH   3   6
ENDBRANCH   1   2
BRANCH   1  27
ATOM     27  C   UNL A   1      31.469  30.869  26.055  1.00  0.00     0.023 C 
BRANCH  27  28
ATOM     28  C   UNL A   1      31.314  32.327  26.504  1.00  0.00     0.023 C 
BRANCH  28  29
ATOM     29  C   UNL A   1      32.569  32.942  27.114  1.00  0.00     0.116 C 
BRANCH  29  30
ATOM     30  N   UNL A   1      32.365  34.293  27.607  1.00  0.00    -0.352 N 
ATOM     31  C   UNL A   1      33.006  34.946  28.630  1.00  0.00     0.251 C 
ATOM     32  H   UNL A   1      31.671  34.814  27.143  1.00  0.00     0.163 HD
ATOM     33  O   UNL A   1      32.628  36.061  28.980  1.00  0.00    -0.269 OA
BRANCH  31  34
ATOM     34  C   UNL A   1      34.128  34.299  29.347  1.00  0.00     0.039 A 
ATOM     35  C   UNL A   1      35.427  34.511  28.873  1.00  0.00     0.014 A 
ATOM     36  C   UNL A   1      33.913  33.463  30.446  1.00  0.00     0.014 A 
ATOM     37  C   UNL A   1      36.510  33.913  29.520  1.00  0.00     0.010 A 
ATOM     38  C   UNL A   1      34.998  32.922  31.132  1.00  0.00     0.010 A 
ATOM     39  C   UNL A   1      36.305  33.125  30.663  1.00  0.00    -0.014 A 
BRANCH  39  40
ATOM     40  C   UNL A   1      37.447  32.475  31.349  1.00  0.00     0.031 A 
ATOM     41  C   UNL A   1      38.154  31.315  30.706  1.00  0.00     0.074 A 
ATOM     42  C   UNL A   1      37.820  32.899  32.570  1.00  0.00     0.049 A 
ATOM     43  N   UNL A   1      39.173  30.619  31.143  1.00  0.00    -0.248 NA
ATOM     44  C   UNL A   1      37.625  30.856  29.413  1.00  0.00     0.031 C 
ATOM     45  C   UNL A   1      37.165  33.963  33.330  1.00  0.00     0.029 A 
ATOM     46  N   UNL A   1      38.836  32.478  33.390  1.00  0.00    -0.354 N 
ATOM     47  C   UNL A   1      39.392  29.633  30.190  1.00  0.00     0.074 A 
ATOM     48  C   UNL A   1      38.367  29.784  29.181  1.00  0.00     0.031 C 
ATOM     49  C   UNL A   1      37.807  34.125  34.499  1.00  0.00     0.029 A 
ATOM     50  C   UNL A   1      38.909  33.168  34.572  1.00  0.00     0.049 A 
ATOM     51  H   UNL A   1      39.455  31.750  33.152  1.00  0.00     0.167 HD
ATOM     52  C   UNL A   1      40.376  28.702  30.146  1.00  0.00     0.037 A 
ATOM     53  C   UNL A   1      39.774  33.051  35.596  1.00  0.00     0.037 A 
ATOM     54  C   UNL A   1      41.411  28.573  31.137  1.00  0.00     0.049 A 
ATOM     55  C   UNL A   1      40.900  32.059  35.496  1.00  0.00     0.074 A 
ATOM     56  C   UNL A   1      42.492  27.709  31.154  1.00  0.00     0.029 A 
ATOM     57  N   UNL A   1      41.492  29.337  32.293  1.00  0.00    -0.354 N 
ATOM     58  N   UNL A   1      41.154  31.189  34.549  1.00  0.00    -0.248 NA
ATOM     59  C   UNL A   1      41.874  32.051  36.596  1.00  0.00     0.031 C 
ATOM     60  C   UNL A   1      43.208  27.928  32.337  1.00  0.00     0.029 A 
ATOM     61  C   UNL A   1      42.598  28.958  33.036  1.00  0.00     0.049 A 
ATOM     62  H   UNL A   1      40.857  30.045  32.548  1.00  0.00     0.167 HD
ATOM     63  C   UNL A   1      42.327  30.548  34.923  1.00  0.00     0.074 A 
ATOM     64  C   UNL A   1      42.742  31.140  36.179  1.00  0.00     0.031 C 
ATOM     65  C   UNL A   1      42.999  29.559  34.283  1.00  0.00     0.037 A 
BRANCH  52  66
ATOM     66  C   UNL A   1      40.368  27.755  28.981  1.00  0.00     0.064 A 
ATOM     67  C   UNL A   1      41.119  28.008  27.822  1.00  0.00     0.173 A 
ATOM     68  C   UNL A   1      39.594  26.586  29.017  1.00  0.00     0.173 A 
ATOM     69  F   UNL A   1      41.868  29.118  27.731  1.00  0.00    -0.203 F 
ATOM     70  C   UNL A   1      41.059  27.151  26.726  1.00  0.00     0.198 A 
ATOM     71  C   UNL A   1      39.560  25.714  27.930  1.00  0.00     0.198 A 
ATOM     72  F   UNL A   1      38.861  26.292  30.102  1.00  0.00    -0.203 F 
ATOM     73  F   UNL A   1      41.732  27.449  25.606  1.00  0.00    -0.200 F 
ATOM     74  C   UNL A   1      40.282  26.004  26.783  1.00  0.00     0.200 A 
ATOM     75  F   UNL A   1      38.818  24.600  27.991  1.00  0.00    -0.200 F 
ATOM     76  F   UNL A   1      40.219  25.183  25.726  1.00  0.00    -0.200 F 
ENDBRANCH  52  66
BRANCH  53  77
ATOM     77  C   UNL A   1      39.638  33.946  36.772  1.00  0.00     0.064 A 
ATOM     78  C   UNL A   1      38.858  33.570  37.875  1.00  0.00     0.173 A 
ATOM     79  C   UNL A   1      40.315  35.172  36.835  1.00  0.00     0.173 A 
ATOM     80  F   UNL A   1      38.181  32.413  37.852  1.00  0.00    -0.203 F 
ATOM     81  C   UNL A   1      38.752  34.394  38.993  1.00  0.00     0.198 A 
ATOM     82  C   UNL A   1      40.226  35.984  37.963  1.00  0.00     0.198 A 
ATOM     83  F   UNL A   1      41.081  35.569  35.808  1.00  0.00    -0.203 F 
ATOM     84  F   UNL A   1      37.978  34.025  40.022  1.00  0.00    -0.200 F 
ATOM     85  C   UNL A   1      39.442  35.596  39.039  1.00  0.00     0.200 A 
ATOM     86  F   UNL A   1      40.904  37.139  38.010  1.00  0.00    -0.200 F 
ATOM     87  F   UNL A   1      39.348  36.383  40.120  1.00  0.00    -0.200 F 
ENDBRANCH  53  77
BRANCH  65  88
ATOM     88  C   UNL A   1      44.271  29.078  34.916  1.00  0.00     0.064 A 
ATOM     89  C   UNL A   1      44.283  28.011  35.827  1.00  0.00     0.173 A 
ATOM     90  C   UNL A   1      45.498  29.674  34.584  1.00  0.00     0.173 A 
ATOM     91  F   UNL A   1      43.134  27.419  36.186  1.00  0.00    -0.203 F 
ATOM     92  C   UNL A   1      45.473  27.580  36.406  1.00  0.00     0.198 A 
ATOM     93  C   UNL A   1      46.688  29.221  35.145  1.00  0.00     0.198 A 
ATOM     94  F   UNL A   1      45.540  30.693  33.713  1.00  0.00    -0.203 F 
ATOM     95  F   UNL A   1      45.455  26.592  37.312  1.00  0.00    -0.200 F 
ATOM     96  C   UNL A   1      46.674  28.180  36.061  1.00  0.00     0.200 A 
ATOM     97  F   UNL A   1      47.850  29.795  34.802  1.00  0.00    -0.200 F 
ATOM     98  F   UNL A   1      47.818  27.761  36.618  1.00  0.00    -0.200 F 
ENDBRANCH  65  88
ENDBRANCH  39  40
ENDBRANCH  31  34
ENDBRANCH  29  30
ENDBRANCH  28  29
ENDBRANCH  27  28
ENDBRANCH   1  27
TORSDOF 16
ENDMDL
MODEL 3
REMARK VINA RESULT:     -12.2      1.113      2.250
REMARK SMILES COc1ccc(C(=O)NCCCCNC(=O)c2ccc(-c3c4nc(c(-c5c(F)c(F)c(F)c(F)c5F)c5ccc([nH]5)c(-c5c(F)c(F)c(F)c(F)c5F)c5nc(c(-c6c(F)c(F)c(F)c(F)c6F)c6ccc3[nH]6)C=C5)C=C4)cc2)cc1S(=O)(=O)N(C)Cc1cccc(F)c1
REMARK SMILES IDX 10 1 9 2 7 3 8 4 6 6 3 7 4 8 81 9 5 10 80 11 2 12 1 13 82 14
REMARK SMILES IDX 83 15 84 16 85 17 86 18 87 19 88 20 89 21 94 22 90 23 92 24
REMARK SMILES IDX 91 25 93 26 11 27 12 28 13 29 14 30 15 31 16 33 17 34 18 35
REMARK SMILES IDX 79 36 19 37 78 38 20 39 21 40 22 41 72 42 23 43 77 44 71 45
REMARK SMILES IDX 73 46 24 47 76 48 70 49 69 50 25 52 57 53 37 54 56 55 38 56
REMARK SMILES IDX 41 57 55 58 74 59 39 60 40 61 54 63 75 64 42 65 26 66 27 67
REMARK SMILES IDX 35 68 28 69 29 70 33 71 36 72 30 73 31 74 34 75 32 76 58 77
REMARK SMILES IDX 59 78 67 79 60 80 61 81 65 82 68 83 62 84 63 85 66 86 64 87
REMARK SMILES IDX 43 88 44 89 52 90 45 91 46 92 50 93 53 94 47 95 48 96 51 97
REMARK SMILES IDX 49 98
REMARK H PARENT 9 5 14 32 73 51 41 62
REMARK Flexibility Score: inf
ROOT
ATOM      1  C   UNL A   1      32.843  29.770  25.856  1.00  0.00     0.116 C 
ENDROOT
BRANCH   1   2
ATOM      2  N   UNL A   1      33.474  29.545  24.563  1.00  0.00    -0.352 N 
ATOM      3  C   UNL A   1      33.492  28.470  23.706  1.00  0.00     0.251 C 
ATOM      4  O   UNL A   1      34.076  28.608  22.630  1.00  0.00    -0.269 OA
ATOM      5  H   UNL A   1      33.990  30.318  24.237  1.00  0.00     0.163 HD
BRANCH   3   6
ATOM      6  C   UNL A   1      32.813  27.172  23.991  1.00  0.00     0.041 A 
ATOM      7  C   UNL A   1      31.514  24.747  24.666  1.00  0.00     0.138 A 
ATOM      8  C   UNL A   1      31.028  25.971  25.138  1.00  0.00     0.049 A 
ATOM      9  C   UNL A   1      32.617  24.743  23.823  1.00  0.00     0.125 A 
ATOM     10  C   UNL A   1      31.689  27.170  24.825  1.00  0.00     0.018 A 
ATOM     11  C   UNL A   1      33.217  25.958  23.448  1.00  0.00     0.039 A 
BRANCH   7  12
ATOM     12  O   UNL A   1      30.784  23.627  24.933  1.00  0.00    -0.495 OA
ATOM     13  C   UNL A   1      30.578  23.449  26.332  1.00  0.00     0.278 C 
ENDBRANCH   7  12
BRANCH   9  14
ATOM     14  S   UNL A   1      33.446  23.291  23.237  1.00  0.00     0.246 S 
ATOM     15  O   UNL A   1      32.524  22.658  22.320  1.00  0.00    -0.207 OA
ATOM     16  O   UNL A   1      34.738  23.742  22.750  1.00  0.00    -0.207 OA
BRANCH  14  17
ATOM     17  N   UNL A   1      33.723  22.215  24.500  1.00  0.00    -0.196 NA
ATOM     18  C   UNL A   1      34.292  22.651  25.781  1.00  0.00     0.125 C 
BRANCH  17  19
ATOM     19  C   UNL A   1      32.730  21.113  24.603  1.00  0.00     0.137 C 
BRANCH  19  20
ATOM     20  C   UNL A   1      33.123  19.714  24.153  1.00  0.00    -0.030 A 
ATOM     21  C   UNL A   1      32.383  19.114  23.118  1.00  0.00     0.005 A 
ATOM     22  C   UNL A   1      34.181  18.975  24.703  1.00  0.00     0.044 A 
ATOM     23  C   UNL A   1      32.692  17.829  22.653  1.00  0.00     0.003 A 
ATOM     24  C   UNL A   1      34.480  17.697  24.240  1.00  0.00     0.123 A 
ATOM     25  C   UNL A   1      33.747  17.119  23.218  1.00  0.00     0.039 A 
ATOM     26  F   UNL A   1      35.499  17.022  24.790  1.00  0.00    -0.207 F 
ENDBRANCH  19  20
ENDBRANCH  17  19
ENDBRANCH  14  17
ENDBRANCH   9  14
ENDBRANCH   3   6
ENDBRANCH   1   2
BRANCH   1  27
ATOM     27  C   UNL A   1      31.466  30.424  25.692  1.00  0.00     0.023 C 
BRANCH  27  28
ATOM     28  C   UNL A   1      31.289  31.728  26.478  1.00  0.00     0.023 C 
BRANCH  28  29
ATOM     29  C   UNL A   1      32.578  32.301  27.059  1.00  0.00     0.116 C 
BRANCH  29  30
ATOM     30  N   UNL A   1      32.443  33.676  27.510  1.00  0.00    -0.352 N 
ATOM     31  C   UNL A   1      33.209  34.367  28.416  1.00  0.00     0.251 C 
ATOM     32  H   UNL A   1      31.700  34.183  27.110  1.00  0.00     0.163 HD
ATOM     33  O   UNL A   1      32.882  35.500  28.757  1.00  0.00    -0.269 OA
BRANCH  31  34
ATOM     34  C   UNL A   1      34.406  33.740  29.020  1.00  0.00     0.039 A 
ATOM     35  C   UNL A   1      34.218  32.694  29.930  1.00  0.00     0.014 A 
ATOM     36  C   UNL A   1      35.696  34.191  28.731  1.00  0.00     0.014 A 
ATOM     37  C   UNL A   1      35.324  32.082  30.523  1.00  0.00     0.010 A 
ATOM     38  C   UNL A   1      36.801  33.536  29.270  1.00  0.00     0.010 A 
ATOM     39  C   UNL A   1      36.625  32.489  30.187  1.00  0.00    -0.014 A 
BRANCH  39  40
ATOM     40  C   UNL A   1      37.803  31.854  30.822  1.00  0.00     0.031 A 
ATOM     41  C   UNL A   1      38.228  32.259  32.205  1.00  0.00     0.074 A 
ATOM     42  C   UNL A   1      38.521  30.945  30.136  1.00  0.00     0.049 A 
ATOM     43  N   UNL A   1      39.225  31.819  32.930  1.00  0.00    -0.248 NA
ATOM     44  C   UNL A   1      37.445  33.326  32.848  1.00  0.00     0.031 C 
ATOM     45  C   UNL A   1      38.256  30.524  28.761  1.00  0.00     0.029 A 
ATOM     46  N   UNL A   1      39.624  30.217  30.503  1.00  0.00    -0.354 N 
ATOM     47  C   UNL A   1      39.198  32.565  34.100  1.00  0.00     0.074 A 
ATOM     48  C   UNL A   1      38.124  33.525  33.967  1.00  0.00     0.031 C 
ATOM     49  C   UNL A   1      39.161  29.598  28.404  1.00  0.00     0.029 A 
ATOM     50  C   UNL A   1      40.075  29.372  29.522  1.00  0.00     0.049 A 
ATOM     51  H   UNL A   1      40.052  30.294  31.386  1.00  0.00     0.167 HD
ATOM     52  C   UNL A   1      39.982  32.444  35.200  1.00  0.00     0.037 A 
ATOM     53  C   UNL A   1      41.101  28.502  29.527  1.00  0.00     0.037 A 
ATOM     54  C   UNL A   1      41.031  31.470  35.340  1.00  0.00     0.049 A 
ATOM     55  C   UNL A   1      41.915  28.333  30.781  1.00  0.00     0.074 A 
ATOM     56  C   UNL A   1      41.840  31.218  36.435  1.00  0.00     0.029 A 
ATOM     57  N   UNL A   1      41.417  30.581  34.347  1.00  0.00    -0.354 N 
ATOM     58  N   UNL A   1      41.827  28.982  31.916  1.00  0.00    -0.248 NA
ATOM     59  C   UNL A   1      42.953  27.295  30.760  1.00  0.00     0.031 C 
ATOM     60  C   UNL A   1      42.736  30.199  36.092  1.00  0.00     0.029 A 
ATOM     61  C   UNL A   1      42.458  29.786  34.799  1.00  0.00     0.049 A 
ATOM     62  H   UNL A   1      41.010  30.523  33.452  1.00  0.00     0.167 HD
ATOM     63  C   UNL A   1      42.777  28.415  32.754  1.00  0.00     0.074 A 
ATOM     64  C   UNL A   1      43.423  27.360  31.998  1.00  0.00     0.031 C 
ATOM     65  C   UNL A   1      43.087  28.739  34.034  1.00  0.00     0.037 A 
BRANCH  52  66
ATOM     66  C   UNL A   1      39.723  33.396  36.332  1.00  0.00     0.064 A 
ATOM     67  C   UNL A   1      38.828  33.083  37.367  1.00  0.00     0.173 A 
ATOM     68  C   UNL A   1      40.367  34.641  36.378  1.00  0.00     0.173 A 
ATOM     69  F   UNL A   1      38.176  31.909  37.364  1.00  0.00    -0.203 F 
ATOM     70  C   UNL A   1      38.553  33.998  38.380  1.00  0.00     0.198 A 
ATOM     71  C   UNL A   1      40.113  35.542  37.411  1.00  0.00     0.198 A 
ATOM     72  F   UNL A   1      41.236  34.991  35.418  1.00  0.00    -0.203 F 
ATOM     73  F   UNL A   1      37.644  33.701  39.319  1.00  0.00    -0.200 F 
ATOM     74  C   UNL A   1      39.198  35.224  38.403  1.00  0.00     0.200 A 
ATOM     75  F   UNL A   1      40.746  36.723  37.438  1.00  0.00    -0.200 F 
ATOM     76  F   UNL A   1      38.928  36.107  39.374  1.00  0.00    -0.200 F 
ENDBRANCH  52  66
BRANCH  53  77
ATOM     77  C   UNL A   1      41.369  27.683  28.319  1.00  0.00     0.064 A 
ATOM     78  C   UNL A   1      40.682  26.481  28.098  1.00  0.00     0.173 A 
ATOM     79  C   UNL A   1      42.284  28.104  27.343  1.00  0.00     0.173 A 
ATOM     80  F   UNL A   1      39.809  26.032  29.012  1.00  0.00    -0.203 F 
ATOM     81  C   UNL A   1      40.909  25.725  26.951  1.00  0.00     0.198 A 
ATOM     82  C   UNL A   1      42.493  27.358  26.186  1.00  0.00     0.198 A 
ATOM     83  F   UNL A   1      42.957  29.252  27.506  1.00  0.00    -0.203 F 
ATOM     84  F   UNL A   1      40.260  24.565  26.777  1.00  0.00    -0.200 F 
ATOM     85  C   UNL A   1      41.808  26.167  25.992  1.00  0.00     0.200 A 
ATOM     86  F   UNL A   1      43.353  27.795  25.255  1.00  0.00    -0.200 F 
ATOM     87  F   UNL A   1      42.017  25.445  24.883  1.00  0.00    -0.200 F 
ENDBRANCH  53  77
BRANCH  65  88
ATOM     88  C   UNL A   1      44.150  27.923  34.707  1.00  0.00     0.064 A 
ATOM     89  C   UNL A   1      43.848  26.729  35.379  1.00  0.00     0.173 A 
ATOM     90  C   UNL A   1      45.494  28.326  34.655  1.00  0.00     0.173 A 
ATOM     91  F   UNL A   1      42.577  26.309  35.468  1.00  0.00    -0.203 F 
ATOM     92  C   UNL A   1      44.847  25.985  36.000  1.00  0.00     0.198 A 
ATOM     93  C   UNL A   1      46.493  27.565  35.254  1.00  0.00     0.198 A 
ATOM     94  F   UNL A   1      45.836  29.456  34.020  1.00  0.00    -0.203 F 
ATOM     95  F   UNL A   1      44.529  24.874  36.679  1.00  0.00    -0.200 F 
ATOM     96  C   UNL A   1      46.168  26.400  35.932  1.00  0.00     0.200 A 
ATOM     97  F   UNL A   1      47.771  27.962  35.178  1.00  0.00    -0.200 F 
ATOM     98  F   UNL A   1      47.129  25.681  36.529  1.00  0.00    -0.200 F 
ENDBRANCH  65  88
ENDBRANCH  39  40
ENDBRANCH  31  34
ENDBRANCH  29  30
ENDBRANCH  28  29
ENDBRANCH  27  28
ENDBRANCH   1  27
TORSDOF 16
ENDMDL
