MODEL 1
REMARK VINA RESULT:     -12.2      0.000      0.000
REMARK SMILES C[C@H]1SCCC[C@@]1(C(=O)NCCCCNC(=O)c1ccc(-c2c3nc(c(-c4c(F)c(F)c(F)c(F)c4F)c4ccc([nH]4)c(-c4c(F)c(F)c(F)c(F)c4F)c4nc(c(-c5c(F)c(F)c(F)c(F)c5F)c5ccc2[nH]5)C=C4)C=C3)cc1)[NH+]1CCCC1
REMARK SMILES IDX 13 1 12 2 11 3 10 4 8 5 9 6 7 8 1 9 2 10 3 11 4 12 6 13 5 14
REMARK SMILES IDX 81 15 82 16 85 17 83 19 84 20 14 21 15 22 16 23 17 25 18 26
REMARK SMILES IDX 19 27 80 28 20 29 79 30 21 31 22 32 23 33 73 34 24 35 78 36
REMARK SMILES IDX 72 37 74 38 25 39 77 40 71 41 70 42 26 44 58 45 38 46 57 47
REMARK SMILES IDX 39 48 42 49 56 50 75 51 40 52 41 53 55 55 76 56 43 57 27 58
REMARK SMILES IDX 28 59 36 60 29 61 30 62 34 63 37 64 31 65 32 66 35 67 33 68
REMARK SMILES IDX 59 69 60 70 68 71 61 72 62 73 66 74 69 75 63 76 64 77 67 78
REMARK SMILES IDX 65 79 44 80 45 81 53 82 46 83 47 84 51 85 54 86 48 87 49 88
REMARK SMILES IDX 52 89 50 90
REMARK H PARENT 10 7 81 18 15 24 74 43 42 54
REMARK Flexibility Score: inf
ROOT
ATOM      1  C   UNL A   1      31.514  31.897  26.998  1.00  0.00     0.023 C 
ENDROOT
BRANCH   1   2
ATOM      2  C   UNL A   1      31.682  30.865  25.888  1.00  0.00     0.023 C 
BRANCH   2   3
ATOM      3  C   UNL A   1      32.906  29.941  26.022  1.00  0.00     0.116 C 
BRANCH   3   4
ATOM      4  N   UNL A   1      33.489  29.682  24.721  1.00  0.00    -0.351 N 
ATOM      5  C   UNL A   1      33.495  28.688  23.797  1.00  0.00     0.282 C 
ATOM      6  O   UNL A   1      34.309  28.955  22.896  1.00  0.00    -0.268 OA
ATOM      7  H   UNL A   1      34.037  30.443  24.422  1.00  0.00     0.163 HD
BRANCH   5   8
ATOM      8  C   UNL A   1      32.547  27.374  23.709  1.00  0.00     0.188 C 
ATOM      9  C   UNL A   1      33.377  26.519  26.065  1.00  0.00     0.027 C 
ATOM     10  C   UNL A   1      33.408  26.302  24.538  1.00  0.00     0.115 C 
ATOM     11  S   UNL A   1      33.084  24.507  24.271  1.00  0.00    -0.152 SA
ATOM     12  C   UNL A   1      33.121  24.477  22.472  1.00  0.00     0.070 C 
ATOM     13  C   UNL A   1      32.484  26.956  22.212  1.00  0.00     0.081 C 
ATOM     14  C   UNL A   1      32.170  25.496  21.872  1.00  0.00     0.018 C 
BRANCH   8  15
ATOM     15  N   UNL A   1      31.212  27.583  24.375  1.00  0.00    -0.321 N 
ATOM     16  C   UNL A   1      30.471  26.439  24.911  1.00  0.00     0.263 C 
ATOM     17  C   UNL A   1      30.204  28.394  23.721  1.00  0.00     0.263 C 
ATOM     18  H   UNL A   1      31.665  28.098  25.131  1.00  0.00     0.349 HD
ATOM     19  C   UNL A   1      29.309  26.190  23.964  1.00  0.00     0.067 C 
ATOM     20  C   UNL A   1      28.969  27.559  23.435  1.00  0.00     0.067 C 
ENDBRANCH   8  15
ENDBRANCH   5   8
ENDBRANCH   3   4
ENDBRANCH   2   3
ENDBRANCH   1   2
BRANCH   1  21
ATOM     21  C   UNL A   1      32.743  32.740  27.270  1.00  0.00     0.116 C 
BRANCH  21  22
ATOM     22  N   UNL A   1      32.429  34.130  27.570  1.00  0.00    -0.352 N 
ATOM     23  C   UNL A   1      32.995  34.959  28.508  1.00  0.00     0.251 C 
ATOM     24  H   UNL A   1      31.713  34.530  27.027  1.00  0.00     0.163 HD
ATOM     25  O   UNL A   1      32.528  36.074  28.715  1.00  0.00    -0.269 OA
BRANCH  23  26
ATOM     26  C   UNL A   1      34.149  34.477  29.291  1.00  0.00     0.039 A 
ATOM     27  C   UNL A   1      33.919  33.856  30.520  1.00  0.00     0.014 A 
ATOM     28  C   UNL A   1      35.446  34.592  28.787  1.00  0.00     0.014 A 
ATOM     29  C   UNL A   1      34.989  33.285  31.210  1.00  0.00     0.010 A 
ATOM     30  C   UNL A   1      36.492  33.941  29.426  1.00  0.00     0.010 A 
ATOM     31  C   UNL A   1      36.276  33.290  30.648  1.00  0.00    -0.014 A 
BRANCH  31  32
ATOM     32  C   UNL A   1      37.418  32.637  31.332  1.00  0.00     0.031 A 
ATOM     33  C   UNL A   1      38.141  31.504  30.658  1.00  0.00     0.074 A 
ATOM     34  C   UNL A   1      37.758  33.019  32.578  1.00  0.00     0.049 A 
ATOM     35  N   UNL A   1      39.115  30.757  31.111  1.00  0.00    -0.248 NA
ATOM     36  C   UNL A   1      37.685  31.139  29.306  1.00  0.00     0.031 C 
ATOM     37  C   UNL A   1      37.095  34.067  33.354  1.00  0.00     0.029 A 
ATOM     38  N   UNL A   1      38.745  32.561  33.413  1.00  0.00    -0.354 N 
ATOM     39  C   UNL A   1      39.376  29.832  30.109  1.00  0.00     0.074 A 
ATOM     40  C   UNL A   1      38.416  30.065  29.054  1.00  0.00     0.031 C 
ATOM     41  C   UNL A   1      37.712  34.195  34.539  1.00  0.00     0.029 A 
ATOM     42  C   UNL A   1      38.789  33.213  34.622  1.00  0.00     0.049 A 
ATOM     43  H   UNL A   1      39.364  31.835  33.171  1.00  0.00     0.167 HD
ATOM     44  C   UNL A   1      40.350  28.894  30.061  1.00  0.00     0.037 A 
ATOM     45  C   UNL A   1      39.608  33.035  35.676  1.00  0.00     0.037 A 
ATOM     46  C   UNL A   1      41.321  28.686  31.101  1.00  0.00     0.049 A 
ATOM     47  C   UNL A   1      40.681  31.982  35.596  1.00  0.00     0.074 A 
ATOM     48  C   UNL A   1      42.381  27.798  31.129  1.00  0.00     0.029 A 
ATOM     49  N   UNL A   1      41.348  29.381  32.302  1.00  0.00    -0.354 N 
ATOM     50  N   UNL A   1      40.964  31.160  34.615  1.00  0.00    -0.248 NA
ATOM     51  C   UNL A   1      41.555  31.840  36.768  1.00  0.00     0.031 C 
ATOM     52  C   UNL A   1      43.026  27.926  32.363  1.00  0.00     0.029 A 
ATOM     53  C   UNL A   1      42.398  28.929  33.085  1.00  0.00     0.049 A 
ATOM     54  H   UNL A   1      40.715  30.090  32.559  1.00  0.00     0.167 HD
ATOM     55  C   UNL A   1      42.064  30.426  35.036  1.00  0.00     0.074 A 
ATOM     56  C   UNL A   1      42.407  30.912  36.357  1.00  0.00     0.031 C 
ATOM     57  C   UNL A   1      42.730  29.437  34.391  1.00  0.00     0.037 A 
BRANCH  44  58
ATOM     58  C   UNL A   1      40.420  28.032  28.832  1.00  0.00     0.064 A 
ATOM     59  C   UNL A   1      39.734  26.811  28.752  1.00  0.00     0.173 A 
ATOM     60  C   UNL A   1      41.160  28.443  27.714  1.00  0.00     0.173 A 
ATOM     61  F   UNL A   1      39.024  26.365  29.800  1.00  0.00    -0.203 F 
ATOM     62  C   UNL A   1      39.810  26.018  27.610  1.00  0.00     0.198 A 
ATOM     63  C   UNL A   1      41.208  27.663  26.561  1.00  0.00     0.198 A 
ATOM     64  F   UNL A   1      41.833  29.603  27.736  1.00  0.00    -0.203 F 
ATOM     65  F   UNL A   1      39.189  24.831  27.578  1.00  0.00    -0.200 F 
ATOM     66  C   UNL A   1      40.541  26.449  26.513  1.00  0.00     0.200 A 
ATOM     67  F   UNL A   1      41.905  28.085  25.497  1.00  0.00    -0.200 F 
ATOM     68  F   UNL A   1      40.609  25.688  25.412  1.00  0.00    -0.200 F 
ENDBRANCH  44  58
BRANCH  45  69
ATOM     69  C   UNL A   1      39.472  33.893  36.881  1.00  0.00     0.064 A 
ATOM     70  C   UNL A   1      38.731  33.459  37.990  1.00  0.00     0.173 A 
ATOM     71  C   UNL A   1      40.065  35.161  36.949  1.00  0.00     0.173 A 
ATOM     72  F   UNL A   1      38.130  32.261  37.965  1.00  0.00    -0.203 F 
ATOM     73  C   UNL A   1      38.565  34.273  39.109  1.00  0.00     0.198 A 
ATOM     74  C   UNL A   1      39.922  35.963  38.081  1.00  0.00     0.198 A 
ATOM     75  F   UNL A   1      40.789  35.622  35.918  1.00  0.00    -0.203 F 
ATOM     76  F   UNL A   1      37.809  33.854  40.133  1.00  0.00    -0.200 F 
ATOM     77  C   UNL A   1      39.165  35.522  39.156  1.00  0.00     0.200 A 
ATOM     78  F   UNL A   1      40.515  37.164  38.127  1.00  0.00    -0.200 F 
ATOM     79  F   UNL A   1      39.006  36.304  40.232  1.00  0.00    -0.200 F 
ENDBRANCH  45  69
BRANCH  57  80
ATOM     80  C   UNL A   1      43.922  28.847  35.085  1.00  0.00     0.064 A 
ATOM     81  C   UNL A   1      45.212  29.368  34.905  1.00  0.00     0.173 A 
ATOM     82  C   UNL A   1      43.765  27.771  35.971  1.00  0.00     0.173 A 
ATOM     83  F   UNL A   1      45.416  30.388  34.056  1.00  0.00    -0.203 F 
ATOM     84  C   UNL A   1      46.304  28.815  35.566  1.00  0.00     0.198 A 
ATOM     85  C   UNL A   1      44.855  27.241  36.655  1.00  0.00     0.198 A 
ATOM     86  F   UNL A   1      42.551  27.241  36.183  1.00  0.00    -0.203 F 
ATOM     87  F   UNL A   1      47.536  29.297  35.342  1.00  0.00    -0.200 F 
ATOM     88  C   UNL A   1      46.125  27.757  36.446  1.00  0.00     0.200 A 
ATOM     89  F   UNL A   1      44.677  26.229  37.514  1.00  0.00    -0.200 F 
ATOM     90  F   UNL A   1      47.177  27.232  37.087  1.00  0.00    -0.200 F 
ENDBRANCH  57  80
ENDBRANCH  31  32
ENDBRANCH  23  26
ENDBRANCH  21  22
ENDBRANCH   1  21
TORSDOF 12
ENDMDL
MODEL 2
REMARK VINA RESULT:     -12.2      0.589      7.510
REMARK SMILES C[C@H]1SCCC[C@@]1(C(=O)NCCCCNC(=O)c1ccc(-c2c3nc(c(-c4c(F)c(F)c(F)c(F)c4F)c4ccc([nH]4)c(-c4c(F)c(F)c(F)c(F)c4F)c4nc(c(-c5c(F)c(F)c(F)c(F)c5F)c5ccc2[nH]5)C=C4)C=C3)cc1)[NH+]1CCCC1
REMARK SMILES IDX 13 1 12 2 11 3 10 4 8 5 9 6 7 8 1 9 2 10 3 11 4 12 6 13 5 14
REMARK SMILES IDX 81 15 82 16 85 17 83 19 84 20 14 21 15 22 16 23 17 25 18 26
REMARK SMILES IDX 19 27 80 28 20 29 79 30 21 31 22 32 23 33 73 34 24 35 78 36
REMARK SMILES IDX 72 37 74 38 25 39 77 40 71 41 70 42 26 44 58 45 38 46 57 47
REMARK SMILES IDX 39 48 42 49 56 50 75 51 40 52 41 53 55 55 76 56 43 57 27 58
REMARK SMILES IDX 28 59 36 60 29 61 30 62 34 63 37 64 31 65 32 66 35 67 33 68
REMARK SMILES IDX 59 69 60 70 68 71 61 72 62 73 66 74 69 75 63 76 64 77 67 78
REMARK SMILES IDX 65 79 44 80 45 81 53 82 46 83 47 84 51 85 54 86 48 87 49 88
REMARK SMILES IDX 52 89 50 90
REMARK H PARENT 10 7 81 18 15 24 74 43 42 54
REMARK Flexibility Score: inf
ROOT
ATOM      1  C   UNL A   1      31.402  31.909  26.865  1.00  0.00     0.023 C 
ENDROOT
BRANCH   1   2
ATOM      2  C   UNL A   1      31.570  30.819  25.812  1.00  0.00     0.023 C 
BRANCH   2   3
ATOM      3  C   UNL A   1      32.830  29.945  25.958  1.00  0.00     0.116 C 
BRANCH   3   4
ATOM      4  N   UNL A   1      33.417  29.684  24.659  1.00  0.00    -0.351 N 
ATOM      5  C   UNL A   1      33.457  28.672  23.755  1.00  0.00     0.282 C 
ATOM      6  O   UNL A   1      34.256  28.953  22.844  1.00  0.00    -0.268 OA
ATOM      7  H   UNL A   1      33.933  30.460  24.342  1.00  0.00     0.163 HD
BRANCH   5   8
ATOM      8  C   UNL A   1      32.562  27.321  23.698  1.00  0.00     0.188 C 
ATOM      9  C   UNL A   1      33.444  26.541  26.061  1.00  0.00     0.027 C 
ATOM     10  C   UNL A   1      33.471  26.298  24.539  1.00  0.00     0.115 C 
ATOM     11  S   UNL A   1      33.217  24.488  24.306  1.00  0.00    -0.152 SA
ATOM     12  C   UNL A   1      33.240  24.426  22.507  1.00  0.00     0.070 C 
ATOM     13  C   UNL A   1      32.504  26.873  22.210  1.00  0.00     0.081 C 
ATOM     14  C   UNL A   1      32.245  25.396  21.897  1.00  0.00     0.018 C 
BRANCH   8  15
ATOM     15  N   UNL A   1      31.225  27.488  24.372  1.00  0.00    -0.321 N 
ATOM     16  C   UNL A   1      30.496  26.316  24.862  1.00  0.00     0.263 C 
ATOM     17  C   UNL A   1      30.207  28.314  23.751  1.00  0.00     0.263 C 
ATOM     18  H   UNL A   1      31.673  27.978  25.147  1.00  0.00     0.349 HD
ATOM     19  C   UNL A   1      29.337  26.092  23.905  1.00  0.00     0.067 C 
ATOM     20  C   UNL A   1      28.982  27.477  23.432  1.00  0.00     0.067 C 
ENDBRANCH   8  15
ENDBRANCH   5   8
ENDBRANCH   3   4
ENDBRANCH   2   3
ENDBRANCH   1   2
BRANCH   1  21
ATOM     21  C   UNL A   1      32.674  32.654  27.214  1.00  0.00     0.116 C 
BRANCH  21  22
ATOM     22  N   UNL A   1      32.442  34.045  27.574  1.00  0.00    -0.352 N 
ATOM     23  C   UNL A   1      33.074  34.807  28.526  1.00  0.00     0.251 C 
ATOM     24  H   UNL A   1      31.734  34.504  27.065  1.00  0.00     0.163 HD
ATOM     25  O   UNL A   1      32.673  35.936  28.787  1.00  0.00    -0.269 OA
BRANCH  23  26
ATOM     26  C   UNL A   1      34.219  34.235  29.260  1.00  0.00     0.039 A 
ATOM     27  C   UNL A   1      33.975  33.326  30.292  1.00  0.00     0.014 A 
ATOM     28  C   UNL A   1      35.528  34.557  28.894  1.00  0.00     0.014 A 
ATOM     29  C   UNL A   1      35.050  32.685  30.908  1.00  0.00     0.010 A 
ATOM     30  C   UNL A   1      36.588  33.848  29.441  1.00  0.00     0.010 A 
ATOM     31  C   UNL A   1      36.361  32.913  30.459  1.00  0.00    -0.014 A 
BRANCH  31  32
ATOM     32  C   UNL A   1      37.516  32.198  31.056  1.00  0.00     0.031 A 
ATOM     33  C   UNL A   1      37.996  32.575  32.429  1.00  0.00     0.074 A 
ATOM     34  C   UNL A   1      38.166  31.262  30.338  1.00  0.00     0.049 A 
ATOM     35  N   UNL A   1      39.025  32.123  33.100  1.00  0.00    -0.248 NA
ATOM     36  C   UNL A   1      37.238  33.625  33.131  1.00  0.00     0.031 C 
ATOM     37  C   UNL A   1      37.826  30.852  28.975  1.00  0.00     0.029 A 
ATOM     38  N   UNL A   1      39.255  30.491  30.655  1.00  0.00    -0.354 N 
ATOM     39  C   UNL A   1      39.043  32.841  34.288  1.00  0.00     0.074 A 
ATOM     40  C   UNL A   1      37.967  33.803  34.221  1.00  0.00     0.031 C 
ATOM     41  C   UNL A   1      38.669  29.883  28.584  1.00  0.00     0.029 A 
ATOM     42  C   UNL A   1      39.631  29.630  29.652  1.00  0.00     0.049 A 
ATOM     43  H   UNL A   1      39.724  30.549  31.519  1.00  0.00     0.167 HD
ATOM     44  C   UNL A   1      39.865  32.687  35.353  1.00  0.00     0.037 A 
ATOM     45  C   UNL A   1      40.639  28.739  29.605  1.00  0.00     0.037 A 
ATOM     46  C   UNL A   1      40.915  31.708  35.426  1.00  0.00     0.049 A 
ATOM     47  C   UNL A   1      41.539  28.592  30.803  1.00  0.00     0.074 A 
ATOM     48  C   UNL A   1      41.770  31.435  36.478  1.00  0.00     0.029 A 
ATOM     49  N   UNL A   1      41.252  30.838  34.399  1.00  0.00    -0.354 N 
ATOM     50  N   UNL A   1      41.504  29.226  31.949  1.00  0.00    -0.248 NA
ATOM     51  C   UNL A   1      42.614  27.596  30.702  1.00  0.00     0.031 C 
ATOM     52  C   UNL A   1      42.651  30.427  36.075  1.00  0.00     0.029 A 
ATOM     53  C   UNL A   1      42.313  30.038  34.788  1.00  0.00     0.049 A 
ATOM     54  H   UNL A   1      40.802  30.796  33.524  1.00  0.00     0.167 HD
ATOM     55  C   UNL A   1      42.527  28.687  32.716  1.00  0.00     0.074 A 
ATOM     56  C   UNL A   1      43.156  27.662  31.910  1.00  0.00     0.031 C 
ATOM     57  C   UNL A   1      42.914  29.013  33.974  1.00  0.00     0.037 A 
BRANCH  44  58
ATOM     58  C   UNL A   1      39.645  33.593  36.531  1.00  0.00     0.064 A 
ATOM     59  C   UNL A   1      38.820  33.216  37.603  1.00  0.00     0.173 A 
ATOM     60  C   UNL A   1      40.285  34.838  36.603  1.00  0.00     0.173 A 
ATOM     61  F   UNL A   1      38.172  32.041  37.576  1.00  0.00    -0.203 F 
ATOM     62  C   UNL A   1      38.620  34.066  38.687  1.00  0.00     0.198 A 
ATOM     63  C   UNL A   1      40.107  35.673  37.704  1.00  0.00     0.198 A 
ATOM     64  F   UNL A   1      41.086  35.247  35.607  1.00  0.00    -0.203 F 
ATOM     65  F   UNL A   1      37.785  33.707  39.672  1.00  0.00    -0.200 F 
ATOM     66  C   UNL A   1      39.270  35.290  38.740  1.00  0.00     0.200 A 
ATOM     67  F   UNL A   1      40.745  36.850  37.760  1.00  0.00    -0.200 F 
ATOM     68  F   UNL A   1      39.080  36.105  39.787  1.00  0.00    -0.200 F 
ENDBRANCH  44  58
BRANCH  45  69
ATOM     69  C   UNL A   1      40.832  27.893  28.399  1.00  0.00     0.064 A 
ATOM     70  C   UNL A   1      41.610  28.344  27.323  1.00  0.00     0.173 A 
ATOM     71  C   UNL A   1      40.239  26.627  28.289  1.00  0.00     0.173 A 
ATOM     72  F   UNL A   1      42.183  29.555  27.374  1.00  0.00    -0.203 F 
ATOM     73  C   UNL A   1      41.764  27.573  26.173  1.00  0.00     0.198 A 
ATOM     74  C   UNL A   1      40.417  25.845  27.149  1.00  0.00     0.198 A 
ATOM     75  F   UNL A   1      39.489  26.146  29.292  1.00  0.00    -0.203 F 
ATOM     76  F   UNL A   1      42.471  28.051  25.139  1.00  0.00    -0.200 F 
ATOM     77  C   UNL A   1      41.172  26.322  26.088  1.00  0.00     0.200 A 
ATOM     78  F   UNL A   1      39.854  24.631  27.077  1.00  0.00    -0.200 F 
ATOM     79  F   UNL A   1      41.320  25.582  24.981  1.00  0.00    -0.200 F 
ENDBRANCH  45  69
BRANCH  57  80
ATOM     80  C   UNL A   1      44.041  28.222  34.571  1.00  0.00     0.064 A 
ATOM     81  C   UNL A   1      45.373  28.653  34.480  1.00  0.00     0.173 A 
ATOM     82  C   UNL A   1      43.780  27.038  35.276  1.00  0.00     0.173 A 
ATOM     83  F   UNL A   1      45.676  29.772  33.803  1.00  0.00    -0.203 F 
ATOM     84  C   UNL A   1      46.404  27.912  35.050  1.00  0.00     0.198 A 
ATOM     85  C   UNL A   1      44.809  26.316  35.872  1.00  0.00     0.198 A 
ATOM     86  F   UNL A   1      42.522  26.587  35.398  1.00  0.00    -0.203 F 
ATOM     87  F   UNL A   1      47.675  28.317  34.909  1.00  0.00    -0.200 F 
ATOM     88  C   UNL A   1      46.122  26.749  35.752  1.00  0.00     0.200 A 
ATOM     89  F   UNL A   1      44.534  25.201  36.561  1.00  0.00    -0.200 F 
ATOM     90  F   UNL A   1      47.115  26.042  36.306  1.00  0.00    -0.200 F 
ENDBRANCH  57  80
ENDBRANCH  31  32
ENDBRANCH  23  26
ENDBRANCH  21  22
ENDBRANCH   1  21
TORSDOF 12
ENDMDL
MODEL 3
REMARK VINA RESULT:     -12.2      0.698      7.517
REMARK SMILES C[C@H]1SCCC[C@@]1(C(=O)NCCCCNC(=O)c1ccc(-c2c3nc(c(-c4c(F)c(F)c(F)c(F)c4F)c4ccc([nH]4)c(-c4c(F)c(F)c(F)c(F)c4F)c4nc(c(-c5c(F)c(F)c(F)c(F)c5F)c5ccc2[nH]5)C=C4)C=C3)cc1)[NH+]1CCCC1
REMARK SMILES IDX 13 1 12 2 11 3 10 4 8 5 9 6 7 8 1 9 2 10 3 11 4 12 6 13 5 14
REMARK SMILES IDX 81 15 82 16 85 17 83 19 84 20 14 21 15 22 16 23 17 25 18 26
REMARK SMILES IDX 19 27 80 28 20 29 79 30 21 31 22 32 23 33 73 34 24 35 78 36
REMARK SMILES IDX 72 37 74 38 25 39 77 40 71 41 70 42 26 44 58 45 38 46 57 47
REMARK SMILES IDX 39 48 42 49 56 50 75 51 40 52 41 53 55 55 76 56 43 57 27 58
REMARK SMILES IDX 28 59 36 60 29 61 30 62 34 63 37 64 31 65 32 66 35 67 33 68
REMARK SMILES IDX 59 69 60 70 68 71 61 72 62 73 66 74 69 75 63 76 64 77 67 78
REMARK SMILES IDX 65 79 44 80 45 81 53 82 46 83 47 84 51 85 54 86 48 87 49 88
REMARK SMILES IDX 52 89 50 90
REMARK H PARENT 10 7 81 18 15 24 74 43 42 54
REMARK Flexibility Score: inf
ROOT
ATOM      1  C   UNL A   1      31.398  31.944  26.876  1.00  0.00     0.023 C 
ENDROOT
BRANCH   1   2
ATOM      2  C   UNL A   1      31.558  30.869  25.807  1.00  0.00     0.023 C 
BRANCH   2   3
ATOM      3  C   UNL A   1      32.808  29.980  25.943  1.00  0.00     0.116 C 
BRANCH   3   4
ATOM      4  N   UNL A   1      33.375  29.703  24.638  1.00  0.00    -0.351 N 
ATOM      5  C   UNL A   1      33.419  28.673  23.755  1.00  0.00     0.282 C 
ATOM      6  O   UNL A   1      34.194  28.951  22.822  1.00  0.00    -0.268 OA
ATOM      7  H   UNL A   1      33.868  30.482  24.294  1.00  0.00     0.163 HD
BRANCH   5   8
ATOM      8  C   UNL A   1      32.551  27.302  23.745  1.00  0.00     0.188 C 
ATOM      9  C   UNL A   1      33.469  26.610  26.122  1.00  0.00     0.027 C 
ATOM     10  C   UNL A   1      33.489  26.323  24.607  1.00  0.00     0.115 C 
ATOM     11  S   UNL A   1      33.270  24.502  24.429  1.00  0.00    -0.152 SA
ATOM     12  C   UNL A   1      33.280  24.389  22.632  1.00  0.00     0.070 C 
ATOM     13  C   UNL A   1      32.491  26.811  22.271  1.00  0.00     0.081 C 
ATOM     14  C   UNL A   1      32.261  25.320  22.003  1.00  0.00     0.018 C 
BRANCH   8  15
ATOM     15  N   UNL A   1      31.217  27.462  24.425  1.00  0.00    -0.321 N 
ATOM     16  C   UNL A   1      30.508  26.288  24.939  1.00  0.00     0.263 C 
ATOM     17  C   UNL A   1      30.184  28.263  23.798  1.00  0.00     0.263 C 
ATOM     18  H   UNL A   1      31.663  27.970  25.190  1.00  0.00     0.349 HD
ATOM     19  C   UNL A   1      29.346  26.033  23.994  1.00  0.00     0.067 C 
ATOM     20  C   UNL A   1      28.969  27.404  23.501  1.00  0.00     0.067 C 
ENDBRANCH   8  15
ENDBRANCH   5   8
ENDBRANCH   3   4
ENDBRANCH   2   3
ENDBRANCH   1   2
BRANCH   1  21
ATOM     21  C   UNL A   1      32.679  32.663  27.248  1.00  0.00     0.116 C 
BRANCH  21  22
ATOM     22  N   UNL A   1      32.468  34.056  27.616  1.00  0.00    -0.352 N 
ATOM     23  C   UNL A   1      33.121  34.806  28.563  1.00  0.00     0.251 C 
ATOM     24  H   UNL A   1      31.760  34.524  27.117  1.00  0.00     0.163 HD
ATOM     25  O   UNL A   1      32.736  35.939  28.833  1.00  0.00    -0.269 OA
BRANCH  23  26
ATOM     26  C   UNL A   1      34.268  34.218  29.281  1.00  0.00     0.039 A 
ATOM     27  C   UNL A   1      34.027  33.415  30.398  1.00  0.00     0.014 A 
ATOM     28  C   UNL A   1      35.571  34.418  28.819  1.00  0.00     0.014 A 
ATOM     29  C   UNL A   1      35.093  32.753  31.008  1.00  0.00     0.010 A 
ATOM     30  C   UNL A   1      36.614  33.684  29.367  1.00  0.00     0.010 A 
ATOM     31  C   UNL A   1      36.387  32.853  30.472  1.00  0.00    -0.014 A 
BRANCH  31  32
ATOM     32  C   UNL A   1      37.526  32.110  31.065  1.00  0.00     0.031 A 
ATOM     33  C   UNL A   1      38.002  32.457  32.448  1.00  0.00     0.074 A 
ATOM     34  C   UNL A   1      38.168  31.177  30.336  1.00  0.00     0.049 A 
ATOM     35  N   UNL A   1      39.019  31.978  33.118  1.00  0.00    -0.248 NA
ATOM     36  C   UNL A   1      37.255  33.506  33.162  1.00  0.00     0.031 C 
ATOM     37  C   UNL A   1      37.832  30.795  28.964  1.00  0.00     0.029 A 
ATOM     38  N   UNL A   1      39.243  30.385  30.648  1.00  0.00    -0.354 N 
ATOM     39  C   UNL A   1      39.039  32.675  34.319  1.00  0.00     0.074 A 
ATOM     40  C   UNL A   1      37.977  33.655  34.260  1.00  0.00     0.031 C 
ATOM     41  C   UNL A   1      38.664  29.821  28.562  1.00  0.00     0.029 A 
ATOM     42  C   UNL A   1      39.614  29.535  29.634  1.00  0.00     0.049 A 
ATOM     43  H   UNL A   1      39.706  30.421  31.516  1.00  0.00     0.167 HD
ATOM     44  C   UNL A   1      39.849  32.492  35.387  1.00  0.00     0.037 A 
ATOM     45  C   UNL A   1      40.609  28.630  29.578  1.00  0.00     0.037 A 
ATOM     46  C   UNL A   1      40.885  31.496  35.452  1.00  0.00     0.049 A 
ATOM     47  C   UNL A   1      41.498  28.449  30.780  1.00  0.00     0.074 A 
ATOM     48  C   UNL A   1      41.727  31.192  36.505  1.00  0.00     0.029 A 
ATOM     49  N   UNL A   1      41.216  30.638  34.412  1.00  0.00    -0.354 N 
ATOM     50  N   UNL A   1      41.463  29.065  31.937  1.00  0.00    -0.248 NA
ATOM     51  C   UNL A   1      42.558  27.439  30.671  1.00  0.00     0.031 C 
ATOM     52  C   UNL A   1      42.596  30.178  36.091  1.00  0.00     0.029 A 
ATOM     53  C   UNL A   1      42.263  29.816  34.795  1.00  0.00     0.049 A 
ATOM     54  H   UNL A   1      40.773  30.618  33.533  1.00  0.00     0.167 HD
ATOM     55  C   UNL A   1      42.472  28.497  32.702  1.00  0.00     0.074 A 
ATOM     56  C   UNL A   1      43.091  27.476  31.883  1.00  0.00     0.031 C 
ATOM     57  C   UNL A   1      42.855  28.795  33.968  1.00  0.00     0.037 A 
BRANCH  44  58
ATOM     58  C   UNL A   1      39.634  33.380  36.579  1.00  0.00     0.064 A 
ATOM     59  C   UNL A   1      40.282  34.620  36.697  1.00  0.00     0.173 A 
ATOM     60  C   UNL A   1      38.753  33.002  37.601  1.00  0.00     0.173 A 
ATOM     61  F   UNL A   1      41.148  35.022  35.753  1.00  0.00    -0.203 F 
ATOM     62  C   UNL A   1      40.080  35.433  37.808  1.00  0.00     0.198 A 
ATOM     63  C   UNL A   1      38.528  33.832  38.697  1.00  0.00     0.198 A 
ATOM     64  F   UNL A   1      38.106  31.829  37.538  1.00  0.00    -0.203 F 
ATOM     65  F   UNL A   1      40.751  36.587  37.924  1.00  0.00    -0.200 F 
ATOM     66  C   UNL A   1      39.197  35.042  38.803  1.00  0.00     0.200 A 
ATOM     67  F   UNL A   1      37.666  33.458  39.653  1.00  0.00    -0.200 F 
ATOM     68  F   UNL A   1      38.998  35.828  39.871  1.00  0.00    -0.200 F 
ENDBRANCH  44  58
BRANCH  45  69
ATOM     69  C   UNL A   1      40.799  27.801  28.360  1.00  0.00     0.064 A 
ATOM     70  C   UNL A   1      40.182  26.547  28.243  1.00  0.00     0.173 A 
ATOM     71  C   UNL A   1      41.604  28.233  27.297  1.00  0.00     0.173 A 
ATOM     72  F   UNL A   1      39.417  26.083  29.241  1.00  0.00    -0.203 F 
ATOM     73  C   UNL A   1      40.386  25.747  27.121  1.00  0.00     0.198 A 
ATOM     74  C   UNL A   1      41.784  27.444  26.163  1.00  0.00     0.198 A 
ATOM     75  F   UNL A   1      42.212  29.428  27.356  1.00  0.00    -0.203 F 
ATOM     76  F   UNL A   1      39.825  24.531  27.058  1.00  0.00    -0.200 F 
ATOM     77  C   UNL A   1      41.182  26.197  26.079  1.00  0.00     0.200 A 
ATOM     78  F   UNL A   1      42.544  27.889  25.152  1.00  0.00    -0.200 F 
ATOM     79  F   UNL A   1      41.378  25.426  25.001  1.00  0.00    -0.200 F 
ENDBRANCH  45  69
BRANCH  57  80
ATOM     80  C   UNL A   1      43.965  27.978  34.560  1.00  0.00     0.064 A 
ATOM     81  C   UNL A   1      45.301  28.403  34.508  1.00  0.00     0.173 A 
ATOM     82  C   UNL A   1      43.683  26.773  35.221  1.00  0.00     0.173 A 
ATOM     83  F   UNL A   1      45.624  29.541  33.874  1.00  0.00    -0.203 F 
ATOM     84  C   UNL A   1      46.316  27.636  35.073  1.00  0.00     0.198 A 
ATOM     85  C   UNL A   1      44.696  26.026  35.812  1.00  0.00     0.198 A 
ATOM     86  F   UNL A   1      42.420  26.327  35.305  1.00  0.00    -0.203 F 
ATOM     87  F   UNL A   1      47.592  28.036  34.969  1.00  0.00    -0.200 F 
ATOM     88  C   UNL A   1      46.013  26.453  35.731  1.00  0.00     0.200 A 
ATOM     89  F   UNL A   1      44.401  24.891  36.459  1.00  0.00    -0.200 F 
ATOM     90  F   UNL A   1      46.991  25.721  36.281  1.00  0.00    -0.200 F 
ENDBRANCH  57  80
ENDBRANCH  31  32
ENDBRANCH  23  26
ENDBRANCH  21  22
ENDBRANCH   1  21
TORSDOF 12
ENDMDL
