MODEL 1
REMARK VINA RESULT:     -12.1      0.000      0.000
REMARK SMILES COc1ccc(S(=O)(=O)N2CCC[C@H](C(=O)N3CCC[C@H](C(=O)NCCCCNC(=O)c4ccc(-c5c6nc(c(-c7c(F)c(F)c(F)c(F)c7F)c7ccc([nH]7)c(-c7c(F)c(F)c(F)c(F)c7F)c7nc(c(-c8c(F)c(F)c(F)c(F)c8F)c8ccc5[nH]8)C=C7)C=C6)cc4)C3)C2)cc1
REMARK SMILES IDX 25 1 24 2 22 3 23 4 21 6 17 7 18 8 95 9 19 10 20 11 15 12
REMARK SMILES IDX 16 13 14 14 10 15 11 16 96 17 12 18 13 19 7 20 8 21 9 22
REMARK SMILES IDX 6 23 3 24 4 25 98 26 5 27 97 28 2 29 1 30 26 31 27 32 28 33
REMARK SMILES IDX 29 34 30 35 31 37 32 38 33 39 94 40 34 41 93 42 35 43 36 44
REMARK SMILES IDX 37 45 87 46 38 47 92 48 86 49 88 50 39 51 91 52 85 53 84 54
REMARK SMILES IDX 40 56 72 57 52 58 71 59 53 60 56 61 70 62 89 63 54 64 55 65
REMARK SMILES IDX 69 67 90 68 57 69 41 70 42 71 50 72 43 73 44 74 48 75 51 76
REMARK SMILES IDX 45 77 46 78 49 79 47 80 73 81 74 82 82 83 75 84 76 85 80 86
REMARK SMILES IDX 83 87 77 88 78 89 81 90 79 91 58 92 59 93 67 94 60 95 61 96
REMARK SMILES IDX 65 97 68 98 62 99 63 100 66 101 64 102
REMARK H PARENT 24 5 29 36 88 55 56 66
REMARK Flexibility Score: inf
ROOT
ATOM      1  C   UNL A   1      35.364  32.324  27.777  1.00  0.00     0.116 C 
ENDROOT
BRANCH   1   2
ATOM      2  N   UNL A   1      35.687  30.924  27.676  1.00  0.00    -0.356 N 
ATOM      3  C   UNL A   1      34.868  29.861  27.473  1.00  0.00     0.224 C 
ATOM      4  O   UNL A   1      35.414  28.786  27.203  1.00  0.00    -0.275 OA
ATOM      5  H   UNL A   1      36.644  30.705  27.767  1.00  0.00     0.163 HD
BRANCH   3   6
ATOM      6  C   UNL A   1      33.337  29.929  27.552  1.00  0.00     0.098 C 
ATOM      7  N   UNL A   1      32.090  27.911  26.720  1.00  0.00    -0.342 N 
ATOM      8  C   UNL A   1      31.278  28.715  25.810  1.00  0.00     0.119 C 
ATOM      9  C   UNL A   1      32.653  28.598  27.871  1.00  0.00     0.133 C 
ATOM     10  C   UNL A   1      31.976  29.986  25.340  1.00  0.00     0.022 C 
ATOM     11  C   UNL A   1      32.648  30.766  26.468  1.00  0.00     0.017 C 
BRANCH   7  12
ATOM     12  C   UNL A   1      32.419  26.621  26.355  1.00  0.00     0.227 C 
ATOM     13  O   UNL A   1      31.675  25.675  26.643  1.00  0.00    -0.275 OA
BRANCH  12  14
ATOM     14  C   UNL A   1      33.818  26.306  25.820  1.00  0.00     0.094 C 
ATOM     15  N   UNL A   1      33.131  26.019  23.473  1.00  0.00    -0.197 NA
ATOM     16  C   UNL A   1      33.314  24.556  23.488  1.00  0.00     0.102 C 
ATOM     17  C   UNL A   1      33.897  26.864  24.405  1.00  0.00     0.116 C 
ATOM     18  C   UNL A   1      33.963  23.968  24.737  1.00  0.00     0.018 C 
ATOM     19  C   UNL A   1      34.415  24.911  25.846  1.00  0.00     0.016 C 
BRANCH  15  20
ATOM     20  S   UNL A   1      32.618  26.715  22.009  1.00  0.00     0.243 S 
ATOM     21  O   UNL A   1      32.194  25.661  21.122  1.00  0.00    -0.207 OA
ATOM     22  O   UNL A   1      33.643  27.668  21.618  1.00  0.00    -0.207 OA
BRANCH  20  23
ATOM     23  C   UNL A   1      31.170  27.679  22.394  1.00  0.00     0.082 A 
ATOM     24  C   UNL A   1      28.776  29.033  22.870  1.00  0.00     0.118 A 
ATOM     25  C   UNL A   1      28.914  27.701  23.263  1.00  0.00     0.048 A 
ATOM     26  C   UNL A   1      29.853  29.705  22.299  1.00  0.00     0.048 A 
ATOM     27  C   UNL A   1      30.106  27.016  23.016  1.00  0.00     0.025 A 
ATOM     28  C   UNL A   1      31.048  29.029  22.055  1.00  0.00     0.025 A 
BRANCH  24  29
ATOM     29  O   UNL A   1      27.562  29.617  23.107  1.00  0.00    -0.497 OA
ATOM     30  C   UNL A   1      27.651  31.008  23.414  1.00  0.00     0.278 C 
ENDBRANCH  24  29
ENDBRANCH  20  23
ENDBRANCH  15  20
ENDBRANCH  12  14
ENDBRANCH   7  12
ENDBRANCH   3   6
ENDBRANCH   1   2
BRANCH   1  31
ATOM     31  C   UNL A   1      34.735  32.724  29.104  1.00  0.00     0.023 C 
BRANCH  31  32
ATOM     32  C   UNL A   1      33.586  33.715  28.977  1.00  0.00     0.023 C 
BRANCH  32  33
ATOM     33  C   UNL A   1      33.879  35.125  29.481  1.00  0.00     0.116 C 
BRANCH  33  34
ATOM     34  N   UNL A   1      32.855  35.689  30.352  1.00  0.00    -0.352 N 
ATOM     35  C   UNL A   1      32.809  35.651  31.729  1.00  0.00     0.251 C 
ATOM     36  H   UNL A   1      32.110  36.153  29.904  1.00  0.00     0.163 HD
ATOM     37  O   UNL A   1      31.861  36.098  32.361  1.00  0.00    -0.269 OA
BRANCH  35  38
ATOM     38  C   UNL A   1      33.933  35.010  32.441  1.00  0.00     0.039 A 
ATOM     39  C   UNL A   1      33.781  33.707  32.918  1.00  0.00     0.014 A 
ATOM     40  C   UNL A   1      35.170  35.658  32.507  1.00  0.00     0.014 A 
ATOM     41  C   UNL A   1      34.903  33.011  33.368  1.00  0.00     0.010 A 
ATOM     42  C   UNL A   1      36.297  34.935  32.875  1.00  0.00     0.010 A 
ATOM     43  C   UNL A   1      36.178  33.600  33.295  1.00  0.00    -0.014 A 
BRANCH  43  44
ATOM     44  C   UNL A   1      37.404  32.833  33.628  1.00  0.00     0.031 A 
ATOM     45  C   UNL A   1      38.153  33.129  34.896  1.00  0.00     0.074 A 
ATOM     46  C   UNL A   1      37.895  31.940  32.747  1.00  0.00     0.049 A 
ATOM     47  N   UNL A   1      39.290  32.640  35.319  1.00  0.00    -0.248 NA
ATOM     48  C   UNL A   1      37.563  34.140  35.787  1.00  0.00     0.031 C 
ATOM     49  C   UNL A   1      37.304  31.617  31.447  1.00  0.00     0.029 A 
ATOM     50  N   UNL A   1      39.016  31.150  32.805  1.00  0.00    -0.354 N 
ATOM     51  C   UNL A   1      39.559  33.297  36.513  1.00  0.00     0.074 A 
ATOM     52  C   UNL A   1      38.500  34.261  36.714  1.00  0.00     0.031 C 
ATOM     53  C   UNL A   1      38.054  30.682  30.841  1.00  0.00     0.029 A 
ATOM     54  C   UNL A   1      39.194  30.361  31.694  1.00  0.00     0.049 A 
ATOM     55  H   UNL A   1      39.635  31.147  33.571  1.00  0.00     0.167 HD
ATOM     56  C   UNL A   1      40.581  33.094  37.377  1.00  0.00     0.037 A 
ATOM     57  C   UNL A   1      40.168  29.480  31.398  1.00  0.00     0.037 A 
ATOM     58  C   UNL A   1      41.614  32.111  37.192  1.00  0.00     0.049 A 
ATOM     59  C   UNL A   1      41.272  29.244  32.390  1.00  0.00     0.074 A 
ATOM     60  C   UNL A   1      42.658  31.783  38.040  1.00  0.00     0.029 A 
ATOM     61  N   UNL A   1      41.731  31.292  36.078  1.00  0.00    -0.354 N 
ATOM     62  N   UNL A   1      41.478  29.819  33.549  1.00  0.00    -0.248 NA
ATOM     63  C   UNL A   1      42.274  28.228  32.038  1.00  0.00     0.031 C 
ATOM     64  C   UNL A   1      43.423  30.786  37.426  1.00  0.00     0.029 A 
ATOM     65  C   UNL A   1      42.836  30.466  36.212  1.00  0.00     0.049 A 
ATOM     66  H   UNL A   1      41.120  31.298  35.307  1.00  0.00     0.167 HD
ATOM     67  C   UNL A   1      42.617  29.225  34.075  1.00  0.00     0.074 A 
ATOM     68  C   UNL A   1      43.050  28.230  33.114  1.00  0.00     0.031 C 
ATOM     69  C   UNL A   1      43.248  29.480  35.247  1.00  0.00     0.037 A 
BRANCH  56  70
ATOM     70  C   UNL A   1      40.614  33.948  38.610  1.00  0.00     0.064 A 
ATOM     71  C   UNL A   1      41.344  35.146  38.653  1.00  0.00     0.173 A 
ATOM     72  C   UNL A   1      39.904  33.570  39.760  1.00  0.00     0.173 A 
ATOM     73  F   UNL A   1      42.052  35.542  37.584  1.00  0.00    -0.203 F 
ATOM     74  C   UNL A   1      41.396  35.913  39.812  1.00  0.00     0.198 A 
ATOM     75  C   UNL A   1      39.934  34.357  40.909  1.00  0.00     0.198 A 
ATOM     76  F   UNL A   1      39.186  32.438  39.771  1.00  0.00    -0.203 F 
ATOM     77  F   UNL A   1      42.149  37.020  39.848  1.00  0.00    -0.200 F 
ATOM     78  C   UNL A   1      40.687  35.522  40.938  1.00  0.00     0.200 A 
ATOM     79  F   UNL A   1      39.240  33.983  41.992  1.00  0.00    -0.200 F 
ATOM     80  F   UNL A   1      40.737  36.261  42.054  1.00  0.00    -0.200 F 
ENDBRANCH  56  70
BRANCH  57  81
ATOM     81  C   UNL A   1      40.118  28.728  30.117  1.00  0.00     0.064 A 
ATOM     82  C   UNL A   1      40.723  29.241  28.961  1.00  0.00     0.173 A 
ATOM     83  C   UNL A   1      39.481  27.483  30.025  1.00  0.00     0.173 A 
ATOM     84  F   UNL A   1      41.326  30.438  28.995  1.00  0.00    -0.203 F 
ATOM     85  C   UNL A   1      40.677  28.543  27.755  1.00  0.00     0.198 A 
ATOM     86  C   UNL A   1      39.457  26.776  28.825  1.00  0.00     0.198 A 
ATOM     87  F   UNL A   1      38.893  26.949  31.105  1.00  0.00    -0.203 F 
ATOM     88  F   UNL A   1      41.230  29.073  26.656  1.00  0.00    -0.200 F 
ATOM     89  C   UNL A   1      40.049  27.308  27.690  1.00  0.00     0.200 A 
ATOM     90  F   UNL A   1      38.860  25.577  28.769  1.00  0.00    -0.200 F 
ATOM     91  F   UNL A   1      40.011  26.634  26.533  1.00  0.00    -0.200 F 
ENDBRANCH  57  81
BRANCH  69  92
ATOM     92  C   UNL A   1      44.460  28.657  35.567  1.00  0.00     0.064 A 
ATOM     93  C   UNL A   1      44.359  27.449  36.273  1.00  0.00     0.173 A 
ATOM     94  C   UNL A   1      45.729  29.059  35.125  1.00  0.00     0.173 A 
ATOM     95  F   UNL A   1      43.168  27.031  36.729  1.00  0.00    -0.203 F 
ATOM     96  C   UNL A   1      45.489  26.681  36.539  1.00  0.00     0.198 A 
ATOM     97  C   UNL A   1      46.853  28.276  35.372  1.00  0.00     0.198 A 
ATOM     98  F   UNL A   1      45.876  30.204  34.443  1.00  0.00    -0.203 F 
ATOM     99  F   UNL A   1      45.376  25.549  37.248  1.00  0.00    -0.200 F 
ATOM    100  C   UNL A   1      46.733  27.092  36.082  1.00  0.00     0.200 A 
ATOM    101  F   UNL A   1      48.053  28.669  34.921  1.00  0.00    -0.200 F 
ATOM    102  F   UNL A   1      47.819  26.348  36.334  1.00  0.00    -0.200 F 
ENDBRANCH  69  92
ENDBRANCH  43  44
ENDBRANCH  35  38
ENDBRANCH  33  34
ENDBRANCH  32  33
ENDBRANCH  31  32
ENDBRANCH   1  31
TORSDOF 16
ENDMDL
MODEL 2
REMARK VINA RESULT:     -12.1      2.979      5.133
REMARK SMILES COc1ccc(S(=O)(=O)N2CCC[C@H](C(=O)N3CCC[C@H](C(=O)NCCCCNC(=O)c4ccc(-c5c6nc(c(-c7c(F)c(F)c(F)c(F)c7F)c7ccc([nH]7)c(-c7c(F)c(F)c(F)c(F)c7F)c7nc(c(-c8c(F)c(F)c(F)c(F)c8F)c8ccc5[nH]8)C=C7)C=C6)cc4)C3)C2)cc1
REMARK SMILES IDX 25 1 24 2 22 3 23 4 21 6 17 7 18 8 95 9 19 10 20 11 15 12
REMARK SMILES IDX 16 13 14 14 10 15 11 16 96 17 12 18 13 19 7 20 8 21 9 22
REMARK SMILES IDX 6 23 3 24 4 25 98 26 5 27 97 28 2 29 1 30 26 31 27 32 28 33
REMARK SMILES IDX 29 34 30 35 31 37 32 38 33 39 94 40 34 41 93 42 35 43 36 44
REMARK SMILES IDX 37 45 87 46 38 47 92 48 86 49 88 50 39 51 91 52 85 53 84 54
REMARK SMILES IDX 40 56 72 57 52 58 71 59 53 60 56 61 70 62 89 63 54 64 55 65
REMARK SMILES IDX 69 67 90 68 57 69 41 70 42 71 50 72 43 73 44 74 48 75 51 76
REMARK SMILES IDX 45 77 46 78 49 79 47 80 73 81 74 82 82 83 75 84 76 85 80 86
REMARK SMILES IDX 83 87 77 88 78 89 81 90 79 91 58 92 59 93 67 94 60 95 61 96
REMARK SMILES IDX 65 97 68 98 62 99 63 100 66 101 64 102
REMARK H PARENT 24 5 29 36 88 55 56 66
REMARK Flexibility Score: inf
ROOT
ATOM      1  C   UNL A   1      31.703  30.077  25.301  1.00  0.00     0.116 C 
ENDROOT
BRANCH   1   2
ATOM      2  N   UNL A   1      32.977  29.658  24.773  1.00  0.00    -0.356 N 
ATOM      3  C   UNL A   1      33.279  28.585  23.998  1.00  0.00     0.224 C 
ATOM      4  O   UNL A   1      34.407  28.569  23.494  1.00  0.00    -0.275 OA
ATOM      5  H   UNL A   1      33.740  30.234  25.009  1.00  0.00     0.163 HD
BRANCH   3   6
ATOM      6  C   UNL A   1      32.312  27.427  23.717  1.00  0.00     0.098 C 
ATOM      7  N   UNL A   1      33.271  25.110  23.887  1.00  0.00    -0.342 N 
ATOM      8  C   UNL A   1      32.814  24.759  22.546  1.00  0.00     0.119 C 
ATOM      9  C   UNL A   1      32.549  26.175  24.564  1.00  0.00     0.133 C 
ATOM     10  C   UNL A   1      32.703  25.958  21.612  1.00  0.00     0.022 C 
ATOM     11  C   UNL A   1      32.000  27.160  22.240  1.00  0.00     0.017 C 
BRANCH   7  12
ATOM     12  C   UNL A   1      34.443  24.552  24.358  1.00  0.00     0.227 C 
ATOM     13  O   UNL A   1      35.010  25.024  25.352  1.00  0.00    -0.275 OA
BRANCH  12  14
ATOM     14  C   UNL A   1      35.192  23.515  23.520  1.00  0.00     0.094 C 
ATOM     15  N   UNL A   1      33.803  21.597  24.192  1.00  0.00    -0.197 NA
ATOM     16  C   UNL A   1      34.854  20.994  25.032  1.00  0.00     0.102 C 
ATOM     17  C   UNL A   1      34.174  22.476  23.069  1.00  0.00     0.116 C 
ATOM     18  C   UNL A   1      36.233  21.642  24.958  1.00  0.00     0.018 C 
ATOM     19  C   UNL A   1      36.447  22.813  24.007  1.00  0.00     0.016 C 
BRANCH  15  20
ATOM     20  S   UNL A   1      32.326  20.761  24.090  1.00  0.00     0.243 S 
ATOM     21  O   UNL A   1      31.780  20.952  22.769  1.00  0.00    -0.207 OA
ATOM     22  O   UNL A   1      31.567  21.105  25.280  1.00  0.00    -0.207 OA
BRANCH  20  23
ATOM     23  C   UNL A   1      32.720  19.029  24.239  1.00  0.00     0.082 A 
ATOM     24  C   UNL A   1      33.480  16.376  24.652  1.00  0.00     0.118 A 
ATOM     25  C   UNL A   1      32.884  17.100  25.685  1.00  0.00     0.048 A 
ATOM     26  C   UNL A   1      33.637  16.957  23.396  1.00  0.00     0.048 A 
ATOM     27  C   UNL A   1      32.513  18.432  25.487  1.00  0.00     0.025 A 
ATOM     28  C   UNL A   1      33.263  18.285  23.190  1.00  0.00     0.025 A 
BRANCH  24  29
ATOM     29  O   UNL A   1      33.857  15.093  24.942  1.00  0.00    -0.497 OA
ATOM     30  C   UNL A   1      32.838  14.336  25.594  1.00  0.00     0.278 C 
ENDBRANCH  24  29
ENDBRANCH  20  23
ENDBRANCH  15  20
ENDBRANCH  12  14
ENDBRANCH   7  12
ENDBRANCH   3   6
ENDBRANCH   1   2
BRANCH   1  31
ATOM     31  C   UNL A   1      31.761  30.591  26.732  1.00  0.00     0.023 C 
BRANCH  31  32
ATOM     32  C   UNL A   1      31.409  32.065  26.880  1.00  0.00     0.023 C 
BRANCH  32  33
ATOM     33  C   UNL A   1      32.585  33.032  26.781  1.00  0.00     0.116 C 
BRANCH  33  34
ATOM     34  N   UNL A   1      32.478  34.216  27.625  1.00  0.00    -0.352 N 
ATOM     35  C   UNL A   1      33.308  34.587  28.661  1.00  0.00     0.251 C 
ATOM     36  H   UNL A   1      31.726  34.821  27.433  1.00  0.00     0.163 HD
ATOM     37  O   UNL A   1      33.083  35.570  29.355  1.00  0.00    -0.269 OA
BRANCH  35  38
ATOM     38  C   UNL A   1      34.477  33.732  28.950  1.00  0.00     0.039 A 
ATOM     39  C   UNL A   1      35.760  34.260  28.797  1.00  0.00     0.014 A 
ATOM     40  C   UNL A   1      34.286  32.460  29.497  1.00  0.00     0.014 A 
ATOM     41  C   UNL A   1      36.853  33.550  29.296  1.00  0.00     0.010 A 
ATOM     42  C   UNL A   1      35.364  31.796  30.068  1.00  0.00     0.010 A 
ATOM     43  C   UNL A   1      36.657  32.341  29.986  1.00  0.00    -0.014 A 
BRANCH  43  44
ATOM     44  C   UNL A   1      37.782  31.640  30.653  1.00  0.00     0.031 A 
ATOM     45  C   UNL A   1      38.180  32.018  32.051  1.00  0.00     0.074 A 
ATOM     46  C   UNL A   1      38.505  30.733  29.968  1.00  0.00     0.049 A 
ATOM     47  N   UNL A   1      39.188  31.594  32.768  1.00  0.00    -0.248 NA
ATOM     48  C   UNL A   1      37.354  33.039  32.715  1.00  0.00     0.031 C 
ATOM     49  C   UNL A   1      38.269  30.334  28.579  1.00  0.00     0.029 A 
ATOM     50  N   UNL A   1      39.599  29.993  30.342  1.00  0.00    -0.354 N 
ATOM     51  C   UNL A   1      39.129  32.309  33.957  1.00  0.00     0.074 A 
ATOM     52  C   UNL A   1      38.024  33.236  33.840  1.00  0.00     0.031 C 
ATOM     53  C   UNL A   1      39.175  29.407  28.226  1.00  0.00     0.029 A 
ATOM     54  C   UNL A   1      40.074  29.168  29.352  1.00  0.00     0.049 A 
ATOM     55  H   UNL A   1      40.005  30.047  31.238  1.00  0.00     0.167 HD
ATOM     56  C   UNL A   1      39.906  32.184  35.058  1.00  0.00     0.037 A 
ATOM     57  C   UNL A   1      41.117  28.317  29.351  1.00  0.00     0.037 A 
ATOM     58  C   UNL A   1      40.982  31.238  35.186  1.00  0.00     0.049 A 
ATOM     59  C   UNL A   1      41.943  28.167  30.598  1.00  0.00     0.074 A 
ATOM     60  C   UNL A   1      41.789  30.988  36.282  1.00  0.00     0.029 A 
ATOM     61  N   UNL A   1      41.399  30.380  34.178  1.00  0.00    -0.354 N 
ATOM     62  N   UNL A   1      41.834  28.797  31.742  1.00  0.00    -0.248 NA
ATOM     63  C   UNL A   1      43.031  27.180  30.558  1.00  0.00     0.031 C 
ATOM     64  C   UNL A   1      42.713  30.000  35.929  1.00  0.00     0.029 A 
ATOM     65  C   UNL A   1      42.459  29.607  34.623  1.00  0.00     0.049 A 
ATOM     66  H   UNL A   1      41.001  30.330  33.279  1.00  0.00     0.167 HD
ATOM     67  C   UNL A   1      42.821  28.272  32.564  1.00  0.00     0.074 A 
ATOM     68  C   UNL A   1      43.511  27.258  31.792  1.00  0.00     0.031 C 
ATOM     69  C   UNL A   1      43.130  28.600  33.842  1.00  0.00     0.037 A 
BRANCH  56  70
ATOM     70  C   UNL A   1      39.603  33.088  36.216  1.00  0.00     0.064 A 
ATOM     71  C   UNL A   1      38.649  32.742  37.186  1.00  0.00     0.173 A 
ATOM     72  C   UNL A   1      40.275  34.311  36.363  1.00  0.00     0.173 A 
ATOM     73  F   UNL A   1      37.968  31.590  37.081  1.00  0.00    -0.203 F 
ATOM     74  C   UNL A   1      38.350  33.603  38.237  1.00  0.00     0.198 A 
ATOM     75  C   UNL A   1      39.995  35.156  37.434  1.00  0.00     0.198 A 
ATOM     76  F   UNL A   1      41.199  34.688  35.468  1.00  0.00    -0.203 F 
ATOM     77  F   UNL A   1      37.393  33.278  39.116  1.00  0.00    -0.200 F 
ATOM     78  C   UNL A   1      39.026  34.807  38.364  1.00  0.00     0.200 A 
ATOM     79  F   UNL A   1      40.656  36.314  37.562  1.00  0.00    -0.200 F 
ATOM     80  F   UNL A   1      38.738  35.636  39.377  1.00  0.00    -0.200 F 
ENDBRANCH  56  70
BRANCH  57  81
ATOM     81  C   UNL A   1      41.413  27.513  28.138  1.00  0.00     0.064 A 
ATOM     82  C   UNL A   1      42.258  28.010  27.136  1.00  0.00     0.173 A 
ATOM     83  C   UNL A   1      40.871  26.232  27.960  1.00  0.00     0.173 A 
ATOM     84  F   UNL A   1      42.783  29.238  27.253  1.00  0.00    -0.203 F 
ATOM     85  C   UNL A   1      42.537  27.263  25.993  1.00  0.00     0.198 A 
ATOM     86  C   UNL A   1      41.170  25.477  26.828  1.00  0.00     0.198 A 
ATOM     87  F   UNL A   1      40.061  25.711  28.893  1.00  0.00    -0.203 F 
ATOM     88  F   UNL A   1      43.318  27.777  25.034  1.00  0.00    -0.200 F 
ATOM     89  C   UNL A   1      41.998  25.994  25.843  1.00  0.00     0.200 A 
ATOM     90  F   UNL A   1      40.657  24.246  26.692  1.00  0.00    -0.200 F 
ATOM     91  F   UNL A   1      42.271  25.273  24.748  1.00  0.00    -0.200 F 
ENDBRANCH  57  81
BRANCH  69  92
ATOM     92  C   UNL A   1      44.246  27.842  34.495  1.00  0.00     0.064 A 
ATOM     93  C   UNL A   1      45.564  28.322  34.483  1.00  0.00     0.173 A 
ATOM     94  C   UNL A   1      43.986  26.645  35.180  1.00  0.00     0.173 A 
ATOM     95  F   UNL A   1      45.864  29.454  33.829  1.00  0.00    -0.203 F 
ATOM     96  C   UNL A   1      46.585  27.622  35.118  1.00  0.00     0.198 A 
ATOM     97  C   UNL A   1      45.006  25.961  35.835  1.00  0.00     0.198 A 
ATOM     98  F   UNL A   1      42.742  26.149  35.224  1.00  0.00    -0.203 F 
ATOM     99  F   UNL A   1      47.844  28.078  35.061  1.00  0.00    -0.200 F 
ATOM    100  C   UNL A   1      46.304  26.446  35.799  1.00  0.00     0.200 A 
ATOM    101  F   UNL A   1      44.731  24.830  36.501  1.00  0.00    -0.200 F 
ATOM    102  F   UNL A   1      47.288  25.776  36.416  1.00  0.00    -0.200 F 
ENDBRANCH  69  92
ENDBRANCH  43  44
ENDBRANCH  35  38
ENDBRANCH  33  34
ENDBRANCH  32  33
ENDBRANCH  31  32
ENDBRANCH   1  31
TORSDOF 16
ENDMDL
MODEL 3
REMARK VINA RESULT:     -11.9      2.616      8.164
REMARK SMILES COc1ccc(S(=O)(=O)N2CCC[C@H](C(=O)N3CCC[C@H](C(=O)NCCCCNC(=O)c4ccc(-c5c6nc(c(-c7c(F)c(F)c(F)c(F)c7F)c7ccc([nH]7)c(-c7c(F)c(F)c(F)c(F)c7F)c7nc(c(-c8c(F)c(F)c(F)c(F)c8F)c8ccc5[nH]8)C=C7)C=C6)cc4)C3)C2)cc1
REMARK SMILES IDX 25 1 24 2 22 3 23 4 21 6 17 7 18 8 95 9 19 10 20 11 15 12
REMARK SMILES IDX 16 13 14 14 10 15 11 16 96 17 12 18 13 19 7 20 8 21 9 22
REMARK SMILES IDX 6 23 3 24 4 25 98 26 5 27 97 28 2 29 1 30 26 31 27 32 28 33
REMARK SMILES IDX 29 34 30 35 31 37 32 38 33 39 94 40 34 41 93 42 35 43 36 44
REMARK SMILES IDX 37 45 87 46 38 47 92 48 86 49 88 50 39 51 91 52 85 53 84 54
REMARK SMILES IDX 40 56 72 57 52 58 71 59 53 60 56 61 70 62 89 63 54 64 55 65
REMARK SMILES IDX 69 67 90 68 57 69 41 70 42 71 50 72 43 73 44 74 48 75 51 76
REMARK SMILES IDX 45 77 46 78 49 79 47 80 73 81 74 82 82 83 75 84 76 85 80 86
REMARK SMILES IDX 83 87 77 88 78 89 81 90 79 91 58 92 59 93 67 94 60 95 61 96
REMARK SMILES IDX 65 97 68 98 62 99 63 100 66 101 64 102
REMARK H PARENT 24 5 29 36 88 55 56 66
REMARK Flexibility Score: inf
ROOT
ATOM      1  C   UNL A   1      34.350  29.590  27.420  1.00  0.00     0.116 C 
ENDROOT
BRANCH   1   2
ATOM      2  N   UNL A   1      34.137  29.656  25.997  1.00  0.00    -0.356 N 
ATOM      3  C   UNL A   1      33.310  28.920  25.213  1.00  0.00     0.224 C 
ATOM      4  O   UNL A   1      33.146  29.319  24.055  1.00  0.00    -0.275 OA
ATOM      5  H   UNL A   1      34.672  30.335  25.523  1.00  0.00     0.163 HD
BRANCH   3   6
ATOM      6  C   UNL A   1      32.579  27.656  25.683  1.00  0.00     0.098 C 
ATOM      7  N   UNL A   1      33.087  25.541  24.422  1.00  0.00    -0.342 N 
ATOM      8  C   UNL A   1      31.674  25.290  24.155  1.00  0.00     0.119 C 
ATOM      9  C   UNL A   1      33.396  26.366  25.579  1.00  0.00     0.133 C 
ATOM     10  C   UNL A   1      30.835  26.561  24.100  1.00  0.00     0.022 C 
ATOM     11  C   UNL A   1      31.114  27.529  25.247  1.00  0.00     0.017 C 
BRANCH   7  12
ATOM     12  C   UNL A   1      34.022  25.143  23.488  1.00  0.00     0.227 C 
ATOM     13  O   UNL A   1      33.906  25.472  22.300  1.00  0.00    -0.275 OA
BRANCH  12  14
ATOM     14  C   UNL A   1      35.068  24.085  23.848  1.00  0.00     0.094 C 
ATOM     15  N   UNL A   1      33.454  22.368  24.558  1.00  0.00    -0.197 NA
ATOM     16  C   UNL A   1      33.777  22.505  25.990  1.00  0.00     0.102 C 
ATOM     17  C   UNL A   1      34.458  22.724  23.541  1.00  0.00     0.116 C 
ATOM     18  C   UNL A   1      34.967  23.396  26.332  1.00  0.00     0.018 C 
ATOM     19  C   UNL A   1      35.758  24.036  25.199  1.00  0.00     0.016 C 
BRANCH  15  20
ATOM     20  S   UNL A   1      32.279  21.211  24.142  1.00  0.00     0.243 S 
ATOM     21  O   UNL A   1      31.803  21.497  22.812  1.00  0.00    -0.207 OA
ATOM     22  O   UNL A   1      31.367  21.116  25.269  1.00  0.00    -0.207 OA
BRANCH  20  23
ATOM     23  C   UNL A   1      33.126  19.645  24.060  1.00  0.00     0.082 A 
ATOM     24  C   UNL A   1      34.270  17.099  24.050  1.00  0.00     0.118 A 
ATOM     25  C   UNL A   1      33.017  17.304  23.470  1.00  0.00     0.048 A 
ATOM     26  C   UNL A   1      34.978  18.178  24.576  1.00  0.00     0.048 A 
ATOM     27  C   UNL A   1      32.435  18.573  23.484  1.00  0.00     0.025 A 
ATOM     28  C   UNL A   1      34.405  19.449  24.587  1.00  0.00     0.025 A 
BRANCH  24  29
ATOM     29  O   UNL A   1      34.749  15.818  24.036  1.00  0.00    -0.497 OA
ATOM     30  C   UNL A   1      35.360  15.427  25.264  1.00  0.00     0.278 C 
ENDBRANCH  24  29
ENDBRANCH  20  23
ENDBRANCH  15  20
ENDBRANCH  12  14
ENDBRANCH   7  12
ENDBRANCH   3   6
ENDBRANCH   1   2
BRANCH   1  31
ATOM     31  C   UNL A   1      34.989  30.838  28.014  1.00  0.00     0.023 C 
BRANCH  31  32
ATOM     32  C   UNL A   1      34.415  32.144  27.483  1.00  0.00     0.023 C 
BRANCH  32  33
ATOM     33  C   UNL A   1      32.980  32.448  27.904  1.00  0.00     0.116 C 
BRANCH  33  34
ATOM     34  N   UNL A   1      32.619  33.860  27.881  1.00  0.00    -0.352 N 
ATOM     35  C   UNL A   1      33.192  34.886  28.602  1.00  0.00     0.251 C 
ATOM     36  H   UNL A   1      31.882  34.111  27.278  1.00  0.00     0.163 HD
ATOM     37  O   UNL A   1      32.761  36.031  28.559  1.00  0.00    -0.269 OA
BRANCH  35  38
ATOM     38  C   UNL A   1      34.334  34.560  29.479  1.00  0.00     0.039 A 
ATOM     39  C   UNL A   1      34.095  33.926  30.700  1.00  0.00     0.014 A 
ATOM     40  C   UNL A   1      35.639  34.764  29.021  1.00  0.00     0.014 A 
ATOM     41  C   UNL A   1      35.171  33.399  31.416  1.00  0.00     0.010 A 
ATOM     42  C   UNL A   1      36.697  34.164  29.691  1.00  0.00     0.010 A 
ATOM     43  C   UNL A   1      36.472  33.463  30.887  1.00  0.00    -0.014 A 
BRANCH  43  44
ATOM     44  C   UNL A   1      37.611  32.784  31.554  1.00  0.00     0.031 A 
ATOM     45  C   UNL A   1      38.280  31.614  30.892  1.00  0.00     0.074 A 
ATOM     46  C   UNL A   1      37.980  33.158  32.795  1.00  0.00     0.049 A 
ATOM     47  N   UNL A   1      39.222  30.830  31.349  1.00  0.00    -0.248 NA
ATOM     48  C   UNL A   1      37.795  31.253  29.550  1.00  0.00     0.031 C 
ATOM     49  C   UNL A   1      37.360  34.229  33.577  1.00  0.00     0.029 A 
ATOM     50  N   UNL A   1      38.958  32.667  33.624  1.00  0.00    -0.354 N 
ATOM     51  C   UNL A   1      39.428  29.876  30.362  1.00  0.00     0.074 A 
ATOM     52  C   UNL A   1      38.471  30.141  29.310  1.00  0.00     0.031 C 
ATOM     53  C   UNL A   1      37.986  34.329  34.762  1.00  0.00     0.029 A 
ATOM     54  C   UNL A   1      39.029  33.311  34.835  1.00  0.00     0.049 A 
ATOM     55  H   UNL A   1      39.553  31.924  33.373  1.00  0.00     0.167 HD
ATOM     56  C   UNL A   1      40.351  28.886  30.323  1.00  0.00     0.037 A 
ATOM     57  C   UNL A   1      39.844  33.103  35.886  1.00  0.00     0.037 A 
ATOM     58  C   UNL A   1      41.324  28.646  31.354  1.00  0.00     0.049 A 
ATOM     59  C   UNL A   1      40.887  32.022  35.805  1.00  0.00     0.074 A 
ATOM     60  C   UNL A   1      42.343  27.710  31.381  1.00  0.00     0.029 A 
ATOM     61  N   UNL A   1      41.400  29.355  32.544  1.00  0.00    -0.354 N 
ATOM     62  N   UNL A   1      41.120  31.171  34.836  1.00  0.00    -0.248 NA
ATOM     63  C   UNL A   1      41.786  31.880  36.958  1.00  0.00     0.031 C 
ATOM     64  C   UNL A   1      43.017  27.832  32.601  1.00  0.00     0.029 A 
ATOM     65  C   UNL A   1      42.443  28.870  33.318  1.00  0.00     0.049 A 
ATOM     66  H   UNL A   1      40.802  30.093  32.802  1.00  0.00     0.167 HD
ATOM     67  C   UNL A   1      42.201  30.406  35.251  1.00  0.00     0.074 A 
ATOM     68  C   UNL A   1      42.591  30.906  36.554  1.00  0.00     0.031 C 
ATOM     69  C   UNL A   1      42.817  29.382  34.611  1.00  0.00     0.037 A 
BRANCH  56  70
ATOM     70  C   UNL A   1      40.354  28.001  29.111  1.00  0.00     0.064 A 
ATOM     71  C   UNL A   1      39.614  26.810  29.072  1.00  0.00     0.173 A 
ATOM     72  C   UNL A   1      41.100  28.349  27.975  1.00  0.00     0.173 A 
ATOM     73  F   UNL A   1      38.897  26.425  30.140  1.00  0.00    -0.203 F 
ATOM     74  C   UNL A   1      39.651  25.979  27.956  1.00  0.00     0.198 A 
ATOM     75  C   UNL A   1      41.110  27.530  26.848  1.00  0.00     0.198 A 
ATOM     76  F   UNL A   1      41.821  29.479  27.958  1.00  0.00    -0.203 F 
ATOM     77  F   UNL A   1      38.985  24.817  27.966  1.00  0.00    -0.200 F 
ATOM     78  C   UNL A   1      40.394  26.342  26.844  1.00  0.00     0.200 A 
ATOM     79  F   UNL A   1      41.820  27.887  25.770  1.00  0.00    -0.200 F 
ATOM     80  F   UNL A   1      40.430  25.541  25.769  1.00  0.00    -0.200 F 
ENDBRANCH  56  70
BRANCH  57  81
ATOM     81  C   UNL A   1      39.729  33.963  37.091  1.00  0.00     0.064 A 
ATOM     82  C   UNL A   1      40.410  35.187  37.167  1.00  0.00     0.173 A 
ATOM     83  C   UNL A   1      38.931  33.591  38.182  1.00  0.00     0.173 A 
ATOM     84  F   UNL A   1      41.202  35.575  36.157  1.00  0.00    -0.203 F 
ATOM     85  C   UNL A   1      40.310  35.998  38.295  1.00  0.00     0.198 A 
ATOM     86  C   UNL A   1      38.813  34.414  39.300  1.00  0.00     0.198 A 
ATOM     87  F   UNL A   1      38.256  32.433  38.155  1.00  0.00    -0.203 F 
ATOM     88  F   UNL A   1      41.001  37.144  38.357  1.00  0.00    -0.200 F 
ATOM     89  C   UNL A   1      39.507  35.614  39.359  1.00  0.00     0.200 A 
ATOM     90  F   UNL A   1      38.027  34.046  40.321  1.00  0.00    -0.200 F 
ATOM     91  F   UNL A   1      39.406  36.396  40.442  1.00  0.00    -0.200 F 
ENDBRANCH  57  81
BRANCH  69  92
ATOM     92  C   UNL A   1      43.989  28.748  35.298  1.00  0.00     0.064 A 
ATOM     93  C   UNL A   1      43.834  27.626  36.125  1.00  0.00     0.173 A 
ATOM     94  C   UNL A   1      45.286  29.242  35.090  1.00  0.00     0.173 A 
ATOM     95  F   UNL A   1      42.612  27.128  36.365  1.00  0.00    -0.203 F 
ATOM     96  C   UNL A   1      44.935  27.031  36.734  1.00  0.00     0.198 A 
ATOM     97  C   UNL A   1      46.387  28.628  35.681  1.00  0.00     0.198 A 
ATOM     98  F   UNL A   1      45.485  30.309  34.304  1.00  0.00    -0.203 F 
ATOM     99  F   UNL A   1      44.762  25.983  37.551  1.00  0.00    -0.200 F 
ATOM    100  C   UNL A   1      46.210  27.528  36.505  1.00  0.00     0.200 A 
ATOM    101  F   UNL A   1      47.619  29.103  35.451  1.00  0.00    -0.200 F 
ATOM    102  F   UNL A   1      47.270  26.949  37.087  1.00  0.00    -0.200 F 
ENDBRANCH  69  92
ENDBRANCH  43  44
ENDBRANCH  35  38
ENDBRANCH  33  34
ENDBRANCH  32  33
ENDBRANCH  31  32
ENDBRANCH   1  31
TORSDOF 16
ENDMDL
