MODEL 1
REMARK VINA RESULT:     -12.3      0.000      0.000
REMARK SMILES O=C(NCCCCNC(=O)[C@@H]1C[NH2+]C[C@H]1c1ccncc1)c1ccc(-c2c3nc(c(-c4c(F)c(F)c(F)c(F)c4F)c4ccc([nH]4)c(-c4c(F)c(F)c(F)c(F)c4F)c4nc(c(-c5c(F)c(F)c(F)c(F)c5F)c5ccc2[nH]5)C=C4)C=C3)cc1
REMARK SMILES IDX 5 1 4 2 3 3 1 4 2 5 22 7 23 8 84 9 24 10 83 11 25 12 26 13
REMARK SMILES IDX 27 14 77 15 28 16 82 17 76 18 78 19 29 20 81 21 75 22 74 23
REMARK SMILES IDX 30 25 62 26 42 27 61 28 43 29 46 30 60 31 79 32 44 33 45 34
REMARK SMILES IDX 59 36 80 37 47 38 31 39 32 40 40 41 33 42 34 43 38 44 41 45
REMARK SMILES IDX 35 46 36 47 39 48 37 49 63 50 64 51 72 52 65 53 66 54 70 55
REMARK SMILES IDX 73 56 67 57 68 58 71 59 69 60 48 61 49 62 57 63 50 64 51 65
REMARK SMILES IDX 55 66 58 67 52 68 53 69 56 70 54 71 6 72 7 73 8 74 9 75
REMARK SMILES IDX 10 77 11 78 12 79 15 80 13 81 14 82 16 85 17 86 21 87 18 88
REMARK SMILES IDX 20 89 19 90
REMARK H PARENT 3 6 78 24 46 35 8 76 13 83 13 84
REMARK Flexibility Score: inf
ROOT
ATOM      1  C   UNL A   1      31.415  32.284  26.501  1.00  0.00     0.023 C 
ENDROOT
BRANCH   1   2
ATOM      2  C   UNL A   1      32.631  32.840  27.230  1.00  0.00     0.116 C 
BRANCH   2   3
ATOM      3  N   UNL A   1      32.441  34.203  27.701  1.00  0.00    -0.352 N 
ATOM      4  O   UNL A   1      32.739  35.984  29.056  1.00  0.00    -0.269 OA
ATOM      5  C   UNL A   1      33.109  34.870  28.699  1.00  0.00     0.251 C 
ATOM      6  H   UNL A   1      31.737  34.718  27.243  1.00  0.00     0.163 HD
BRANCH   5   7
ATOM      7  C   UNL A   1      34.262  34.225  29.361  1.00  0.00     0.039 A 
ATOM      8  C   UNL A   1      35.568  34.521  28.962  1.00  0.00     0.014 A 
ATOM      9  C   UNL A   1      34.029  33.305  30.388  1.00  0.00     0.014 A 
ATOM     10  C   UNL A   1      36.631  33.802  29.497  1.00  0.00     0.010 A 
ATOM     11  C   UNL A   1      35.105  32.641  30.981  1.00  0.00     0.010 A 
ATOM     12  C   UNL A   1      36.412  32.865  30.520  1.00  0.00    -0.014 A 
BRANCH  12  13
ATOM     13  C   UNL A   1      37.575  32.180  31.136  1.00  0.00     0.031 A 
ATOM     14  C   UNL A   1      38.026  32.514  32.529  1.00  0.00     0.074 A 
ATOM     15  C   UNL A   1      38.210  31.230  30.424  1.00  0.00     0.049 A 
ATOM     16  N   UNL A   1      39.017  32.003  33.218  1.00  0.00    -0.248 NA
ATOM     17  C   UNL A   1      37.275  33.557  33.243  1.00  0.00     0.031 C 
ATOM     18  C   UNL A   1      37.866  30.833  29.057  1.00  0.00     0.029 A 
ATOM     19  N   UNL A   1      39.263  30.416  30.751  1.00  0.00    -0.354 N 
ATOM     20  C   UNL A   1      39.019  32.673  34.434  1.00  0.00     0.074 A 
ATOM     21  C   UNL A   1      37.945  33.642  34.385  1.00  0.00     0.031 C 
ATOM     22  C   UNL A   1      38.665  29.827  28.676  1.00  0.00     0.029 A 
ATOM     23  C   UNL A   1      39.614  29.547  29.748  1.00  0.00     0.049 A 
ATOM     24  H   UNL A   1      39.724  30.450  31.621  1.00  0.00     0.167 HD
ATOM     25  C   UNL A   1      39.841  32.487  35.495  1.00  0.00     0.037 A 
ATOM     26  C   UNL A   1      40.602  28.636  29.689  1.00  0.00     0.037 A 
ATOM     27  C   UNL A   1      40.896  31.506  35.544  1.00  0.00     0.049 A 
ATOM     28  C   UNL A   1      41.506  28.465  30.875  1.00  0.00     0.074 A 
ATOM     29  C   UNL A   1      41.758  31.215  36.588  1.00  0.00     0.029 A 
ATOM     30  N   UNL A   1      41.236  30.657  34.499  1.00  0.00    -0.354 N 
ATOM     31  N   UNL A   1      41.476  29.080  32.032  1.00  0.00    -0.248 NA
ATOM     32  C   UNL A   1      42.582  27.473  30.747  1.00  0.00     0.031 C 
ATOM     33  C   UNL A   1      42.645  30.221  36.162  1.00  0.00     0.029 A 
ATOM     34  C   UNL A   1      42.307  29.858  34.868  1.00  0.00     0.049 A 
ATOM     35  H   UNL A   1      40.782  30.627  33.627  1.00  0.00     0.167 HD
ATOM     36  C   UNL A   1      42.517  28.543  32.774  1.00  0.00     0.074 A 
ATOM     37  C   UNL A   1      43.145  27.535  31.945  1.00  0.00     0.031 C 
ATOM     38  C   UNL A   1      42.918  28.859  34.030  1.00  0.00     0.037 A 
BRANCH  25  39
ATOM     39  C   UNL A   1      39.649  33.368  36.695  1.00  0.00     0.064 A 
ATOM     40  C   UNL A   1      40.291  34.610  36.808  1.00  0.00     0.173 A 
ATOM     41  C   UNL A   1      38.760  32.995  37.714  1.00  0.00     0.173 A 
ATOM     42  F   UNL A   1      41.159  35.009  35.865  1.00  0.00    -0.203 F 
ATOM     43  C   UNL A   1      40.060  35.439  37.903  1.00  0.00     0.198 A 
ATOM     44  C   UNL A   1      38.513  33.836  38.796  1.00  0.00     0.198 A 
ATOM     45  F   UNL A   1      38.115  31.820  37.653  1.00  0.00    -0.203 F 
ATOM     46  F   UNL A   1      40.708  36.608  38.004  1.00  0.00    -0.200 F 
ATOM     47  C   UNL A   1      39.166  35.057  38.891  1.00  0.00     0.200 A 
ATOM     48  F   UNL A   1      37.639  33.470  39.744  1.00  0.00    -0.200 F 
ATOM     49  F   UNL A   1      38.936  35.861  39.938  1.00  0.00    -0.200 F 
ENDBRANCH  25  39
BRANCH  26  50
ATOM     50  C   UNL A   1      40.784  27.827  28.458  1.00  0.00     0.064 A 
ATOM     51  C   UNL A   1      40.147  26.587  28.309  1.00  0.00     0.173 A 
ATOM     52  C   UNL A   1      41.585  28.282  27.401  1.00  0.00     0.173 A 
ATOM     53  F   UNL A   1      39.386  26.101  29.300  1.00  0.00    -0.203 F 
ATOM     54  C   UNL A   1      40.318  25.827  27.153  1.00  0.00     0.198 A 
ATOM     55  C   UNL A   1      41.730  27.536  26.234  1.00  0.00     0.198 A 
ATOM     56  F   UNL A   1      42.210  29.466  27.493  1.00  0.00    -0.203 F 
ATOM     57  F   UNL A   1      39.731  24.627  27.052  1.00  0.00    -0.200 F 
ATOM     58  C   UNL A   1      41.103  26.305  26.115  1.00  0.00     0.200 A 
ATOM     59  F   UNL A   1      42.475  28.009  25.226  1.00  0.00    -0.200 F 
ATOM     60  F   UNL A   1      41.259  25.578  25.000  1.00  0.00    -0.200 F 
ENDBRANCH  26  50
BRANCH  38  61
ATOM     61  C   UNL A   1      44.076  28.087  34.587  1.00  0.00     0.064 A 
ATOM     62  C   UNL A   1      45.394  28.545  34.456  1.00  0.00     0.173 A 
ATOM     63  C   UNL A   1      43.860  26.888  35.283  1.00  0.00     0.173 A 
ATOM     64  F   UNL A   1      45.651  29.678  33.783  1.00  0.00    -0.203 F 
ATOM     65  C   UNL A   1      46.459  27.817  34.978  1.00  0.00     0.198 A 
ATOM     66  C   UNL A   1      44.924  26.177  35.827  1.00  0.00     0.198 A 
ATOM     67  F   UNL A   1      42.616  26.411  35.439  1.00  0.00    -0.203 F 
ATOM     68  F   UNL A   1      47.715  28.247  34.798  1.00  0.00    -0.200 F 
ATOM     69  C   UNL A   1      46.223  26.637  35.669  1.00  0.00     0.200 A 
ATOM     70  F   UNL A   1      44.695  25.041  36.503  1.00  0.00    -0.200 F 
ATOM     71  F   UNL A   1      47.249  25.938  36.173  1.00  0.00    -0.200 F 
ENDBRANCH  38  61
ENDBRANCH  12  13
ENDBRANCH   5   7
ENDBRANCH   2   3
ENDBRANCH   1   2
BRANCH   1  72
ATOM     72  C   UNL A   1      31.403  30.765  26.322  1.00  0.00     0.023 C 
BRANCH  72  73
ATOM     73  C   UNL A   1      32.785  30.125  26.199  1.00  0.00     0.116 C 
BRANCH  73  74
ATOM     74  N   UNL A   1      33.113  29.834  24.816  1.00  0.00    -0.356 N 
ATOM     75  C   UNL A   1      32.396  29.144  23.881  1.00  0.00     0.229 C 
ATOM     76  H   UNL A   1      33.980  30.183  24.507  1.00  0.00     0.163 HD
ATOM     77  O   UNL A   1      32.922  28.953  22.786  1.00  0.00    -0.275 OA
BRANCH  75  78
ATOM     78  C   UNL A   1      31.002  28.650  24.231  1.00  0.00     0.146 C 
ATOM     79  C   UNL A   1      31.078  27.214  24.726  1.00  0.00     0.274 C 
ATOM     80  C   UNL A   1      30.039  28.538  23.033  1.00  0.00     0.092 C 
ATOM     81  N   UNL A   1      29.704  26.721  24.626  1.00  0.00    -0.345 N 
ATOM     82  C   UNL A   1      29.182  27.296  23.374  1.00  0.00     0.269 C 
ATOM     83  H   UNL A   1      29.151  27.035  25.424  1.00  0.00     0.346 HD
ATOM     84  H   UNL A   1      29.661  25.701  24.626  1.00  0.00     0.346 HD
BRANCH  80  85
ATOM     85  C   UNL A   1      29.323  29.843  22.720  1.00  0.00    -0.035 A 
ATOM     86  C   UNL A   1      29.087  30.751  23.765  1.00  0.00     0.024 A 
ATOM     87  C   UNL A   1      28.889  30.220  21.445  1.00  0.00     0.024 A 
ATOM     88  C   UNL A   1      28.445  31.953  23.501  1.00  0.00     0.111 A 
ATOM     89  C   UNL A   1      28.269  31.454  21.276  1.00  0.00     0.111 A 
ATOM     90  N   UNL A   1      28.029  32.325  22.276  1.00  0.00    -0.265 NA
ENDBRANCH  80  85
ENDBRANCH  75  78
ENDBRANCH  73  74
ENDBRANCH  72  73
ENDBRANCH   1  72
TORSDOF 12
ENDMDL
MODEL 2
REMARK VINA RESULT:     -12.2      0.607      1.798
REMARK SMILES O=C(NCCCCNC(=O)[C@@H]1C[NH2+]C[C@H]1c1ccncc1)c1ccc(-c2c3nc(c(-c4c(F)c(F)c(F)c(F)c4F)c4ccc([nH]4)c(-c4c(F)c(F)c(F)c(F)c4F)c4nc(c(-c5c(F)c(F)c(F)c(F)c5F)c5ccc2[nH]5)C=C4)C=C3)cc1
REMARK SMILES IDX 5 1 4 2 3 3 1 4 2 5 22 7 23 8 84 9 24 10 83 11 25 12 26 13
REMARK SMILES IDX 27 14 77 15 28 16 82 17 76 18 78 19 29 20 81 21 75 22 74 23
REMARK SMILES IDX 30 25 62 26 42 27 61 28 43 29 46 30 60 31 79 32 44 33 45 34
REMARK SMILES IDX 59 36 80 37 47 38 31 39 32 40 40 41 33 42 34 43 38 44 41 45
REMARK SMILES IDX 35 46 36 47 39 48 37 49 63 50 64 51 72 52 65 53 66 54 70 55
REMARK SMILES IDX 73 56 67 57 68 58 71 59 69 60 48 61 49 62 57 63 50 64 51 65
REMARK SMILES IDX 55 66 58 67 52 68 53 69 56 70 54 71 6 72 7 73 8 74 9 75
REMARK SMILES IDX 10 77 11 78 12 79 15 80 13 81 14 82 16 85 17 86 21 87 18 88
REMARK SMILES IDX 20 89 19 90
REMARK H PARENT 3 6 78 24 46 35 8 76 13 83 13 84
REMARK Flexibility Score: inf
ROOT
ATOM      1  C   UNL A   1      31.340  32.060  26.875  1.00  0.00     0.023 C 
ENDROOT
BRANCH   1   2
ATOM      2  C   UNL A   1      32.617  32.856  27.101  1.00  0.00     0.116 C 
BRANCH   2   3
ATOM      3  N   UNL A   1      32.372  34.203  27.595  1.00  0.00    -0.352 N 
ATOM      4  O   UNL A   1      32.592  35.970  28.982  1.00  0.00    -0.269 OA
ATOM      5  C   UNL A   1      33.008  34.877  28.608  1.00  0.00     0.251 C 
ATOM      6  H   UNL A   1      31.651  34.698  27.140  1.00  0.00     0.163 HD
BRANCH   5   7
ATOM      7  C   UNL A   1      34.180  34.266  29.267  1.00  0.00     0.039 A 
ATOM      8  C   UNL A   1      35.475  34.579  28.846  1.00  0.00     0.014 A 
ATOM      9  C   UNL A   1      33.977  33.361  30.313  1.00  0.00     0.014 A 
ATOM     10  C   UNL A   1      36.558  33.890  29.380  1.00  0.00     0.010 A 
ATOM     11  C   UNL A   1      35.074  32.728  30.904  1.00  0.00     0.010 A 
ATOM     12  C   UNL A   1      36.370  32.967  30.422  1.00  0.00    -0.014 A 
BRANCH  12  13
ATOM     13  C   UNL A   1      37.553  32.316  31.035  1.00  0.00     0.031 A 
ATOM     14  C   UNL A   1      38.017  32.684  32.416  1.00  0.00     0.074 A 
ATOM     15  C   UNL A   1      38.196  31.363  30.334  1.00  0.00     0.049 A 
ATOM     16  N   UNL A   1      39.025  32.205  33.101  1.00  0.00    -0.248 NA
ATOM     17  C   UNL A   1      37.256  33.728  33.120  1.00  0.00     0.031 C 
ATOM     18  C   UNL A   1      37.841  30.934  28.979  1.00  0.00     0.029 A 
ATOM     19  N   UNL A   1      39.268  30.575  30.662  1.00  0.00    -0.354 N 
ATOM     20  C   UNL A   1      39.032  32.898  34.304  1.00  0.00     0.074 A 
ATOM     21  C   UNL A   1      37.940  33.847  34.250  1.00  0.00     0.031 C 
ATOM     22  C   UNL A   1      38.653  29.935  28.607  1.00  0.00     0.029 A 
ATOM     23  C   UNL A   1      39.621  29.693  29.671  1.00  0.00     0.049 A 
ATOM     24  H   UNL A   1      39.739  30.634  31.524  1.00  0.00     0.167 HD
ATOM     25  C   UNL A   1      39.871  32.748  35.356  1.00  0.00     0.037 A 
ATOM     26  C   UNL A   1      40.624  28.799  29.615  1.00  0.00     0.037 A 
ATOM     27  C   UNL A   1      40.944  31.787  35.410  1.00  0.00     0.049 A 
ATOM     28  C   UNL A   1      41.547  28.667  30.792  1.00  0.00     0.074 A 
ATOM     29  C   UNL A   1      41.825  31.532  36.447  1.00  0.00     0.029 A 
ATOM     30  N   UNL A   1      41.285  30.925  34.377  1.00  0.00    -0.354 N 
ATOM     31  N   UNL A   1      41.521  29.304  31.938  1.00  0.00    -0.248 NA
ATOM     32  C   UNL A   1      42.639  27.692  30.669  1.00  0.00     0.031 C 
ATOM     33  C   UNL A   1      42.724  30.545  36.028  1.00  0.00     0.029 A 
ATOM     34  C   UNL A   1      42.375  30.152  34.746  1.00  0.00     0.049 A 
ATOM     35  H   UNL A   1      40.821  30.869  33.512  1.00  0.00     0.167 HD
ATOM     36  C   UNL A   1      42.581  28.800  32.676  1.00  0.00     0.074 A 
ATOM     37  C   UNL A   1      43.217  27.788  31.858  1.00  0.00     0.031 C 
ATOM     38  C   UNL A   1      42.993  29.148  33.920  1.00  0.00     0.037 A 
BRANCH  25  39
ATOM     39  C   UNL A   1      39.679  33.649  36.542  1.00  0.00     0.064 A 
ATOM     40  C   UNL A   1      40.267  34.921  36.604  1.00  0.00     0.173 A 
ATOM     41  C   UNL A   1      38.842  33.262  37.599  1.00  0.00     0.173 A 
ATOM     42  F   UNL A   1      41.083  35.335  35.623  1.00  0.00    -0.203 F 
ATOM     43  C   UNL A   1      40.035  35.765  37.687  1.00  0.00     0.198 A 
ATOM     44  C   UNL A   1      38.593  34.117  38.669  1.00  0.00     0.198 A 
ATOM     45  F   UNL A   1      38.251  32.058  37.587  1.00  0.00    -0.203 F 
ATOM     46  F   UNL A   1      40.632  36.964  37.739  1.00  0.00    -0.200 F 
ATOM     47  C   UNL A   1      39.193  35.367  38.714  1.00  0.00     0.200 A 
ATOM     48  F   UNL A   1      37.770  33.735  39.655  1.00  0.00    -0.200 F 
ATOM     49  F   UNL A   1      38.961  36.186  39.749  1.00  0.00    -0.200 F 
ENDBRANCH  25  39
BRANCH  26  50
ATOM     50  C   UNL A   1      40.805  27.969  28.398  1.00  0.00     0.064 A 
ATOM     51  C   UNL A   1      41.572  28.428  27.319  1.00  0.00     0.173 A 
ATOM     52  C   UNL A   1      40.225  26.695  28.295  1.00  0.00     0.173 A 
ATOM     53  F   UNL A   1      42.130  29.646  27.364  1.00  0.00    -0.203 F 
ATOM     54  C   UNL A   1      41.742  27.648  26.176  1.00  0.00     0.198 A 
ATOM     55  C   UNL A   1      40.421  25.905  27.165  1.00  0.00     0.198 A 
ATOM     56  F   UNL A   1      39.488  26.209  29.305  1.00  0.00    -0.203 F 
ATOM     57  F   UNL A   1      42.447  28.125  25.143  1.00  0.00    -0.200 F 
ATOM     58  C   UNL A   1      41.173  26.386  26.103  1.00  0.00     0.200 A 
ATOM     59  F   UNL A   1      39.884  24.680  27.106  1.00  0.00    -0.200 F 
ATOM     60  F   UNL A   1      41.344  25.633  25.008  1.00  0.00    -0.200 F 
ENDBRANCH  26  50
BRANCH  38  61
ATOM     61  C   UNL A   1      44.173  28.407  34.476  1.00  0.00     0.064 A 
ATOM     62  C   UNL A   1      44.018  27.203  35.177  1.00  0.00     0.173 A 
ATOM     63  C   UNL A   1      45.473  28.897  34.283  1.00  0.00     0.173 A 
ATOM     64  F   UNL A   1      42.792  26.705  35.401  1.00  0.00    -0.203 F 
ATOM     65  C   UNL A   1      45.123  26.527  35.688  1.00  0.00     0.198 A 
ATOM     66  C   UNL A   1      46.576  28.205  34.772  1.00  0.00     0.198 A 
ATOM     67  F   UNL A   1      45.672  30.043  33.615  1.00  0.00    -0.203 F 
ATOM     68  F   UNL A   1      44.949  25.404  36.397  1.00  0.00    -0.200 F 
ATOM     69  C   UNL A   1      46.401  27.025  35.480  1.00  0.00     0.200 A 
ATOM     70  F   UNL A   1      47.812  28.682  34.563  1.00  0.00    -0.200 F 
ATOM     71  F   UNL A   1      47.463  26.372  35.971  1.00  0.00    -0.200 F 
ENDBRANCH  38  61
ENDBRANCH  12  13
ENDBRANCH   5   7
ENDBRANCH   2   3
ENDBRANCH   1   2
BRANCH   1  72
ATOM     72  C   UNL A   1      31.470  30.884  25.906  1.00  0.00     0.023 C 
BRANCH  72  73
ATOM     73  C   UNL A   1      32.753  30.068  26.061  1.00  0.00     0.116 C 
BRANCH  73  74
ATOM     74  N   UNL A   1      33.314  29.712  24.771  1.00  0.00    -0.356 N 
ATOM     75  C   UNL A   1      32.974  28.695  23.927  1.00  0.00     0.229 C 
ATOM     76  H   UNL A   1      34.049  30.288  24.460  1.00  0.00     0.163 HD
ATOM     77  O   UNL A   1      33.655  28.541  22.915  1.00  0.00    -0.275 OA
BRANCH  75  78
ATOM     78  C   UNL A   1      31.787  27.811  24.272  1.00  0.00     0.146 C 
ATOM     79  C   UNL A   1      32.281  26.468  24.787  1.00  0.00     0.274 C 
ATOM     80  C   UNL A   1      30.916  27.403  23.067  1.00  0.00     0.092 C 
ATOM     81  N   UNL A   1      31.119  25.586  24.683  1.00  0.00    -0.345 N 
ATOM     82  C   UNL A   1      30.465  25.966  23.418  1.00  0.00     0.269 C 
ATOM     83  H   UNL A   1      30.487  25.730  25.471  1.00  0.00     0.346 HD
ATOM     84  H   UNL A   1      31.383  24.601  24.697  1.00  0.00     0.346 HD
BRANCH  80  85
ATOM     85  C   UNL A   1      29.847  28.431  22.729  1.00  0.00    -0.035 A 
ATOM     86  C   UNL A   1      28.530  28.202  23.158  1.00  0.00     0.024 A 
ATOM     87  C   UNL A   1      30.085  29.615  22.023  1.00  0.00     0.024 A 
ATOM     88  C   UNL A   1      27.540  29.131  22.870  1.00  0.00     0.111 A 
ATOM     89  C   UNL A   1      29.030  30.494  21.796  1.00  0.00     0.111 A 
ATOM     90  N   UNL A   1      27.762  30.275  22.197  1.00  0.00    -0.265 NA
ENDBRANCH  80  85
ENDBRANCH  75  78
ENDBRANCH  73  74
ENDBRANCH  72  73
ENDBRANCH   1  72
TORSDOF 12
ENDMDL
MODEL 3
REMARK VINA RESULT:     -12.2      0.496      7.714
REMARK SMILES O=C(NCCCCNC(=O)[C@@H]1C[NH2+]C[C@H]1c1ccncc1)c1ccc(-c2c3nc(c(-c4c(F)c(F)c(F)c(F)c4F)c4ccc([nH]4)c(-c4c(F)c(F)c(F)c(F)c4F)c4nc(c(-c5c(F)c(F)c(F)c(F)c5F)c5ccc2[nH]5)C=C4)C=C3)cc1
REMARK SMILES IDX 5 1 4 2 3 3 1 4 2 5 22 7 23 8 84 9 24 10 83 11 25 12 26 13
REMARK SMILES IDX 27 14 77 15 28 16 82 17 76 18 78 19 29 20 81 21 75 22 74 23
REMARK SMILES IDX 30 25 62 26 42 27 61 28 43 29 46 30 60 31 79 32 44 33 45 34
REMARK SMILES IDX 59 36 80 37 47 38 31 39 32 40 40 41 33 42 34 43 38 44 41 45
REMARK SMILES IDX 35 46 36 47 39 48 37 49 63 50 64 51 72 52 65 53 66 54 70 55
REMARK SMILES IDX 73 56 67 57 68 58 71 59 69 60 48 61 49 62 57 63 50 64 51 65
REMARK SMILES IDX 55 66 58 67 52 68 53 69 56 70 54 71 6 72 7 73 8 74 9 75
REMARK SMILES IDX 10 77 11 78 12 79 15 80 13 81 14 82 16 85 17 86 21 87 18 88
REMARK SMILES IDX 20 89 19 90
REMARK H PARENT 3 6 78 24 46 35 8 76 13 83 13 84
REMARK Flexibility Score: inf
ROOT
ATOM      1  C   UNL A   1      31.404  32.238  26.501  1.00  0.00     0.023 C 
ENDROOT
BRANCH   1   2
ATOM      2  C   UNL A   1      32.616  32.820  27.215  1.00  0.00     0.116 C 
BRANCH   2   3
ATOM      3  N   UNL A   1      32.426  34.203  27.626  1.00  0.00    -0.352 N 
ATOM      4  O   UNL A   1      32.709  36.037  28.913  1.00  0.00    -0.269 OA
ATOM      5  C   UNL A   1      33.078  34.906  28.609  1.00  0.00     0.251 C 
ATOM      6  H   UNL A   1      31.735  34.703  27.132  1.00  0.00     0.163 HD
BRANCH   5   7
ATOM      7  C   UNL A   1      34.212  34.282  29.322  1.00  0.00     0.039 A 
ATOM      8  C   UNL A   1      35.526  34.514  28.908  1.00  0.00     0.014 A 
ATOM      9  C   UNL A   1      33.952  33.445  30.411  1.00  0.00     0.014 A 
ATOM     10  C   UNL A   1      36.569  33.809  29.499  1.00  0.00     0.010 A 
ATOM     11  C   UNL A   1      35.010  32.798  31.055  1.00  0.00     0.010 A 
ATOM     12  C   UNL A   1      36.323  32.954  30.585  1.00  0.00    -0.014 A 
BRANCH  12  13
ATOM     13  C   UNL A   1      37.466  32.286  31.255  1.00  0.00     0.031 A 
ATOM     14  C   UNL A   1      38.229  31.184  30.578  1.00  0.00     0.074 A 
ATOM     15  C   UNL A   1      37.826  32.708  32.482  1.00  0.00     0.049 A 
ATOM     16  N   UNL A   1      39.257  30.503  31.019  1.00  0.00    -0.248 NA
ATOM     17  C   UNL A   1      37.780  30.787  29.235  1.00  0.00     0.031 C 
ATOM     18  C   UNL A   1      37.149  33.763  33.240  1.00  0.00     0.029 A 
ATOM     19  N   UNL A   1      38.851  32.316  33.302  1.00  0.00    -0.354 N 
ATOM     20  C   UNL A   1      39.565  29.588  30.020  1.00  0.00     0.074 A 
ATOM     21  C   UNL A   1      38.604  29.785  28.957  1.00  0.00     0.031 C 
ATOM     22  C   UNL A   1      37.799  33.962  34.394  1.00  0.00     0.029 A 
ATOM     23  C   UNL A   1      38.901  33.011  34.484  1.00  0.00     0.049 A 
ATOM     24  H   UNL A   1      39.491  31.606  33.066  1.00  0.00     0.167 HD
ATOM     25  C   UNL A   1      40.566  28.675  29.996  1.00  0.00     0.037 A 
ATOM     26  C   UNL A   1      39.731  32.886  35.536  1.00  0.00     0.037 A 
ATOM     27  C   UNL A   1      41.532  28.498  31.050  1.00  0.00     0.049 A 
ATOM     28  C   UNL A   1      40.820  31.854  35.484  1.00  0.00     0.074 A 
ATOM     29  C   UNL A   1      42.606  27.626  31.102  1.00  0.00     0.029 A 
ATOM     30  N   UNL A   1      41.537  29.207  32.244  1.00  0.00    -0.354 N 
ATOM     31  N   UNL A   1      41.122  31.020  34.520  1.00  0.00    -0.248 NA
ATOM     32  C   UNL A   1      41.683  31.745  36.668  1.00  0.00     0.031 C 
ATOM     33  C   UNL A   1      43.236  27.777  32.342  1.00  0.00     0.029 A 
ATOM     34  C   UNL A   1      42.583  28.777  33.045  1.00  0.00     0.049 A 
ATOM     35  H   UNL A   1      40.895  29.912  32.485  1.00  0.00     0.167 HD
ATOM     36  C   UNL A   1      42.216  30.297  34.972  1.00  0.00     0.074 A 
ATOM     37  C   UNL A   1      42.538  30.807  36.289  1.00  0.00     0.031 C 
ATOM     38  C   UNL A   1      42.891  29.297  34.352  1.00  0.00     0.037 A 
BRANCH  25  39
ATOM     39  C   UNL A   1      40.669  27.779  28.795  1.00  0.00     0.064 A 
ATOM     40  C   UNL A   1      39.944  26.582  28.705  1.00  0.00     0.173 A 
ATOM     41  C   UNL A   1      41.451  28.156  27.694  1.00  0.00     0.173 A 
ATOM     42  F   UNL A   1      39.188  26.171  29.735  1.00  0.00    -0.203 F 
ATOM     43  C   UNL A   1      40.010  25.789  27.562  1.00  0.00     0.198 A 
ATOM     44  C   UNL A   1      41.496  27.374  26.543  1.00  0.00     0.198 A 
ATOM     45  F   UNL A   1      42.160  29.295  27.725  1.00  0.00    -0.203 F 
ATOM     46  F   UNL A   1      39.332  24.634  27.511  1.00  0.00    -0.200 F 
ATOM     47  C   UNL A   1      40.778  26.188  26.480  1.00  0.00     0.200 A 
ATOM     48  F   UNL A   1      42.230  27.767  25.493  1.00  0.00    -0.200 F 
ATOM     49  F   UNL A   1      40.830  25.430  25.376  1.00  0.00    -0.200 F 
ENDBRANCH  25  39
BRANCH  26  50
ATOM     50  C   UNL A   1      39.554  33.761  36.722  1.00  0.00     0.064 A 
ATOM     51  C   UNL A   1      40.165  35.020  36.788  1.00  0.00     0.173 A 
ATOM     52  C   UNL A   1      38.759  33.361  37.807  1.00  0.00     0.173 A 
ATOM     53  F   UNL A   1      40.949  35.438  35.783  1.00  0.00    -0.203 F 
ATOM     54  C   UNL A   1      39.998  35.841  37.901  1.00  0.00     0.198 A 
ATOM     55  C   UNL A   1      38.568  34.196  38.905  1.00  0.00     0.198 A 
ATOM     56  F   UNL A   1      38.147  32.167  37.787  1.00  0.00    -0.203 F 
ATOM     57  F   UNL A   1      40.625  37.024  37.957  1.00  0.00    -0.200 F 
ATOM     58  C   UNL A   1      39.195  35.432  38.955  1.00  0.00     0.200 A 
ATOM     59  F   UNL A   1      37.778  33.803  39.913  1.00  0.00    -0.200 F 
ATOM     60  F   UNL A   1      39.028  36.226  40.021  1.00  0.00    -0.200 F 
ENDBRANCH  26  50
BRANCH  38  61
ATOM     61  C   UNL A   1      44.059  28.710  35.086  1.00  0.00     0.064 A 
ATOM     62  C   UNL A   1      43.913  27.596  35.925  1.00  0.00     0.173 A 
ATOM     63  C   UNL A   1      45.342  29.253  34.928  1.00  0.00     0.173 A 
ATOM     64  F   UNL A   1      42.701  27.053  36.121  1.00  0.00    -0.203 F 
ATOM     65  C   UNL A   1      45.007  27.062  36.600  1.00  0.00     0.198 A 
ATOM     66  C   UNL A   1      46.437  28.701  35.583  1.00  0.00     0.198 A 
ATOM     67  F   UNL A   1      45.533  30.317  34.133  1.00  0.00    -0.203 F 
ATOM     68  F   UNL A   1      44.837  26.028  37.435  1.00  0.00    -0.200 F 
ATOM     69  C   UNL A   1      46.269  27.610  36.424  1.00  0.00     0.200 A 
ATOM     70  F   UNL A   1      47.658  29.225  35.405  1.00  0.00    -0.200 F 
ATOM     71  F   UNL A   1      47.321  27.094  37.073  1.00  0.00    -0.200 F 
ENDBRANCH  38  61
ENDBRANCH  12  13
ENDBRANCH   5   7
ENDBRANCH   2   3
ENDBRANCH   1   2
BRANCH   1  72
ATOM     72  C   UNL A   1      31.403  30.715  26.360  1.00  0.00     0.023 C 
BRANCH  72  73
ATOM     73  C   UNL A   1      32.789  30.084  26.230  1.00  0.00     0.116 C 
BRANCH  73  74
ATOM     74  N   UNL A   1      33.118  29.809  24.844  1.00  0.00    -0.356 N 
ATOM     75  C   UNL A   1      32.402  29.132  23.900  1.00  0.00     0.229 C 
ATOM     76  H   UNL A   1      33.986  30.160  24.540  1.00  0.00     0.163 HD
ATOM     77  O   UNL A   1      32.928  28.953  22.803  1.00  0.00    -0.275 OA
BRANCH  75  78
ATOM     78  C   UNL A   1      31.006  28.637  24.242  1.00  0.00     0.146 C 
ATOM     79  C   UNL A   1      31.079  27.200  24.734  1.00  0.00     0.274 C 
ATOM     80  C   UNL A   1      30.048  28.527  23.039  1.00  0.00     0.092 C 
ATOM     81  N   UNL A   1      29.706  26.707  24.626  1.00  0.00    -0.345 N 
ATOM     82  C   UNL A   1      29.190  27.285  23.373  1.00  0.00     0.269 C 
ATOM     83  H   UNL A   1      29.149  27.020  25.422  1.00  0.00     0.346 HD
ATOM     84  H   UNL A   1      29.663  25.687  24.624  1.00  0.00     0.346 HD
BRANCH  80  85
ATOM     85  C   UNL A   1      29.334  29.833  22.725  1.00  0.00    -0.035 A 
ATOM     86  C   UNL A   1      29.116  30.750  23.765  1.00  0.00     0.024 A 
ATOM     87  C   UNL A   1      28.884  30.202  21.453  1.00  0.00     0.024 A 
ATOM     88  C   UNL A   1      28.476  31.953  23.501  1.00  0.00     0.111 A 
ATOM     89  C   UNL A   1      28.266  31.437  21.283  1.00  0.00     0.111 A 
ATOM     90  N   UNL A   1      28.045  32.317  22.279  1.00  0.00    -0.265 NA
ENDBRANCH  80  85
ENDBRANCH  75  78
ENDBRANCH  73  74
ENDBRANCH  72  73
ENDBRANCH   1  72
TORSDOF 12
ENDMDL
