MODEL 1
REMARK VINA RESULT:     -12.4      0.000      0.000
REMARK SMILES Cc1noc(C)c1[C@H](C)NC(=O)NCC(=O)NCC(=O)NCCCCNC(=O)c1ccc(-c2c3nc(c(-c4c(F)c(F)c(F)c(F)c4F)c4ccc([nH]4)c(-c4c(F)c(F)c(F)c(F)c4F)c4nc(c(-c5c(F)c(F)c(F)c(F)c5F)c5ccc2[nH]5)C=C4)C=C3)cc1
REMARK SMILES IDX 22 1 21 2 19 3 20 4 18 6 17 7 15 8 16 9 14 11 13 12 10 13
REMARK SMILES IDX 11 14 12 16 8 18 9 19 7 20 1 21 2 22 3 23 4 24 5 25 6 26
REMARK SMILES IDX 23 27 24 28 25 29 26 30 27 31 28 33 29 34 30 35 91 36 31 37
REMARK SMILES IDX 90 38 32 39 33 40 34 41 84 42 35 43 89 44 83 45 85 46 36 47
REMARK SMILES IDX 88 48 82 49 81 50 37 52 69 53 49 54 68 55 50 56 53 57 67 58
REMARK SMILES IDX 86 59 51 60 52 61 66 63 87 64 54 65 38 66 39 67 47 68 40 69
REMARK SMILES IDX 41 70 45 71 48 72 42 73 43 74 46 75 44 76 70 77 71 78 79 79
REMARK SMILES IDX 72 80 73 81 77 82 80 83 74 84 75 85 78 86 76 87 55 88 56 89
REMARK SMILES IDX 64 90 57 91 58 92 62 93 65 94 59 95 60 96 63 97 61 98
REMARK H PARENT 21 5 17 10 10 15 13 17 26 32 85 51 53 62
REMARK Flexibility Score: inf
ROOT
ATOM      1  C   UNL A   1      31.378  29.132  25.079  1.00  0.00     0.116 C 
ENDROOT
BRANCH   1   2
ATOM      2  N   UNL A   1      30.818  29.604  23.842  1.00  0.00    -0.355 N 
ATOM      3  C   UNL A   1      30.589  28.895  22.705  1.00  0.00     0.239 C 
ATOM      4  O   UNL A   1      30.022  29.474  21.776  1.00  0.00    -0.273 OA
ATOM      5  H   UNL A   1      30.569  30.556  23.817  1.00  0.00     0.163 HD
BRANCH   3   6
ATOM      6  C   UNL A   1      30.856  27.383  22.637  1.00  0.00     0.216 C 
BRANCH   6   7
ATOM      7  N   UNL A   1      31.717  26.841  21.598  1.00  0.00    -0.346 N 
ATOM      8  C   UNL A   1      32.706  25.915  21.582  1.00  0.00     0.239 C 
ATOM      9  O   UNL A   1      33.056  25.534  20.456  1.00  0.00    -0.273 OA
ATOM     10  H   UNL A   1      31.543  27.231  20.711  1.00  0.00     0.164 HD
BRANCH   8  11
ATOM     11  C   UNL A   1      33.350  25.243  22.815  1.00  0.00     0.217 C 
BRANCH  11  12
ATOM     12  N   UNL A   1      34.528  24.400  22.699  1.00  0.00    -0.329 N 
ATOM     13  N   UNL A   1      34.292  22.555  24.149  1.00  0.00    -0.331 N 
ATOM     14  C   UNL A   1      35.005  23.316  23.312  1.00  0.00     0.315 C 
ATOM     15  H   UNL A   1      34.831  22.048  24.798  1.00  0.00     0.165 HD
ATOM     16  O   UNL A   1      36.186  23.029  23.111  1.00  0.00    -0.249 OA
ATOM     17  H   UNL A   1      35.130  24.710  21.983  1.00  0.00     0.165 HD
BRANCH  13  18
ATOM     18  C   UNL A   1      32.861  22.351  24.265  1.00  0.00     0.116 C 
ATOM     19  C   UNL A   1      32.526  20.909  23.889  1.00  0.00     0.036 C 
BRANCH  18  20
ATOM     20  C   UNL A   1      32.429  22.782  25.635  1.00  0.00     0.040 A 
ATOM     21  C   UNL A   1      30.496  24.448  25.012  1.00  0.00     0.071 C 
ATOM     22  C   UNL A   1      31.376  23.703  25.936  1.00  0.00     0.086 A 
ATOM     23  N   UNL A   1      31.225  23.875  27.251  1.00  0.00    -0.085 NA
ATOM     24  O   UNL A   1      32.156  23.056  27.843  1.00  0.00    -0.361 OA
ATOM     25  C   UNL A   1      32.864  22.397  26.889  1.00  0.00     0.139 A 
ATOM     26  C   UNL A   1      33.871  21.454  27.411  1.00  0.00     0.091 C 
ENDBRANCH  18  20
ENDBRANCH  13  18
ENDBRANCH  11  12
ENDBRANCH   8  11
ENDBRANCH   6   7
ENDBRANCH   3   6
ENDBRANCH   1   2
BRANCH   1  27
ATOM     27  C   UNL A   1      32.441  30.080  25.620  1.00  0.00     0.023 C 
BRANCH  27  28
ATOM     28  C   UNL A   1      31.883  31.173  26.527  1.00  0.00     0.023 C 
BRANCH  28  29
ATOM     29  C   UNL A   1      32.946  32.008  27.222  1.00  0.00     0.116 C 
BRANCH  29  30
ATOM     30  N   UNL A   1      32.520  33.374  27.496  1.00  0.00    -0.352 N 
ATOM     31  C   UNL A   1      33.071  34.263  28.381  1.00  0.00     0.251 C 
ATOM     32  H   UNL A   1      31.743  33.696  26.984  1.00  0.00     0.163 HD
ATOM     33  O   UNL A   1      32.567  35.362  28.574  1.00  0.00    -0.269 OA
BRANCH  31  34
ATOM     34  C   UNL A   1      34.257  33.834  29.140  1.00  0.00     0.039 A 
ATOM     35  C   UNL A   1      34.086  32.914  30.173  1.00  0.00     0.014 A 
ATOM     36  C   UNL A   1      35.531  34.262  28.756  1.00  0.00     0.014 A 
ATOM     37  C   UNL A   1      35.210  32.376  30.791  1.00  0.00     0.010 A 
ATOM     38  C   UNL A   1      36.650  33.663  29.317  1.00  0.00     0.010 A 
ATOM     39  C   UNL A   1      36.499  32.721  30.346  1.00  0.00    -0.014 A 
BRANCH  39  40
ATOM     40  C   UNL A   1      37.688  32.090  30.957  1.00  0.00     0.031 A 
ATOM     41  C   UNL A   1      38.128  32.483  32.335  1.00  0.00     0.074 A 
ATOM     42  C   UNL A   1      38.385  31.180  30.250  1.00  0.00     0.049 A 
ATOM     43  N   UNL A   1      39.092  31.985  33.068  1.00  0.00    -0.248 NA
ATOM     44  C   UNL A   1      37.414  33.605  32.966  1.00  0.00     0.031 C 
ATOM     45  C   UNL A   1      38.106  30.792  28.866  1.00  0.00     0.029 A 
ATOM     46  N   UNL A   1      39.465  30.412  30.601  1.00  0.00    -0.354 N 
ATOM     47  C   UNL A   1      39.103  32.735  34.235  1.00  0.00     0.074 A 
ATOM     48  C   UNL A   1      38.098  33.764  34.088  1.00  0.00     0.031 C 
ATOM     49  C   UNL A   1      38.967  29.831  28.498  1.00  0.00     0.029 A 
ATOM     50  C   UNL A   1      39.865  29.545  29.613  1.00  0.00     0.049 A 
ATOM     51  H   UNL A   1      39.911  30.475  31.476  1.00  0.00     0.167 HD
ATOM     52  C   UNL A   1      39.865  32.561  35.340  1.00  0.00     0.037 A 
ATOM     53  C   UNL A   1      40.832  28.610  29.620  1.00  0.00     0.037 A 
ATOM     54  C   UNL A   1      40.845  31.518  35.482  1.00  0.00     0.049 A 
ATOM     55  C   UNL A   1      41.618  28.388  30.882  1.00  0.00     0.074 A 
ATOM     56  C   UNL A   1      41.615  31.199  36.586  1.00  0.00     0.029 A 
ATOM     57  N   UNL A   1      41.195  30.626  34.478  1.00  0.00    -0.354 N 
ATOM     58  N   UNL A   1      41.544  29.025  32.026  1.00  0.00    -0.248 NA
ATOM     59  C   UNL A   1      42.604  27.300  30.864  1.00  0.00     0.031 C 
ATOM     60  C   UNL A   1      42.462  30.141  36.235  1.00  0.00     0.029 A 
ATOM     61  C   UNL A   1      42.184  29.768  34.929  1.00  0.00     0.049 A 
ATOM     62  H   UNL A   1      40.798  30.605  33.577  1.00  0.00     0.167 HD
ATOM     63  C   UNL A   1      42.455  28.405  32.869  1.00  0.00     0.074 A 
ATOM     64  C   UNL A   1      43.053  27.325  32.111  1.00  0.00     0.031 C 
ATOM     65  C   UNL A   1      42.769  28.702  34.155  1.00  0.00     0.037 A 
BRANCH  52  66
ATOM     66  C   UNL A   1      39.659  33.520  36.477  1.00  0.00     0.064 A 
ATOM     67  C   UNL A   1      38.820  33.211  37.560  1.00  0.00     0.173 A 
ATOM     68  C   UNL A   1      40.314  34.760  36.490  1.00  0.00     0.173 A 
ATOM     69  F   UNL A   1      38.157  32.045  37.590  1.00  0.00    -0.203 F 
ATOM     70  C   UNL A   1      38.617  34.122  38.593  1.00  0.00     0.198 A 
ATOM     71  C   UNL A   1      40.134  35.656  37.541  1.00  0.00     0.198 A 
ATOM     72  F   UNL A   1      41.129  35.105  35.482  1.00  0.00    -0.203 F 
ATOM     73  F   UNL A   1      37.765  33.829  39.585  1.00  0.00    -0.200 F 
ATOM     74  C   UNL A   1      39.278  35.340  38.586  1.00  0.00     0.200 A 
ATOM     75  F   UNL A   1      40.782  36.828  37.539  1.00  0.00    -0.200 F 
ATOM     76  F   UNL A   1      39.083  36.216  39.582  1.00  0.00    -0.200 F 
ENDBRANCH  52  66
BRANCH  53  77
ATOM     77  C   UNL A   1      41.057  27.777  28.412  1.00  0.00     0.064 A 
ATOM     78  C   UNL A   1      40.355  26.578  28.221  1.00  0.00     0.173 A 
ATOM     79  C   UNL A   1      41.955  28.174  27.412  1.00  0.00     0.173 A 
ATOM     80  F   UNL A   1      39.496  26.149  29.157  1.00  0.00    -0.203 F 
ATOM     81  C   UNL A   1      40.557  25.800  27.082  1.00  0.00     0.198 A 
ATOM     82  C   UNL A   1      42.136  27.409  26.261  1.00  0.00     0.198 A 
ATOM     83  F   UNL A   1      42.641  29.319  27.542  1.00  0.00    -0.203 F 
ATOM     84  F   UNL A   1      39.899  24.641  26.941  1.00  0.00    -0.200 F 
ATOM     85  C   UNL A   1      41.441  26.219  26.101  1.00  0.00     0.200 A 
ATOM     86  F   UNL A   1      42.978  27.827  25.307  1.00  0.00    -0.200 F 
ATOM     87  F   UNL A   1      41.625  25.477  25.000  1.00  0.00    -0.200 F 
ENDBRANCH  53  77
BRANCH  65  88
ATOM     88  C   UNL A   1      43.792  27.830  34.824  1.00  0.00     0.064 A 
ATOM     89  C   UNL A   1      45.151  28.176  34.850  1.00  0.00     0.173 A 
ATOM     90  C   UNL A   1      43.402  26.645  35.464  1.00  0.00     0.173 A 
ATOM     91  F   UNL A   1      45.574  29.295  34.241  1.00  0.00    -0.203 F 
ATOM     92  C   UNL A   1      46.087  27.347  35.461  1.00  0.00     0.198 A 
ATOM     93  C   UNL A   1      44.338  25.834  36.101  1.00  0.00     0.198 A 
ATOM     94  F   UNL A   1      42.113  26.272  35.475  1.00  0.00    -0.203 F 
ATOM     95  F   UNL A   1      47.388  27.669  35.422  1.00  0.00    -0.200 F 
ATOM     96  C   UNL A   1      45.680  26.181  36.090  1.00  0.00     0.200 A 
ATOM     97  F   UNL A   1      43.940  24.714  36.720  1.00  0.00    -0.200 F 
ATOM     98  F   UNL A   1      46.584  25.384  36.677  1.00  0.00    -0.200 F 
ENDBRANCH  65  88
ENDBRANCH  39  40
ENDBRANCH  31  34
ENDBRANCH  29  30
ENDBRANCH  28  29
ENDBRANCH  27  28
ENDBRANCH   1  27
TORSDOF 16
ENDMDL
MODEL 2
REMARK VINA RESULT:     -12.4      1.613      3.808
REMARK SMILES Cc1noc(C)c1[C@H](C)NC(=O)NCC(=O)NCC(=O)NCCCCNC(=O)c1ccc(-c2c3nc(c(-c4c(F)c(F)c(F)c(F)c4F)c4ccc([nH]4)c(-c4c(F)c(F)c(F)c(F)c4F)c4nc(c(-c5c(F)c(F)c(F)c(F)c5F)c5ccc2[nH]5)C=C4)C=C3)cc1
REMARK SMILES IDX 22 1 21 2 19 3 20 4 18 6 17 7 15 8 16 9 14 11 13 12 10 13
REMARK SMILES IDX 11 14 12 16 8 18 9 19 7 20 1 21 2 22 3 23 4 24 5 25 6 26
REMARK SMILES IDX 23 27 24 28 25 29 26 30 27 31 28 33 29 34 30 35 91 36 31 37
REMARK SMILES IDX 90 38 32 39 33 40 34 41 84 42 35 43 89 44 83 45 85 46 36 47
REMARK SMILES IDX 88 48 82 49 81 50 37 52 69 53 49 54 68 55 50 56 53 57 67 58
REMARK SMILES IDX 86 59 51 60 52 61 66 63 87 64 54 65 38 66 39 67 47 68 40 69
REMARK SMILES IDX 41 70 45 71 48 72 42 73 43 74 46 75 44 76 70 77 71 78 79 79
REMARK SMILES IDX 72 80 73 81 77 82 80 83 74 84 75 85 78 86 76 87 55 88 56 89
REMARK SMILES IDX 64 90 57 91 58 92 62 93 65 94 59 95 60 96 63 97 61 98
REMARK H PARENT 21 5 17 10 10 15 13 17 26 32 85 51 53 62
REMARK Flexibility Score: inf
ROOT
ATOM      1  C   UNL A   1      32.219  26.496  26.503  1.00  0.00     0.116 C 
ENDROOT
BRANCH   1   2
ATOM      2  N   UNL A   1      31.397  25.375  26.870  1.00  0.00    -0.355 N 
ATOM      3  C   UNL A   1      31.735  24.059  26.876  1.00  0.00     0.239 C 
ATOM      4  O   UNL A   1      30.902  23.257  27.305  1.00  0.00    -0.273 OA
ATOM      5  H   UNL A   1      30.478  25.588  27.151  1.00  0.00     0.163 HD
BRANCH   3   6
ATOM      6  C   UNL A   1      33.161  23.597  26.538  1.00  0.00     0.216 C 
BRANCH   6   7
ATOM      7  N   UNL A   1      33.416  22.857  25.311  1.00  0.00    -0.346 N 
ATOM      8  C   UNL A   1      33.372  23.172  23.994  1.00  0.00     0.239 C 
ATOM      9  O   UNL A   1      33.891  22.344  23.234  1.00  0.00    -0.273 OA
ATOM     10  H   UNL A   1      33.680  21.922  25.473  1.00  0.00     0.164 HD
BRANCH   8  11
ATOM     11  C   UNL A   1      32.830  24.485  23.385  1.00  0.00     0.217 C 
BRANCH  11  12
ATOM     12  N   UNL A   1      33.092  24.852  22.004  1.00  0.00    -0.329 N 
ATOM     13  N   UNL A   1      31.796  26.747  21.460  1.00  0.00    -0.331 N 
ATOM     14  C   UNL A   1      32.606  25.736  21.130  1.00  0.00     0.315 C 
ATOM     15  H   UNL A   1      31.228  27.071  20.725  1.00  0.00     0.165 HD
ATOM     16  O   UNL A   1      32.903  25.578  19.945  1.00  0.00    -0.249 OA
ATOM     17  H   UNL A   1      33.813  24.309  21.611  1.00  0.00     0.165 HD
BRANCH  13  18
ATOM     18  C   UNL A   1      31.611  27.447  22.717  1.00  0.00     0.116 C 
ATOM     19  C   UNL A   1      32.634  28.575  22.821  1.00  0.00     0.036 C 
BRANCH  18  20
ATOM     20  C   UNL A   1      30.173  27.862  22.822  1.00  0.00     0.040 A 
ATOM     21  C   UNL A   1      29.212  25.864  24.230  1.00  0.00     0.071 C 
ATOM     22  C   UNL A   1      29.137  27.148  23.503  1.00  0.00     0.086 A 
ATOM     23  N   UNL A   1      27.964  27.779  23.427  1.00  0.00    -0.085 NA
ATOM     24  O   UNL A   1      28.205  28.930  22.717  1.00  0.00    -0.361 OA
ATOM     25  C   UNL A   1      29.516  28.990  22.366  1.00  0.00     0.139 A 
ATOM     26  C   UNL A   1      29.903  30.208  21.630  1.00  0.00     0.091 C 
ENDBRANCH  18  20
ENDBRANCH  13  18
ENDBRANCH  11  12
ENDBRANCH   8  11
ENDBRANCH   6   7
ENDBRANCH   3   6
ENDBRANCH   1   2
BRANCH   1  27
ATOM     27  C   UNL A   1      31.406  27.778  26.372  1.00  0.00     0.023 C 
BRANCH  27  28
ATOM     28  C   UNL A   1      31.921  28.920  27.243  1.00  0.00     0.023 C 
BRANCH  28  29
ATOM     29  C   UNL A   1      32.945  29.812  26.558  1.00  0.00     0.116 C 
BRANCH  29  30
ATOM     30  N   UNL A   1      32.750  31.230  26.829  1.00  0.00    -0.352 N 
ATOM     31  C   UNL A   1      33.585  32.076  27.510  1.00  0.00     0.251 C 
ATOM     32  H   UNL A   1      31.917  31.626  26.483  1.00  0.00     0.163 HD
ATOM     33  O   UNL A   1      33.266  33.236  27.737  1.00  0.00    -0.269 OA
BRANCH  31  34
ATOM     34  C   UNL A   1      34.857  31.533  28.012  1.00  0.00     0.039 A 
ATOM     35  C   UNL A   1      35.947  32.394  28.127  1.00  0.00     0.014 A 
ATOM     36  C   UNL A   1      34.929  30.211  28.462  1.00  0.00     0.014 A 
ATOM     37  C   UNL A   1      37.105  31.940  28.751  1.00  0.00     0.010 A 
ATOM     38  C   UNL A   1      36.054  29.787  29.156  1.00  0.00     0.010 A 
ATOM     39  C   UNL A   1      37.154  30.645  29.298  1.00  0.00    -0.014 A 
BRANCH  39  40
ATOM     40  C   UNL A   1      38.361  30.193  30.025  1.00  0.00     0.031 A 
ATOM     41  C   UNL A   1      38.606  30.640  31.434  1.00  0.00     0.074 A 
ATOM     42  C   UNL A   1      39.247  29.400  29.396  1.00  0.00     0.049 A 
ATOM     43  N   UNL A   1      39.559  30.287  32.259  1.00  0.00    -0.248 NA
ATOM     44  C   UNL A   1      37.678  31.641  31.985  1.00  0.00     0.031 C 
ATOM     45  C   UNL A   1      39.161  28.981  27.995  1.00  0.00     0.029 A 
ATOM     46  N   UNL A   1      40.391  28.798  29.853  1.00  0.00    -0.354 N 
ATOM     47  C   UNL A   1      39.348  31.025  33.415  1.00  0.00     0.074 A 
ATOM     48  C   UNL A   1      38.221  31.895  33.165  1.00  0.00     0.031 C 
ATOM     49  C   UNL A   1      40.186  28.160  27.718  1.00  0.00     0.029 A 
ATOM     50  C   UNL A   1      41.006  28.005  28.916  1.00  0.00     0.049 A 
ATOM     51  H   UNL A   1      40.739  28.923  30.766  1.00  0.00     0.167 HD
ATOM     52  C   UNL A   1      40.020  30.960  34.589  1.00  0.00     0.037 A 
ATOM     53  C   UNL A   1      42.096  27.222  29.022  1.00  0.00     0.037 A 
ATOM     54  C   UNL A   1      41.126  30.073  34.832  1.00  0.00     0.049 A 
ATOM     55  C   UNL A   1      42.783  27.113  30.355  1.00  0.00     0.074 A 
ATOM     56  C   UNL A   1      41.826  29.866  36.007  1.00  0.00     0.029 A 
ATOM     57  N   UNL A   1      41.697  29.247  33.874  1.00  0.00    -0.354 N 
ATOM     58  N   UNL A   1      42.508  27.727  31.481  1.00  0.00    -0.248 NA
ATOM     59  C   UNL A   1      43.916  26.183  30.440  1.00  0.00     0.031 C 
ATOM     60  C   UNL A   1      42.850  28.947  35.747  1.00  0.00     0.029 A 
ATOM     61  C   UNL A   1      42.754  28.543  34.424  1.00  0.00     0.049 A 
ATOM     62  H   UNL A   1      41.394  29.172  32.940  1.00  0.00     0.167 HD
ATOM     63  C   UNL A   1      43.417  27.244  32.412  1.00  0.00     0.074 A 
ATOM     64  C   UNL A   1      44.237  26.268  31.724  1.00  0.00     0.031 C 
ATOM     65  C   UNL A   1      43.560  27.579  33.718  1.00  0.00     0.037 A 
BRANCH  52  66
ATOM     66  C   UNL A   1      39.568  31.873  35.692  1.00  0.00     0.064 A 
ATOM     67  C   UNL A   1      40.155  33.132  35.896  1.00  0.00     0.173 A 
ATOM     68  C   UNL A   1      38.529  31.489  36.552  1.00  0.00     0.173 A 
ATOM     69  F   UNL A   1      41.163  33.542  35.110  1.00  0.00    -0.203 F 
ATOM     70  C   UNL A   1      39.744  33.956  36.941  1.00  0.00     0.198 A 
ATOM     71  C   UNL A   1      38.099  32.329  37.577  1.00  0.00     0.198 A 
ATOM     72  F   UNL A   1      37.932  30.298  36.402  1.00  0.00    -0.203 F 
ATOM     73  F   UNL A   1      40.360  35.127  37.151  1.00  0.00    -0.200 F 
ATOM     74  C   UNL A   1      38.713  33.556  37.776  1.00  0.00     0.200 A 
ATOM     75  F   UNL A   1      37.094  31.947  38.377  1.00  0.00    -0.200 F 
ATOM     76  F   UNL A   1      38.316  34.350  38.781  1.00  0.00    -0.200 F 
ENDBRANCH  52  66
BRANCH  53  77
ATOM     77  C   UNL A   1      42.554  26.437  27.849  1.00  0.00     0.064 A 
ATOM     78  C   UNL A   1      42.015  25.173  27.570  1.00  0.00     0.173 A 
ATOM     79  C   UNL A   1      43.518  26.945  26.966  1.00  0.00     0.173 A 
ATOM     80  F   UNL A   1      41.101  24.640  28.394  1.00  0.00    -0.203 F 
ATOM     81  C   UNL A   1      42.436  24.440  26.463  1.00  0.00     0.198 A 
ATOM     82  C   UNL A   1      43.919  26.221  25.844  1.00  0.00     0.198 A 
ATOM     83  F   UNL A   1      44.055  28.154  27.182  1.00  0.00    -0.203 F 
ATOM     84  F   UNL A   1      41.930  23.218  26.240  1.00  0.00    -0.200 F 
ATOM     85  C   UNL A   1      43.381  24.966  25.598  1.00  0.00     0.200 A 
ATOM     86  F   UNL A   1      44.820  26.742  25.001  1.00  0.00    -0.200 F 
ATOM     87  F   UNL A   1      43.777  24.265  24.526  1.00  0.00    -0.200 F 
ENDBRANCH  53  77
BRANCH  65  88
ATOM     88  C   UNL A   1      44.633  26.864  34.489  1.00  0.00     0.064 A 
ATOM     89  C   UNL A   1      44.389  25.638  35.125  1.00  0.00     0.173 A 
ATOM     90  C   UNL A   1      45.925  27.404  34.573  1.00  0.00     0.173 A 
ATOM     91  F   UNL A   1      43.166  25.087  35.084  1.00  0.00    -0.203 F 
ATOM     92  C   UNL A   1      45.391  24.998  35.849  1.00  0.00     0.198 A 
ATOM     93  C   UNL A   1      46.932  26.745  35.272  1.00  0.00     0.198 A 
ATOM     94  F   UNL A   1      46.212  28.571  33.975  1.00  0.00    -0.203 F 
ATOM     95  F   UNL A   1      45.120  23.857  36.498  1.00  0.00    -0.200 F 
ATOM     96  C   UNL A   1      46.662  25.548  35.917  1.00  0.00     0.200 A 
ATOM     97  F   UNL A   1      48.163  27.272  35.325  1.00  0.00    -0.200 F 
ATOM     98  F   UNL A   1      47.625  24.930  36.615  1.00  0.00    -0.200 F 
ENDBRANCH  65  88
ENDBRANCH  39  40
ENDBRANCH  31  34
ENDBRANCH  29  30
ENDBRANCH  28  29
ENDBRANCH  27  28
ENDBRANCH   1  27
TORSDOF 16
ENDMDL
MODEL 3
REMARK VINA RESULT:     -12.4      1.687      3.076
REMARK SMILES Cc1noc(C)c1[C@H](C)NC(=O)NCC(=O)NCC(=O)NCCCCNC(=O)c1ccc(-c2c3nc(c(-c4c(F)c(F)c(F)c(F)c4F)c4ccc([nH]4)c(-c4c(F)c(F)c(F)c(F)c4F)c4nc(c(-c5c(F)c(F)c(F)c(F)c5F)c5ccc2[nH]5)C=C4)C=C3)cc1
REMARK SMILES IDX 22 1 21 2 19 3 20 4 18 6 17 7 15 8 16 9 14 11 13 12 10 13
REMARK SMILES IDX 11 14 12 16 8 18 9 19 7 20 1 21 2 22 3 23 4 24 5 25 6 26
REMARK SMILES IDX 23 27 24 28 25 29 26 30 27 31 28 33 29 34 30 35 91 36 31 37
REMARK SMILES IDX 90 38 32 39 33 40 34 41 84 42 35 43 89 44 83 45 85 46 36 47
REMARK SMILES IDX 88 48 82 49 81 50 37 52 69 53 49 54 68 55 50 56 53 57 67 58
REMARK SMILES IDX 86 59 51 60 52 61 66 63 87 64 54 65 38 66 39 67 47 68 40 69
REMARK SMILES IDX 41 70 45 71 48 72 42 73 43 74 46 75 44 76 70 77 71 78 79 79
REMARK SMILES IDX 72 80 73 81 77 82 80 83 74 84 75 85 78 86 76 87 55 88 56 89
REMARK SMILES IDX 64 90 57 91 58 92 62 93 65 94 59 95 60 96 63 97 61 98
REMARK H PARENT 21 5 17 10 10 15 13 17 26 32 85 51 53 62
REMARK Flexibility Score: inf
ROOT
ATOM      1  C   UNL A   1      32.724  28.835  23.345  1.00  0.00     0.116 C 
ENDROOT
BRANCH   1   2
ATOM      2  N   UNL A   1      31.660  29.265  22.479  1.00  0.00    -0.355 N 
ATOM      3  C   UNL A   1      30.376  28.821  22.451  1.00  0.00     0.239 C 
ATOM      4  O   UNL A   1      29.594  29.383  21.681  1.00  0.00    -0.273 OA
ATOM      5  H   UNL A   1      31.890  29.967  21.829  1.00  0.00     0.163 HD
BRANCH   3   6
ATOM      6  C   UNL A   1      29.864  27.787  23.466  1.00  0.00     0.216 C 
BRANCH   6   7
ATOM      7  N   UNL A   1      30.144  26.373  23.270  1.00  0.00    -0.346 N 
ATOM      8  C   UNL A   1      30.354  25.329  24.108  1.00  0.00     0.239 C 
ATOM      9  O   UNL A   1      30.325  24.210  23.577  1.00  0.00    -0.273 OA
ATOM     10  H   UNL A   1      30.191  26.117  22.320  1.00  0.00     0.164 HD
BRANCH   8  11
ATOM     11  C   UNL A   1      30.526  25.407  25.641  1.00  0.00     0.217 C 
BRANCH  11  12
ATOM     12  N   UNL A   1      29.901  24.442  26.531  1.00  0.00    -0.329 N 
ATOM     13  N   UNL A   1      31.360  22.610  26.814  1.00  0.00    -0.331 N 
ATOM     14  C   UNL A   1      30.177  23.214  26.971  1.00  0.00     0.315 C 
ATOM     15  H   UNL A   1      31.322  21.627  26.831  1.00  0.00     0.165 HD
ATOM     16  O   UNL A   1      29.266  22.595  27.523  1.00  0.00    -0.249 OA
ATOM     17  H   UNL A   1      29.056  24.784  26.905  1.00  0.00     0.165 HD
BRANCH  13  18
ATOM     18  C   UNL A   1      32.690  23.158  26.624  1.00  0.00     0.116 C 
ATOM     19  C   UNL A   1      33.638  22.548  27.654  1.00  0.00     0.036 C 
BRANCH  18  20
ATOM     20  C   UNL A   1      33.080  22.969  25.189  1.00  0.00     0.040 A 
ATOM     21  C   UNL A   1      34.142  25.317  24.680  1.00  0.00     0.071 C 
ATOM     22  C   UNL A   1      33.728  23.936  24.356  1.00  0.00     0.086 A 
ATOM     23  N   UNL A   1      33.953  23.466  23.128  1.00  0.00    -0.085 NA
ATOM     24  O   UNL A   1      33.483  22.175  23.131  1.00  0.00    -0.361 OA
ATOM     25  C   UNL A   1      32.975  21.871  24.354  1.00  0.00     0.139 A 
ATOM     26  C   UNL A   1      32.474  20.491  24.489  1.00  0.00     0.091 C 
ENDBRANCH  18  20
ENDBRANCH  13  18
ENDBRANCH  11  12
ENDBRANCH   8  11
ENDBRANCH   6   7
ENDBRANCH   3   6
ENDBRANCH   1   2
BRANCH   1  27
ATOM     27  C   UNL A   1      32.762  29.635  24.640  1.00  0.00     0.023 C 
BRANCH  27  28
ATOM     28  C   UNL A   1      32.369  28.825  25.872  1.00  0.00     0.023 C 
BRANCH  28  29
ATOM     29  C   UNL A   1      32.676  29.512  27.193  1.00  0.00     0.116 C 
BRANCH  29  30
ATOM     30  N   UNL A   1      32.574  30.963  27.127  1.00  0.00    -0.352 N 
ATOM     31  C   UNL A   1      33.517  31.887  27.493  1.00  0.00     0.251 C 
ATOM     32  H   UNL A   1      31.726  31.322  26.779  1.00  0.00     0.163 HD
ATOM     33  O   UNL A   1      33.276  33.088  27.460  1.00  0.00    -0.269 OA
BRANCH  31  34
ATOM     34  C   UNL A   1      34.813  31.393  27.984  1.00  0.00     0.039 A 
ATOM     35  C   UNL A   1      35.861  32.302  28.122  1.00  0.00     0.014 A 
ATOM     36  C   UNL A   1      34.947  30.065  28.402  1.00  0.00     0.014 A 
ATOM     37  C   UNL A   1      37.038  31.888  28.737  1.00  0.00     0.010 A 
ATOM     38  C   UNL A   1      36.090  29.678  29.088  1.00  0.00     0.010 A 
ATOM     39  C   UNL A   1      37.148  30.584  29.253  1.00  0.00    -0.014 A 
BRANCH  39  40
ATOM     40  C   UNL A   1      38.375  30.172  29.970  1.00  0.00     0.031 A 
ATOM     41  C   UNL A   1      38.616  30.628  31.378  1.00  0.00     0.074 A 
ATOM     42  C   UNL A   1      39.282  29.407  29.335  1.00  0.00     0.049 A 
ATOM     43  N   UNL A   1      39.586  30.306  32.195  1.00  0.00    -0.248 NA
ATOM     44  C   UNL A   1      37.660  31.598  31.935  1.00  0.00     0.031 C 
ATOM     45  C   UNL A   1      39.199  28.985  27.935  1.00  0.00     0.029 A 
ATOM     46  N   UNL A   1      40.448  28.843  29.784  1.00  0.00    -0.354 N 
ATOM     47  C   UNL A   1      39.360  31.038  33.352  1.00  0.00     0.074 A 
ATOM     48  C   UNL A   1      38.203  31.870  33.111  1.00  0.00     0.031 C 
ATOM     49  C   UNL A   1      40.248  28.197  27.651  1.00  0.00     0.029 A 
ATOM     50  C   UNL A   1      41.081  28.070  28.842  1.00  0.00     0.049 A 
ATOM     51  H   UNL A   1      40.798  28.980  30.694  1.00  0.00     0.167 HD
ATOM     52  C   UNL A   1      40.043  30.996  34.521  1.00  0.00     0.037 A 
ATOM     53  C   UNL A   1      42.197  27.324  28.940  1.00  0.00     0.037 A 
ATOM     54  C   UNL A   1      41.178  30.145  34.757  1.00  0.00     0.049 A 
ATOM     55  C   UNL A   1      42.897  27.238  30.268  1.00  0.00     0.074 A 
ATOM     56  C   UNL A   1      41.894  29.962  35.926  1.00  0.00     0.029 A 
ATOM     57  N   UNL A   1      41.769  29.337  33.794  1.00  0.00    -0.354 N 
ATOM     58  N   UNL A   1      42.611  27.844  31.396  1.00  0.00    -0.248 NA
ATOM     59  C   UNL A   1      44.060  26.345  30.345  1.00  0.00     0.031 C 
ATOM     60  C   UNL A   1      42.945  29.077  35.659  1.00  0.00     0.029 A 
ATOM     61  C   UNL A   1      42.852  28.668  34.337  1.00  0.00     0.049 A 
ATOM     62  H   UNL A   1      41.461  29.252  32.863  1.00  0.00     0.167 HD
ATOM     63  C   UNL A   1      43.542  27.391  32.320  1.00  0.00     0.074 A 
ATOM     64  C   UNL A   1      44.388  26.441  31.626  1.00  0.00     0.031 C 
ATOM     65  C   UNL A   1      43.685  27.731  33.625  1.00  0.00     0.037 A 
BRANCH  52  66
ATOM     66  C   UNL A   1      39.569  31.894  35.628  1.00  0.00     0.064 A 
ATOM     67  C   UNL A   1      40.096  33.183  35.808  1.00  0.00     0.173 A 
ATOM     68  C   UNL A   1      38.571  31.465  36.514  1.00  0.00     0.173 A 
ATOM     69  F   UNL A   1      41.064  33.637  34.997  1.00  0.00    -0.203 F 
ATOM     70  C   UNL A   1      39.667  33.994  36.856  1.00  0.00     0.198 A 
ATOM     71  C   UNL A   1      38.121  32.291  37.542  1.00  0.00     0.198 A 
ATOM     72  F   UNL A   1      38.032  30.244  36.386  1.00  0.00    -0.203 F 
ATOM     73  F   UNL A   1      40.227  35.196  37.043  1.00  0.00    -0.200 F 
ATOM     74  C   UNL A   1      38.676  33.549  37.717  1.00  0.00     0.200 A 
ATOM     75  F   UNL A   1      37.155  31.865  38.367  1.00  0.00    -0.200 F 
ATOM     76  F   UNL A   1      38.262  34.331  38.725  1.00  0.00    -0.200 F 
ENDBRANCH  52  66
BRANCH  53  77
ATOM     77  C   UNL A   1      42.671  26.553  27.764  1.00  0.00     0.064 A 
ATOM     78  C   UNL A   1      42.167  25.275  27.487  1.00  0.00     0.173 A 
ATOM     79  C   UNL A   1      43.616  27.089  26.878  1.00  0.00     0.173 A 
ATOM     80  F   UNL A   1      41.272  24.715  28.313  1.00  0.00    -0.203 F 
ATOM     81  C   UNL A   1      42.604  24.555  26.376  1.00  0.00     0.198 A 
ATOM     82  C   UNL A   1      44.033  26.378  25.753  1.00  0.00     0.198 A 
ATOM     83  F   UNL A   1      44.121  28.312  27.092  1.00  0.00    -0.203 F 
ATOM     84  F   UNL A   1      42.131  23.320  26.154  1.00  0.00    -0.200 F 
ATOM     85  C   UNL A   1      43.530  25.109  25.507  1.00  0.00     0.200 A 
ATOM     86  F   UNL A   1      44.915  26.925  24.906  1.00  0.00    -0.200 F 
ATOM     87  F   UNL A   1      43.940  24.421  24.433  1.00  0.00    -0.200 F 
ENDBRANCH  53  77
BRANCH  65  88
ATOM     88  C   UNL A   1      44.785  27.052  34.388  1.00  0.00     0.064 A 
ATOM     89  C   UNL A   1      44.582  25.827  35.041  1.00  0.00     0.173 A 
ATOM     90  C   UNL A   1      46.064  27.626  34.448  1.00  0.00     0.173 A 
ATOM     91  F   UNL A   1      43.373  25.245  35.022  1.00  0.00    -0.203 F 
ATOM     92  C   UNL A   1      45.610  25.221  35.757  1.00  0.00     0.198 A 
ATOM     93  C   UNL A   1      47.098  27.000  35.139  1.00  0.00     0.198 A 
ATOM     94  F   UNL A   1      46.313  28.793  33.833  1.00  0.00    -0.203 F 
ATOM     95  F   UNL A   1      45.377  24.080  36.422  1.00  0.00    -0.200 F 
ATOM     96  C   UNL A   1      46.867  25.803  35.801  1.00  0.00     0.200 A 
ATOM     97  F   UNL A   1      48.316  27.559  35.169  1.00  0.00    -0.200 F 
ATOM     98  F   UNL A   1      47.855  25.218  36.492  1.00  0.00    -0.200 F 
ENDBRANCH  65  88
ENDBRANCH  39  40
ENDBRANCH  31  34
ENDBRANCH  29  30
ENDBRANCH  28  29
ENDBRANCH  27  28
ENDBRANCH   1  27
TORSDOF 16
ENDMDL
