MODEL 1
REMARK VINA RESULT:     -12.1      0.000      0.000
REMARK SMILES CC(C)=CC[N@H+]1CCCC[C@H]1C(=O)NCCCCNC(=O)c1ccc(-c2c3nc(c(-c4c(F)c(F)c(F)c(F)c4F)c4ccc([nH]4)c(-c4c(F)c(F)c(F)c(F)c4F)c4nc(c(-c5c(F)c(F)c(F)c(F)c5F)c5ccc2[nH]5)C=C4)C=C3)cc1
REMARK SMILES IDX 16 1 15 2 14 3 12 4 13 5 11 7 6 8 7 9 8 11 10 12 9 13 5 14
REMARK SMILES IDX 4 15 1 16 2 17 3 18 17 19 18 20 19 21 20 22 21 24 22 25
REMARK SMILES IDX 23 26 84 27 24 28 83 29 25 30 26 31 27 32 77 33 28 34 82 35
REMARK SMILES IDX 76 36 78 37 29 38 81 39 75 40 74 41 30 43 62 44 42 45 61 46
REMARK SMILES IDX 43 47 46 48 60 49 79 50 44 51 45 52 59 54 80 55 47 56 31 57
REMARK SMILES IDX 32 58 40 59 33 60 34 61 38 62 41 63 35 64 36 65 39 66 37 67
REMARK SMILES IDX 63 68 64 69 72 70 65 71 66 72 70 73 73 74 67 75 68 76 71 77
REMARK SMILES IDX 69 78 48 79 49 80 57 81 50 82 51 83 55 84 58 85 52 86 53 87
REMARK SMILES IDX 56 88 54 89
REMARK H PARENT 14 6 6 10 19 23 78 42 46 53
REMARK Flexibility Score: inf
ROOT
ATOM      1  C   UNL A   1      31.558  30.457  26.274  1.00  0.00     0.023 C 
ENDROOT
BRANCH   1   2
ATOM      2  C   UNL A   1      33.006  30.006  26.066  1.00  0.00     0.116 C 
BRANCH   2   3
ATOM      3  N   UNL A   1      33.284  29.757  24.668  1.00  0.00    -0.351 N 
ATOM      4  C   UNL A   1      33.177  28.694  23.835  1.00  0.00     0.278 C 
ATOM      5  O   UNL A   1      33.598  28.949  22.697  1.00  0.00    -0.268 OA
ATOM      6  H   UNL A   1      33.636  30.554  24.211  1.00  0.00     0.163 HD
BRANCH   4   7
ATOM      7  C   UNL A   1      32.511  27.310  24.178  1.00  0.00     0.274 C 
ATOM      8  N   UNL A   1      31.204  27.112  23.466  1.00  0.00    -0.321 N 
ATOM      9  C   UNL A   1      31.379  27.081  22.011  1.00  0.00     0.263 C 
ATOM     10  H   UNL A   1      30.887  26.191  23.769  1.00  0.00     0.349 HD
ATOM     11  C   UNL A   1      32.234  25.875  21.612  1.00  0.00     0.062 C 
ATOM     12  C   UNL A   1      33.273  26.009  23.895  1.00  0.00     0.076 C 
ATOM     13  C   UNL A   1      33.530  25.803  22.407  1.00  0.00     0.012 C 
BRANCH   8  14
ATOM     14  C   UNL A   1      30.116  27.996  23.883  1.00  0.00     0.291 C 
BRANCH  14  15
ATOM     15  C   UNL A   1      29.767  28.973  22.795  1.00  0.00     0.032 C 
ATOM     16  C   UNL A   1      27.278  28.953  23.123  1.00  0.00     0.039 C 
ATOM     17  C   UNL A   1      28.540  29.412  22.449  1.00  0.00    -0.075 C 
ATOM     18  C   UNL A   1      28.395  30.397  21.323  1.00  0.00     0.039 C 
ENDBRANCH  14  15
ENDBRANCH   8  14
ENDBRANCH   4   7
ENDBRANCH   2   3
ENDBRANCH   1   2
BRANCH   1  19
ATOM     19  C   UNL A   1      31.387  31.948  26.566  1.00  0.00     0.023 C 
BRANCH  19  20
ATOM     20  C   UNL A   1      32.573  32.608  27.250  1.00  0.00     0.116 C 
BRANCH  20  21
ATOM     21  N   UNL A   1      32.334  34.008  27.580  1.00  0.00    -0.352 N 
ATOM     22  C   UNL A   1      32.959  34.796  28.511  1.00  0.00     0.251 C 
ATOM     23  H   UNL A   1      31.623  34.449  27.062  1.00  0.00     0.163 HD
ATOM     24  O   UNL A   1      32.551  35.923  28.751  1.00  0.00    -0.269 OA
BRANCH  22  25
ATOM     25  C   UNL A   1      34.116  34.252  29.252  1.00  0.00     0.039 A 
ATOM     26  C   UNL A   1      33.883  33.447  30.369  1.00  0.00     0.014 A 
ATOM     27  C   UNL A   1      35.420  34.498  28.812  1.00  0.00     0.014 A 
ATOM     28  C   UNL A   1      34.959  32.824  31.000  1.00  0.00     0.010 A 
ATOM     29  C   UNL A   1      36.478  33.809  29.388  1.00  0.00     0.010 A 
ATOM     30  C   UNL A   1      36.259  32.966  30.488  1.00  0.00    -0.014 A 
BRANCH  30  31
ATOM     31  C   UNL A   1      37.403  32.237  31.086  1.00  0.00     0.031 A 
ATOM     32  C   UNL A   1      37.889  32.598  32.459  1.00  0.00     0.074 A 
ATOM     33  C   UNL A   1      38.045  31.301  30.359  1.00  0.00     0.049 A 
ATOM     34  N   UNL A   1      38.906  32.119  33.129  1.00  0.00    -0.248 NA
ATOM     35  C   UNL A   1      37.155  33.662  33.162  1.00  0.00     0.031 C 
ATOM     36  C   UNL A   1      37.707  30.915  28.988  1.00  0.00     0.029 A 
ATOM     37  N   UNL A   1      39.123  30.512  30.669  1.00  0.00    -0.354 N 
ATOM     38  C   UNL A   1      38.943  32.834  34.319  1.00  0.00     0.074 A 
ATOM     39  C   UNL A   1      37.885  33.819  34.256  1.00  0.00     0.031 C 
ATOM     40  C   UNL A   1      38.541  29.943  28.587  1.00  0.00     0.029 A 
ATOM     41  C   UNL A   1      39.490  29.659  29.658  1.00  0.00     0.049 A 
ATOM     42  H   UNL A   1      39.588  30.554  31.536  1.00  0.00     0.167 HD
ATOM     43  C   UNL A   1      39.767  32.665  35.379  1.00  0.00     0.037 A 
ATOM     44  C   UNL A   1      40.482  28.751  29.605  1.00  0.00     0.037 A 
ATOM     45  C   UNL A   1      40.795  31.661  35.450  1.00  0.00     0.049 A 
ATOM     46  C   UNL A   1      41.368  28.567  30.807  1.00  0.00     0.074 A 
ATOM     47  C   UNL A   1      41.637  31.360  36.505  1.00  0.00     0.029 A 
ATOM     48  N   UNL A   1      41.120  30.793  34.417  1.00  0.00    -0.354 N 
ATOM     49  N   UNL A   1      41.344  29.195  31.956  1.00  0.00    -0.248 NA
ATOM     50  C   UNL A   1      42.414  27.540  30.704  1.00  0.00     0.031 C 
ATOM     51  C   UNL A   1      42.497  30.333  36.097  1.00  0.00     0.029 A 
ATOM     52  C   UNL A   1      42.161  29.966  34.804  1.00  0.00     0.049 A 
ATOM     53  H   UNL A   1      40.674  30.768  33.539  1.00  0.00     0.167 HD
ATOM     54  C   UNL A   1      42.353  28.627  32.722  1.00  0.00     0.074 A 
ATOM     55  C   UNL A   1      42.956  27.589  31.912  1.00  0.00     0.031 C 
ATOM     56  C   UNL A   1      42.746  28.938  33.982  1.00  0.00     0.037 A 
BRANCH  43  57
ATOM     57  C   UNL A   1      39.579  33.580  36.554  1.00  0.00     0.064 A 
ATOM     58  C   UNL A   1      38.764  33.223  37.640  1.00  0.00     0.173 A 
ATOM     59  C   UNL A   1      40.238  34.816  36.608  1.00  0.00     0.173 A 
ATOM     60  F   UNL A   1      38.100  32.057  37.630  1.00  0.00    -0.203 F 
ATOM     61  C   UNL A   1      38.592  34.083  38.721  1.00  0.00     0.198 A 
ATOM     62  C   UNL A   1      40.088  35.661  37.705  1.00  0.00     0.198 A 
ATOM     63  F   UNL A   1      41.031  35.206  35.599  1.00  0.00    -0.203 F 
ATOM     64  F   UNL A   1      37.768  33.741  39.721  1.00  0.00    -0.200 F 
ATOM     65  C   UNL A   1      39.259  35.298  38.756  1.00  0.00     0.200 A 
ATOM     66  F   UNL A   1      40.741  36.831  37.743  1.00  0.00    -0.200 F 
ATOM     67  F   UNL A   1      39.096  36.122  39.800  1.00  0.00    -0.200 F 
ENDBRANCH  43  57
BRANCH  44  68
ATOM     68  C   UNL A   1      40.664  27.921  28.387  1.00  0.00     0.064 A 
ATOM     69  C   UNL A   1      40.049  26.666  28.275  1.00  0.00     0.173 A 
ATOM     70  C   UNL A   1      41.454  28.359  27.314  1.00  0.00     0.173 A 
ATOM     71  F   UNL A   1      39.300  26.198  29.285  1.00  0.00    -0.203 F 
ATOM     72  C   UNL A   1      40.230  25.873  27.145  1.00  0.00     0.198 A 
ATOM     73  C   UNL A   1      41.613  27.575  26.173  1.00  0.00     0.198 A 
ATOM     74  F   UNL A   1      42.059  29.553  27.368  1.00  0.00    -0.203 F 
ATOM     75  F   UNL A   1      39.665  24.660  27.084  1.00  0.00    -0.200 F 
ATOM     76  C   UNL A   1      41.008  26.329  26.093  1.00  0.00     0.200 A 
ATOM     77  F   UNL A   1      42.355  28.026  25.151  1.00  0.00    -0.200 F 
ATOM     78  F   UNL A   1      41.180  25.567  25.004  1.00  0.00    -0.200 F 
ENDBRANCH  44  68
BRANCH  56  79
ATOM     79  C   UNL A   1      43.867  28.131  34.565  1.00  0.00     0.064 A 
ATOM     80  C   UNL A   1      45.202  28.552  34.471  1.00  0.00     0.173 A 
ATOM     81  C   UNL A   1      43.600  26.936  35.251  1.00  0.00     0.173 A 
ATOM     82  F   UNL A   1      45.509  29.678  33.810  1.00  0.00    -0.203 F 
ATOM     83  C   UNL A   1      46.231  27.792  35.019  1.00  0.00     0.198 A 
ATOM     84  C   UNL A   1      44.629  26.194  35.823  1.00  0.00     0.198 A 
ATOM     85  F   UNL A   1      42.340  26.494  35.374  1.00  0.00    -0.203 F 
ATOM     86  F   UNL A   1      47.503  28.188  34.873  1.00  0.00    -0.200 F 
ATOM     87  C   UNL A   1      45.944  26.618  35.700  1.00  0.00     0.200 A 
ATOM     88  F   UNL A   1      44.349  25.067  36.491  1.00  0.00    -0.200 F 
ATOM     89  F   UNL A   1      46.936  25.890  36.230  1.00  0.00    -0.200 F 
ENDBRANCH  56  79
ENDBRANCH  30  31
ENDBRANCH  22  25
ENDBRANCH  20  21
ENDBRANCH  19  20
ENDBRANCH   1  19
TORSDOF 13
ENDMDL
MODEL 2
REMARK VINA RESULT:     -12.0      0.650      7.553
REMARK SMILES CC(C)=CC[N@H+]1CCCC[C@H]1C(=O)NCCCCNC(=O)c1ccc(-c2c3nc(c(-c4c(F)c(F)c(F)c(F)c4F)c4ccc([nH]4)c(-c4c(F)c(F)c(F)c(F)c4F)c4nc(c(-c5c(F)c(F)c(F)c(F)c5F)c5ccc2[nH]5)C=C4)C=C3)cc1
REMARK SMILES IDX 16 1 15 2 14 3 12 4 13 5 11 7 6 8 7 9 8 11 10 12 9 13 5 14
REMARK SMILES IDX 4 15 1 16 2 17 3 18 17 19 18 20 19 21 20 22 21 24 22 25
REMARK SMILES IDX 23 26 84 27 24 28 83 29 25 30 26 31 27 32 77 33 28 34 82 35
REMARK SMILES IDX 76 36 78 37 29 38 81 39 75 40 74 41 30 43 62 44 42 45 61 46
REMARK SMILES IDX 43 47 46 48 60 49 79 50 44 51 45 52 59 54 80 55 47 56 31 57
REMARK SMILES IDX 32 58 40 59 33 60 34 61 38 62 41 63 35 64 36 65 39 66 37 67
REMARK SMILES IDX 63 68 64 69 72 70 65 71 66 72 70 73 73 74 67 75 68 76 71 77
REMARK SMILES IDX 69 78 48 79 49 80 57 81 50 82 51 83 55 84 58 85 52 86 53 87
REMARK SMILES IDX 56 88 54 89
REMARK H PARENT 14 6 6 10 19 23 78 42 46 53
REMARK Flexibility Score: inf
ROOT
ATOM      1  C   UNL A   1      31.795  30.436  26.589  1.00  0.00     0.023 C 
ENDROOT
BRANCH   1   2
ATOM      2  C   UNL A   1      33.224  29.988  26.270  1.00  0.00     0.116 C 
BRANCH   2   3
ATOM      3  N   UNL A   1      33.413  29.802  24.848  1.00  0.00    -0.351 N 
ATOM      4  C   UNL A   1      33.243  28.779  23.975  1.00  0.00     0.278 C 
ATOM      5  O   UNL A   1      33.597  29.083  22.826  1.00  0.00    -0.268 OA
ATOM      6  H   UNL A   1      33.745  30.617  24.407  1.00  0.00     0.163 HD
BRANCH   4   7
ATOM      7  C   UNL A   1      32.585  27.387  24.295  1.00  0.00     0.274 C 
ATOM      8  N   UNL A   1      31.255  27.214  23.620  1.00  0.00    -0.321 N 
ATOM      9  C   UNL A   1      31.383  27.230  22.160  1.00  0.00     0.263 C 
ATOM     10  H   UNL A   1      30.945  26.284  23.903  1.00  0.00     0.349 HD
ATOM     11  C   UNL A   1      32.221  26.035  21.695  1.00  0.00     0.062 C 
ATOM     12  C   UNL A   1      33.333  26.094  23.946  1.00  0.00     0.076 C 
ATOM     13  C   UNL A   1      33.542  25.935  22.445  1.00  0.00     0.012 C 
BRANCH   8  14
ATOM     14  C   UNL A   1      30.184  28.086  24.100  1.00  0.00     0.291 C 
BRANCH  14  15
ATOM     15  C   UNL A   1      29.732  29.030  23.020  1.00  0.00     0.032 C 
ATOM     16  C   UNL A   1      27.266  28.611  23.230  1.00  0.00     0.039 C 
ATOM     17  C   UNL A   1      28.467  29.283  22.627  1.00  0.00    -0.075 C 
ATOM     18  C   UNL A   1      28.217  30.268  21.520  1.00  0.00     0.039 C 
ENDBRANCH  14  15
ENDBRANCH   8  14
ENDBRANCH   4   7
ENDBRANCH   2   3
ENDBRANCH   1   2
BRANCH   1  19
ATOM     19  C   UNL A   1      31.603  31.949  26.681  1.00  0.00     0.023 C 
BRANCH  19  20
ATOM     20  C   UNL A   1      32.747  32.702  27.341  1.00  0.00     0.116 C 
BRANCH  20  21
ATOM     21  N   UNL A   1      32.425  34.096  27.624  1.00  0.00    -0.352 N 
ATOM     22  C   UNL A   1      32.978  34.941  28.550  1.00  0.00     0.251 C 
ATOM     23  H   UNL A   1      31.709  34.484  27.071  1.00  0.00     0.163 HD
ATOM     24  O   UNL A   1      32.504  36.051  28.744  1.00  0.00    -0.269 OA
BRANCH  22  25
ATOM     25  C   UNL A   1      34.137  34.480  29.341  1.00  0.00     0.039 A 
ATOM     26  C   UNL A   1      33.910  33.877  30.580  1.00  0.00     0.014 A 
ATOM     27  C   UNL A   1      35.435  34.599  28.836  1.00  0.00     0.014 A 
ATOM     28  C   UNL A   1      34.983  33.322  31.279  1.00  0.00     0.010 A 
ATOM     29  C   UNL A   1      36.486  33.973  29.491  1.00  0.00     0.010 A 
ATOM     30  C   UNL A   1      36.271  33.329  30.718  1.00  0.00    -0.014 A 
BRANCH  30  31
ATOM     31  C   UNL A   1      37.407  32.662  31.399  1.00  0.00     0.031 A 
ATOM     32  C   UNL A   1      38.110  31.513  30.736  1.00  0.00     0.074 A 
ATOM     33  C   UNL A   1      37.753  33.047  32.643  1.00  0.00     0.049 A 
ATOM     34  N   UNL A   1      39.083  30.765  31.190  1.00  0.00    -0.248 NA
ATOM     35  C   UNL A   1      37.636  31.132  29.396  1.00  0.00     0.031 C 
ATOM     36  C   UNL A   1      37.096  34.104  33.415  1.00  0.00     0.029 A 
ATOM     37  N   UNL A   1      38.736  32.587  33.480  1.00  0.00    -0.354 N 
ATOM     38  C   UNL A   1      39.323  29.819  30.204  1.00  0.00     0.074 A 
ATOM     39  C   UNL A   1      38.357  30.048  29.151  1.00  0.00     0.031 C 
ATOM     40  C   UNL A   1      37.714  34.231  34.600  1.00  0.00     0.029 A 
ATOM     41  C   UNL A   1      38.788  33.245  34.684  1.00  0.00     0.049 A 
ATOM     42  H   UNL A   1      39.348  31.854  33.240  1.00  0.00     0.167 HD
ATOM     43  C   UNL A   1      40.281  28.864  30.166  1.00  0.00     0.037 A 
ATOM     44  C   UNL A   1      39.610  33.072  35.735  1.00  0.00     0.037 A 
ATOM     45  C   UNL A   1      41.261  28.663  31.200  1.00  0.00     0.049 A 
ATOM     46  C   UNL A   1      40.682  32.019  35.657  1.00  0.00     0.074 A 
ATOM     47  C   UNL A   1      42.318  27.771  31.227  1.00  0.00     0.029 A 
ATOM     48  N   UNL A   1      41.302  29.370  32.393  1.00  0.00    -0.354 N 
ATOM     49  N   UNL A   1      40.949  31.181  34.686  1.00  0.00    -0.248 NA
ATOM     50  C   UNL A   1      41.571  31.895  36.820  1.00  0.00     0.031 C 
ATOM     51  C   UNL A   1      42.977  27.913  32.454  1.00  0.00     0.029 A 
ATOM     52  C   UNL A   1      42.356  28.923  33.172  1.00  0.00     0.049 A 
ATOM     53  H   UNL A   1      40.675  30.085  32.648  1.00  0.00     0.167 HD
ATOM     54  C   UNL A   1      42.049  30.447  35.107  1.00  0.00     0.074 A 
ATOM     55  C   UNL A   1      42.411  30.953  36.415  1.00  0.00     0.031 C 
ATOM     56  C   UNL A   1      42.700  29.442  34.471  1.00  0.00     0.037 A 
BRANCH  43  57
ATOM     57  C   UNL A   1      40.322  27.972  28.960  1.00  0.00     0.064 A 
ATOM     58  C   UNL A   1      39.611  26.761  28.918  1.00  0.00     0.173 A 
ATOM     59  C   UNL A   1      41.058  28.339  27.825  1.00  0.00     0.173 A 
ATOM     60  F   UNL A   1      38.902  26.358  29.983  1.00  0.00    -0.203 F 
ATOM     61  C   UNL A   1      39.661  25.939  27.795  1.00  0.00     0.198 A 
ATOM     62  C   UNL A   1      41.083  27.528  26.693  1.00  0.00     0.198 A 
ATOM     63  F   UNL A   1      41.754  29.485  27.811  1.00  0.00    -0.203 F 
ATOM     64  F   UNL A   1      39.016  24.764  27.799  1.00  0.00    -0.200 F 
ATOM     65  C   UNL A   1      40.391  26.325  26.682  1.00  0.00     0.200 A 
ATOM     66  F   UNL A   1      41.780  27.907  25.613  1.00  0.00    -0.200 F 
ATOM     67  F   UNL A   1      40.435  25.535  25.601  1.00  0.00    -0.200 F 
ENDBRANCH  43  57
BRANCH  44  68
ATOM     68  C   UNL A   1      39.478  33.940  36.933  1.00  0.00     0.064 A 
ATOM     69  C   UNL A   1      38.734  33.521  38.044  1.00  0.00     0.173 A 
ATOM     70  C   UNL A   1      40.087  35.202  36.992  1.00  0.00     0.173 A 
ATOM     71  F   UNL A   1      38.118  32.330  38.025  1.00  0.00    -0.203 F 
ATOM     72  C   UNL A   1      38.589  34.338  39.163  1.00  0.00     0.198 A 
ATOM     73  C   UNL A   1      39.962  36.007  38.123  1.00  0.00     0.198 A 
ATOM     74  F   UNL A   1      40.814  35.647  35.958  1.00  0.00    -0.203 F 
ATOM     75  F   UNL A   1      37.837  33.929  40.194  1.00  0.00    -0.200 F 
ATOM     76  C   UNL A   1      39.206  35.578  39.204  1.00  0.00     0.200 A 
ATOM     77  F   UNL A   1      40.572  37.200  38.164  1.00  0.00    -0.200 F 
ATOM     78  F   UNL A   1      39.069  36.362  40.282  1.00  0.00    -0.200 F 
ENDBRANCH  44  68
BRANCH  56  79
ATOM     79  C   UNL A   1      43.880  28.841  35.174  1.00  0.00     0.064 A 
ATOM     80  C   UNL A   1      43.741  27.743  36.035  1.00  0.00     0.173 A 
ATOM     81  C   UNL A   1      45.169  29.353  34.961  1.00  0.00     0.173 A 
ATOM     82  F   UNL A   1      42.527  27.230  36.283  1.00  0.00    -0.203 F 
ATOM     83  C   UNL A   1      44.847  27.196  36.679  1.00  0.00     0.198 A 
ATOM     84  C   UNL A   1      46.276  28.784  35.584  1.00  0.00     0.198 A 
ATOM     85  F   UNL A   1      45.356  30.398  34.141  1.00  0.00    -0.203 F 
ATOM     86  F   UNL A   1      44.684  26.178  37.536  1.00  0.00    -0.200 F 
ATOM     87  C   UNL A   1      46.114  27.712  36.448  1.00  0.00     0.200 A 
ATOM     88  F   UNL A   1      47.501  29.276  35.350  1.00  0.00    -0.200 F 
ATOM     89  F   UNL A   1      47.177  27.181  37.066  1.00  0.00    -0.200 F 
ENDBRANCH  56  79
ENDBRANCH  30  31
ENDBRANCH  22  25
ENDBRANCH  20  21
ENDBRANCH  19  20
ENDBRANCH   1  19
TORSDOF 13
ENDMDL
MODEL 3
REMARK VINA RESULT:     -11.9      0.484      2.194
REMARK SMILES CC(C)=CC[N@H+]1CCCC[C@H]1C(=O)NCCCCNC(=O)c1ccc(-c2c3nc(c(-c4c(F)c(F)c(F)c(F)c4F)c4ccc([nH]4)c(-c4c(F)c(F)c(F)c(F)c4F)c4nc(c(-c5c(F)c(F)c(F)c(F)c5F)c5ccc2[nH]5)C=C4)C=C3)cc1
REMARK SMILES IDX 16 1 15 2 14 3 12 4 13 5 11 7 6 8 7 9 8 11 10 12 9 13 5 14
REMARK SMILES IDX 4 15 1 16 2 17 3 18 17 19 18 20 19 21 20 22 21 24 22 25
REMARK SMILES IDX 23 26 84 27 24 28 83 29 25 30 26 31 27 32 77 33 28 34 82 35
REMARK SMILES IDX 76 36 78 37 29 38 81 39 75 40 74 41 30 43 62 44 42 45 61 46
REMARK SMILES IDX 43 47 46 48 60 49 79 50 44 51 45 52 59 54 80 55 47 56 31 57
REMARK SMILES IDX 32 58 40 59 33 60 34 61 38 62 41 63 35 64 36 65 39 66 37 67
REMARK SMILES IDX 63 68 64 69 72 70 65 71 66 72 70 73 73 74 67 75 68 76 71 77
REMARK SMILES IDX 69 78 48 79 49 80 57 81 50 82 51 83 55 84 58 85 52 86 53 87
REMARK SMILES IDX 56 88 54 89
REMARK H PARENT 14 6 6 10 19 23 78 42 46 53
REMARK Flexibility Score: inf
ROOT
ATOM      1  C   UNL A   1      31.626  30.652  26.322  1.00  0.00     0.023 C 
ENDROOT
BRANCH   1   2
ATOM      2  C   UNL A   1      33.078  30.174  26.404  1.00  0.00     0.116 C 
BRANCH   2   3
ATOM      3  N   UNL A   1      33.558  29.722  25.116  1.00  0.00    -0.351 N 
ATOM      4  C   UNL A   1      33.427  28.593  24.377  1.00  0.00     0.278 C 
ATOM      5  O   UNL A   1      34.082  28.646  23.325  1.00  0.00    -0.268 OA
ATOM      6  H   UNL A   1      34.113  30.399  24.667  1.00  0.00     0.163 HD
BRANCH   4   7
ATOM      7  C   UNL A   1      32.491  27.373  24.705  1.00  0.00     0.274 C 
ATOM      8  N   UNL A   1      32.319  26.452  23.532  1.00  0.00    -0.321 N 
ATOM      9  C   UNL A   1      33.590  25.839  23.135  1.00  0.00     0.263 C 
ATOM     10  H   UNL A   1      31.703  25.714  23.876  1.00  0.00     0.349 HD
ATOM     11  C   UNL A   1      34.117  24.949  24.263  1.00  0.00     0.062 C 
ATOM     12  C   UNL A   1      32.854  26.424  25.855  1.00  0.00     0.076 C 
ATOM     13  C   UNL A   1      34.158  25.679  25.599  1.00  0.00     0.012 C 
BRANCH   8  14
ATOM     14  C   UNL A   1      31.581  27.003  22.397  1.00  0.00     0.291 C 
BRANCH  14  15
ATOM     15  C   UNL A   1      30.184  27.391  22.798  1.00  0.00     0.032 C 
ATOM     16  C   UNL A   1      30.259  29.767  21.994  1.00  0.00     0.039 C 
ATOM     17  C   UNL A   1      29.582  28.585  22.627  1.00  0.00    -0.075 C 
ATOM     18  C   UNL A   1      28.168  28.777  23.100  1.00  0.00     0.039 C 
ENDBRANCH  14  15
ENDBRANCH   8  14
ENDBRANCH   4   7
ENDBRANCH   2   3
ENDBRANCH   1   2
BRANCH   1  19
ATOM     19  C   UNL A   1      31.393  32.081  26.809  1.00  0.00     0.023 C 
BRANCH  19  20
ATOM     20  C   UNL A   1      32.643  32.813  27.271  1.00  0.00     0.116 C 
BRANCH  20  21
ATOM     21  N   UNL A   1      32.389  34.203  27.631  1.00  0.00    -0.352 N 
ATOM     22  C   UNL A   1      33.008  34.979  28.578  1.00  0.00     0.251 C 
ATOM     23  H   UNL A   1      31.672  34.647  27.123  1.00  0.00     0.163 HD
ATOM     24  O   UNL A   1      32.588  36.096  28.842  1.00  0.00    -0.269 OA
BRANCH  22  25
ATOM     25  C   UNL A   1      34.171  34.431  29.305  1.00  0.00     0.039 A 
ATOM     26  C   UNL A   1      33.952  33.701  30.475  1.00  0.00     0.014 A 
ATOM     27  C   UNL A   1      35.465  34.599  28.803  1.00  0.00     0.014 A 
ATOM     28  C   UNL A   1      35.028  33.072  31.101  1.00  0.00     0.010 A 
ATOM     29  C   UNL A   1      36.519  33.903  29.379  1.00  0.00     0.010 A 
ATOM     30  C   UNL A   1      36.311  33.133  30.533  1.00  0.00    -0.014 A 
BRANCH  30  31
ATOM     31  C   UNL A   1      37.450  32.393  31.129  1.00  0.00     0.031 A 
ATOM     32  C   UNL A   1      37.949  32.758  32.497  1.00  0.00     0.074 A 
ATOM     33  C   UNL A   1      38.075  31.444  30.405  1.00  0.00     0.049 A 
ATOM     34  N   UNL A   1      38.964  32.272  33.164  1.00  0.00    -0.248 NA
ATOM     35  C   UNL A   1      37.233  33.837  33.196  1.00  0.00     0.031 C 
ATOM     36  C   UNL A   1      37.723  31.053  29.039  1.00  0.00     0.029 A 
ATOM     37  N   UNL A   1      39.145  30.644  30.715  1.00  0.00    -0.354 N 
ATOM     38  C   UNL A   1      39.018  32.995  34.348  1.00  0.00     0.074 A 
ATOM     39  C   UNL A   1      37.972  33.992  34.285  1.00  0.00     0.031 C 
ATOM     40  C   UNL A   1      38.543  30.067  28.640  1.00  0.00     0.029 A 
ATOM     41  C   UNL A   1      39.496  29.779  29.708  1.00  0.00     0.049 A 
ATOM     42  H   UNL A   1      39.616  30.686  31.578  1.00  0.00     0.167 HD
ATOM     43  C   UNL A   1      39.846  32.823  35.404  1.00  0.00     0.037 A 
ATOM     44  C   UNL A   1      40.476  28.859  29.655  1.00  0.00     0.037 A 
ATOM     45  C   UNL A   1      40.862  31.807  35.476  1.00  0.00     0.049 A 
ATOM     46  C   UNL A   1      41.367  28.672  30.852  1.00  0.00     0.074 A 
ATOM     47  C   UNL A   1      41.707  31.502  36.528  1.00  0.00     0.029 A 
ATOM     48  N   UNL A   1      41.169  30.927  34.448  1.00  0.00    -0.354 N 
ATOM     49  N   UNL A   1      41.358  29.309  31.997  1.00  0.00    -0.248 NA
ATOM     50  C   UNL A   1      42.398  27.631  30.751  1.00  0.00     0.031 C 
ATOM     51  C   UNL A   1      42.551  30.462  36.122  1.00  0.00     0.029 A 
ATOM     52  C   UNL A   1      42.202  30.090  34.834  1.00  0.00     0.049 A 
ATOM     53  H   UNL A   1      40.718  30.901  33.573  1.00  0.00     0.167 HD
ATOM     54  C   UNL A   1      42.364  28.733  32.762  1.00  0.00     0.074 A 
ATOM     55  C   UNL A   1      42.949  27.682  31.955  1.00  0.00     0.031 C 
ATOM     56  C   UNL A   1      42.769  29.048  34.016  1.00  0.00     0.037 A 
BRANCH  43  57
ATOM     57  C   UNL A   1      39.678  33.749  36.573  1.00  0.00     0.064 A 
ATOM     58  C   UNL A   1      40.325  34.994  36.623  1.00  0.00     0.173 A 
ATOM     59  C   UNL A   1      38.844  33.401  37.645  1.00  0.00     0.173 A 
ATOM     60  F   UNL A   1      41.146  35.369  35.629  1.00  0.00    -0.203 F 
ATOM     61  C   UNL A   1      40.166  35.842  37.716  1.00  0.00     0.198 A 
ATOM     62  C   UNL A   1      38.663  34.264  38.723  1.00  0.00     0.198 A 
ATOM     63  F   UNL A   1      38.200  32.225  37.647  1.00  0.00    -0.203 F 
ATOM     64  F   UNL A   1      40.835  37.002  37.764  1.00  0.00    -0.200 F 
ATOM     65  C   UNL A   1      39.331  35.480  38.761  1.00  0.00     0.200 A 
ATOM     66  F   UNL A   1      37.847  33.918  39.728  1.00  0.00    -0.200 F 
ATOM     67  F   UNL A   1      39.175  36.299  39.811  1.00  0.00    -0.200 F 
ENDBRANCH  43  57
BRANCH  44  68
ATOM     68  C   UNL A   1      40.639  28.017  28.442  1.00  0.00     0.064 A 
ATOM     69  C   UNL A   1      41.409  28.462  27.358  1.00  0.00     0.173 A 
ATOM     70  C   UNL A   1      40.032  26.757  28.338  1.00  0.00     0.173 A 
ATOM     71  F   UNL A   1      41.993  29.668  27.405  1.00  0.00    -0.203 F 
ATOM     72  C   UNL A   1      41.551  27.688  26.209  1.00  0.00     0.198 A 
ATOM     73  C   UNL A   1      40.197  25.972  27.198  1.00  0.00     0.198 A 
ATOM     74  F   UNL A   1      39.291  26.283  29.349  1.00  0.00    -0.203 F 
ATOM     75  F   UNL A   1      42.257  28.156  25.172  1.00  0.00    -0.200 F 
ATOM     76  C   UNL A   1      40.948  26.441  26.132  1.00  0.00     0.200 A 
ATOM     77  F   UNL A   1      39.624  24.762  27.133  1.00  0.00    -0.200 F 
ATOM     78  F   UNL A   1      41.088  25.695  25.027  1.00  0.00    -0.200 F 
ENDBRANCH  44  68
BRANCH  56  79
ATOM     79  C   UNL A   1      43.883  28.231  34.598  1.00  0.00     0.064 A 
ATOM     80  C   UNL A   1      43.632  27.052  35.315  1.00  0.00     0.173 A 
ATOM     81  C   UNL A   1      45.219  28.617  34.413  1.00  0.00     0.173 A 
ATOM     82  F   UNL A   1      42.370  26.651  35.532  1.00  0.00    -0.203 F 
ATOM     83  C   UNL A   1      44.677  26.303  35.848  1.00  0.00     0.198 A 
ATOM     84  C   UNL A   1      46.263  27.850  34.923  1.00  0.00     0.198 A 
ATOM     85  F   UNL A   1      45.513  29.733  33.730  1.00  0.00    -0.203 F 
ATOM     86  F   UNL A   1      44.411  25.207  36.572  1.00  0.00    -0.200 F 
ATOM     87  C   UNL A   1      45.991  26.699  35.646  1.00  0.00     0.200 A 
ATOM     88  F   UNL A   1      47.533  28.227  34.717  1.00  0.00    -0.200 F 
ATOM     89  F   UNL A   1      46.995  25.974  36.158  1.00  0.00    -0.200 F 
ENDBRANCH  56  79
ENDBRANCH  30  31
ENDBRANCH  22  25
ENDBRANCH  20  21
ENDBRANCH  19  20
ENDBRANCH   1  19
TORSDOF 13
ENDMDL
