MODEL 1
REMARK VINA RESULT:     -12.2      0.000      0.000
REMARK SMILES [NH3+][C@H](Cc1ccc(O)c(F)c1)C(=O)NCCCCNC(=O)c1ccc(-c2c3nc(c(-c4c(F)c(F)c(F)c(F)c4F)c4ccc([nH]4)c(-c4c(F)c(F)c(F)c(F)c4F)c4nc(c(-c5c(F)c(F)c(F)c(F)c5F)c5ccc2[nH]5)C=C4)C=C3)cc1
REMARK SMILES IDX 16 1 15 2 14 3 12 4 13 5 2 7 1 8 3 12 4 13 5 14 11 15 6 16
REMARK SMILES IDX 9 17 7 18 10 19 8 20 17 22 18 23 19 24 20 25 21 27 22 28
REMARK SMILES IDX 23 29 84 30 24 31 83 32 25 33 26 34 27 35 77 36 28 37 82 38
REMARK SMILES IDX 76 39 78 40 29 41 81 42 75 43 74 44 30 46 62 47 42 48 61 49
REMARK SMILES IDX 43 50 46 51 60 52 79 53 44 54 45 55 59 57 80 58 47 59 31 60
REMARK SMILES IDX 32 61 40 62 33 63 34 64 38 65 41 66 35 67 36 68 39 69 37 70
REMARK SMILES IDX 63 71 64 72 72 73 65 74 66 75 70 76 73 77 67 78 68 79 71 80
REMARK SMILES IDX 69 81 48 82 49 83 57 84 50 85 51 86 55 87 58 88 52 89 53 90
REMARK SMILES IDX 56 91 54 92
REMARK H PARENT 14 6 1 9 1 10 1 11 8 21 19 26 78 45 46 56
REMARK Flexibility Score: inf
ROOT
ATOM      1  C   UNL A   1      31.805  30.336  26.651  1.00  0.00     0.023 C 
ENDROOT
BRANCH   1   2
ATOM      2  C   UNL A   1      31.855  29.857  25.204  1.00  0.00     0.116 C 
BRANCH   2   3
ATOM      3  N   UNL A   1      31.867  28.411  25.119  1.00  0.00    -0.351 N 
ATOM      4  C   UNL A   1      31.389  27.571  24.158  1.00  0.00     0.278 C 
ATOM      5  O   UNL A   1      31.508  26.359  24.359  1.00  0.00    -0.268 OA
ATOM      6  H   UNL A   1      32.294  27.959  25.883  1.00  0.00     0.163 HD
BRANCH   4   7
ATOM      7  C   UNL A   1      30.729  28.103  22.870  1.00  0.00     0.275 C 
BRANCH   7   8
ATOM      8  N   UNL A   1      31.605  29.104  22.216  1.00  0.00    -0.347 N 
ATOM      9  H   UNL A   1      31.262  29.293  21.273  1.00  0.00     0.345 HD
ATOM     10  H   UNL A   1      32.557  28.741  22.165  1.00  0.00     0.345 HD
ATOM     11  H   UNL A   1      31.600  29.968  22.759  1.00  0.00     0.345 HD
ENDBRANCH   7   8
BRANCH   7  12
ATOM     12  C   UNL A   1      29.288  28.578  23.159  1.00  0.00     0.111 C 
BRANCH  12  13
ATOM     13  C   UNL A   1      28.904  29.969  22.693  1.00  0.00    -0.038 A 
ATOM     14  C   UNL A   1      28.987  31.101  23.517  1.00  0.00     0.008 A 
ATOM     15  C   UNL A   1      28.373  30.124  21.403  1.00  0.00     0.047 A 
ATOM     16  C   UNL A   1      28.580  32.360  23.061  1.00  0.00     0.049 A 
ATOM     17  C   UNL A   1      27.969  31.378  20.951  1.00  0.00     0.165 A 
ATOM     18  C   UNL A   1      28.075  32.495  21.773  1.00  0.00     0.151 A 
ATOM     19  F   UNL A   1      27.472  31.491  19.710  1.00  0.00    -0.203 F 
BRANCH  18  20
ATOM     20  O   UNL A   1      27.676  33.713  21.306  1.00  0.00    -0.505 OA
ATOM     21  H   UNL A   1      27.241  34.314  21.877  1.00  0.00     0.293 HD
ENDBRANCH  18  20
ENDBRANCH  12  13
ENDBRANCH   7  12
ENDBRANCH   4   7
ENDBRANCH   2   3
ENDBRANCH   1   2
BRANCH   1  22
ATOM     22  C   UNL A   1      31.543  31.832  26.823  1.00  0.00     0.023 C 
BRANCH  22  23
ATOM     23  C   UNL A   1      32.753  32.654  27.251  1.00  0.00     0.116 C 
BRANCH  23  24
ATOM     24  N   UNL A   1      32.419  34.037  27.555  1.00  0.00    -0.352 N 
ATOM     25  C   UNL A   1      32.975  34.869  28.496  1.00  0.00     0.251 C 
ATOM     26  H   UNL A   1      31.698  34.430  27.013  1.00  0.00     0.163 HD
ATOM     27  O   UNL A   1      32.486  35.971  28.721  1.00  0.00    -0.269 OA
BRANCH  25  28
ATOM     28  C   UNL A   1      34.149  34.407  29.263  1.00  0.00     0.039 A 
ATOM     29  C   UNL A   1      33.946  33.728  30.466  1.00  0.00     0.014 A 
ATOM     30  C   UNL A   1      35.441  34.608  28.770  1.00  0.00     0.014 A 
ATOM     31  C   UNL A   1      35.040  33.187  31.142  1.00  0.00     0.010 A 
ATOM     32  C   UNL A   1      36.521  34.004  29.405  1.00  0.00     0.010 A 
ATOM     33  C   UNL A   1      36.331  33.288  30.597  1.00  0.00    -0.014 A 
BRANCH  33  34
ATOM     34  C   UNL A   1      37.496  32.648  31.256  1.00  0.00     0.031 A 
ATOM     35  C   UNL A   1      38.216  31.518  30.578  1.00  0.00     0.074 A 
ATOM     36  C   UNL A   1      37.859  33.037  32.493  1.00  0.00     0.049 A 
ATOM     37  N   UNL A   1      39.204  30.781  31.020  1.00  0.00    -0.248 NA
ATOM     38  C   UNL A   1      37.744  31.146  29.235  1.00  0.00     0.031 C 
ATOM     39  C   UNL A   1      37.204  34.086  33.278  1.00  0.00     0.029 A 
ATOM     40  N   UNL A   1      38.862  32.586  33.316  1.00  0.00    -0.354 N 
ATOM     41  C   UNL A   1      39.459  29.855  30.018  1.00  0.00     0.074 A 
ATOM     42  C   UNL A   1      38.488  30.083  28.971  1.00  0.00     0.031 C 
ATOM     43  C   UNL A   1      37.832  34.209  34.458  1.00  0.00     0.029 A 
ATOM     44  C   UNL A   1      38.909  33.228  34.529  1.00  0.00     0.049 A 
ATOM     45  H   UNL A   1      39.487  31.870  33.060  1.00  0.00     0.167 HD
ATOM     46  C   UNL A   1      40.435  28.917  29.964  1.00  0.00     0.037 A 
ATOM     47  C   UNL A   1      39.726  33.038  35.583  1.00  0.00     0.037 A 
ATOM     48  C   UNL A   1      41.415  28.708  30.998  1.00  0.00     0.049 A 
ATOM     49  C   UNL A   1      40.802  31.990  35.498  1.00  0.00     0.074 A 
ATOM     50  C   UNL A   1      42.477  27.822  31.015  1.00  0.00     0.029 A 
ATOM     51  N   UNL A   1      41.448  29.397  32.202  1.00  0.00    -0.354 N 
ATOM     52  N   UNL A   1      41.079  31.166  34.518  1.00  0.00    -0.248 NA
ATOM     53  C   UNL A   1      41.684  31.850  36.666  1.00  0.00     0.031 C 
ATOM     54  C   UNL A   1      43.128  27.944  32.247  1.00  0.00     0.029 A 
ATOM     55  C   UNL A   1      42.503  28.941  32.978  1.00  0.00     0.049 A 
ATOM     56  H   UNL A   1      40.817  30.104  32.466  1.00  0.00     0.167 HD
ATOM     57  C   UNL A   1      42.181  30.432  34.935  1.00  0.00     0.074 A 
ATOM     58  C   UNL A   1      42.531  30.917  36.253  1.00  0.00     0.031 C 
ATOM     59  C   UNL A   1      42.841  29.442  34.285  1.00  0.00     0.037 A 
BRANCH  46  60
ATOM     60  C   UNL A   1      40.494  28.049  28.740  1.00  0.00     0.064 A 
ATOM     61  C   UNL A   1      41.250  28.415  27.616  1.00  0.00     0.173 A 
ATOM     62  C   UNL A   1      39.807  26.827  28.698  1.00  0.00     0.173 A 
ATOM     63  F   UNL A   1      41.914  29.581  27.599  1.00  0.00    -0.203 F 
ATOM     64  C   UNL A   1      41.292  27.605  26.485  1.00  0.00     0.198 A 
ATOM     65  C   UNL A   1      39.877  26.003  27.577  1.00  0.00     0.198 A 
ATOM     66  F   UNL A   1      39.073  26.426  29.746  1.00  0.00    -0.203 F 
ATOM     67  F   UNL A   1      41.977  28.002  25.403  1.00  0.00    -0.200 F 
ATOM     68  C   UNL A   1      40.611  26.397  26.469  1.00  0.00     0.200 A 
ATOM     69  F   UNL A   1      39.229  24.830  27.567  1.00  0.00    -0.200 F 
ATOM     70  F   UNL A   1      40.656  25.616  25.380  1.00  0.00    -0.200 F 
ENDBRANCH  46  60
BRANCH  47  71
ATOM     71  C   UNL A   1      39.573  33.879  36.799  1.00  0.00     0.064 A 
ATOM     72  C   UNL A   1      38.784  33.452  37.876  1.00  0.00     0.173 A 
ATOM     73  C   UNL A   1      40.210  35.125  36.911  1.00  0.00     0.173 A 
ATOM     74  F   UNL A   1      38.140  32.278  37.808  1.00  0.00    -0.203 F 
ATOM     75  C   UNL A   1      38.621  34.246  39.009  1.00  0.00     0.198 A 
ATOM     76  C   UNL A   1      40.069  35.905  38.056  1.00  0.00     0.198 A 
ATOM     77  F   UNL A   1      40.982  35.576  35.911  1.00  0.00    -0.203 F 
ATOM     78  F   UNL A   1      37.826  33.832  40.005  1.00  0.00    -0.200 F 
ATOM     79  C   UNL A   1      39.268  35.469  39.101  1.00  0.00     0.200 A 
ATOM     80  F   UNL A   1      40.708  37.079  38.147  1.00  0.00    -0.200 F 
ATOM     81  F   UNL A   1      39.117  36.230  40.193  1.00  0.00    -0.200 F 
ENDBRANCH  47  71
BRANCH  59  82
ATOM     82  C   UNL A   1      44.031  28.842  34.976  1.00  0.00     0.064 A 
ATOM     83  C   UNL A   1      45.315  29.390  34.842  1.00  0.00     0.173 A 
ATOM     84  C   UNL A   1      43.875  27.730  35.818  1.00  0.00     0.173 A 
ATOM     85  F   UNL A   1      45.519  30.443  34.036  1.00  0.00    -0.203 F 
ATOM     86  C   UNL A   1      46.404  28.831  35.504  1.00  0.00     0.198 A 
ATOM     87  C   UNL A   1      44.961  27.192  36.502  1.00  0.00     0.198 A 
ATOM     88  F   UNL A   1      42.666  27.173  35.986  1.00  0.00    -0.203 F 
ATOM     89  F   UNL A   1      47.630  29.340  35.323  1.00  0.00    -0.200 F 
ATOM     90  C   UNL A   1      46.225  27.738  36.340  1.00  0.00     0.200 A 
ATOM     91  F   UNL A   1      44.783  26.145  37.320  1.00  0.00    -0.200 F 
ATOM     92  F   UNL A   1      47.274  27.206  36.983  1.00  0.00    -0.200 F 
ENDBRANCH  59  82
ENDBRANCH  33  34
ENDBRANCH  25  28
ENDBRANCH  23  24
ENDBRANCH  22  23
ENDBRANCH   1  22
TORSDOF 15
ENDMDL
MODEL 2
REMARK VINA RESULT:     -12.1      1.369      2.360
REMARK SMILES [NH3+][C@H](Cc1ccc(O)c(F)c1)C(=O)NCCCCNC(=O)c1ccc(-c2c3nc(c(-c4c(F)c(F)c(F)c(F)c4F)c4ccc([nH]4)c(-c4c(F)c(F)c(F)c(F)c4F)c4nc(c(-c5c(F)c(F)c(F)c(F)c5F)c5ccc2[nH]5)C=C4)C=C3)cc1
REMARK SMILES IDX 16 1 15 2 14 3 12 4 13 5 2 7 1 8 3 12 4 13 5 14 11 15 6 16
REMARK SMILES IDX 9 17 7 18 10 19 8 20 17 22 18 23 19 24 20 25 21 27 22 28
REMARK SMILES IDX 23 29 84 30 24 31 83 32 25 33 26 34 27 35 77 36 28 37 82 38
REMARK SMILES IDX 76 39 78 40 29 41 81 42 75 43 74 44 30 46 62 47 42 48 61 49
REMARK SMILES IDX 43 50 46 51 60 52 79 53 44 54 45 55 59 57 80 58 47 59 31 60
REMARK SMILES IDX 32 61 40 62 33 63 34 64 38 65 41 66 35 67 36 68 39 69 37 70
REMARK SMILES IDX 63 71 64 72 72 73 65 74 66 75 70 76 73 77 67 78 68 79 71 80
REMARK SMILES IDX 69 81 48 82 49 83 57 84 50 85 51 86 55 87 58 88 52 89 53 90
REMARK SMILES IDX 56 91 54 92
REMARK H PARENT 14 6 1 9 1 10 1 11 8 21 19 26 78 45 46 56
REMARK Flexibility Score: inf
ROOT
ATOM      1  C   UNL A   1      31.724  30.511  26.400  1.00  0.00     0.023 C 
ENDROOT
BRANCH   1   2
ATOM      2  C   UNL A   1      33.165  30.034  26.542  1.00  0.00     0.116 C 
BRANCH   2   3
ATOM      3  N   UNL A   1      33.743  29.686  25.259  1.00  0.00    -0.351 N 
ATOM      4  C   UNL A   1      33.599  28.569  24.491  1.00  0.00     0.278 C 
ATOM      5  O   UNL A   1      34.243  28.522  23.440  1.00  0.00    -0.268 OA
ATOM      6  H   UNL A   1      34.339  30.371  24.879  1.00  0.00     0.163 HD
BRANCH   4   7
ATOM      7  C   UNL A   1      32.669  27.411  24.909  1.00  0.00     0.275 C 
BRANCH   7   8
ATOM      8  N   UNL A   1      33.419  26.405  25.699  1.00  0.00    -0.347 N 
ATOM      9  H   UNL A   1      33.720  25.646  25.086  1.00  0.00     0.345 HD
ATOM     10  H   UNL A   1      32.817  26.031  26.433  1.00  0.00     0.345 HD
ATOM     11  H   UNL A   1      34.237  26.844  26.121  1.00  0.00     0.345 HD
ENDBRANCH   7   8
BRANCH   7  12
ATOM     12  C   UNL A   1      31.917  26.855  23.681  1.00  0.00     0.111 C 
BRANCH  12  13
ATOM     13  C   UNL A   1      30.513  27.367  23.429  1.00  0.00    -0.038 A 
ATOM     14  C   UNL A   1      30.245  28.551  22.726  1.00  0.00     0.008 A 
ATOM     15  C   UNL A   1      29.431  26.667  23.986  1.00  0.00     0.047 A 
ATOM     16  C   UNL A   1      28.936  29.012  22.554  1.00  0.00     0.049 A 
ATOM     17  C   UNL A   1      28.127  27.127  23.813  1.00  0.00     0.165 A 
ATOM     18  C   UNL A   1      27.877  28.293  23.097  1.00  0.00     0.151 A 
ATOM     19  F   UNL A   1      27.117  26.430  24.353  1.00  0.00    -0.203 F 
BRANCH  18  20
ATOM     20  O   UNL A   1      26.591  28.721  22.939  1.00  0.00    -0.505 OA
ATOM     21  H   UNL A   1      25.910  28.364  23.473  1.00  0.00     0.293 HD
ENDBRANCH  18  20
ENDBRANCH  12  13
ENDBRANCH   7  12
ENDBRANCH   4   7
ENDBRANCH   2   3
ENDBRANCH   1   2
BRANCH   1  22
ATOM     22  C   UNL A   1      31.521  32.011  26.614  1.00  0.00     0.023 C 
BRANCH  22  23
ATOM     23  C   UNL A   1      32.640  32.711  27.377  1.00  0.00     0.116 C 
BRANCH  23  24
ATOM     24  N   UNL A   1      32.359  34.116  27.630  1.00  0.00    -0.352 N 
ATOM     25  C   UNL A   1      32.958  34.964  28.529  1.00  0.00     0.251 C 
ATOM     26  H   UNL A   1      31.645  34.513  27.081  1.00  0.00     0.163 HD
ATOM     27  O   UNL A   1      32.512  36.091  28.715  1.00  0.00    -0.269 OA
BRANCH  25  28
ATOM     28  C   UNL A   1      34.126  34.492  29.298  1.00  0.00     0.039 A 
ATOM     29  C   UNL A   1      33.917  33.876  30.534  1.00  0.00     0.014 A 
ATOM     30  C   UNL A   1      35.416  34.618  28.778  1.00  0.00     0.014 A 
ATOM     31  C   UNL A   1      35.000  33.323  31.218  1.00  0.00     0.010 A 
ATOM     32  C   UNL A   1      36.482  34.002  29.424  1.00  0.00     0.010 A 
ATOM     33  C   UNL A   1      36.284  33.348  30.650  1.00  0.00    -0.014 A 
BRANCH  33  34
ATOM     34  C   UNL A   1      37.435  32.693  31.320  1.00  0.00     0.031 A 
ATOM     35  C   UNL A   1      38.140  31.547  30.653  1.00  0.00     0.074 A 
ATOM     36  C   UNL A   1      37.796  33.083  32.557  1.00  0.00     0.049 A 
ATOM     37  N   UNL A   1      39.113  30.796  31.106  1.00  0.00    -0.248 NA
ATOM     38  C   UNL A   1      37.671  31.175  29.309  1.00  0.00     0.031 C 
ATOM     39  C   UNL A   1      37.153  34.147  33.331  1.00  0.00     0.029 A 
ATOM     40  N   UNL A   1      38.786  32.620  33.389  1.00  0.00    -0.354 N 
ATOM     41  C   UNL A   1      39.360  29.861  30.111  1.00  0.00     0.074 A 
ATOM     42  C   UNL A   1      38.399  30.099  29.056  1.00  0.00     0.031 C 
ATOM     43  C   UNL A   1      37.776  34.267  34.515  1.00  0.00     0.029 A 
ATOM     44  C   UNL A   1      38.836  33.268  34.599  1.00  0.00     0.049 A 
ATOM     45  H   UNL A   1      39.400  31.892  33.141  1.00  0.00     0.167 HD
ATOM     46  C   UNL A   1      40.320  28.907  30.069  1.00  0.00     0.037 A 
ATOM     47  C   UNL A   1      39.643  33.071  35.659  1.00  0.00     0.037 A 
ATOM     48  C   UNL A   1      41.290  28.687  31.109  1.00  0.00     0.049 A 
ATOM     49  C   UNL A   1      40.702  32.005  35.588  1.00  0.00     0.074 A 
ATOM     50  C   UNL A   1      42.337  27.784  31.139  1.00  0.00     0.029 A 
ATOM     51  N   UNL A   1      41.327  29.382  32.310  1.00  0.00    -0.354 N 
ATOM     52  N   UNL A   1      40.971  31.171  34.613  1.00  0.00    -0.248 NA
ATOM     53  C   UNL A   1      41.574  31.857  36.761  1.00  0.00     0.031 C 
ATOM     54  C   UNL A   1      42.982  27.902  32.375  1.00  0.00     0.029 A 
ATOM     55  C   UNL A   1      42.369  28.914  33.095  1.00  0.00     0.049 A 
ATOM     56  H   UNL A   1      40.705  30.102  32.566  1.00  0.00     0.167 HD
ATOM     57  C   UNL A   1      42.058  30.421  35.042  1.00  0.00     0.074 A 
ATOM     58  C   UNL A   1      42.408  30.908  36.360  1.00  0.00     0.031 C 
ATOM     59  C   UNL A   1      42.706  29.417  34.402  1.00  0.00     0.037 A 
BRANCH  46  60
ATOM     60  C   UNL A   1      40.372  28.031  28.850  1.00  0.00     0.064 A 
ATOM     61  C   UNL A   1      41.110  28.398  27.713  1.00  0.00     0.173 A 
ATOM     62  C   UNL A   1      39.698  26.801  28.825  1.00  0.00     0.173 A 
ATOM     63  F   UNL A   1      41.762  29.570  27.680  1.00  0.00    -0.203 F 
ATOM     64  C   UNL A   1      41.146  27.580  26.587  1.00  0.00     0.198 A 
ATOM     65  C   UNL A   1      39.763  25.971  27.709  1.00  0.00     0.198 A 
ATOM     66  F   UNL A   1      38.982  26.400  29.885  1.00  0.00    -0.203 F 
ATOM     67  F   UNL A   1      41.813  27.977  25.494  1.00  0.00    -0.200 F 
ATOM     68  C   UNL A   1      40.479  26.365  26.588  1.00  0.00     0.200 A 
ATOM     69  F   UNL A   1      39.128  24.791  27.715  1.00  0.00    -0.200 F 
ATOM     70  F   UNL A   1      40.517  25.576  25.505  1.00  0.00    -0.200 F 
ENDBRANCH  46  60
BRANCH  47  71
ATOM     71  C   UNL A   1      39.496  33.921  36.869  1.00  0.00     0.064 A 
ATOM     72  C   UNL A   1      40.118  35.176  36.949  1.00  0.00     0.173 A 
ATOM     73  C   UNL A   1      38.735  33.500  37.970  1.00  0.00     0.173 A 
ATOM     74  F   UNL A   1      40.871  35.613  35.930  1.00  0.00    -0.203 F 
ATOM     75  C   UNL A   1      40.000  35.967  38.089  1.00  0.00     0.198 A 
ATOM     76  C   UNL A   1      38.595  34.305  39.099  1.00  0.00     0.198 A 
ATOM     77  F   UNL A   1      38.115  32.311  37.942  1.00  0.00    -0.203 F 
ATOM     78  F   UNL A   1      40.640  37.142  38.155  1.00  0.00    -0.200 F 
ATOM     79  C   UNL A   1      39.234  35.534  39.161  1.00  0.00     0.200 A 
ATOM     80  F   UNL A   1      37.842  33.889  40.126  1.00  0.00    -0.200 F 
ATOM     81  F   UNL A   1      39.117  36.297  40.256  1.00  0.00    -0.200 F 
ENDBRANCH  47  71
BRANCH  59  82
ATOM     82  C   UNL A   1      43.882  28.801  35.104  1.00  0.00     0.064 A 
ATOM     83  C   UNL A   1      43.739  27.685  35.941  1.00  0.00     0.173 A 
ATOM     84  C   UNL A   1      45.175  29.309  34.901  1.00  0.00     0.173 A 
ATOM     85  F   UNL A   1      42.522  27.171  36.178  1.00  0.00    -0.203 F 
ATOM     86  C   UNL A   1      44.842  27.116  36.569  1.00  0.00     0.198 A 
ATOM     87  C   UNL A   1      46.279  28.720  35.507  1.00  0.00     0.198 A 
ATOM     88  F   UNL A   1      45.365  30.372  34.104  1.00  0.00    -0.203 F 
ATOM     89  F   UNL A   1      44.677  26.080  37.402  1.00  0.00    -0.200 F 
ATOM     90  C   UNL A   1      46.113  27.628  36.346  1.00  0.00     0.200 A 
ATOM     91  F   UNL A   1      47.507  29.207  35.278  1.00  0.00    -0.200 F 
ATOM     92  F   UNL A   1      47.175  27.073  36.945  1.00  0.00    -0.200 F 
ENDBRANCH  59  82
ENDBRANCH  33  34
ENDBRANCH  25  28
ENDBRANCH  23  24
ENDBRANCH  22  23
ENDBRANCH   1  22
TORSDOF 15
ENDMDL
MODEL 3
REMARK VINA RESULT:     -12.0      6.824     12.144
REMARK SMILES [NH3+][C@H](Cc1ccc(O)c(F)c1)C(=O)NCCCCNC(=O)c1ccc(-c2c3nc(c(-c4c(F)c(F)c(F)c(F)c4F)c4ccc([nH]4)c(-c4c(F)c(F)c(F)c(F)c4F)c4nc(c(-c5c(F)c(F)c(F)c(F)c5F)c5ccc2[nH]5)C=C4)C=C3)cc1
REMARK SMILES IDX 16 1 15 2 14 3 12 4 13 5 2 7 1 8 3 12 4 13 5 14 11 15 6 16
REMARK SMILES IDX 9 17 7 18 10 19 8 20 17 22 18 23 19 24 20 25 21 27 22 28
REMARK SMILES IDX 23 29 84 30 24 31 83 32 25 33 26 34 27 35 77 36 28 37 82 38
REMARK SMILES IDX 76 39 78 40 29 41 81 42 75 43 74 44 30 46 62 47 42 48 61 49
REMARK SMILES IDX 43 50 46 51 60 52 79 53 44 54 45 55 59 57 80 58 47 59 31 60
REMARK SMILES IDX 32 61 40 62 33 63 34 64 38 65 41 66 35 67 36 68 39 69 37 70
REMARK SMILES IDX 63 71 64 72 72 73 65 74 66 75 70 76 73 77 67 78 68 79 71 80
REMARK SMILES IDX 69 81 48 82 49 83 57 84 50 85 51 86 55 87 58 88 52 89 53 90
REMARK SMILES IDX 56 91 54 92
REMARK H PARENT 14 6 1 9 1 10 1 11 8 21 19 26 78 45 46 56
REMARK Flexibility Score: inf
ROOT
ATOM      1  C   UNL A   1      36.764  21.314  24.782  1.00  0.00     0.023 C 
ENDROOT
BRANCH   1   2
ATOM      2  C   UNL A   1      35.771  21.335  25.940  1.00  0.00     0.116 C 
BRANCH   2   3
ATOM      3  N   UNL A   1      34.767  22.365  25.766  1.00  0.00    -0.351 N 
ATOM      4  C   UNL A   1      33.665  22.410  24.966  1.00  0.00     0.278 C 
ATOM      5  O   UNL A   1      32.989  23.442  24.995  1.00  0.00    -0.268 OA
ATOM      6  H   UNL A   1      34.904  23.168  26.320  1.00  0.00     0.163 HD
BRANCH   4   7
ATOM      7  C   UNL A   1      33.269  21.223  24.063  1.00  0.00     0.275 C 
BRANCH   7   8
ATOM      8  N   UNL A   1      32.542  21.706  22.864  1.00  0.00    -0.347 N 
ATOM      9  H   UNL A   1      32.903  21.234  22.035  1.00  0.00     0.345 HD
ATOM     10  H   UNL A   1      32.678  22.713  22.768  1.00  0.00     0.345 HD
ATOM     11  H   UNL A   1      31.548  21.505  22.964  1.00  0.00     0.345 HD
ENDBRANCH   7   8
BRANCH   7  12
ATOM     12  C   UNL A   1      32.535  20.142  24.886  1.00  0.00     0.111 C 
BRANCH  12  13
ATOM     13  C   UNL A   1      33.182  18.775  24.979  1.00  0.00    -0.038 A 
ATOM     14  C   UNL A   1      34.403  18.463  24.363  1.00  0.00     0.008 A 
ATOM     15  C   UNL A   1      32.498  17.751  25.653  1.00  0.00     0.047 A 
ATOM     16  C   UNL A   1      34.944  17.175  24.438  1.00  0.00     0.049 A 
ATOM     17  C   UNL A   1      33.039  16.469  25.727  1.00  0.00     0.165 A 
ATOM     18  C   UNL A   1      34.260  16.180  25.126  1.00  0.00     0.151 A 
ATOM     19  F   UNL A   1      32.361  15.516  26.383  1.00  0.00    -0.203 F 
BRANCH  18  20
ATOM     20  O   UNL A   1      34.770  14.918  25.215  1.00  0.00    -0.505 OA
ATOM     21  H   UNL A   1      35.180  14.634  26.008  1.00  0.00     0.293 HD
ENDBRANCH  18  20
ENDBRANCH  12  13
ENDBRANCH   7  12
ENDBRANCH   4   7
ENDBRANCH   2   3
ENDBRANCH   1   2
BRANCH   1  22
ATOM     22  C   UNL A   1      37.805  20.198  24.850  1.00  0.00     0.023 C 
BRANCH  22  23
ATOM     23  C   UNL A   1      39.004  20.488  25.746  1.00  0.00     0.116 C 
BRANCH  23  24
ATOM     24  N   UNL A   1      39.921  19.362  25.845  1.00  0.00    -0.352 N 
ATOM     25  C   UNL A   1      41.275  19.374  26.074  1.00  0.00     0.251 C 
ATOM     26  H   UNL A   1      39.516  18.472  25.735  1.00  0.00     0.163 HD
ATOM     27  O   UNL A   1      41.930  18.341  25.994  1.00  0.00    -0.269 OA
BRANCH  25  28
ATOM     28  C   UNL A   1      41.943  20.654  26.382  1.00  0.00     0.039 A 
ATOM     29  C   UNL A   1      42.267  21.517  25.333  1.00  0.00     0.014 A 
ATOM     30  C   UNL A   1      42.207  21.016  27.706  1.00  0.00     0.014 A 
ATOM     31  C   UNL A   1      42.793  22.777  25.618  1.00  0.00     0.010 A 
ATOM     32  C   UNL A   1      42.661  22.299  27.991  1.00  0.00     0.010 A 
ATOM     33  C   UNL A   1      42.958  23.192  26.950  1.00  0.00    -0.014 A 
BRANCH  33  34
ATOM     34  C   UNL A   1      43.437  24.559  27.276  1.00  0.00     0.031 A 
ATOM     35  C   UNL A   1      42.483  25.576  27.834  1.00  0.00     0.074 A 
ATOM     36  C   UNL A   1      44.710  24.901  27.003  1.00  0.00     0.049 A 
ATOM     37  N   UNL A   1      42.688  26.839  28.111  1.00  0.00    -0.248 NA
ATOM     38  C   UNL A   1      41.107  25.121  28.087  1.00  0.00     0.031 C 
ATOM     39  C   UNL A   1      45.716  24.018  26.410  1.00  0.00     0.029 A 
ATOM     40  N   UNL A   1      45.374  26.091  27.176  1.00  0.00    -0.354 N 
ATOM     41  C   UNL A   1      41.468  27.328  28.557  1.00  0.00     0.074 A 
ATOM     42  C   UNL A   1      40.514  26.245  28.458  1.00  0.00     0.031 C 
ATOM     43  C   UNL A   1      46.872  24.691  26.286  1.00  0.00     0.029 A 
ATOM     44  C   UNL A   1      46.681  26.059  26.756  1.00  0.00     0.049 A 
ATOM     45  H   UNL A   1      44.952  26.892  27.564  1.00  0.00     0.167 HD
ATOM     46  C   UNL A   1      41.176  28.563  29.031  1.00  0.00     0.037 A 
ATOM     47  C   UNL A   1      47.615  27.028  26.745  1.00  0.00     0.037 A 
ATOM     48  C   UNL A   1      42.133  29.632  29.150  1.00  0.00     0.049 A 
ATOM     49  C   UNL A   1      47.267  28.391  27.277  1.00  0.00     0.074 A 
ATOM     50  C   UNL A   1      41.951  30.901  29.669  1.00  0.00     0.029 A 
ATOM     51  N   UNL A   1      43.456  29.553  28.739  1.00  0.00    -0.354 N 
ATOM     52  N   UNL A   1      46.128  28.824  27.760  1.00  0.00    -0.248 NA
ATOM     53  C   UNL A   1      48.336  29.399  27.270  1.00  0.00     0.031 C 
ATOM     54  C   UNL A   1      43.152  31.605  29.533  1.00  0.00     0.029 A 
ATOM     55  C   UNL A   1      44.097  30.759  28.977  1.00  0.00     0.049 A 
ATOM     56  H   UNL A   1      43.877  28.758  28.338  1.00  0.00     0.167 HD
ATOM     57  C   UNL A   1      46.349  30.140  28.140  1.00  0.00     0.074 A 
ATOM     58  C   UNL A   1      47.736  30.432  27.844  1.00  0.00     0.031 C 
ATOM     59  C   UNL A   1      45.481  31.029  28.682  1.00  0.00     0.037 A 
BRANCH  46  60
ATOM     60  C   UNL A   1      39.762  28.820  29.466  1.00  0.00     0.064 A 
ATOM     61  C   UNL A   1      38.802  29.334  28.578  1.00  0.00     0.173 A 
ATOM     62  C   UNL A   1      39.353  28.528  30.775  1.00  0.00     0.173 A 
ATOM     63  F   UNL A   1      39.145  29.643  27.319  1.00  0.00    -0.203 F 
ATOM     64  C   UNL A   1      37.496  29.574  28.995  1.00  0.00     0.198 A 
ATOM     65  C   UNL A   1      38.037  28.739  31.180  1.00  0.00     0.198 A 
ATOM     66  F   UNL A   1      40.227  28.031  31.663  1.00  0.00    -0.203 F 
ATOM     67  F   UNL A   1      36.613  30.115  28.146  1.00  0.00    -0.200 F 
ATOM     68  C   UNL A   1      37.113  29.270  30.292  1.00  0.00     0.200 A 
ATOM     69  F   UNL A   1      37.664  28.434  32.430  1.00  0.00    -0.200 F 
ATOM     70  F   UNL A   1      35.853  29.497  30.691  1.00  0.00    -0.200 F 
ENDBRANCH  46  60
BRANCH  47  71
ATOM     71  C   UNL A   1      48.980  26.734  26.233  1.00  0.00     0.064 A 
ATOM     72  C   UNL A   1      49.334  27.034  24.910  1.00  0.00     0.173 A 
ATOM     73  C   UNL A   1      49.957  26.148  27.053  1.00  0.00     0.173 A 
ATOM     74  F   UNL A   1      48.429  27.577  24.083  1.00  0.00    -0.203 F 
ATOM     75  C   UNL A   1      50.605  26.742  24.421  1.00  0.00     0.198 A 
ATOM     76  C   UNL A   1      51.236  25.883  26.570  1.00  0.00     0.198 A 
ATOM     77  F   UNL A   1      49.671  25.847  28.328  1.00  0.00    -0.203 F 
ATOM     78  F   UNL A   1      50.903  27.000  23.140  1.00  0.00    -0.200 F 
ATOM     79  C   UNL A   1      51.558  26.172  25.253  1.00  0.00     0.200 A 
ATOM     80  F   UNL A   1      52.158  25.346  27.381  1.00  0.00    -0.200 F 
ATOM     81  F   UNL A   1      52.781  25.896  24.784  1.00  0.00    -0.200 F 
ENDBRANCH  47  71
BRANCH  59  82
ATOM     82  C   UNL A   1      46.014  32.390  29.023  1.00  0.00     0.064 A 
ATOM     83  C   UNL A   1      45.950  33.456  28.114  1.00  0.00     0.173 A 
ATOM     84  C   UNL A   1      46.555  32.641  30.294  1.00  0.00     0.173 A 
ATOM     85  F   UNL A   1      45.455  33.262  26.882  1.00  0.00    -0.203 F 
ATOM     86  C   UNL A   1      46.433  34.716  28.453  1.00  0.00     0.198 A 
ATOM     87  C   UNL A   1      47.010  33.910  30.640  1.00  0.00     0.198 A 
ATOM     88  F   UNL A   1      46.632  31.657  31.202  1.00  0.00    -0.203 F 
ATOM     89  F   UNL A   1      46.406  35.707  27.553  1.00  0.00    -0.200 F 
ATOM     90  C   UNL A   1      46.955  34.945  29.719  1.00  0.00     0.200 A 
ATOM     91  F   UNL A   1      47.500  34.131  31.868  1.00  0.00    -0.200 F 
ATOM     92  F   UNL A   1      47.411  36.161  30.047  1.00  0.00    -0.200 F 
ENDBRANCH  59  82
ENDBRANCH  33  34
ENDBRANCH  25  28
ENDBRANCH  23  24
ENDBRANCH  22  23
ENDBRANCH   1  22
TORSDOF 15
ENDMDL
