MODEL 1
REMARK VINA RESULT:     -12.2      0.000      0.000
REMARK SMILES Cc1noc(C[N@@H+]2CCC[C@H]2C(=O)NCCCCNC(=O)c2ccc(-c3c4nc(c(-c5c(F)c(F)c(F)c(F)c5F)c5ccc([nH]5)c(-c5c(F)c(F)c(F)c(F)c5F)c5nc(c(-c6c(F)c(F)c(F)c(F)c6F)c6ccc3[nH]6)C=C5)C=C4)cc2)n1
REMARK SMILES IDX 16 1 15 2 14 3 12 4 13 5 11 7 7 8 8 9 9 11 10 12 6 13 5 14
REMARK SMILES IDX 1 15 2 16 3 17 85 18 4 19 17 20 18 21 19 22 20 23 21 25
REMARK SMILES IDX 22 26 23 27 84 28 24 29 83 30 25 31 26 32 27 33 77 34 28 35
REMARK SMILES IDX 82 36 76 37 78 38 29 39 81 40 75 41 74 42 30 44 62 45 42 46
REMARK SMILES IDX 61 47 43 48 46 49 60 50 79 51 44 52 45 53 59 55 80 56 47 57
REMARK SMILES IDX 31 58 32 59 40 60 33 61 34 62 38 63 41 64 35 65 36 66 39 67
REMARK SMILES IDX 37 68 63 69 64 70 72 71 65 72 66 73 70 74 73 75 67 76 68 77
REMARK SMILES IDX 71 78 69 79 48 80 49 81 57 82 50 83 51 84 55 85 58 86 52 87
REMARK SMILES IDX 53 88 56 89 54 90
REMARK H PARENT 14 6 7 10 19 24 78 43 46 54
REMARK Flexibility Score: inf
ROOT
ATOM      1  C   UNL A   1      31.549  30.832  25.975  1.00  0.00     0.023 C 
ENDROOT
BRANCH   1   2
ATOM      2  C   UNL A   1      32.863  30.116  26.282  1.00  0.00     0.116 C 
BRANCH   2   3
ATOM      3  N   UNL A   1      33.569  29.754  25.068  1.00  0.00    -0.351 N 
ATOM      4  C   UNL A   1      33.593  28.563  24.398  1.00  0.00     0.278 C 
ATOM      5  O   UNL A   1      34.312  28.485  23.397  1.00  0.00    -0.268 OA
ATOM      6  H   UNL A   1      34.111  30.472  24.668  1.00  0.00     0.163 HD
BRANCH   4   7
ATOM      7  C   UNL A   1      32.697  27.401  24.883  1.00  0.00     0.274 C 
ATOM      8  N   UNL A   1      32.380  26.561  23.704  1.00  0.00    -0.317 N 
ATOM      9  C   UNL A   1      33.280  25.403  23.757  1.00  0.00     0.263 C 
ATOM     10  H   UNL A   1      32.543  27.095  22.850  1.00  0.00     0.349 HD
ATOM     11  C   UNL A   1      33.611  25.164  25.218  1.00  0.00     0.068 C 
ATOM     12  C   UNL A   1      33.433  26.512  25.890  1.00  0.00     0.081 C 
BRANCH   8  13
ATOM     13  C   UNL A   1      30.955  26.213  23.556  1.00  0.00     0.364 C 
BRANCH  13  14
ATOM     14  C   UNL A   1      30.080  27.283  23.001  1.00  0.00     0.281 A 
ATOM     15  C   UNL A   1      27.646  29.790  23.000  1.00  0.00     0.093 C 
ATOM     16  C   UNL A   1      28.740  28.850  22.702  1.00  0.00     0.169 A 
ATOM     17  N   UNL A   1      29.723  29.127  21.836  1.00  0.00    -0.063 NA
ATOM     18  N   UNL A   1      28.896  27.686  23.404  1.00  0.00    -0.191 NA
ATOM     19  O   UNL A   1      30.620  28.073  22.028  1.00  0.00    -0.333 OA
ENDBRANCH  13  14
ENDBRANCH   8  13
ENDBRANCH   4   7
ENDBRANCH   2   3
ENDBRANCH   1   2
BRANCH   1  20
ATOM     20  C   UNL A   1      31.332  32.135  26.752  1.00  0.00     0.023 C 
BRANCH  20  21
ATOM     21  C   UNL A   1      32.602  32.845  27.214  1.00  0.00     0.116 C 
BRANCH  21  22
ATOM     22  N   UNL A   1      32.369  34.226  27.603  1.00  0.00    -0.352 N 
ATOM     23  C   UNL A   1      32.993  34.987  28.561  1.00  0.00     0.251 C 
ATOM     24  H   UNL A   1      31.657  34.687  27.102  1.00  0.00     0.163 HD
ATOM     25  O   UNL A   1      32.555  36.104  28.829  1.00  0.00    -0.269 OA
BRANCH  23  26
ATOM     26  C   UNL A   1      34.162  34.462  29.302  1.00  0.00     0.039 A 
ATOM     27  C   UNL A   1      33.944  33.845  30.536  1.00  0.00     0.014 A 
ATOM     28  C   UNL A   1      35.462  34.579  28.803  1.00  0.00     0.014 A 
ATOM     29  C   UNL A   1      35.017  33.287  31.234  1.00  0.00     0.010 A 
ATOM     30  C   UNL A   1      36.521  33.954  29.461  1.00  0.00     0.010 A 
ATOM     31  C   UNL A   1      36.309  33.297  30.683  1.00  0.00    -0.014 A 
BRANCH  31  32
ATOM     32  C   UNL A   1      37.425  32.586  31.362  1.00  0.00     0.031 A 
ATOM     33  C   UNL A   1      38.124  31.430  30.705  1.00  0.00     0.074 A 
ATOM     34  C   UNL A   1      37.782  32.965  32.605  1.00  0.00     0.049 A 
ATOM     35  N   UNL A   1      39.127  30.710  31.145  1.00  0.00    -0.248 NA
ATOM     36  C   UNL A   1      37.615  31.008  29.391  1.00  0.00     0.031 C 
ATOM     37  C   UNL A   1      37.140  34.027  33.380  1.00  0.00     0.029 A 
ATOM     38  N   UNL A   1      38.772  32.501  33.436  1.00  0.00    -0.354 N 
ATOM     39  C   UNL A   1      39.363  29.751  30.170  1.00  0.00     0.074 A 
ATOM     40  C   UNL A   1      38.362  29.942  29.142  1.00  0.00     0.031 C 
ATOM     41  C   UNL A   1      37.771  34.158  34.556  1.00  0.00     0.029 A 
ATOM     42  C   UNL A   1      38.839  33.167  34.636  1.00  0.00     0.049 A 
ATOM     43  H   UNL A   1      39.376  31.762  33.195  1.00  0.00     0.167 HD
ATOM     44  C   UNL A   1      40.340  28.811  30.124  1.00  0.00     0.037 A 
ATOM     45  C   UNL A   1      39.667  32.999  35.684  1.00  0.00     0.037 A 
ATOM     46  C   UNL A   1      41.338  28.629  31.148  1.00  0.00     0.049 A 
ATOM     47  C   UNL A   1      40.746  31.954  35.609  1.00  0.00     0.074 A 
ATOM     48  C   UNL A   1      42.408  27.751  31.165  1.00  0.00     0.029 A 
ATOM     49  N   UNL A   1      41.381  29.327  32.347  1.00  0.00    -0.354 N 
ATOM     50  N   UNL A   1      41.018  31.113  34.641  1.00  0.00    -0.248 NA
ATOM     51  C   UNL A   1      41.639  31.844  36.769  1.00  0.00     0.031 C 
ATOM     52  C   UNL A   1      43.058  27.872  32.398  1.00  0.00     0.029 A 
ATOM     53  C   UNL A   1      42.438  28.876  33.123  1.00  0.00     0.049 A 
ATOM     54  H   UNL A   1      40.752  30.038  32.608  1.00  0.00     0.167 HD
ATOM     55  C   UNL A   1      42.128  30.392  35.062  1.00  0.00     0.074 A 
ATOM     56  C   UNL A   1      42.490  30.912  36.365  1.00  0.00     0.031 C 
ATOM     57  C   UNL A   1      42.786  29.392  34.425  1.00  0.00     0.037 A 
BRANCH  44  58
ATOM     58  C   UNL A   1      40.370  27.899  28.929  1.00  0.00     0.064 A 
ATOM     59  C   UNL A   1      41.116  28.206  27.780  1.00  0.00     0.173 A 
ATOM     60  C   UNL A   1      39.662  26.688  28.940  1.00  0.00     0.173 A 
ATOM     61  F   UNL A   1      41.807  29.354  27.711  1.00  0.00    -0.203 F 
ATOM     62  C   UNL A   1      41.120  27.358  26.676  1.00  0.00     0.198 A 
ATOM     63  C   UNL A   1      39.696  25.824  27.848  1.00  0.00     0.198 A 
ATOM     64  F   UNL A   1      38.937  26.336  30.013  1.00  0.00    -0.203 F 
ATOM     65  F   UNL A   1      41.790  27.705  25.568  1.00  0.00    -0.200 F 
ATOM     66  C   UNL A   1      40.415  26.164  26.713  1.00  0.00     0.200 A 
ATOM     67  F   UNL A   1      39.028  24.662  27.893  1.00  0.00    -0.200 F 
ATOM     68  F   UNL A   1      40.422  25.348  25.651  1.00  0.00    -0.200 F 
ENDBRANCH  44  58
BRANCH  45  69
ATOM     69  C   UNL A   1      39.522  33.869  36.881  1.00  0.00     0.064 A 
ATOM     70  C   UNL A   1      40.129  35.132  36.933  1.00  0.00     0.173 A 
ATOM     71  C   UNL A   1      38.761  33.464  37.986  1.00  0.00     0.173 A 
ATOM     72  F   UNL A   1      40.883  35.556  35.909  1.00  0.00    -0.203 F 
ATOM     73  C   UNL A   1      39.992  35.950  38.054  1.00  0.00     0.198 A 
ATOM     74  C   UNL A   1      38.598  34.296  39.092  1.00  0.00     0.198 A 
ATOM     75  F   UNL A   1      38.154  32.269  37.983  1.00  0.00    -0.203 F 
ATOM     76  F   UNL A   1      40.617  37.135  38.095  1.00  0.00    -0.200 F 
ATOM     77  C   UNL A   1      39.220  35.535  39.129  1.00  0.00     0.200 A 
ATOM     78  F   UNL A   1      37.837  33.899  40.121  1.00  0.00    -0.200 F 
ATOM     79  F   UNL A   1      39.079  36.327  40.200  1.00  0.00    -0.200 F 
ENDBRANCH  45  69
BRANCH  57  80
ATOM     80  C   UNL A   1      43.988  28.813  35.118  1.00  0.00     0.064 A 
ATOM     81  C   UNL A   1      45.277  29.340  34.934  1.00  0.00     0.173 A 
ATOM     82  C   UNL A   1      43.849  27.721  35.989  1.00  0.00     0.173 A 
ATOM     83  F   UNL A   1      45.470  30.375  34.103  1.00  0.00    -0.203 F 
ATOM     84  C   UNL A   1      46.382  28.769  35.561  1.00  0.00     0.198 A 
ATOM     85  C   UNL A   1      44.950  27.178  36.644  1.00  0.00     0.198 A 
ATOM     86  F   UNL A   1      42.641  27.182  36.210  1.00  0.00    -0.203 F 
ATOM     87  F   UNL A   1      47.610  29.248  35.316  1.00  0.00    -0.200 F 
ATOM     88  C   UNL A   1      46.218  27.693  36.419  1.00  0.00     0.200 A 
ATOM     89  F   UNL A   1      44.787  26.147  37.486  1.00  0.00    -0.200 F 
ATOM     90  F   UNL A   1      47.282  27.146  37.021  1.00  0.00    -0.200 F 
ENDBRANCH  57  80
ENDBRANCH  31  32
ENDBRANCH  23  26
ENDBRANCH  21  22
ENDBRANCH  20  21
ENDBRANCH   1  20
TORSDOF 13
ENDMDL
MODEL 2
REMARK VINA RESULT:     -12.2      0.072      1.631
REMARK SMILES Cc1noc(C[N@@H+]2CCC[C@H]2C(=O)NCCCCNC(=O)c2ccc(-c3c4nc(c(-c5c(F)c(F)c(F)c(F)c5F)c5ccc([nH]5)c(-c5c(F)c(F)c(F)c(F)c5F)c5nc(c(-c6c(F)c(F)c(F)c(F)c6F)c6ccc3[nH]6)C=C5)C=C4)cc2)n1
REMARK SMILES IDX 16 1 15 2 14 3 12 4 13 5 11 7 7 8 8 9 9 11 10 12 6 13 5 14
REMARK SMILES IDX 1 15 2 16 3 17 85 18 4 19 17 20 18 21 19 22 20 23 21 25
REMARK SMILES IDX 22 26 23 27 84 28 24 29 83 30 25 31 26 32 27 33 77 34 28 35
REMARK SMILES IDX 82 36 76 37 78 38 29 39 81 40 75 41 74 42 30 44 62 45 42 46
REMARK SMILES IDX 61 47 43 48 46 49 60 50 79 51 44 52 45 53 59 55 80 56 47 57
REMARK SMILES IDX 31 58 32 59 40 60 33 61 34 62 38 63 41 64 35 65 36 66 39 67
REMARK SMILES IDX 37 68 63 69 64 70 72 71 65 72 66 73 70 74 73 75 67 76 68 77
REMARK SMILES IDX 71 78 69 79 48 80 49 81 57 82 50 83 51 84 55 85 58 86 52 87
REMARK SMILES IDX 53 88 56 89 54 90
REMARK H PARENT 14 6 7 10 19 24 78 43 46 54
REMARK Flexibility Score: inf
ROOT
ATOM      1  C   UNL A   1      31.559  30.709  26.108  1.00  0.00     0.023 C 
ENDROOT
BRANCH   1   2
ATOM      2  C   UNL A   1      32.956  30.141  26.355  1.00  0.00     0.116 C 
BRANCH   2   3
ATOM      3  N   UNL A   1      33.612  29.782  25.113  1.00  0.00    -0.351 N 
ATOM      4  C   UNL A   1      33.596  28.597  24.431  1.00  0.00     0.278 C 
ATOM      5  O   UNL A   1      34.277  28.519  23.405  1.00  0.00    -0.268 OA
ATOM      6  H   UNL A   1      34.149  30.496  24.700  1.00  0.00     0.163 HD
BRANCH   4   7
ATOM      7  C   UNL A   1      32.703  27.442  24.938  1.00  0.00     0.274 C 
ATOM      8  N   UNL A   1      32.398  26.572  23.777  1.00  0.00    -0.317 N 
ATOM      9  C   UNL A   1      33.304  25.421  23.863  1.00  0.00     0.263 C 
ATOM     10  H   UNL A   1      32.563  27.088  22.912  1.00  0.00     0.349 HD
ATOM     11  C   UNL A   1      33.627  25.218  25.331  1.00  0.00     0.068 C 
ATOM     12  C   UNL A   1      33.438  26.581  25.970  1.00  0.00     0.081 C 
BRANCH   8  13
ATOM     13  C   UNL A   1      30.975  26.214  23.629  1.00  0.00     0.364 C 
BRANCH  13  14
ATOM     14  C   UNL A   1      30.097  27.268  23.050  1.00  0.00     0.281 A 
ATOM     15  C   UNL A   1      27.677  29.787  22.997  1.00  0.00     0.093 C 
ATOM     16  C   UNL A   1      28.761  28.831  22.716  1.00  0.00     0.169 A 
ATOM     17  N   UNL A   1      29.731  29.072  21.825  1.00  0.00    -0.063 NA
ATOM     18  N   UNL A   1      28.922  27.692  23.456  1.00  0.00    -0.191 NA
ATOM     19  O   UNL A   1      30.626  28.020  22.040  1.00  0.00    -0.333 OA
ENDBRANCH  13  14
ENDBRANCH   8  13
ENDBRANCH   4   7
ENDBRANCH   2   3
ENDBRANCH   1   2
BRANCH   1  20
ATOM     20  C   UNL A   1      31.350  32.139  26.617  1.00  0.00     0.023 C 
BRANCH  20  21
ATOM     21  C   UNL A   1      32.576  32.803  27.239  1.00  0.00     0.116 C 
BRANCH  21  22
ATOM     22  N   UNL A   1      32.340  34.186  27.619  1.00  0.00    -0.352 N 
ATOM     23  C   UNL A   1      32.964  34.955  28.571  1.00  0.00     0.251 C 
ATOM     24  H   UNL A   1      31.627  34.642  27.116  1.00  0.00     0.163 HD
ATOM     25  O   UNL A   1      32.523  36.073  28.832  1.00  0.00    -0.269 OA
BRANCH  23  26
ATOM     26  C   UNL A   1      34.135  34.437  29.314  1.00  0.00     0.039 A 
ATOM     27  C   UNL A   1      33.917  33.796  30.536  1.00  0.00     0.014 A 
ATOM     28  C   UNL A   1      35.437  34.585  28.829  1.00  0.00     0.014 A 
ATOM     29  C   UNL A   1      34.993  33.245  31.235  1.00  0.00     0.010 A 
ATOM     30  C   UNL A   1      36.501  33.967  29.487  1.00  0.00     0.010 A 
ATOM     31  C   UNL A   1      36.289  33.287  30.695  1.00  0.00    -0.014 A 
BRANCH  31  32
ATOM     32  C   UNL A   1      37.412  32.584  31.373  1.00  0.00     0.031 A 
ATOM     33  C   UNL A   1      38.119  31.433  30.714  1.00  0.00     0.074 A 
ATOM     34  C   UNL A   1      37.767  32.964  32.615  1.00  0.00     0.049 A 
ATOM     35  N   UNL A   1      39.127  30.721  31.153  1.00  0.00    -0.248 NA
ATOM     36  C   UNL A   1      37.612  31.009  29.401  1.00  0.00     0.031 C 
ATOM     37  C   UNL A   1      37.117  34.021  33.392  1.00  0.00     0.029 A 
ATOM     38  N   UNL A   1      38.762  32.507  33.446  1.00  0.00    -0.354 N 
ATOM     39  C   UNL A   1      39.370  29.764  30.177  1.00  0.00     0.074 A 
ATOM     40  C   UNL A   1      38.366  29.948  29.151  1.00  0.00     0.031 C 
ATOM     41  C   UNL A   1      37.749  34.156  34.567  1.00  0.00     0.029 A 
ATOM     42  C   UNL A   1      38.825  33.173  34.646  1.00  0.00     0.049 A 
ATOM     43  H   UNL A   1      39.371  31.774  33.203  1.00  0.00     0.167 HD
ATOM     44  C   UNL A   1      40.354  28.832  30.130  1.00  0.00     0.037 A 
ATOM     45  C   UNL A   1      39.655  33.010  35.693  1.00  0.00     0.037 A 
ATOM     46  C   UNL A   1      41.354  28.656  31.153  1.00  0.00     0.049 A 
ATOM     47  C   UNL A   1      40.741  31.974  35.616  1.00  0.00     0.074 A 
ATOM     48  C   UNL A   1      42.431  27.787  31.167  1.00  0.00     0.029 A 
ATOM     49  N   UNL A   1      41.393  29.354  32.352  1.00  0.00    -0.354 N 
ATOM     50  N   UNL A   1      41.019  31.135  34.648  1.00  0.00    -0.248 NA
ATOM     51  C   UNL A   1      41.637  31.870  36.775  1.00  0.00     0.031 C 
ATOM     52  C   UNL A   1      43.081  27.911  32.400  1.00  0.00     0.029 A 
ATOM     53  C   UNL A   1      42.454  28.910  33.127  1.00  0.00     0.049 A 
ATOM     54  H   UNL A   1      40.759  30.060  32.614  1.00  0.00     0.167 HD
ATOM     55  C   UNL A   1      42.135  30.423  35.067  1.00  0.00     0.074 A 
ATOM     56  C   UNL A   1      42.494  30.944  36.369  1.00  0.00     0.031 C 
ATOM     57  C   UNL A   1      42.800  29.428  34.429  1.00  0.00     0.037 A 
BRANCH  44  58
ATOM     58  C   UNL A   1      40.389  27.920  28.934  1.00  0.00     0.064 A 
ATOM     59  C   UNL A   1      41.140  28.230  27.788  1.00  0.00     0.173 A 
ATOM     60  C   UNL A   1      39.682  26.708  28.941  1.00  0.00     0.173 A 
ATOM     61  F   UNL A   1      41.830  29.378  27.723  1.00  0.00    -0.203 F 
ATOM     62  C   UNL A   1      41.149  27.382  26.683  1.00  0.00     0.198 A 
ATOM     63  C   UNL A   1      39.722  25.846  27.848  1.00  0.00     0.198 A 
ATOM     64  F   UNL A   1      38.954  26.355  30.011  1.00  0.00    -0.203 F 
ATOM     65  F   UNL A   1      41.823  27.731  25.578  1.00  0.00    -0.200 F 
ATOM     66  C   UNL A   1      40.445  26.188  26.716  1.00  0.00     0.200 A 
ATOM     67  F   UNL A   1      39.054  24.683  27.889  1.00  0.00    -0.200 F 
ATOM     68  F   UNL A   1      40.457  25.372  25.653  1.00  0.00    -0.200 F 
ENDBRANCH  44  58
BRANCH  45  69
ATOM     69  C   UNL A   1      39.504  33.878  36.890  1.00  0.00     0.064 A 
ATOM     70  C   UNL A   1      38.778  33.446  38.010  1.00  0.00     0.173 A 
ATOM     71  C   UNL A   1      40.096  35.148  36.948  1.00  0.00     0.173 A 
ATOM     72  F   UNL A   1      38.178  32.247  37.996  1.00  0.00    -0.203 F 
ATOM     73  C   UNL A   1      38.638  34.258  39.134  1.00  0.00     0.198 A 
ATOM     74  C   UNL A   1      39.982  35.945  38.085  1.00  0.00     0.198 A 
ATOM     75  F   UNL A   1      40.807  35.606  35.907  1.00  0.00    -0.203 F 
ATOM     76  F   UNL A   1      37.904  33.837  40.174  1.00  0.00    -0.200 F 
ATOM     77  C   UNL A   1      39.246  35.503  39.174  1.00  0.00     0.200 A 
ATOM     78  F   UNL A   1      40.587  37.140  38.126  1.00  0.00    -0.200 F 
ATOM     79  F   UNL A   1      39.121  36.278  40.260  1.00  0.00    -0.200 F 
ENDBRANCH  45  69
BRANCH  57  80
ATOM     80  C   UNL A   1      44.007  28.858  35.120  1.00  0.00     0.064 A 
ATOM     81  C   UNL A   1      43.914  27.761  35.991  1.00  0.00     0.173 A 
ATOM     82  C   UNL A   1      45.279  29.411  34.901  1.00  0.00     0.173 A 
ATOM     83  F   UNL A   1      42.723  27.201  36.247  1.00  0.00    -0.203 F 
ATOM     84  C   UNL A   1      45.041  27.267  36.646  1.00  0.00     0.198 A 
ATOM     85  C   UNL A   1      46.407  28.891  35.527  1.00  0.00     0.198 A 
ATOM     86  F   UNL A   1      45.429  30.456  34.072  1.00  0.00    -0.203 F 
ATOM     87  F   UNL A   1      44.915  26.261  37.524  1.00  0.00    -0.200 F 
ATOM     88  C   UNL A   1      46.286  27.828  36.410  1.00  0.00     0.200 A 
ATOM     89  F   UNL A   1      47.613  29.424  35.285  1.00  0.00    -0.200 F 
ATOM     90  F   UNL A   1      47.368  27.352  37.041  1.00  0.00    -0.200 F 
ENDBRANCH  57  80
ENDBRANCH  31  32
ENDBRANCH  23  26
ENDBRANCH  21  22
ENDBRANCH  20  21
ENDBRANCH   1  20
TORSDOF 13
ENDMDL
MODEL 3
REMARK VINA RESULT:     -12.1      0.935      7.548
REMARK SMILES Cc1noc(C[N@@H+]2CCC[C@H]2C(=O)NCCCCNC(=O)c2ccc(-c3c4nc(c(-c5c(F)c(F)c(F)c(F)c5F)c5ccc([nH]5)c(-c5c(F)c(F)c(F)c(F)c5F)c5nc(c(-c6c(F)c(F)c(F)c(F)c6F)c6ccc3[nH]6)C=C5)C=C4)cc2)n1
REMARK SMILES IDX 16 1 15 2 14 3 12 4 13 5 11 7 7 8 8 9 9 11 10 12 6 13 5 14
REMARK SMILES IDX 1 15 2 16 3 17 85 18 4 19 17 20 18 21 19 22 20 23 21 25
REMARK SMILES IDX 22 26 23 27 84 28 24 29 83 30 25 31 26 32 27 33 77 34 28 35
REMARK SMILES IDX 82 36 76 37 78 38 29 39 81 40 75 41 74 42 30 44 62 45 42 46
REMARK SMILES IDX 61 47 43 48 46 49 60 50 79 51 44 52 45 53 59 55 80 56 47 57
REMARK SMILES IDX 31 58 32 59 40 60 33 61 34 62 38 63 41 64 35 65 36 66 39 67
REMARK SMILES IDX 37 68 63 69 64 70 72 71 65 72 66 73 70 74 73 75 67 76 68 77
REMARK SMILES IDX 71 78 69 79 48 80 49 81 57 82 50 83 51 84 55 85 58 86 52 87
REMARK SMILES IDX 53 88 56 89 54 90
REMARK H PARENT 14 6 7 10 19 24 78 43 46 54
REMARK Flexibility Score: inf
ROOT
ATOM      1  C   UNL A   1      31.437  30.801  25.734  1.00  0.00     0.023 C 
ENDROOT
BRANCH   1   2
ATOM      2  C   UNL A   1      32.611  29.836  25.898  1.00  0.00     0.116 C 
BRANCH   2   3
ATOM      3  N   UNL A   1      33.359  29.695  24.664  1.00  0.00    -0.351 N 
ATOM      4  C   UNL A   1      33.338  28.684  23.744  1.00  0.00     0.278 C 
ATOM      5  O   UNL A   1      34.107  28.769  22.783  1.00  0.00    -0.268 OA
ATOM      6  H   UNL A   1      33.974  30.436  24.459  1.00  0.00     0.163 HD
BRANCH   4   7
ATOM      7  C   UNL A   1      32.334  27.522  23.917  1.00  0.00     0.274 C 
ATOM      8  N   UNL A   1      31.442  27.524  22.733  1.00  0.00    -0.317 N 
ATOM      9  C   UNL A   1      31.936  26.476  21.831  1.00  0.00     0.263 C 
ATOM     10  H   UNL A   1      31.486  28.434  22.274  1.00  0.00     0.349 HD
ATOM     11  C   UNL A   1      32.611  25.428  22.695  1.00  0.00     0.068 C 
ATOM     12  C   UNL A   1      33.048  26.167  23.946  1.00  0.00     0.081 C 
BRANCH   8  13
ATOM     13  C   UNL A   1      30.003  27.428  23.041  1.00  0.00     0.364 C 
BRANCH  13  14
ATOM     14  C   UNL A   1      29.192  28.638  22.734  1.00  0.00     0.281 A 
ATOM     15  C   UNL A   1      28.028  31.364  20.884  1.00  0.00     0.093 C 
ATOM     16  C   UNL A   1      28.262  30.282  21.855  1.00  0.00     0.169 A 
ATOM     17  N   UNL A   1      27.285  29.748  22.600  1.00  0.00    -0.063 NA
ATOM     18  N   UNL A   1      29.474  29.657  21.954  1.00  0.00    -0.191 NA
ATOM     19  O   UNL A   1      27.908  28.649  23.198  1.00  0.00    -0.333 OA
ENDBRANCH  13  14
ENDBRANCH   8  13
ENDBRANCH   4   7
ENDBRANCH   2   3
ENDBRANCH   1   2
BRANCH   1  20
ATOM     20  C   UNL A   1      31.331  31.873  26.824  1.00  0.00     0.023 C 
BRANCH  20  21
ATOM     21  C   UNL A   1      32.624  32.622  27.137  1.00  0.00     0.116 C 
BRANCH  21  22
ATOM     22  N   UNL A   1      32.395  33.992  27.567  1.00  0.00    -0.352 N 
ATOM     23  C   UNL A   1      33.038  34.731  28.529  1.00  0.00     0.251 C 
ATOM     24  H   UNL A   1      31.670  34.462  27.095  1.00  0.00     0.163 HD
ATOM     25  O   UNL A   1      32.602  35.839  28.837  1.00  0.00    -0.269 OA
BRANCH  23  26
ATOM     26  C   UNL A   1      34.226  34.193  29.229  1.00  0.00     0.039 A 
ATOM     27  C   UNL A   1      34.029  33.404  30.365  1.00  0.00     0.014 A 
ATOM     28  C   UNL A   1      35.524  34.462  28.787  1.00  0.00     0.014 A 
ATOM     29  C   UNL A   1      35.125  32.833  31.015  1.00  0.00     0.010 A 
ATOM     30  C   UNL A   1      36.612  33.828  29.388  1.00  0.00     0.010 A 
ATOM     31  C   UNL A   1      36.423  33.003  30.507  1.00  0.00    -0.014 A 
BRANCH  31  32
ATOM     32  C   UNL A   1      37.574  32.286  31.119  1.00  0.00     0.031 A 
ATOM     33  C   UNL A   1      38.056  32.628  32.500  1.00  0.00     0.074 A 
ATOM     34  C   UNL A   1      38.215  31.343  30.401  1.00  0.00     0.049 A 
ATOM     35  N   UNL A   1      39.031  32.092  33.193  1.00  0.00    -0.248 NA
ATOM     36  C   UNL A   1      37.373  33.734  33.186  1.00  0.00     0.031 C 
ATOM     37  C   UNL A   1      37.889  30.965  29.025  1.00  0.00     0.029 A 
ATOM     38  N   UNL A   1      39.274  30.531  30.725  1.00  0.00    -0.354 N 
ATOM     39  C   UNL A   1      39.081  32.797  34.387  1.00  0.00     0.074 A 
ATOM     40  C   UNL A   1      38.079  33.838  34.302  1.00  0.00     0.031 C 
ATOM     41  C   UNL A   1      38.704  29.974  28.635  1.00  0.00     0.029 A 
ATOM     42  C   UNL A   1      39.635  29.670  29.718  1.00  0.00     0.049 A 
ATOM     43  H   UNL A   1      39.730  30.564  31.597  1.00  0.00     0.167 HD
ATOM     44  C   UNL A   1      39.874  32.581  35.466  1.00  0.00     0.037 A 
ATOM     45  C   UNL A   1      40.607  28.739  29.669  1.00  0.00     0.037 A 
ATOM     46  C   UNL A   1      40.867  31.540  35.547  1.00  0.00     0.049 A 
ATOM     47  C   UNL A   1      41.471  28.516  30.879  1.00  0.00     0.074 A 
ATOM     48  C   UNL A   1      41.674  31.198  36.619  1.00  0.00     0.029 A 
ATOM     49  N   UNL A   1      41.201  30.680  34.510  1.00  0.00    -0.354 N 
ATOM     50  N   UNL A   1      41.448  29.127  32.038  1.00  0.00    -0.248 NA
ATOM     51  C   UNL A   1      42.489  27.462  30.777  1.00  0.00     0.031 C 
ATOM     52  C   UNL A   1      42.540  30.177  36.210  1.00  0.00     0.029 A 
ATOM     53  C   UNL A   1      42.224  29.831  34.906  1.00  0.00     0.049 A 
ATOM     54  H   UNL A   1      40.774  30.674  33.623  1.00  0.00     0.167 HD
ATOM     55  C   UNL A   1      42.427  28.518  32.812  1.00  0.00     0.074 A 
ATOM     56  C   UNL A   1      43.011  27.474  31.995  1.00  0.00     0.031 C 
ATOM     57  C   UNL A   1      42.807  28.799  34.083  1.00  0.00     0.037 A 
BRANCH  44  58
ATOM     58  C   UNL A   1      39.707  33.501  36.645  1.00  0.00     0.064 A 
ATOM     59  C   UNL A   1      40.389  34.725  36.731  1.00  0.00     0.173 A 
ATOM     60  C   UNL A   1      38.834  33.167  37.691  1.00  0.00     0.173 A 
ATOM     61  F   UNL A   1      41.242  35.094  35.763  1.00  0.00    -0.203 F 
ATOM     62  C   UNL A   1      40.235  35.558  37.838  1.00  0.00     0.198 A 
ATOM     63  C   UNL A   1      38.655  34.018  38.778  1.00  0.00     0.198 A 
ATOM     64  F   UNL A   1      38.149  32.014  37.659  1.00  0.00    -0.203 F 
ATOM     65  F   UNL A   1      40.946  36.691  37.926  1.00  0.00    -0.200 F 
ATOM     66  C   UNL A   1      39.364  35.207  38.857  1.00  0.00     0.200 A 
ATOM     67  F   UNL A   1      37.798  33.685  39.755  1.00  0.00    -0.200 F 
ATOM     68  F   UNL A   1      39.214  36.010  39.919  1.00  0.00    -0.200 F 
ENDBRANCH  44  58
BRANCH  45  69
ATOM     69  C   UNL A   1      40.787  27.930  28.436  1.00  0.00     0.064 A 
ATOM     70  C   UNL A   1      41.609  28.377  27.391  1.00  0.00     0.173 A 
ATOM     71  C   UNL A   1      40.157  26.687  28.283  1.00  0.00     0.173 A 
ATOM     72  F   UNL A   1      42.218  29.568  27.482  1.00  0.00    -0.203 F 
ATOM     73  C   UNL A   1      41.780  27.618  26.235  1.00  0.00     0.198 A 
ATOM     74  C   UNL A   1      40.354  25.914  27.140  1.00  0.00     0.198 A 
ATOM     75  F   UNL A   1      39.366  26.210  29.256  1.00  0.00    -0.203 F 
ATOM     76  F   UNL A   1      42.537  28.088  25.234  1.00  0.00    -0.200 F 
ATOM     77  C   UNL A   1      41.159  26.384  26.113  1.00  0.00     0.200 A 
ATOM     78  F   UNL A   1      39.767  24.714  27.035  1.00  0.00    -0.200 F 
ATOM     79  F   UNL A   1      41.334  25.649  25.007  1.00  0.00    -0.200 F 
ENDBRANCH  45  69
BRANCH  57  80
ATOM     80  C   UNL A   1      43.887  27.941  34.681  1.00  0.00     0.064 A 
ATOM     81  C   UNL A   1      43.593  26.778  35.409  1.00  0.00     0.173 A 
ATOM     82  C   UNL A   1      45.239  28.282  34.514  1.00  0.00     0.173 A 
ATOM     83  F   UNL A   1      42.318  26.412  35.611  1.00  0.00    -0.203 F 
ATOM     84  C   UNL A   1      44.607  26.013  35.982  1.00  0.00     0.198 A 
ATOM     85  C   UNL A   1      46.251  27.495  35.055  1.00  0.00     0.198 A 
ATOM     86  F   UNL A   1      45.580  29.379  33.821  1.00  0.00    -0.203 F 
ATOM     87  F   UNL A   1      44.298  24.945  36.729  1.00  0.00    -0.200 F 
ATOM     88  C   UNL A   1      45.934  26.369  35.800  1.00  0.00     0.200 A 
ATOM     89  F   UNL A   1      47.535  27.832  34.865  1.00  0.00    -0.200 F 
ATOM     90  F   UNL A   1      46.909  25.633  36.352  1.00  0.00    -0.200 F 
ENDBRANCH  57  80
ENDBRANCH  31  32
ENDBRANCH  23  26
ENDBRANCH  21  22
ENDBRANCH  20  21
ENDBRANCH   1  20
TORSDOF 13
ENDMDL
