MODEL 1
REMARK VINA RESULT:     -12.0      0.000      0.000
REMARK SMILES COc1ccc(N2C(=O)S[C@@H](CC(=O)Nc3nc(CC(=O)NCCCCNC(=O)c4ccc(-c5c6nc(c(-c7c(F)c(F)c(F)c(F)c7F)c7ccc([nH]7)c(-c7c(F)c(F)c(F)c(F)c7F)c7nc(c(-c8c(F)c(F)c(F)c(F)c8F)c8ccc5[nH]8)C=C7)C=C6)cc4)cs3)C2=O)cc1
REMARK SMILES IDX 20 1 21 2 22 3 19 5 18 6 16 7 17 8 94 9 93 10 15 11 13 12
REMARK SMILES IDX 14 13 12 15 11 16 7 17 8 18 95 19 9 20 10 21 96 22 6 23 3 24
REMARK SMILES IDX 4 25 98 26 5 27 97 28 2 29 1 30 23 31 24 32 25 33 26 34
REMARK SMILES IDX 27 35 28 36 29 38 30 39 31 40 92 41 32 42 91 43 33 44 34 45
REMARK SMILES IDX 35 46 85 47 36 48 90 49 84 50 86 51 37 52 89 53 83 54 82 55
REMARK SMILES IDX 38 57 70 58 50 59 69 60 51 61 54 62 68 63 87 64 52 65 53 66
REMARK SMILES IDX 67 68 88 69 55 70 39 71 40 72 48 73 41 74 42 75 46 76 49 77
REMARK SMILES IDX 43 78 44 79 47 80 45 81 71 82 72 83 80 84 73 85 74 86 78 87
REMARK SMILES IDX 81 88 75 89 76 90 79 91 77 92 56 93 57 94 65 95 58 96 59 97
REMARK SMILES IDX 63 98 66 99 60 100 61 101 64 102 62 103
REMARK H PARENT 22 4 15 14 27 37 86 56 54 67
REMARK Flexibility Score: inf
ROOT
ATOM      1  C   UNL A   1      38.591  22.755  26.102  1.00  0.00     0.226 C 
ATOM      2  O   UNL A   1      38.148  23.895  25.951  1.00  0.00    -0.275 OA
ATOM      3  N   UNL A   1      39.632  22.577  26.969  1.00  0.00    -0.356 N 
ATOM      4  H   UNL A   1      39.899  23.378  27.476  1.00  0.00     0.163 HD
ENDROOT
BRANCH   1   5
ATOM      5  C   UNL A   1      37.973  21.571  25.382  1.00  0.00     0.157 C 
BRANCH   5   6
ATOM      6  C   UNL A   1      36.480  21.607  25.383  1.00  0.00     0.063 A 
ATOM      7  C   UNL A   1      34.561  21.931  24.347  1.00  0.00     0.189 A 
ATOM      8  N   UNL A   1      35.840  21.753  24.163  1.00  0.00    -0.224 NA
ATOM      9  S   UNL A   1      34.007  21.823  25.952  1.00  0.00    -0.105 S 
ATOM     10  C   UNL A   1      35.625  21.539  26.469  1.00  0.00     0.093 A 
BRANCH   7  11
ATOM     11  N   UNL A   1      33.625  22.265  23.420  1.00  0.00    -0.302 N 
ATOM     12  C   UNL A   1      33.239  23.524  23.080  1.00  0.00     0.227 C 
ATOM     13  O   UNL A   1      32.231  23.655  22.378  1.00  0.00    -0.275 OA
ATOM     14  H   UNL A   1      33.182  21.522  22.948  1.00  0.00     0.172 HD
BRANCH  12  15
ATOM     15  C   UNL A   1      34.072  24.740  23.433  1.00  0.00     0.125 C 
BRANCH  15  16
ATOM     16  C   UNL A   1      33.465  25.793  24.348  1.00  0.00     0.156 C 
ATOM     17  N   UNL A   1      31.357  26.950  24.422  1.00  0.00    -0.240 N 
ATOM     18  C   UNL A   1      31.377  26.430  25.701  1.00  0.00     0.293 C 
ATOM     19  C   UNL A   1      32.411  26.583  23.598  1.00  0.00     0.248 C 
ATOM     20  O   UNL A   1      30.655  26.675  26.646  1.00  0.00    -0.261 OA
ATOM     21  S   UNL A   1      32.649  25.226  25.850  1.00  0.00    -0.050 SA
ATOM     22  O   UNL A   1      32.594  26.935  22.435  1.00  0.00    -0.273 OA
BRANCH  17  23
ATOM     23  C   UNL A   1      30.327  27.833  23.974  1.00  0.00     0.053 A 
ATOM     24  C   UNL A   1      28.290  29.600  23.109  1.00  0.00     0.119 A 
ATOM     25  C   UNL A   1      29.534  30.090  23.497  1.00  0.00     0.048 A 
ATOM     26  C   UNL A   1      28.067  28.226  23.128  1.00  0.00     0.048 A 
ATOM     27  C   UNL A   1      30.533  29.220  23.942  1.00  0.00     0.031 A 
ATOM     28  C   UNL A   1      29.080  27.350  23.545  1.00  0.00     0.031 A 
BRANCH  24  29
ATOM     29  O   UNL A   1      27.397  30.539  22.682  1.00  0.00    -0.497 OA
ATOM     30  C   UNL A   1      27.648  31.869  23.123  1.00  0.00     0.278 C 
ENDBRANCH  24  29
ENDBRANCH  17  23
ENDBRANCH  15  16
ENDBRANCH  12  15
ENDBRANCH   7  11
ENDBRANCH   5   6
ENDBRANCH   1   5
BRANCH   3  31
ATOM     31  C   UNL A   1      40.402  21.378  27.249  1.00  0.00     0.116 C 
BRANCH  31  32
ATOM     32  C   UNL A   1      41.408  21.074  26.136  1.00  0.00     0.023 C 
BRANCH  32  33
ATOM     33  C   UNL A   1      41.525  19.596  25.754  1.00  0.00     0.023 C 
BRANCH  33  34
ATOM     34  C   UNL A   1      42.839  18.928  26.136  1.00  0.00     0.116 C 
BRANCH  34  35
ATOM     35  N   UNL A   1      43.710  18.697  24.997  1.00  0.00    -0.352 N 
ATOM     36  C   UNL A   1      44.521  19.579  24.326  1.00  0.00     0.251 C 
ATOM     37  H   UNL A   1      43.721  17.773  24.657  1.00  0.00     0.163 HD
ATOM     38  O   UNL A   1      45.079  19.226  23.292  1.00  0.00    -0.269 OA
BRANCH  36  39
ATOM     39  C   UNL A   1      44.707  20.961  24.823  1.00  0.00     0.039 A 
ATOM     40  C   UNL A   1      44.327  22.023  23.998  1.00  0.00     0.014 A 
ATOM     41  C   UNL A   1      45.278  21.221  26.072  1.00  0.00     0.014 A 
ATOM     42  C   UNL A   1      44.489  23.338  24.437  1.00  0.00     0.010 A 
ATOM     43  C   UNL A   1      45.359  22.530  26.544  1.00  0.00     0.010 A 
ATOM     44  C   UNL A   1      44.988  23.604  25.723  1.00  0.00    -0.014 A 
BRANCH  44  45
ATOM     45  C   UNL A   1      45.163  25.001  26.196  1.00  0.00     0.031 A 
ATOM     46  C   UNL A   1      46.511  25.666  26.107  1.00  0.00     0.074 A 
ATOM     47  C   UNL A   1      44.120  25.664  26.730  1.00  0.00     0.049 A 
ATOM     48  N   UNL A   1      46.865  26.877  26.464  1.00  0.00    -0.248 NA
ATOM     49  C   UNL A   1      47.617  24.856  25.573  1.00  0.00     0.031 C 
ATOM     50  C   UNL A   1      42.779  25.113  26.924  1.00  0.00     0.029 A 
ATOM     51  N   UNL A   1      44.024  26.949  27.205  1.00  0.00    -0.354 N 
ATOM     52  C   UNL A   1      48.227  26.964  26.208  1.00  0.00     0.074 A 
ATOM     53  C   UNL A   1      48.652  25.667  25.730  1.00  0.00     0.031 C 
ATOM     54  C   UNL A   1      41.984  26.062  27.445  1.00  0.00     0.029 A 
ATOM     55  C   UNL A   1      42.766  27.278  27.648  1.00  0.00     0.049 A 
ATOM     56  H   UNL A   1      44.784  27.574  27.226  1.00  0.00     0.167 HD
ATOM     57  C   UNL A   1      49.045  28.038  26.327  1.00  0.00     0.037 A 
ATOM     58  C   UNL A   1      42.298  28.433  28.156  1.00  0.00     0.037 A 
ATOM     59  C   UNL A   1      48.616  29.336  26.778  1.00  0.00     0.049 A 
ATOM     60  C   UNL A   1      43.224  29.615  28.268  1.00  0.00     0.074 A 
ATOM     61  C   UNL A   1      49.353  30.502  26.885  1.00  0.00     0.029 A 
ATOM     62  N   UNL A   1      47.328  29.636  27.202  1.00  0.00    -0.354 N 
ATOM     63  N   UNL A   1      44.493  29.708  27.949  1.00  0.00    -0.248 NA
ATOM     64  C   UNL A   1      42.646  30.858  28.795  1.00  0.00     0.031 C 
ATOM     65  C   UNL A   1      48.525  31.497  27.417  1.00  0.00     0.029 A 
ATOM     66  C   UNL A   1      47.256  30.966  27.588  1.00  0.00     0.049 A 
ATOM     67  H   UNL A   1      46.578  29.000  27.224  1.00  0.00     0.167 HD
ATOM     68  C   UNL A   1      44.855  31.024  28.206  1.00  0.00     0.074 A 
ATOM     69  C   UNL A   1      43.665  31.697  28.686  1.00  0.00     0.031 C 
ATOM     70  C   UNL A   1      46.063  31.622  28.059  1.00  0.00     0.037 A 
BRANCH  57  71
ATOM     71  C   UNL A   1      50.490  27.852  25.957  1.00  0.00     0.064 A 
ATOM     72  C   UNL A   1      50.930  27.955  24.627  1.00  0.00     0.173 A 
ATOM     73  C   UNL A   1      51.452  27.593  26.945  1.00  0.00     0.173 A 
ATOM     74  F   UNL A   1      50.050  28.188  23.642  1.00  0.00    -0.203 F 
ATOM     75  C   UNL A   1      52.270  27.771  24.298  1.00  0.00     0.198 A 
ATOM     76  C   UNL A   1      52.798  27.444  26.615  1.00  0.00     0.198 A 
ATOM     77  F   UNL A   1      51.090  27.490  28.233  1.00  0.00    -0.203 F 
ATOM     78  F   UNL A   1      52.655  27.817  23.014  1.00  0.00    -0.200 F 
ATOM     79  C   UNL A   1      53.204  27.524  25.292  1.00  0.00     0.200 A 
ATOM     80  F   UNL A   1      53.701  27.218  27.580  1.00  0.00    -0.200 F 
ATOM     81  F   UNL A   1      54.494  27.352  24.974  1.00  0.00    -0.200 F 
ENDBRANCH  57  71
BRANCH  58  82
ATOM     82  C   UNL A   1      40.870  28.546  28.559  1.00  0.00     0.064 A 
ATOM     83  C   UNL A   1      39.897  28.991  27.653  1.00  0.00     0.173 A 
ATOM     84  C   UNL A   1      40.452  28.229  29.860  1.00  0.00     0.173 A 
ATOM     85  F   UNL A   1      40.251  29.325  26.403  1.00  0.00    -0.203 F 
ATOM     86  C   UNL A   1      38.567  29.141  28.038  1.00  0.00     0.198 A 
ATOM     87  C   UNL A   1      39.116  28.349  30.235  1.00  0.00     0.198 A 
ATOM     88  F   UNL A   1      41.342  27.793  30.763  1.00  0.00    -0.203 F 
ATOM     89  F   UNL A   1      37.670  29.620  27.167  1.00  0.00    -0.200 F 
ATOM     90  C   UNL A   1      38.176  28.815  29.328  1.00  0.00     0.200 A 
ATOM     91  F   UNL A   1      38.739  28.018  31.478  1.00  0.00    -0.200 F 
ATOM     92  F   UNL A   1      36.897  28.959  29.699  1.00  0.00    -0.200 F 
ENDBRANCH  58  82
BRANCH  70  93
ATOM     93  C   UNL A   1      46.146  33.088  28.385  1.00  0.00     0.064 A 
ATOM     94  C   UNL A   1      46.457  33.543  29.675  1.00  0.00     0.173 A 
ATOM     95  C   UNL A   1      45.918  34.048  27.388  1.00  0.00     0.173 A 
ATOM     96  F   UNL A   1      46.671  32.666  30.667  1.00  0.00    -0.203 F 
ATOM     97  C   UNL A   1      46.494  34.905  29.964  1.00  0.00     0.198 A 
ATOM     98  C   UNL A   1      45.992  35.410  27.672  1.00  0.00     0.198 A 
ATOM     99  F   UNL A   1      45.627  33.668  26.134  1.00  0.00    -0.203 F 
ATOM    100  F   UNL A   1      46.727  35.315  31.219  1.00  0.00    -0.200 F 
ATOM    101  C   UNL A   1      46.267  35.836  28.962  1.00  0.00     0.200 A 
ATOM    102  F   UNL A   1      45.789  36.308  26.699  1.00  0.00    -0.200 F 
ATOM    103  F   UNL A   1      46.302  37.146  29.243  1.00  0.00    -0.200 F 
ENDBRANCH  70  93
ENDBRANCH  44  45
ENDBRANCH  36  39
ENDBRANCH  34  35
ENDBRANCH  33  34
ENDBRANCH  32  33
ENDBRANCH  31  32
ENDBRANCH   3  31
TORSDOF 17
ENDMDL
MODEL 2
REMARK VINA RESULT:     -11.7      1.509      2.650
REMARK SMILES COc1ccc(N2C(=O)S[C@@H](CC(=O)Nc3nc(CC(=O)NCCCCNC(=O)c4ccc(-c5c6nc(c(-c7c(F)c(F)c(F)c(F)c7F)c7ccc([nH]7)c(-c7c(F)c(F)c(F)c(F)c7F)c7nc(c(-c8c(F)c(F)c(F)c(F)c8F)c8ccc5[nH]8)C=C7)C=C6)cc4)cs3)C2=O)cc1
REMARK SMILES IDX 20 1 21 2 22 3 19 5 18 6 16 7 17 8 94 9 93 10 15 11 13 12
REMARK SMILES IDX 14 13 12 15 11 16 7 17 8 18 95 19 9 20 10 21 96 22 6 23 3 24
REMARK SMILES IDX 4 25 98 26 5 27 97 28 2 29 1 30 23 31 24 32 25 33 26 34
REMARK SMILES IDX 27 35 28 36 29 38 30 39 31 40 92 41 32 42 91 43 33 44 34 45
REMARK SMILES IDX 35 46 85 47 36 48 90 49 84 50 86 51 37 52 89 53 83 54 82 55
REMARK SMILES IDX 38 57 70 58 50 59 69 60 51 61 54 62 68 63 87 64 52 65 53 66
REMARK SMILES IDX 67 68 88 69 55 70 39 71 40 72 48 73 41 74 42 75 46 76 49 77
REMARK SMILES IDX 43 78 44 79 47 80 45 81 71 82 72 83 80 84 73 85 74 86 78 87
REMARK SMILES IDX 81 88 75 89 76 90 79 91 77 92 56 93 57 94 65 95 58 96 59 97
REMARK SMILES IDX 63 98 66 99 60 100 61 101 64 102 62 103
REMARK H PARENT 22 4 15 14 27 37 86 56 54 67
REMARK Flexibility Score: inf
ROOT
ATOM      1  C   UNL A   1      38.424  23.573  26.490  1.00  0.00     0.226 C 
ATOM      2  O   UNL A   1      38.219  24.443  27.338  1.00  0.00    -0.275 OA
ATOM      3  N   UNL A   1      39.274  22.551  26.807  1.00  0.00    -0.356 N 
ATOM      4  H   UNL A   1      39.600  22.547  27.737  1.00  0.00     0.163 HD
ENDROOT
BRANCH   1   5
ATOM      5  C   UNL A   1      37.719  23.604  25.147  1.00  0.00     0.157 C 
BRANCH   5   6
ATOM      6  C   UNL A   1      36.469  22.789  25.130  1.00  0.00     0.063 A 
ATOM      7  C   UNL A   1      34.504  22.295  24.261  1.00  0.00     0.189 A 
ATOM      8  N   UNL A   1      35.615  22.945  24.050  1.00  0.00    -0.224 NA
ATOM      9  S   UNL A   1      34.432  21.365  25.683  1.00  0.00    -0.105 S 
ATOM     10  C   UNL A   1      36.021  21.891  26.083  1.00  0.00     0.093 A 
BRANCH   7  11
ATOM     11  N   UNL A   1      33.366  22.328  23.517  1.00  0.00    -0.302 N 
ATOM     12  C   UNL A   1      32.238  23.032  23.801  1.00  0.00     0.227 C 
ATOM     13  O   UNL A   1      31.219  22.791  23.143  1.00  0.00    -0.275 OA
ATOM     14  H   UNL A   1      33.358  21.789  22.693  1.00  0.00     0.172 HD
BRANCH  12  15
ATOM     15  C   UNL A   1      32.233  24.171  24.802  1.00  0.00     0.125 C 
BRANCH  15  16
ATOM     16  C   UNL A   1      32.168  25.597  24.276  1.00  0.00     0.156 C 
ATOM     17  N   UNL A   1      33.076  27.704  24.999  1.00  0.00    -0.240 N 
ATOM     18  C   UNL A   1      33.560  27.678  23.707  1.00  0.00     0.293 C 
ATOM     19  C   UNL A   1      32.382  26.577  25.413  1.00  0.00     0.248 C 
ATOM     20  O   UNL A   1      34.091  28.560  23.063  1.00  0.00    -0.261 OA
ATOM     21  S   UNL A   1      33.354  26.077  23.010  1.00  0.00    -0.050 SA
ATOM     22  O   UNL A   1      31.863  26.392  26.512  1.00  0.00    -0.273 OA
BRANCH  17  23
ATOM     23  C   UNL A   1      33.255  28.832  25.859  1.00  0.00     0.053 A 
ATOM     24  C   UNL A   1      33.618  31.047  27.584  1.00  0.00     0.119 A 
ATOM     25  C   UNL A   1      34.574  30.037  27.520  1.00  0.00     0.048 A 
ATOM     26  C   UNL A   1      32.491  30.966  26.772  1.00  0.00     0.048 A 
ATOM     27  C   UNL A   1      34.386  28.934  26.683  1.00  0.00     0.031 A 
ATOM     28  C   UNL A   1      32.318  29.875  25.908  1.00  0.00     0.031 A 
BRANCH  24  29
ATOM     29  O   UNL A   1      33.912  32.079  28.428  1.00  0.00    -0.497 OA
ATOM     30  C   UNL A   1      35.186  32.011  29.059  1.00  0.00     0.278 C 
ENDBRANCH  24  29
ENDBRANCH  17  23
ENDBRANCH  15  16
ENDBRANCH  12  15
ENDBRANCH   7  11
ENDBRANCH   5   6
ENDBRANCH   1   5
BRANCH   3  31
ATOM     31  C   UNL A   1      39.766  21.470  25.972  1.00  0.00     0.116 C 
BRANCH  31  32
ATOM     32  C   UNL A   1      41.050  20.855  26.533  1.00  0.00     0.023 C 
BRANCH  32  33
ATOM     33  C   UNL A   1      41.386  19.459  26.002  1.00  0.00     0.023 C 
BRANCH  33  34
ATOM     34  C   UNL A   1      42.804  18.980  26.284  1.00  0.00     0.116 C 
BRANCH  34  35
ATOM     35  N   UNL A   1      43.588  18.789  25.076  1.00  0.00    -0.352 N 
ATOM     36  C   UNL A   1      44.336  19.697  24.368  1.00  0.00     0.251 C 
ATOM     37  H   UNL A   1      43.583  17.874  24.712  1.00  0.00     0.163 HD
ATOM     38  O   UNL A   1      44.817  19.378  23.286  1.00  0.00    -0.269 OA
BRANCH  36  39
ATOM     39  C   UNL A   1      44.545  21.069  24.886  1.00  0.00     0.039 A 
ATOM     40  C   UNL A   1      44.015  22.141  24.163  1.00  0.00     0.014 A 
ATOM     41  C   UNL A   1      45.280  21.310  26.050  1.00  0.00     0.014 A 
ATOM     42  C   UNL A   1      44.194  23.447  24.624  1.00  0.00     0.010 A 
ATOM     43  C   UNL A   1      45.384  22.605  26.554  1.00  0.00     0.010 A 
ATOM     44  C   UNL A   1      44.863  23.690  25.835  1.00  0.00    -0.014 A 
BRANCH  44  45
ATOM     45  C   UNL A   1      45.057  25.077  26.331  1.00  0.00     0.031 A 
ATOM     46  C   UNL A   1      46.416  25.722  26.261  1.00  0.00     0.074 A 
ATOM     47  C   UNL A   1      44.021  25.749  26.868  1.00  0.00     0.049 A 
ATOM     48  N   UNL A   1      46.786  26.921  26.638  1.00  0.00    -0.248 NA
ATOM     49  C   UNL A   1      47.512  24.902  25.722  1.00  0.00     0.031 C 
ATOM     50  C   UNL A   1      42.670  25.215  27.045  1.00  0.00     0.029 A 
ATOM     51  N   UNL A   1      43.942  27.027  27.362  1.00  0.00    -0.354 N 
ATOM     52  C   UNL A   1      48.152  26.990  26.392  1.00  0.00     0.074 A 
ATOM     53  C   UNL A   1      48.559  25.694  25.897  1.00  0.00     0.031 C 
ATOM     54  C   UNL A   1      41.887  26.170  27.575  1.00  0.00     0.029 A 
ATOM     55  C   UNL A   1      42.687  27.369  27.803  1.00  0.00     0.049 A 
ATOM     56  H   UNL A   1      44.711  27.640  27.398  1.00  0.00     0.167 HD
ATOM     57  C   UNL A   1      48.986  28.049  26.533  1.00  0.00     0.037 A 
ATOM     58  C   UNL A   1      42.233  28.524  28.325  1.00  0.00     0.037 A 
ATOM     59  C   UNL A   1      48.574  29.346  27.002  1.00  0.00     0.049 A 
ATOM     60  C   UNL A   1      43.178  29.689  28.461  1.00  0.00     0.074 A 
ATOM     61  C   UNL A   1      49.329  30.499  27.131  1.00  0.00     0.029 A 
ATOM     62  N   UNL A   1      47.289  29.661  27.421  1.00  0.00    -0.354 N 
ATOM     63  N   UNL A   1      44.450  29.767  28.152  1.00  0.00    -0.248 NA
ATOM     64  C   UNL A   1      42.616  30.933  29.003  1.00  0.00     0.031 C 
ATOM     65  C   UNL A   1      48.513  31.499  27.673  1.00  0.00     0.029 A 
ATOM     66  C   UNL A   1      47.235  30.986  27.827  1.00  0.00     0.049 A 
ATOM     67  H   UNL A   1      46.529  29.037  27.429  1.00  0.00     0.167 HD
ATOM     68  C   UNL A   1      44.831  31.073  28.431  1.00  0.00     0.074 A 
ATOM     69  C   UNL A   1      43.649  31.757  28.914  1.00  0.00     0.031 C 
ATOM     70  C   UNL A   1      46.050  31.654  28.301  1.00  0.00     0.037 A 
BRANCH  57  71
ATOM     71  C   UNL A   1      50.430  27.846  26.169  1.00  0.00     0.064 A 
ATOM     72  C   UNL A   1      51.402  27.559  27.141  1.00  0.00     0.173 A 
ATOM     73  C   UNL A   1      50.845  27.911  24.830  1.00  0.00     0.173 A 
ATOM     74  F   UNL A   1      51.063  27.498  28.437  1.00  0.00    -0.203 F 
ATOM     75  C   UNL A   1      52.738  27.383  26.790  1.00  0.00     0.198 A 
ATOM     76  C   UNL A   1      52.176  27.699  24.479  1.00  0.00     0.198 A 
ATOM     77  F   UNL A   1      49.957  28.176  23.859  1.00  0.00    -0.203 F 
ATOM     78  F   UNL A   1      53.656  27.168  27.743  1.00  0.00    -0.200 F 
ATOM     79  C   UNL A   1      53.122  27.445  25.459  1.00  0.00     0.200 A 
ATOM     80  F   UNL A   1      52.543  27.747  23.191  1.00  0.00    -0.200 F 
ATOM     81  F   UNL A   1      54.408  27.269  25.123  1.00  0.00    -0.200 F 
ENDBRANCH  57  71
BRANCH  58  82
ATOM     82  C   UNL A   1      40.805  28.654  28.720  1.00  0.00     0.064 A 
ATOM     83  C   UNL A   1      39.839  29.095  27.804  1.00  0.00     0.173 A 
ATOM     84  C   UNL A   1      40.379  28.356  30.023  1.00  0.00     0.173 A 
ATOM     85  F   UNL A   1      40.201  29.411  26.552  1.00  0.00    -0.203 F 
ATOM     86  C   UNL A   1      38.510  29.260  28.182  1.00  0.00     0.198 A 
ATOM     87  C   UNL A   1      39.043  28.492  30.391  1.00  0.00     0.198 A 
ATOM     88  F   UNL A   1      41.261  27.924  30.936  1.00  0.00    -0.203 F 
ATOM     89  F   UNL A   1      37.620  29.736  27.302  1.00  0.00    -0.200 F 
ATOM     90  C   UNL A   1      38.111  28.954  29.475  1.00  0.00     0.200 A 
ATOM     91  F   UNL A   1      38.658  28.180  31.637  1.00  0.00    -0.200 F 
ATOM     92  F   UNL A   1      36.831  29.113  29.839  1.00  0.00    -0.200 F 
ENDBRANCH  58  82
BRANCH  70  93
ATOM     93  C   UNL A   1      46.153  33.113  28.650  1.00  0.00     0.064 A 
ATOM     94  C   UNL A   1      45.932  34.119  27.698  1.00  0.00     0.173 A 
ATOM     95  C   UNL A   1      46.468  33.506  29.960  1.00  0.00     0.173 A 
ATOM     96  F   UNL A   1      45.639  33.796  26.429  1.00  0.00    -0.203 F 
ATOM     97  C   UNL A   1      46.066  35.464  28.034  1.00  0.00     0.198 A 
ATOM     98  C   UNL A   1      46.566  34.853  30.301  1.00  0.00     0.198 A 
ATOM     99  F   UNL A   1      46.679  32.585  30.912  1.00  0.00    -0.203 F 
ATOM    100  F   UNL A   1      45.917  36.406  27.092  1.00  0.00    -0.200 F 
ATOM    101  C   UNL A   1      46.377  35.829  29.335  1.00  0.00     0.200 A 
ATOM    102  F   UNL A   1      46.850  35.204  31.562  1.00  0.00    -0.200 F 
ATOM    103  F   UNL A   1      46.508  37.124  29.656  1.00  0.00    -0.200 F 
ENDBRANCH  70  93
ENDBRANCH  44  45
ENDBRANCH  36  39
ENDBRANCH  34  35
ENDBRANCH  33  34
ENDBRANCH  32  33
ENDBRANCH  31  32
ENDBRANCH   3  31
TORSDOF 17
ENDMDL
MODEL 3
REMARK VINA RESULT:     -11.6      1.530      2.032
REMARK SMILES COc1ccc(N2C(=O)S[C@@H](CC(=O)Nc3nc(CC(=O)NCCCCNC(=O)c4ccc(-c5c6nc(c(-c7c(F)c(F)c(F)c(F)c7F)c7ccc([nH]7)c(-c7c(F)c(F)c(F)c(F)c7F)c7nc(c(-c8c(F)c(F)c(F)c(F)c8F)c8ccc5[nH]8)C=C7)C=C6)cc4)cs3)C2=O)cc1
REMARK SMILES IDX 20 1 21 2 22 3 19 5 18 6 16 7 17 8 94 9 93 10 15 11 13 12
REMARK SMILES IDX 14 13 12 15 11 16 7 17 8 18 95 19 9 20 10 21 96 22 6 23 3 24
REMARK SMILES IDX 4 25 98 26 5 27 97 28 2 29 1 30 23 31 24 32 25 33 26 34
REMARK SMILES IDX 27 35 28 36 29 38 30 39 31 40 92 41 32 42 91 43 33 44 34 45
REMARK SMILES IDX 35 46 85 47 36 48 90 49 84 50 86 51 37 52 89 53 83 54 82 55
REMARK SMILES IDX 38 57 70 58 50 59 69 60 51 61 54 62 68 63 87 64 52 65 53 66
REMARK SMILES IDX 67 68 88 69 55 70 39 71 40 72 48 73 41 74 42 75 46 76 49 77
REMARK SMILES IDX 43 78 44 79 47 80 45 81 71 82 72 83 80 84 73 85 74 86 78 87
REMARK SMILES IDX 81 88 75 89 76 90 79 91 77 92 56 93 57 94 65 95 58 96 59 97
REMARK SMILES IDX 63 98 66 99 60 100 61 101 64 102 62 103
REMARK H PARENT 22 4 15 14 27 37 86 56 54 67
REMARK Flexibility Score: inf
ROOT
ATOM      1  C   UNL A   1      39.268  22.635  26.495  1.00  0.00     0.226 C 
ATOM      2  O   UNL A   1      38.853  23.795  26.457  1.00  0.00    -0.275 OA
ATOM      3  N   UNL A   1      40.199  22.315  27.443  1.00  0.00    -0.356 N 
ATOM      4  H   UNL A   1      40.409  23.030  28.086  1.00  0.00     0.163 HD
ENDROOT
BRANCH   1   5
ATOM      5  C   UNL A   1      38.732  21.578  25.548  1.00  0.00     0.157 C 
BRANCH   5   6
ATOM      6  C   UNL A   1      37.338  21.860  25.094  1.00  0.00     0.063 A 
ATOM      7  C   UNL A   1      35.188  21.374  25.060  1.00  0.00     0.189 A 
ATOM      8  N   UNL A   1      36.313  21.130  25.673  1.00  0.00    -0.224 NA
ATOM      9  S   UNL A   1      35.234  22.560  23.841  1.00  0.00    -0.105 S 
ATOM     10  C   UNL A   1      36.920  22.759  24.128  1.00  0.00     0.093 A 
BRANCH   7  11
ATOM     11  N   UNL A   1      33.995  20.743  25.226  1.00  0.00    -0.302 N 
ATOM     12  C   UNL A   1      32.765  21.261  24.966  1.00  0.00     0.227 C 
ATOM     13  O   UNL A   1      31.775  20.642  25.369  1.00  0.00    -0.275 OA
ATOM     14  H   UNL A   1      34.025  19.820  25.568  1.00  0.00     0.172 HD
BRANCH  12  15
ATOM     15  C   UNL A   1      32.581  22.494  24.104  1.00  0.00     0.125 C 
BRANCH  15  16
ATOM     16  C   UNL A   1      31.604  23.564  24.570  1.00  0.00     0.156 C 
ATOM     17  N   UNL A   1      31.768  25.925  25.000  1.00  0.00    -0.240 N 
ATOM     18  C   UNL A   1      30.719  25.929  24.103  1.00  0.00     0.293 C 
ATOM     19  C   UNL A   1      32.358  24.694  25.243  1.00  0.00     0.248 C 
ATOM     20  O   UNL A   1      29.963  26.830  23.801  1.00  0.00    -0.261 OA
ATOM     21  S   UNL A   1      30.578  24.359  23.323  1.00  0.00    -0.050 SA
ATOM     22  O   UNL A   1      33.294  24.462  26.006  1.00  0.00    -0.273 OA
BRANCH  17  23
ATOM     23  C   UNL A   1      32.211  27.113  25.661  1.00  0.00     0.053 A 
ATOM     24  C   UNL A   1      33.061  29.476  26.968  1.00  0.00     0.119 A 
ATOM     25  C   UNL A   1      31.936  28.787  27.414  1.00  0.00     0.048 A 
ATOM     26  C   UNL A   1      33.778  28.975  25.885  1.00  0.00     0.048 A 
ATOM     27  C   UNL A   1      31.505  27.631  26.757  1.00  0.00     0.031 A 
ATOM     28  C   UNL A   1      33.363  27.797  25.245  1.00  0.00     0.031 A 
BRANCH  24  29
ATOM     29  O   UNL A   1      33.395  30.584  27.693  1.00  0.00    -0.497 OA
ATOM     30  C   UNL A   1      34.788  30.856  27.790  1.00  0.00     0.278 C 
ENDBRANCH  24  29
ENDBRANCH  17  23
ENDBRANCH  15  16
ENDBRANCH  12  15
ENDBRANCH   7  11
ENDBRANCH   5   6
ENDBRANCH   1   5
BRANCH   3  31
ATOM     31  C   UNL A   1      40.923  21.071  27.637  1.00  0.00     0.116 C 
BRANCH  31  32
ATOM     32  C   UNL A   1      42.040  20.895  26.606  1.00  0.00     0.023 C 
BRANCH  32  33
ATOM     33  C   UNL A   1      42.068  19.534  25.906  1.00  0.00     0.023 C 
BRANCH  33  34
ATOM     34  C   UNL A   1      43.379  18.768  26.026  1.00  0.00     0.116 C 
BRANCH  34  35
ATOM     35  N   UNL A   1      44.083  18.648  24.761  1.00  0.00    -0.352 N 
ATOM     36  C   UNL A   1      44.737  19.611  24.032  1.00  0.00     0.251 C 
ATOM     37  H   UNL A   1      44.093  17.745  24.369  1.00  0.00     0.163 HD
ATOM     38  O   UNL A   1      45.154  19.345  22.909  1.00  0.00    -0.269 OA
BRANCH  36  39
ATOM     39  C   UNL A   1      44.920  20.975  24.577  1.00  0.00     0.039 A 
ATOM     40  C   UNL A   1      44.444  22.059  23.834  1.00  0.00     0.014 A 
ATOM     41  C   UNL A   1      45.581  21.200  25.788  1.00  0.00     0.014 A 
ATOM     42  C   UNL A   1      44.600  23.359  24.319  1.00  0.00     0.010 A 
ATOM     43  C   UNL A   1      45.659  22.489  26.312  1.00  0.00     0.010 A 
ATOM     44  C   UNL A   1      45.191  23.585  25.573  1.00  0.00    -0.014 A 
BRANCH  44  45
ATOM     45  C   UNL A   1      45.361  24.965  26.095  1.00  0.00     0.031 A 
ATOM     46  C   UNL A   1      46.710  25.631  26.047  1.00  0.00     0.074 A 
ATOM     47  C   UNL A   1      44.311  25.611  26.637  1.00  0.00     0.049 A 
ATOM     48  N   UNL A   1      47.060  26.828  26.449  1.00  0.00    -0.248 NA
ATOM     49  C   UNL A   1      47.823  24.838  25.501  1.00  0.00     0.031 C 
ATOM     50  C   UNL A   1      42.967  25.054  26.795  1.00  0.00     0.029 A 
ATOM     51  N   UNL A   1      44.209  26.878  27.154  1.00  0.00    -0.354 N 
ATOM     52  C   UNL A   1      48.425  26.923  26.214  1.00  0.00     0.074 A 
ATOM     53  C   UNL A   1      48.855  25.642  25.698  1.00  0.00     0.031 C 
ATOM     54  C   UNL A   1      42.166  25.987  27.337  1.00  0.00     0.029 A 
ATOM     55  C   UNL A   1      42.946  27.194  27.592  1.00  0.00     0.049 A 
ATOM     56  H   UNL A   1      44.969  27.502  27.206  1.00  0.00     0.167 HD
ATOM     57  C   UNL A   1      49.242  27.991  26.380  1.00  0.00     0.037 A 
ATOM     58  C   UNL A   1      42.471  28.332  28.132  1.00  0.00     0.037 A 
ATOM     59  C   UNL A   1      48.808  29.274  26.869  1.00  0.00     0.049 A 
ATOM     60  C   UNL A   1      43.397  29.508  28.295  1.00  0.00     0.074 A 
ATOM     61  C   UNL A   1      49.545  30.435  27.025  1.00  0.00     0.029 A 
ATOM     62  N   UNL A   1      47.515  29.561  27.285  1.00  0.00    -0.354 N 
ATOM     63  N   UNL A   1      44.670  29.611  27.997  1.00  0.00    -0.248 NA
ATOM     64  C   UNL A   1      42.813  30.734  28.857  1.00  0.00     0.031 C 
ATOM     65  C   UNL A   1      48.710  31.412  27.579  1.00  0.00     0.029 A 
ATOM     66  C   UNL A   1      47.439  30.878  27.715  1.00  0.00     0.049 A 
ATOM     67  H   UNL A   1      46.765  28.926  27.276  1.00  0.00     0.167 HD
ATOM     68  C   UNL A   1      45.030  30.917  28.303  1.00  0.00     0.074 A 
ATOM     69  C   UNL A   1      43.834  31.574  28.790  1.00  0.00     0.031 C 
ATOM     70  C   UNL A   1      46.240  31.518  28.192  1.00  0.00     0.037 A 
BRANCH  57  71
ATOM     71  C   UNL A   1      50.692  27.816  26.023  1.00  0.00     0.064 A 
ATOM     72  C   UNL A   1      51.148  27.955  24.702  1.00  0.00     0.173 A 
ATOM     73  C   UNL A   1      51.642  27.533  27.016  1.00  0.00     0.173 A 
ATOM     74  F   UNL A   1      50.281  28.213  23.713  1.00  0.00    -0.203 F 
ATOM     75  C   UNL A   1      52.492  27.780  24.385  1.00  0.00     0.198 A 
ATOM     76  C   UNL A   1      52.992  27.394  26.699  1.00  0.00     0.198 A 
ATOM     77  F   UNL A   1      51.264  27.395  28.296  1.00  0.00    -0.203 F 
ATOM     78  F   UNL A   1      52.893  27.860  23.108  1.00  0.00    -0.200 F 
ATOM     79  C   UNL A   1      53.414  27.508  25.384  1.00  0.00     0.200 A 
ATOM     80  F   UNL A   1      53.883  27.144  27.669  1.00  0.00    -0.200 F 
ATOM     81  F   UNL A   1      54.709  27.346  25.077  1.00  0.00    -0.200 F 
ENDBRANCH  57  71
BRANCH  58  82
ATOM     82  C   UNL A   1      41.039  28.433  28.519  1.00  0.00     0.064 A 
ATOM     83  C   UNL A   1      40.085  28.950  27.631  1.00  0.00     0.173 A 
ATOM     84  C   UNL A   1      40.596  28.031  29.788  1.00  0.00     0.173 A 
ATOM     85  F   UNL A   1      40.463  29.367  26.413  1.00  0.00    -0.203 F 
ATOM     86  C   UNL A   1      38.751  29.088  28.005  1.00  0.00     0.198 A 
ATOM     87  C   UNL A   1      39.256  28.140  30.150  1.00  0.00     0.198 A 
ATOM     88  F   UNL A   1      41.466  27.523  30.673  1.00  0.00    -0.203 F 
ATOM     89  F   UNL A   1      37.873  29.637  27.155  1.00  0.00    -0.200 F 
ATOM     90  C   UNL A   1      38.336  28.678  29.263  1.00  0.00     0.200 A 
ATOM     91  F   UNL A   1      38.855  27.728  31.361  1.00  0.00    -0.200 F 
ATOM     92  F   UNL A   1      37.052  28.810  29.623  1.00  0.00    -0.200 F 
ENDBRANCH  58  82
BRANCH  70  93
ATOM     93  C   UNL A   1      46.319  32.972  28.569  1.00  0.00     0.064 A 
ATOM     94  C   UNL A   1      46.643  33.383  29.870  1.00  0.00     0.173 A 
ATOM     95  C   UNL A   1      46.075  33.966  27.608  1.00  0.00     0.173 A 
ATOM     96  F   UNL A   1      46.872  32.473  30.829  1.00  0.00    -0.203 F 
ATOM     97  C   UNL A   1      46.676  34.734  30.206  1.00  0.00     0.198 A 
ATOM     98  C   UNL A   1      46.146  35.317  27.939  1.00  0.00     0.198 A 
ATOM     99  F   UNL A   1      45.772  33.628  26.346  1.00  0.00    -0.203 F 
ATOM    100  F   UNL A   1      46.921  35.102  31.472  1.00  0.00    -0.200 F 
ATOM    101  C   UNL A   1      46.434  35.699  29.240  1.00  0.00     0.200 A 
ATOM    102  F   UNL A   1      45.927  36.247  27.001  1.00  0.00    -0.200 F 
ATOM    103  F   UNL A   1      46.465  36.999  29.566  1.00  0.00    -0.200 F 
ENDBRANCH  70  93
ENDBRANCH  44  45
ENDBRANCH  36  39
ENDBRANCH  34  35
ENDBRANCH  33  34
ENDBRANCH  32  33
ENDBRANCH  31  32
ENDBRANCH   3  31
TORSDOF 17
ENDMDL
