MODEL 1
REMARK VINA RESULT:     -13.6      0.000      0.000
REMARK SMILES CC1(C)CCCC[C@@H]1NC(=O)NC1(C(=O)NCCCCNC(=O)c2ccc(-c3c4nc(c(-c5c(F)c(F)c(F)c(F)c5F)c5ccc([nH]5)c(-c5c(F)c(F)c(F)c(F)c5F)c5nc(c(-c6c(F)c(F)c(F)c(F)c6F)c6ccc3[nH]6)C=C5)C=C4)cc2)CCCCC1
REMARK SMILES IDX 18 1 17 2 16 3 14 4 15 5 13 7 87 8 91 9 88 10 90 11 89 12
REMARK SMILES IDX 12 13 9 14 10 15 11 17 8 19 1 20 2 21 3 22 4 23 5 24 7 25
REMARK SMILES IDX 6 26 19 27 20 28 21 29 22 30 23 32 24 33 25 34 86 35 26 36
REMARK SMILES IDX 85 37 27 38 28 39 29 40 79 41 30 42 84 43 78 44 80 45 31 46
REMARK SMILES IDX 83 47 77 48 76 49 32 51 64 52 44 53 63 54 45 55 48 56 62 57
REMARK SMILES IDX 81 58 46 59 47 60 61 62 82 63 49 64 33 65 34 66 42 67 35 68
REMARK SMILES IDX 36 69 40 70 43 71 37 72 38 73 41 74 39 75 65 76 66 77 74 78
REMARK SMILES IDX 67 79 68 80 72 81 75 82 69 83 70 84 73 85 71 86 50 87 51 88
REMARK SMILES IDX 59 89 52 90 53 91 57 92 60 93 54 94 55 95 58 96 56 97
REMARK H PARENT 16 6 9 16 12 18 21 31 80 50 48 61
REMARK Flexibility Score: inf
ROOT
ATOM      1  C   UNL A   1      31.798  30.770  25.787  1.00  0.00     0.023 C 
ENDROOT
BRANCH   1   2
ATOM      2  C   UNL A   1      32.750  29.633  26.170  1.00  0.00     0.116 C 
BRANCH   2   3
ATOM      3  N   UNL A   1      33.604  29.220  25.078  1.00  0.00    -0.354 N 
ATOM      4  C   UNL A   1      33.381  28.710  23.842  1.00  0.00     0.245 C 
ATOM      5  O   UNL A   1      34.376  28.760  23.097  1.00  0.00    -0.272 OA
ATOM      6  H   UNL A   1      34.562  29.336  25.276  1.00  0.00     0.163 HD
BRANCH   4   7
ATOM      7  C   UNL A   1      32.031  28.162  23.249  1.00  0.00     0.120 C 
ATOM      8  C   UNL A   1      30.888  29.056  22.936  1.00  0.00     0.039 C 
ATOM      9  C   UNL A   1      31.457  27.256  24.402  1.00  0.00     0.039 C 
ATOM     10  C   UNL A   1      29.709  28.210  22.389  1.00  0.00     0.003 C 
ATOM     11  C   UNL A   1      29.956  26.846  24.413  1.00  0.00     0.003 C 
ATOM     12  C   UNL A   1      28.979  27.648  23.561  1.00  0.00     0.000 C 
BRANCH   7  13
ATOM     13  N   UNL A   1      32.460  27.480  21.993  1.00  0.00    -0.324 N 
ATOM     14  N   UNL A   1      33.843  25.653  22.705  1.00  0.00    -0.335 N 
ATOM     15  C   UNL A   1      33.088  26.285  21.736  1.00  0.00     0.315 C 
ATOM     16  H   UNL A   1      34.755  26.005  22.821  1.00  0.00     0.165 HD
ATOM     17  O   UNL A   1      33.214  25.941  20.560  1.00  0.00    -0.249 OA
ATOM     18  H   UNL A   1      32.249  27.993  21.180  1.00  0.00     0.166 HD
BRANCH  14  19
ATOM     19  C   UNL A   1      33.478  24.502  23.617  1.00  0.00     0.089 C 
ATOM     20  C   UNL A   1      33.142  23.302  25.867  1.00  0.00     0.013 C 
ATOM     21  C   UNL A   1      33.894  24.503  25.221  1.00  0.00    -0.015 C 
ATOM     22  C   UNL A   1      33.534  25.621  26.245  1.00  0.00     0.013 C 
ATOM     23  C   UNL A   1      35.426  24.374  25.369  1.00  0.00     0.008 C 
ATOM     24  C   UNL A   1      35.993  23.140  24.708  1.00  0.00     0.001 C 
ATOM     25  C   UNL A   1      34.118  23.224  22.977  1.00  0.00     0.025 C 
ATOM     26  C   UNL A   1      35.631  23.106  23.233  1.00  0.00     0.002 C 
ENDBRANCH  14  19
ENDBRANCH   7  13
ENDBRANCH   4   7
ENDBRANCH   2   3
ENDBRANCH   1   2
BRANCH   1  27
ATOM     27  C   UNL A   1      31.526  31.772  26.916  1.00  0.00     0.023 C 
BRANCH  27  28
ATOM     28  C   UNL A   1      32.712  32.666  27.287  1.00  0.00     0.116 C 
BRANCH  28  29
ATOM     29  N   UNL A   1      32.342  34.038  27.606  1.00  0.00    -0.352 N 
ATOM     30  C   UNL A   1      32.928  34.914  28.501  1.00  0.00     0.251 C 
ATOM     31  H   UNL A   1      31.566  34.391  27.114  1.00  0.00     0.163 HD
ATOM     32  O   UNL A   1      32.441  36.009  28.700  1.00  0.00    -0.269 OA
BRANCH  30  33
ATOM     33  C   UNL A   1      34.133  34.487  29.257  1.00  0.00     0.039 A 
ATOM     34  C   UNL A   1      33.969  33.974  30.547  1.00  0.00     0.014 A 
ATOM     35  C   UNL A   1      35.406  34.558  28.690  1.00  0.00     0.014 A 
ATOM     36  C   UNL A   1      35.070  33.445  31.228  1.00  0.00     0.010 A 
ATOM     37  C   UNL A   1      36.486  33.958  29.336  1.00  0.00     0.010 A 
ATOM     38  C   UNL A   1      36.329  33.384  30.608  1.00  0.00    -0.014 A 
BRANCH  38  39
ATOM     39  C   UNL A   1      37.484  32.708  31.260  1.00  0.00     0.031 A 
ATOM     40  C   UNL A   1      38.170  31.553  30.581  1.00  0.00     0.074 A 
ATOM     41  C   UNL A   1      37.868  33.081  32.498  1.00  0.00     0.049 A 
ATOM     42  N   UNL A   1      39.140  30.789  31.021  1.00  0.00    -0.248 NA
ATOM     43  C   UNL A   1      37.684  31.187  29.241  1.00  0.00     0.031 C 
ATOM     44  C   UNL A   1      37.255  34.151  33.288  1.00  0.00     0.029 A 
ATOM     45  N   UNL A   1      38.858  32.594  33.317  1.00  0.00    -0.354 N 
ATOM     46  C   UNL A   1      39.362  29.845  30.027  1.00  0.00     0.074 A 
ATOM     47  C   UNL A   1      38.397  30.100  28.980  1.00  0.00     0.031 C 
ATOM     48  C   UNL A   1      37.898  34.257  34.463  1.00  0.00     0.029 A 
ATOM     49  C   UNL A   1      38.937  33.235  34.532  1.00  0.00     0.049 A 
ATOM     50  H   UNL A   1      39.455  31.856  33.059  1.00  0.00     0.167 HD
ATOM     51  C   UNL A   1      40.297  28.867  29.983  1.00  0.00     0.037 A 
ATOM     52  C   UNL A   1      39.749  33.017  35.585  1.00  0.00     0.037 A 
ATOM     53  C   UNL A   1      41.283  28.640  31.008  1.00  0.00     0.049 A 
ATOM     54  C   UNL A   1      40.776  31.916  35.507  1.00  0.00     0.074 A 
ATOM     55  C   UNL A   1      42.326  27.731  31.012  1.00  0.00     0.029 A 
ATOM     56  N   UNL A   1      41.341  29.322  32.214  1.00  0.00    -0.354 N 
ATOM     57  N   UNL A   1      41.035  31.093  34.520  1.00  0.00    -0.248 NA
ATOM     58  C   UNL A   1      41.626  31.718  36.690  1.00  0.00     0.031 C 
ATOM     59  C   UNL A   1      42.979  27.819  32.245  1.00  0.00     0.029 A 
ATOM     60  C   UNL A   1      42.384  28.829  32.983  1.00  0.00     0.049 A 
ATOM     61  H   UNL A   1      40.734  30.048  32.484  1.00  0.00     0.167 HD
ATOM     62  C   UNL A   1      42.102  30.312  34.946  1.00  0.00     0.074 A 
ATOM     63  C   UNL A   1      42.450  30.768  36.274  1.00  0.00     0.031 C 
ATOM     64  C   UNL A   1      42.737  29.307  34.295  1.00  0.00     0.037 A 
BRANCH  51  65
ATOM     65  C   UNL A   1      40.311  27.958  28.787  1.00  0.00     0.064 A 
ATOM     66  C   UNL A   1      41.040  28.270  27.629  1.00  0.00     0.173 A 
ATOM     67  C   UNL A   1      39.643  26.724  28.829  1.00  0.00     0.173 A 
ATOM     68  F   UNL A   1      41.690  29.440  27.534  1.00  0.00    -0.203 F 
ATOM     69  C   UNL A   1      41.082  27.390  26.551  1.00  0.00     0.198 A 
ATOM     70  C   UNL A   1      39.714  25.833  27.762  1.00  0.00     0.198 A 
ATOM     71  F   UNL A   1      38.937  26.373  29.915  1.00  0.00    -0.203 F 
ATOM     72  F   UNL A   1      41.752  27.726  25.440  1.00  0.00    -0.200 F 
ATOM     73  C   UNL A   1      40.428  26.169  26.623  1.00  0.00     0.200 A 
ATOM     74  F   UNL A   1      39.095  24.647  27.840  1.00  0.00    -0.200 F 
ATOM     75  F   UNL A   1      40.484  25.316  25.591  1.00  0.00    -0.200 F 
ENDBRANCH  51  65
BRANCH  52  76
ATOM     76  C   UNL A   1      39.645  33.859  36.809  1.00  0.00     0.064 A 
ATOM     77  C   UNL A   1      38.848  33.459  37.892  1.00  0.00     0.173 A 
ATOM     78  C   UNL A   1      40.296  35.098  36.905  1.00  0.00     0.173 A 
ATOM     79  F   UNL A   1      38.187  32.294  37.842  1.00  0.00    -0.203 F 
ATOM     80  C   UNL A   1      38.674  34.283  39.003  1.00  0.00     0.198 A 
ATOM     81  C   UNL A   1      40.149  35.905  38.032  1.00  0.00     0.198 A 
ATOM     82  F   UNL A   1      41.074  35.528  35.901  1.00  0.00    -0.203 F 
ATOM     83  F   UNL A   1      37.851  33.905  39.992  1.00  0.00    -0.200 F 
ATOM     84  C   UNL A   1      39.328  35.503  39.074  1.00  0.00     0.200 A 
ATOM     85  F   UNL A   1      40.795  37.076  38.102  1.00  0.00    -0.200 F 
ATOM     86  F   UNL A   1      39.154  36.298  40.139  1.00  0.00    -0.200 F 
ENDBRANCH  52  76
BRANCH  64  87
ATOM     87  C   UNL A   1      43.911  28.668  34.980  1.00  0.00     0.064 A 
ATOM     88  C   UNL A   1      43.770  27.527  35.784  1.00  0.00     0.173 A 
ATOM     89  C   UNL A   1      45.203  29.184  34.794  1.00  0.00     0.173 A 
ATOM     90  F   UNL A   1      42.555  27.003  36.005  1.00  0.00    -0.203 F 
ATOM     91  C   UNL A   1      44.875  26.945  36.401  1.00  0.00     0.198 A 
ATOM     92  C   UNL A   1      46.310  28.578  35.383  1.00  0.00     0.198 A 
ATOM     93  F   UNL A   1      45.396  30.269  34.028  1.00  0.00    -0.203 F 
ATOM     94  F   UNL A   1      44.710  25.889  37.208  1.00  0.00    -0.200 F 
ATOM     95  C   UNL A   1      46.144  27.466  36.192  1.00  0.00     0.200 A 
ATOM     96  F   UNL A   1      47.536  29.072  35.166  1.00  0.00    -0.200 F 
ATOM     97  F   UNL A   1      47.207  26.897  36.779  1.00  0.00    -0.200 F 
ENDBRANCH  64  87
ENDBRANCH  38  39
ENDBRANCH  30  33
ENDBRANCH  28  29
ENDBRANCH  27  28
ENDBRANCH   1  27
TORSDOF 13
ENDMDL
MODEL 2
REMARK VINA RESULT:     -13.5      5.701     11.053
REMARK SMILES CC1(C)CCCC[C@@H]1NC(=O)NC1(C(=O)NCCCCNC(=O)c2ccc(-c3c4nc(c(-c5c(F)c(F)c(F)c(F)c5F)c5ccc([nH]5)c(-c5c(F)c(F)c(F)c(F)c5F)c5nc(c(-c6c(F)c(F)c(F)c(F)c6F)c6ccc3[nH]6)C=C5)C=C4)cc2)CCCCC1
REMARK SMILES IDX 18 1 17 2 16 3 14 4 15 5 13 7 87 8 91 9 88 10 90 11 89 12
REMARK SMILES IDX 12 13 9 14 10 15 11 17 8 19 1 20 2 21 3 22 4 23 5 24 7 25
REMARK SMILES IDX 6 26 19 27 20 28 21 29 22 30 23 32 24 33 25 34 86 35 26 36
REMARK SMILES IDX 85 37 27 38 28 39 29 40 79 41 30 42 84 43 78 44 80 45 31 46
REMARK SMILES IDX 83 47 77 48 76 49 32 51 64 52 44 53 63 54 45 55 48 56 62 57
REMARK SMILES IDX 81 58 46 59 47 60 61 62 82 63 49 64 33 65 34 66 42 67 35 68
REMARK SMILES IDX 36 69 40 70 43 71 37 72 38 73 41 74 39 75 65 76 66 77 74 78
REMARK SMILES IDX 67 79 68 80 72 81 75 82 69 83 70 84 73 85 71 86 50 87 51 88
REMARK SMILES IDX 59 89 52 90 53 91 57 92 60 93 54 94 55 95 58 96 56 97
REMARK H PARENT 16 6 9 16 12 18 21 31 80 50 48 61
REMARK Flexibility Score: inf
ROOT
ATOM      1  C   UNL A   1      36.685  20.749  25.254  1.00  0.00     0.023 C 
ENDROOT
BRANCH   1   2
ATOM      2  C   UNL A   1      36.586  22.268  25.423  1.00  0.00     0.116 C 
BRANCH   2   3
ATOM      3  N   UNL A   1      35.741  22.658  26.530  1.00  0.00    -0.354 N 
ATOM      4  C   UNL A   1      34.447  22.427  26.861  1.00  0.00     0.245 C 
ATOM      5  O   UNL A   1      34.180  22.701  28.044  1.00  0.00    -0.272 OA
ATOM      6  H   UNL A   1      36.211  23.216  27.192  1.00  0.00     0.163 HD
BRANCH   4   7
ATOM      7  C   UNL A   1      33.316  21.798  25.968  1.00  0.00     0.120 C 
ATOM      8  C   UNL A   1      33.324  20.364  25.581  1.00  0.00     0.039 C 
ATOM      9  C   UNL A   1      33.481  22.530  24.583  1.00  0.00     0.039 C 
ATOM     10  C   UNL A   1      32.091  20.066  24.689  1.00  0.00     0.003 C 
ATOM     11  C   UNL A   1      32.846  21.936  23.293  1.00  0.00     0.003 C 
ATOM     12  C   UNL A   1      32.438  20.467  23.296  1.00  0.00     0.000 C 
BRANCH   7  13
ATOM     13  N   UNL A   1      32.072  22.074  26.744  1.00  0.00    -0.324 N 
ATOM     14  N   UNL A   1      31.906  24.466  26.840  1.00  0.00    -0.335 N 
ATOM     15  C   UNL A   1      31.339  23.214  26.975  1.00  0.00     0.315 C 
ATOM     16  H   UNL A   1      32.446  24.766  27.606  1.00  0.00     0.165 HD
ATOM     17  O   UNL A   1      30.274  23.101  27.584  1.00  0.00    -0.249 OA
ATOM     18  H   UNL A   1      31.699  21.275  27.181  1.00  0.00     0.166 HD
BRANCH  14  19
ATOM     19  C   UNL A   1      31.822  25.446  25.690  1.00  0.00     0.089 C 
ATOM     20  C   UNL A   1      32.732  26.939  23.804  1.00  0.00     0.013 C 
ATOM     21  C   UNL A   1      33.167  26.228  25.119  1.00  0.00    -0.015 C 
ATOM     22  C   UNL A   1      34.470  25.532  24.625  1.00  0.00     0.013 C 
ATOM     23  C   UNL A   1      33.684  27.229  26.175  1.00  0.00     0.008 C 
ATOM     24  C   UNL A   1      32.654  28.252  26.591  1.00  0.00     0.001 C 
ATOM     25  C   UNL A   1      30.805  26.550  26.137  1.00  0.00     0.025 C 
ATOM     26  C   UNL A   1      31.404  27.570  27.122  1.00  0.00     0.002 C 
ENDBRANCH  14  19
ENDBRANCH   7  13
ENDBRANCH   4   7
ENDBRANCH   2   3
ENDBRANCH   1   2
BRANCH   1  27
ATOM     27  C   UNL A   1      38.062  20.254  24.794  1.00  0.00     0.023 C 
BRANCH  27  28
ATOM     28  C   UNL A   1      39.184  20.415  25.823  1.00  0.00     0.116 C 
BRANCH  28  29
ATOM     29  N   UNL A   1      40.096  19.282  25.887  1.00  0.00    -0.352 N 
ATOM     30  C   UNL A   1      41.453  19.268  26.155  1.00  0.00     0.251 C 
ATOM     31  H   UNL A   1      39.689  18.403  25.716  1.00  0.00     0.163 HD
ATOM     32  O   UNL A   1      42.082  18.231  26.094  1.00  0.00    -0.269 OA
BRANCH  30  33
ATOM     33  C   UNL A   1      42.147  20.543  26.469  1.00  0.00     0.039 A 
ATOM     34  C   UNL A   1      42.657  21.306  25.415  1.00  0.00     0.014 A 
ATOM     35  C   UNL A   1      42.265  20.999  27.783  1.00  0.00     0.014 A 
ATOM     36  C   UNL A   1      43.198  22.570  25.673  1.00  0.00     0.010 A 
ATOM     37  C   UNL A   1      42.730  22.289  28.029  1.00  0.00     0.010 A 
ATOM     38  C   UNL A   1      43.192  23.095  26.976  1.00  0.00    -0.014 A 
BRANCH  38  39
ATOM     39  C   UNL A   1      43.641  24.488  27.254  1.00  0.00     0.031 A 
ATOM     40  C   UNL A   1      42.666  25.511  27.771  1.00  0.00     0.074 A 
ATOM     41  C   UNL A   1      44.908  24.853  26.970  1.00  0.00     0.049 A 
ATOM     42  N   UNL A   1      42.848  26.788  28.000  1.00  0.00    -0.248 NA
ATOM     43  C   UNL A   1      41.295  25.046  28.038  1.00  0.00     0.031 C 
ATOM     44  C   UNL A   1      45.940  23.972  26.418  1.00  0.00     0.029 A 
ATOM     45  N   UNL A   1      45.543  26.065  27.092  1.00  0.00    -0.354 N 
ATOM     46  C   UNL A   1      41.616  27.280  28.414  1.00  0.00     0.074 A 
ATOM     47  C   UNL A   1      40.683  26.177  28.362  1.00  0.00     0.031 C 
ATOM     48  C   UNL A   1      47.082  24.664  26.275  1.00  0.00     0.029 A 
ATOM     49  C   UNL A   1      46.855  26.048  26.680  1.00  0.00     0.049 A 
ATOM     50  H   UNL A   1      45.100  26.871  27.443  1.00  0.00     0.167 HD
ATOM     51  C   UNL A   1      41.298  28.532  28.820  1.00  0.00     0.037 A 
ATOM     52  C   UNL A   1      47.768  27.037  26.626  1.00  0.00     0.037 A 
ATOM     53  C   UNL A   1      42.238  29.619  28.909  1.00  0.00     0.049 A 
ATOM     54  C   UNL A   1      47.381  28.422  27.078  1.00  0.00     0.074 A 
ATOM     55  C   UNL A   1      42.030  30.899  29.393  1.00  0.00     0.029 A 
ATOM     56  N   UNL A   1      43.561  29.557  28.500  1.00  0.00    -0.354 N 
ATOM     57  N   UNL A   1      46.237  28.848  27.557  1.00  0.00    -0.248 NA
ATOM     58  C   UNL A   1      48.415  29.463  26.986  1.00  0.00     0.031 C 
ATOM     59  C   UNL A   1      43.208  31.630  29.218  1.00  0.00     0.029 A 
ATOM     60  C   UNL A   1      44.171  30.787  28.689  1.00  0.00     0.049 A 
ATOM     61  H   UNL A   1      44.003  28.757  28.131  1.00  0.00     0.167 HD
ATOM     62  C   UNL A   1      46.428  30.190  27.862  1.00  0.00     0.074 A 
ATOM     63  C   UNL A   1      47.800  30.504  27.527  1.00  0.00     0.031 C 
ATOM     64  C   UNL A   1      45.545  31.082  28.374  1.00  0.00     0.037 A 
BRANCH  51  65
ATOM     65  C   UNL A   1      39.872  28.808  29.203  1.00  0.00     0.064 A 
ATOM     66  C   UNL A   1      38.926  29.245  28.264  1.00  0.00     0.173 A 
ATOM     67  C   UNL A   1      39.432  28.563  30.513  1.00  0.00     0.173 A 
ATOM     68  F   UNL A   1      39.296  29.502  27.000  1.00  0.00    -0.203 F 
ATOM     69  C   UNL A   1      37.597  29.447  28.628  1.00  0.00     0.198 A 
ATOM     70  C   UNL A   1      38.096  28.735  30.865  1.00  0.00     0.198 A 
ATOM     71  F   UNL A   1      40.294  28.138  31.449  1.00  0.00    -0.203 F 
ATOM     72  F   UNL A   1      36.719  29.903  27.723  1.00  0.00    -0.200 F 
ATOM     73  C   UNL A   1      37.181  29.181  29.924  1.00  0.00     0.200 A 
ATOM     74  F   UNL A   1      37.693  28.462  32.113  1.00  0.00    -0.200 F 
ATOM     75  F   UNL A   1      35.898  29.358  30.267  1.00  0.00    -0.200 F 
ENDBRANCH  51  65
BRANCH  52  76
ATOM     76  C   UNL A   1      49.150  26.768  26.137  1.00  0.00     0.064 A 
ATOM     77  C   UNL A   1      49.503  27.023  24.803  1.00  0.00     0.173 A 
ATOM     78  C   UNL A   1      50.127  26.206  26.972  1.00  0.00     0.173 A 
ATOM     79  F   UNL A   1      48.599  27.539  23.959  1.00  0.00    -0.203 F 
ATOM     80  C   UNL A   1      50.765  26.691  24.315  1.00  0.00     0.198 A 
ATOM     81  C   UNL A   1      51.401  25.907  26.491  1.00  0.00     0.198 A 
ATOM     82  F   UNL A   1      49.845  25.946  28.256  1.00  0.00    -0.203 F 
ATOM     83  F   UNL A   1      51.052  26.882  23.020  1.00  0.00    -0.200 F 
ATOM     84  C   UNL A   1      51.715  26.136  25.160  1.00  0.00     0.200 A 
ATOM     85  F   UNL A   1      52.318  25.385  27.315  1.00  0.00    -0.200 F 
ATOM     86  F   UNL A   1      52.926  25.810  24.689  1.00  0.00    -0.200 F 
ENDBRANCH  52  76
BRANCH  64  87
ATOM     87  C   UNL A   1      46.047  32.469  28.661  1.00  0.00     0.064 A 
ATOM     88  C   UNL A   1      46.638  32.804  29.888  1.00  0.00     0.173 A 
ATOM     89  C   UNL A   1      45.972  33.464  27.674  1.00  0.00     0.173 A 
ATOM     90  F   UNL A   1      46.721  31.894  30.869  1.00  0.00    -0.203 F 
ATOM     91  C   UNL A   1      47.106  34.094  30.127  1.00  0.00     0.198 A 
ATOM     92  C   UNL A   1      46.474  34.742  27.905  1.00  0.00     0.198 A 
ATOM     93  F   UNL A   1      45.424  33.194  26.479  1.00  0.00    -0.203 F 
ATOM     94  F   UNL A   1      47.617  34.408  31.326  1.00  0.00    -0.200 F 
ATOM     95  C   UNL A   1      47.032  35.058  29.133  1.00  0.00     0.200 A 
ATOM     96  F   UNL A   1      46.417  35.666  26.936  1.00  0.00    -0.200 F 
ATOM     97  F   UNL A   1      47.493  36.296  29.362  1.00  0.00    -0.200 F 
ENDBRANCH  64  87
ENDBRANCH  38  39
ENDBRANCH  30  33
ENDBRANCH  28  29
ENDBRANCH  27  28
ENDBRANCH   1  27
TORSDOF 13
ENDMDL
MODEL 3
REMARK VINA RESULT:     -13.5      5.656     11.044
REMARK SMILES CC1(C)CCCC[C@@H]1NC(=O)NC1(C(=O)NCCCCNC(=O)c2ccc(-c3c4nc(c(-c5c(F)c(F)c(F)c(F)c5F)c5ccc([nH]5)c(-c5c(F)c(F)c(F)c(F)c5F)c5nc(c(-c6c(F)c(F)c(F)c(F)c6F)c6ccc3[nH]6)C=C5)C=C4)cc2)CCCCC1
REMARK SMILES IDX 18 1 17 2 16 3 14 4 15 5 13 7 87 8 91 9 88 10 90 11 89 12
REMARK SMILES IDX 12 13 9 14 10 15 11 17 8 19 1 20 2 21 3 22 4 23 5 24 7 25
REMARK SMILES IDX 6 26 19 27 20 28 21 29 22 30 23 32 24 33 25 34 86 35 26 36
REMARK SMILES IDX 85 37 27 38 28 39 29 40 79 41 30 42 84 43 78 44 80 45 31 46
REMARK SMILES IDX 83 47 77 48 76 49 32 51 64 52 44 53 63 54 45 55 48 56 62 57
REMARK SMILES IDX 81 58 46 59 47 60 61 62 82 63 49 64 33 65 34 66 42 67 35 68
REMARK SMILES IDX 36 69 40 70 43 71 37 72 38 73 41 74 39 75 65 76 66 77 74 78
REMARK SMILES IDX 67 79 68 80 72 81 75 82 69 83 70 84 73 85 71 86 50 87 51 88
REMARK SMILES IDX 59 89 52 90 53 91 57 92 60 93 54 94 55 95 58 96 56 97
REMARK H PARENT 16 6 9 16 12 18 21 31 80 50 48 61
REMARK Flexibility Score: inf
ROOT
ATOM      1  C   UNL A   1      36.708  20.619  25.285  1.00  0.00     0.023 C 
ENDROOT
BRANCH   1   2
ATOM      2  C   UNL A   1      36.603  22.144  25.393  1.00  0.00     0.116 C 
BRANCH   2   3
ATOM      3  N   UNL A   1      35.761  22.574  26.486  1.00  0.00    -0.354 N 
ATOM      4  C   UNL A   1      34.465  22.365  26.823  1.00  0.00     0.245 C 
ATOM      5  O   UNL A   1      34.199  22.677  27.998  1.00  0.00    -0.272 OA
ATOM      6  H   UNL A   1      36.235  23.149  27.131  1.00  0.00     0.163 HD
BRANCH   4   7
ATOM      7  C   UNL A   1      33.328  21.718  25.949  1.00  0.00     0.120 C 
ATOM      8  C   UNL A   1      33.332  20.276  25.595  1.00  0.00     0.039 C 
ATOM      9  C   UNL A   1      33.491  22.419  24.547  1.00  0.00     0.039 C 
ATOM     10  C   UNL A   1      32.095  19.961  24.714  1.00  0.00     0.003 C 
ATOM     11  C   UNL A   1      32.850  21.797  23.273  1.00  0.00     0.003 C 
ATOM     12  C   UNL A   1      32.438  20.329  23.311  1.00  0.00     0.000 C 
BRANCH   7  13
ATOM     13  N   UNL A   1      32.088  22.015  26.723  1.00  0.00    -0.324 N 
ATOM     14  N   UNL A   1      31.936  24.409  26.778  1.00  0.00    -0.335 N 
ATOM     15  C   UNL A   1      31.362  23.163  26.936  1.00  0.00     0.315 C 
ATOM     16  H   UNL A   1      32.479  24.719  27.538  1.00  0.00     0.165 HD
ATOM     17  O   UNL A   1      30.298  23.066  27.550  1.00  0.00    -0.249 OA
ATOM     18  H   UNL A   1      31.712  21.226  27.174  1.00  0.00     0.166 HD
BRANCH  14  19
ATOM     19  C   UNL A   1      31.854  25.370  25.611  1.00  0.00     0.089 C 
ATOM     20  C   UNL A   1      32.771  26.846  23.715  1.00  0.00     0.013 C 
ATOM     21  C   UNL A   1      33.196  26.162  25.048  1.00  0.00    -0.015 C 
ATOM     22  C   UNL A   1      34.517  25.478  24.583  1.00  0.00     0.013 C 
ATOM     23  C   UNL A   1      33.683  27.187  26.094  1.00  0.00     0.008 C 
ATOM     24  C   UNL A   1      32.633  28.201  26.479  1.00  0.00     0.001 C 
ATOM     25  C   UNL A   1      30.815  26.466  26.025  1.00  0.00     0.025 C 
ATOM     26  C   UNL A   1      31.385  27.510  27.002  1.00  0.00     0.002 C 
ENDBRANCH  14  19
ENDBRANCH   7  13
ENDBRANCH   4   7
ENDBRANCH   2   3
ENDBRANCH   1   2
BRANCH   1  27
ATOM     27  C   UNL A   1      38.071  20.115  24.794  1.00  0.00     0.023 C 
BRANCH  27  28
ATOM     28  C   UNL A   1      39.224  20.299  25.783  1.00  0.00     0.116 C 
BRANCH  28  29
ATOM     29  N   UNL A   1      40.156  19.182  25.822  1.00  0.00    -0.352 N 
ATOM     30  C   UNL A   1      41.512  19.184  26.095  1.00  0.00     0.251 C 
ATOM     31  H   UNL A   1      39.765  18.300  25.626  1.00  0.00     0.163 HD
ATOM     32  O   UNL A   1      42.160  18.161  26.011  1.00  0.00    -0.269 OA
BRANCH  30  33
ATOM     33  C   UNL A   1      42.182  20.463  26.445  1.00  0.00     0.039 A 
ATOM     34  C   UNL A   1      42.739  21.231  25.419  1.00  0.00     0.014 A 
ATOM     35  C   UNL A   1      42.232  20.917  27.764  1.00  0.00     0.014 A 
ATOM     36  C   UNL A   1      43.259  22.498  25.705  1.00  0.00     0.010 A 
ATOM     37  C   UNL A   1      42.676  22.210  28.034  1.00  0.00     0.010 A 
ATOM     38  C   UNL A   1      43.185  23.021  27.007  1.00  0.00    -0.014 A 
BRANCH  38  39
ATOM     39  C   UNL A   1      43.611  24.415  27.309  1.00  0.00     0.031 A 
ATOM     40  C   UNL A   1      42.610  25.426  27.801  1.00  0.00     0.074 A 
ATOM     41  C   UNL A   1      44.883  24.795  27.067  1.00  0.00     0.049 A 
ATOM     42  N   UNL A   1      42.773  26.703  28.045  1.00  0.00    -0.248 NA
ATOM     43  C   UNL A   1      41.237  24.946  28.022  1.00  0.00     0.031 C 
ATOM     44  C   UNL A   1      45.940  23.928  26.543  1.00  0.00     0.029 A 
ATOM     45  N   UNL A   1      45.502  26.012  27.218  1.00  0.00    -0.354 N 
ATOM     46  C   UNL A   1      41.524  27.179  28.423  1.00  0.00     0.074 A 
ATOM     47  C   UNL A   1      40.603  26.068  28.334  1.00  0.00     0.031 C 
ATOM     48  C   UNL A   1      47.080  24.632  26.440  1.00  0.00     0.029 A 
ATOM     49  C   UNL A   1      46.827  26.010  26.848  1.00  0.00     0.049 A 
ATOM     50  H   UNL A   1      45.040  26.811  27.561  1.00  0.00     0.167 HD
ATOM     51  C   UNL A   1      41.181  28.425  28.828  1.00  0.00     0.037 A 
ATOM     52  C   UNL A   1      47.731  27.009  26.830  1.00  0.00     0.037 A 
ATOM     53  C   UNL A   1      42.107  29.521  28.954  1.00  0.00     0.049 A 
ATOM     54  C   UNL A   1      47.316  28.386  27.279  1.00  0.00     0.074 A 
ATOM     55  C   UNL A   1      41.870  30.795  29.440  1.00  0.00     0.029 A 
ATOM     56  N   UNL A   1      43.443  29.474  28.587  1.00  0.00    -0.354 N 
ATOM     57  N   UNL A   1      46.154  28.798  27.724  1.00  0.00    -0.248 NA
ATOM     58  C   UNL A   1      48.343  29.438  27.228  1.00  0.00     0.031 C 
ATOM     59  C   UNL A   1      43.046  31.539  29.308  1.00  0.00     0.029 A 
ATOM     60  C   UNL A   1      44.034  30.709  28.804  1.00  0.00     0.049 A 
ATOM     61  H   UNL A   1      43.903  28.681  28.227  1.00  0.00     0.167 HD
ATOM     62  C   UNL A   1      46.322  30.139  28.045  1.00  0.00     0.074 A 
ATOM     63  C   UNL A   1      47.701  30.469  27.756  1.00  0.00     0.031 C 
ATOM     64  C   UNL A   1      45.414  31.019  28.535  1.00  0.00     0.037 A 
BRANCH  51  65
ATOM     65  C   UNL A   1      39.741  28.685  29.167  1.00  0.00     0.064 A 
ATOM     66  C   UNL A   1      39.236  28.477  30.459  1.00  0.00     0.173 A 
ATOM     67  C   UNL A   1      38.872  29.219  28.201  1.00  0.00     0.173 A 
ATOM     68  F   UNL A   1      40.021  27.961  31.416  1.00  0.00    -0.203 F 
ATOM     69  C   UNL A   1      37.910  28.772  30.765  1.00  0.00     0.198 A 
ATOM     70  C   UNL A   1      37.557  29.543  28.520  1.00  0.00     0.198 A 
ATOM     71  F   UNL A   1      39.305  29.445  26.952  1.00  0.00    -0.203 F 
ATOM     72  F   UNL A   1      37.439  28.527  31.996  1.00  0.00    -0.200 F 
ATOM     73  C   UNL A   1      37.076  29.315  29.800  1.00  0.00     0.200 A 
ATOM     74  F   UNL A   1      36.757  30.083  27.591  1.00  0.00    -0.200 F 
ATOM     75  F   UNL A   1      35.805  29.615  30.103  1.00  0.00    -0.200 F 
ENDBRANCH  51  65
BRANCH  52  76
ATOM     76  C   UNL A   1      49.130  26.756  26.383  1.00  0.00     0.064 A 
ATOM     77  C   UNL A   1      49.501  26.939  25.042  1.00  0.00     0.173 A 
ATOM     78  C   UNL A   1      50.108  26.282  27.269  1.00  0.00     0.173 A 
ATOM     79  F   UNL A   1      48.597  27.370  24.151  1.00  0.00    -0.203 F 
ATOM     80  C   UNL A   1      50.783  26.619  24.599  1.00  0.00     0.198 A 
ATOM     81  C   UNL A   1      51.401  25.997  26.831  1.00  0.00     0.198 A 
ATOM     82  F   UNL A   1      49.810  26.093  28.563  1.00  0.00    -0.203 F 
ATOM     83  F   UNL A   1      51.088  26.738  23.299  1.00  0.00    -0.200 F 
ATOM     84  C   UNL A   1      51.733  26.152  25.494  1.00  0.00     0.200 A 
ATOM     85  F   UNL A   1      52.319  25.559  27.702  1.00  0.00    -0.200 F 
ATOM     86  F   UNL A   1      52.963  25.837  25.065  1.00  0.00    -0.200 F 
ENDBRANCH  52  76
BRANCH  64  87
ATOM     87  C   UNL A   1      45.893  32.408  28.847  1.00  0.00     0.064 A 
ATOM     88  C   UNL A   1      45.819  33.447  27.907  1.00  0.00     0.173 A 
ATOM     89  C   UNL A   1      46.395  32.712  30.122  1.00  0.00     0.173 A 
ATOM     90  F   UNL A   1      45.361  33.207  26.670  1.00  0.00    -0.203 F 
ATOM     91  C   UNL A   1      46.259  34.730  28.223  1.00  0.00     0.198 A 
ATOM     92  C   UNL A   1      46.800  34.004  30.445  1.00  0.00     0.198 A 
ATOM     93  F   UNL A   1      46.480  31.758  31.061  1.00  0.00    -0.203 F 
ATOM     94  F   UNL A   1      46.230  35.694  27.292  1.00  0.00    -0.200 F 
ATOM     95  C   UNL A   1      46.740  35.009  29.493  1.00  0.00     0.200 A 
ATOM     96  F   UNL A   1      47.248  34.275  31.679  1.00  0.00    -0.200 F 
ATOM     97  F   UNL A   1      47.153  36.248  29.798  1.00  0.00    -0.200 F 
ENDBRANCH  64  87
ENDBRANCH  38  39
ENDBRANCH  30  33
ENDBRANCH  28  29
ENDBRANCH  27  28
ENDBRANCH   1  27
TORSDOF 13
ENDMDL
