MODEL 1
REMARK VINA RESULT:     -12.2      0.000      0.000
REMARK SMILES Cc1nc(Nc2ccc(F)cc2)nc(OCC(=O)NCCCCNC(=O)c2ccc(-c3c4nc(c(-c5c(F)c(F)c(F)c(F)c5F)c5ccc([nH]5)c(-c5c(F)c(F)c(F)c(F)c5F)c5nc(c(-c6c(F)c(F)c(F)c(F)c6F)c6ccc3[nH]6)C=C5)C=C4)cc2)c1CCO
REMARK SMILES IDX 20 1 19 2 17 3 18 4 16 6 15 7 14 8 1 9 2 10 3 11 90 12 4 13
REMARK SMILES IDX 13 14 91 15 92 16 93 17 5 19 6 21 7 22 12 23 8 24 11 25 9 26
REMARK SMILES IDX 10 27 21 28 22 29 23 30 24 31 25 32 26 34 27 35 28 36 89 37
REMARK SMILES IDX 29 38 88 39 30 40 31 41 32 42 82 43 33 44 87 45 81 46 83 47
REMARK SMILES IDX 34 48 86 49 80 50 79 51 35 53 67 54 47 55 66 56 48 57 51 58
REMARK SMILES IDX 65 59 84 60 49 61 50 62 64 64 85 65 52 66 36 67 37 68 45 69
REMARK SMILES IDX 38 70 39 71 43 72 46 73 40 74 41 75 44 76 42 77 68 78 69 79
REMARK SMILES IDX 77 80 70 81 71 82 75 83 78 84 72 85 73 86 76 87 74 88 53 89
REMARK SMILES IDX 54 90 62 91 55 92 56 93 60 94 63 95 57 96 58 97 61 98 59 99
REMARK H PARENT 19 5 93 18 5 20 24 33 83 52 51 63
REMARK Flexibility Score: inf
ROOT
ATOM      1  C   UNL A   1      32.716  30.205  25.760  1.00  0.00     0.116 C 
ENDROOT
BRANCH   1   2
ATOM      2  N   UNL A   1      33.884  29.979  26.580  1.00  0.00    -0.353 N 
ATOM      3  C   UNL A   1      34.552  28.817  26.805  1.00  0.00     0.258 C 
ATOM      4  O   UNL A   1      35.557  28.864  27.517  1.00  0.00    -0.271 OA
ATOM      5  H   UNL A   1      34.245  30.773  27.038  1.00  0.00     0.163 HD
BRANCH   3   6
ATOM      6  C   UNL A   1      34.091  27.523  26.120  1.00  0.00     0.331 C 
BRANCH   6   7
ATOM      7  O   UNL A   1      32.828  26.950  26.381  1.00  0.00    -0.467 OA
BRANCH   7   8
ATOM      8  C   UNL A   1      32.129  26.255  25.445  1.00  0.00     0.222 A 
ATOM      9  C   UNL A   1      31.129  23.040  23.757  1.00  0.00     0.067 C 
ATOM     10  C   UNL A   1      31.301  24.468  24.186  1.00  0.00     0.050 A 
ATOM     11  N   UNL A   1      30.601  25.329  23.427  1.00  0.00    -0.218 NA
ATOM     12  C   UNL A   1      32.172  24.889  25.191  1.00  0.00     0.038 A 
ATOM     13  C   UNL A   1      30.760  26.636  23.623  1.00  0.00     0.230 A 
ATOM     14  N   UNL A   1      31.471  27.124  24.640  1.00  0.00    -0.177 NA
BRANCH  12  15
ATOM     15  C   UNL A   1      33.143  23.918  25.814  1.00  0.00     0.071 C 
BRANCH  15  16
ATOM     16  C   UNL A   1      32.605  23.190  27.050  1.00  0.00     0.161 C 
BRANCH  16  17
ATOM     17  O   UNL A   1      31.338  23.669  27.475  1.00  0.00    -0.396 OA
ATOM     18  H   UNL A   1      30.911  24.146  26.747  1.00  0.00     0.210 HD
ENDBRANCH  16  17
ENDBRANCH  15  16
ENDBRANCH  12  15
BRANCH  13  19
ATOM     19  N   UNL A   1      30.294  27.531  22.656  1.00  0.00    -0.324 N 
ATOM     20  H   UNL A   1      30.587  27.363  21.730  1.00  0.00     0.170 HD
BRANCH  19  21
ATOM     21  C   UNL A   1      29.459  28.640  22.852  1.00  0.00     0.041 A 
ATOM     22  C   UNL A   1      29.984  29.887  23.224  1.00  0.00     0.029 A 
ATOM     23  C   UNL A   1      28.064  28.488  22.820  1.00  0.00     0.029 A 
ATOM     24  C   UNL A   1      29.147  30.959  23.543  1.00  0.00     0.041 A 
ATOM     25  C   UNL A   1      27.222  29.554  23.159  1.00  0.00     0.041 A 
ATOM     26  C   UNL A   1      27.773  30.779  23.517  1.00  0.00     0.123 A 
ATOM     27  F   UNL A   1      26.967  31.793  23.857  1.00  0.00    -0.207 F 
ENDBRANCH  19  21
ENDBRANCH  13  19
ENDBRANCH   7   8
ENDBRANCH   6   7
ENDBRANCH   3   6
ENDBRANCH   1   2
BRANCH   1  28
ATOM     28  C   UNL A   1      31.546  30.742  26.576  1.00  0.00     0.023 C 
BRANCH  28  29
ATOM     29  C   UNL A   1      31.469  32.268  26.681  1.00  0.00     0.023 C 
BRANCH  29  30
ATOM     30  C   UNL A   1      32.599  32.942  27.451  1.00  0.00     0.116 C 
BRANCH  30  31
ATOM     31  N   UNL A   1      32.345  34.344  27.741  1.00  0.00    -0.352 N 
ATOM     32  C   UNL A   1      32.997  35.174  28.618  1.00  0.00     0.251 C 
ATOM     33  H   UNL A   1      31.606  34.754  27.239  1.00  0.00     0.163 HD
ATOM     34  O   UNL A   1      32.598  36.320  28.802  1.00  0.00    -0.269 OA
BRANCH  32  35
ATOM     35  C   UNL A   1      34.157  34.666  29.378  1.00  0.00     0.039 A 
ATOM     36  C   UNL A   1      33.949  34.192  30.675  1.00  0.00     0.014 A 
ATOM     37  C   UNL A   1      35.432  34.625  28.805  1.00  0.00     0.014 A 
ATOM     38  C   UNL A   1      35.008  33.613  31.375  1.00  0.00     0.010 A 
ATOM     39  C   UNL A   1      36.469  33.983  29.476  1.00  0.00     0.010 A 
ATOM     40  C   UNL A   1      36.266  33.469  30.766  1.00  0.00    -0.014 A 
BRANCH  40  41
ATOM     41  C   UNL A   1      37.378  32.776  31.464  1.00  0.00     0.031 A 
ATOM     42  C   UNL A   1      38.085  31.628  30.804  1.00  0.00     0.074 A 
ATOM     43  C   UNL A   1      37.718  33.154  32.711  1.00  0.00     0.049 A 
ATOM     44  N   UNL A   1      39.040  30.865  31.273  1.00  0.00    -0.248 NA
ATOM     45  C   UNL A   1      37.646  31.273  29.444  1.00  0.00     0.031 C 
ATOM     46  C   UNL A   1      37.081  34.231  33.471  1.00  0.00     0.029 A 
ATOM     47  N   UNL A   1      38.683  32.674  33.562  1.00  0.00    -0.354 N 
ATOM     48  C   UNL A   1      39.310  29.942  30.273  1.00  0.00     0.074 A 
ATOM     49  C   UNL A   1      38.381  30.199  29.194  1.00  0.00     0.031 C 
ATOM     50  C   UNL A   1      37.694  34.353  34.659  1.00  0.00     0.029 A 
ATOM     51  C   UNL A   1      38.739  33.338  34.763  1.00  0.00     0.049 A 
ATOM     52  H   UNL A   1      39.279  31.924  33.334  1.00  0.00     0.167 HD
ATOM     53  C   UNL A   1      40.266  28.984  30.246  1.00  0.00     0.037 A 
ATOM     54  C   UNL A   1      39.541  33.149  35.829  1.00  0.00     0.037 A 
ATOM     55  C   UNL A   1      41.204  28.747  31.311  1.00  0.00     0.049 A 
ATOM     56  C   UNL A   1      40.581  32.064  35.783  1.00  0.00     0.074 A 
ATOM     57  C   UNL A   1      42.237  27.828  31.360  1.00  0.00     0.029 A 
ATOM     58  N   UNL A   1      41.224  29.437  32.515  1.00  0.00    -0.354 N 
ATOM     59  N   UNL A   1      40.857  31.226  34.814  1.00  0.00    -0.248 NA
ATOM     60  C   UNL A   1      41.422  31.898  36.976  1.00  0.00     0.031 C 
ATOM     61  C   UNL A   1      42.854  27.930  32.610  1.00  0.00     0.029 A 
ATOM     62  C   UNL A   1      42.240  28.949  33.321  1.00  0.00     0.049 A 
ATOM     63  H   UNL A   1      40.607  30.164  32.760  1.00  0.00     0.167 HD
ATOM     64  C   UNL A   1      41.916  30.452  35.268  1.00  0.00     0.074 A 
ATOM     65  C   UNL A   1      42.242  30.927  36.596  1.00  0.00     0.031 C 
ATOM     66  C   UNL A   1      42.558  29.439  34.638  1.00  0.00     0.037 A 
BRANCH  53  67
ATOM     67  C   UNL A   1      40.363  28.128  29.017  1.00  0.00     0.064 A 
ATOM     68  C   UNL A   1      41.101  28.555  27.904  1.00  0.00     0.173 A 
ATOM     69  C   UNL A   1      39.671  26.911  28.919  1.00  0.00     0.173 A 
ATOM     70  F   UNL A   1      41.778  29.713  27.944  1.00  0.00    -0.203 F 
ATOM     71  C   UNL A   1      41.132  27.802  26.733  1.00  0.00     0.198 A 
ATOM     72  C   UNL A   1      39.729  26.145  27.757  1.00  0.00     0.198 A 
ATOM     73  F   UNL A   1      38.960  26.452  29.960  1.00  0.00    -0.203 F 
ATOM     74  F   UNL A   1      41.819  28.246  25.671  1.00  0.00    -0.200 F 
ATOM     75  C   UNL A   1      40.451  26.597  26.662  1.00  0.00     0.200 A 
ATOM     76  F   UNL A   1      39.090  24.969  27.699  1.00  0.00    -0.200 F 
ATOM     77  F   UNL A   1      40.492  25.867  25.539  1.00  0.00    -0.200 F 
ENDBRANCH  53  67
BRANCH  54  78
ATOM     78  C   UNL A   1      39.414  34.042  37.011  1.00  0.00     0.064 A 
ATOM     79  C   UNL A   1      40.034  35.298  37.052  1.00  0.00     0.173 A 
ATOM     80  C   UNL A   1      38.690  33.634  38.140  1.00  0.00     0.173 A 
ATOM     81  F   UNL A   1      40.741  35.733  35.999  1.00  0.00    -0.203 F 
ATOM     82  C   UNL A   1      39.954  36.104  38.186  1.00  0.00     0.198 A 
ATOM     83  C   UNL A   1      38.588  34.451  39.263  1.00  0.00     0.198 A 
ATOM     84  F   UNL A   1      38.062  32.448  38.140  1.00  0.00    -0.203 F 
ATOM     85  F   UNL A   1      40.584  37.285  38.212  1.00  0.00    -0.200 F 
ATOM     86  C   UNL A   1      39.227  35.682  39.289  1.00  0.00     0.200 A 
ATOM     87  F   UNL A   1      37.865  34.049  40.319  1.00  0.00    -0.200 F 
ATOM     88  F   UNL A   1      39.140  36.462  40.375  1.00  0.00    -0.200 F 
ENDBRANCH  54  78
BRANCH  66  89
ATOM     89  C   UNL A   1      43.699  28.781  35.358  1.00  0.00     0.064 A 
ATOM     90  C   UNL A   1      45.020  29.186  35.113  1.00  0.00     0.173 A 
ATOM     91  C   UNL A   1      43.493  27.694  36.220  1.00  0.00     0.173 A 
ATOM     92  F   UNL A   1      45.270  30.215  34.289  1.00  0.00    -0.203 F 
ATOM     93  C   UNL A   1      46.094  28.515  35.691  1.00  0.00     0.198 A 
ATOM     94  C   UNL A   1      44.569  27.043  36.817  1.00  0.00     0.198 A 
ATOM     95  F   UNL A   1      42.248  27.276  36.494  1.00  0.00    -0.203 F 
ATOM     96  F   UNL A   1      47.348  28.896  35.412  1.00  0.00    -0.200 F 
ATOM     97  C   UNL A   1      45.867  27.446  36.544  1.00  0.00     0.200 A 
ATOM     98  F   UNL A   1      44.348  26.025  37.661  1.00  0.00    -0.200 F 
ATOM     99  F   UNL A   1      46.902  26.804  37.104  1.00  0.00    -0.200 F 
ENDBRANCH  66  89
ENDBRANCH  40  41
ENDBRANCH  32  35
ENDBRANCH  30  31
ENDBRANCH  29  30
ENDBRANCH  28  29
ENDBRANCH   1  28
TORSDOF 18
ENDMDL
MODEL 2
REMARK VINA RESULT:     -12.1      6.185     11.625
REMARK SMILES Cc1nc(Nc2ccc(F)cc2)nc(OCC(=O)NCCCCNC(=O)c2ccc(-c3c4nc(c(-c5c(F)c(F)c(F)c(F)c5F)c5ccc([nH]5)c(-c5c(F)c(F)c(F)c(F)c5F)c5nc(c(-c6c(F)c(F)c(F)c(F)c6F)c6ccc3[nH]6)C=C5)C=C4)cc2)c1CCO
REMARK SMILES IDX 20 1 19 2 17 3 18 4 16 6 15 7 14 8 1 9 2 10 3 11 90 12 4 13
REMARK SMILES IDX 13 14 91 15 92 16 93 17 5 19 6 21 7 22 12 23 8 24 11 25 9 26
REMARK SMILES IDX 10 27 21 28 22 29 23 30 24 31 25 32 26 34 27 35 28 36 89 37
REMARK SMILES IDX 29 38 88 39 30 40 31 41 32 42 82 43 33 44 87 45 81 46 83 47
REMARK SMILES IDX 34 48 86 49 80 50 79 51 35 53 67 54 47 55 66 56 48 57 51 58
REMARK SMILES IDX 65 59 84 60 49 61 50 62 64 64 85 65 52 66 36 67 37 68 45 69
REMARK SMILES IDX 38 70 39 71 43 72 46 73 40 74 41 75 44 76 42 77 68 78 69 79
REMARK SMILES IDX 77 80 70 81 71 82 75 83 78 84 72 85 73 86 76 87 74 88 53 89
REMARK SMILES IDX 54 90 62 91 55 92 56 93 60 94 63 95 57 96 58 97 61 98 59 99
REMARK H PARENT 19 5 93 18 5 20 24 33 83 52 51 63
REMARK Flexibility Score: inf
ROOT
ATOM      1  C   UNL A   1      37.666  21.932  25.283  1.00  0.00     0.116 C 
ENDROOT
BRANCH   1   2
ATOM      2  N   UNL A   1      36.630  22.229  26.246  1.00  0.00    -0.353 N 
ATOM      3  C   UNL A   1      35.759  23.270  26.261  1.00  0.00     0.258 C 
ATOM      4  O   UNL A   1      34.924  23.305  27.168  1.00  0.00    -0.271 OA
ATOM      5  H   UNL A   1      36.544  21.590  26.991  1.00  0.00     0.163 HD
BRANCH   3   6
ATOM      6  C   UNL A   1      35.787  24.311  25.133  1.00  0.00     0.331 C 
BRANCH   6   7
ATOM      7  O   UNL A   1      35.167  24.075  23.886  1.00  0.00    -0.467 OA
BRANCH   7   8
ATOM      8  C   UNL A   1      33.842  23.799  23.766  1.00  0.00     0.222 A 
ATOM      9  C   UNL A   1      30.278  24.835  23.126  1.00  0.00     0.067 C 
ATOM     10  C   UNL A   1      31.549  24.093  23.419  1.00  0.00     0.050 A 
ATOM     11  N   UNL A   1      31.346  22.787  23.669  1.00  0.00    -0.218 NA
ATOM     12  C   UNL A   1      32.803  24.693  23.533  1.00  0.00     0.038 A 
ATOM     13  C   UNL A   1      32.374  22.039  24.063  1.00  0.00     0.230 A 
ATOM     14  N   UNL A   1      33.626  22.498  24.076  1.00  0.00    -0.177 NA
BRANCH  12  15
ATOM     15  C   UNL A   1      32.932  26.195  23.529  1.00  0.00     0.071 C 
BRANCH  15  16
ATOM     16  C   UNL A   1      33.660  26.764  22.307  1.00  0.00     0.161 C 
BRANCH  16  17
ATOM     17  O   UNL A   1      32.961  26.553  21.089  1.00  0.00    -0.396 OA
ATOM     18  H   UNL A   1      32.015  26.443  21.274  1.00  0.00     0.210 HD
ENDBRANCH  16  17
ENDBRANCH  15  16
ENDBRANCH  12  15
BRANCH  13  19
ATOM     19  N   UNL A   1      32.127  20.782  24.620  1.00  0.00    -0.324 N 
ATOM     20  H   UNL A   1      31.505  20.758  25.384  1.00  0.00     0.170 HD
BRANCH  19  21
ATOM     21  C   UNL A   1      32.662  19.550  24.217  1.00  0.00     0.041 A 
ATOM     22  C   UNL A   1      33.802  19.016  24.839  1.00  0.00     0.029 A 
ATOM     23  C   UNL A   1      32.153  18.894  23.087  1.00  0.00     0.029 A 
ATOM     24  C   UNL A   1      34.412  17.855  24.358  1.00  0.00     0.041 A 
ATOM     25  C   UNL A   1      32.774  17.741  22.590  1.00  0.00     0.041 A 
ATOM     26  C   UNL A   1      33.897  17.234  23.231  1.00  0.00     0.123 A 
ATOM     27  F   UNL A   1      34.500  16.141  22.745  1.00  0.00    -0.207 F 
ENDBRANCH  19  21
ENDBRANCH  13  19
ENDBRANCH   7   8
ENDBRANCH   6   7
ENDBRANCH   3   6
ENDBRANCH   1   2
BRANCH   1  28
ATOM     28  C   UNL A   1      37.438  20.587  24.602  1.00  0.00     0.023 C 
BRANCH  28  29
ATOM     29  C   UNL A   1      38.349  19.451  25.078  1.00  0.00     0.023 C 
BRANCH  29  30
ATOM     30  C   UNL A   1      39.595  19.872  25.847  1.00  0.00     0.116 C 
BRANCH  30  31
ATOM     31  N   UNL A   1      40.619  18.842  25.897  1.00  0.00    -0.352 N 
ATOM     32  C   UNL A   1      41.966  18.975  26.129  1.00  0.00     0.251 C 
ATOM     33  H   UNL A   1      40.304  17.922  25.746  1.00  0.00     0.163 HD
ATOM     34  O   UNL A   1      42.708  18.001  26.054  1.00  0.00    -0.269 OA
BRANCH  32  35
ATOM     35  C   UNL A   1      42.526  20.310  26.421  1.00  0.00     0.039 A 
ATOM     36  C   UNL A   1      43.187  20.995  25.400  1.00  0.00     0.014 A 
ATOM     37  C   UNL A   1      42.372  20.895  27.681  1.00  0.00     0.014 A 
ATOM     38  C   UNL A   1      43.635  22.297  25.621  1.00  0.00     0.010 A 
ATOM     39  C   UNL A   1      42.755  22.219  27.878  1.00  0.00     0.010 A 
ATOM     40  C   UNL A   1      43.387  22.933  26.849  1.00  0.00    -0.014 A 
BRANCH  40  41
ATOM     41  C   UNL A   1      43.780  24.348  27.070  1.00  0.00     0.031 A 
ATOM     42  C   UNL A   1      42.769  25.343  27.561  1.00  0.00     0.074 A 
ATOM     43  C   UNL A   1      45.035  24.743  26.782  1.00  0.00     0.049 A 
ATOM     44  N   UNL A   1      42.905  26.629  27.763  1.00  0.00    -0.248 NA
ATOM     45  C   UNL A   1      41.418  24.832  27.844  1.00  0.00     0.031 C 
ATOM     46  C   UNL A   1      46.095  23.877  26.264  1.00  0.00     0.029 A 
ATOM     47  N   UNL A   1      45.633  25.975  26.883  1.00  0.00    -0.354 N 
ATOM     48  C   UNL A   1      41.663  27.079  28.187  1.00  0.00     0.074 A 
ATOM     49  C   UNL A   1      40.768  25.942  28.159  1.00  0.00     0.031 C 
ATOM     50  C   UNL A   1      47.221  24.595  26.126  1.00  0.00     0.029 A 
ATOM     51  C   UNL A   1      46.954  25.980  26.505  1.00  0.00     0.049 A 
ATOM     52  H   UNL A   1      45.160  26.780  27.196  1.00  0.00     0.167 HD
ATOM     53  C   UNL A   1      41.309  28.321  28.591  1.00  0.00     0.037 A 
ATOM     54  C   UNL A   1      47.847  26.986  26.468  1.00  0.00     0.037 A 
ATOM     55  C   UNL A   1      42.208  29.443  28.640  1.00  0.00     0.049 A 
ATOM     56  C   UNL A   1      47.423  28.363  26.901  1.00  0.00     0.074 A 
ATOM     57  C   UNL A   1      41.953  30.732  29.075  1.00  0.00     0.029 A 
ATOM     58  N   UNL A   1      43.537  29.409  28.243  1.00  0.00    -0.354 N 
ATOM     59  N   UNL A   1      46.257  28.766  27.343  1.00  0.00    -0.248 NA
ATOM     60  C   UNL A   1      48.437  29.424  26.831  1.00  0.00     0.031 C 
ATOM     61  C   UNL A   1      43.115  31.489  28.899  1.00  0.00     0.029 A 
ATOM     62  C   UNL A   1      44.110  30.660  28.405  1.00  0.00     0.049 A 
ATOM     63  H   UNL A   1      44.004  28.614  27.897  1.00  0.00     0.167 HD
ATOM     64  C   UNL A   1      46.402  30.117  27.627  1.00  0.00     0.074 A 
ATOM     65  C   UNL A   1      47.773  30.464  27.319  1.00  0.00     0.031 C 
ATOM     66  C   UNL A   1      45.479  30.988  28.101  1.00  0.00     0.037 A 
BRANCH  53  67
ATOM     67  C   UNL A   1      39.890  28.534  29.032  1.00  0.00     0.064 A 
ATOM     68  C   UNL A   1      38.936  29.054  28.146  1.00  0.00     0.173 A 
ATOM     69  C   UNL A   1      39.491  28.284  30.354  1.00  0.00     0.173 A 
ATOM     70  F   UNL A   1      39.267  29.316  26.872  1.00  0.00    -0.203 F 
ATOM     71  C   UNL A   1      37.638  29.327  28.569  1.00  0.00     0.198 A 
ATOM     72  C   UNL A   1      38.183  28.529  30.767  1.00  0.00     0.198 A 
ATOM     73  F   UNL A   1      40.362  27.775  31.238  1.00  0.00    -0.203 F 
ATOM     74  F   UNL A   1      36.751  29.854  27.712  1.00  0.00    -0.200 F 
ATOM     75  C   UNL A   1      37.261  29.060  29.877  1.00  0.00     0.200 A 
ATOM     76  F   UNL A   1      37.815  28.247  32.023  1.00  0.00    -0.200 F 
ATOM     77  F   UNL A   1      36.009  29.312  30.279  1.00  0.00    -0.200 F 
ENDBRANCH  53  67
BRANCH  54  78
ATOM     78  C   UNL A   1      49.245  26.712  26.042  1.00  0.00     0.064 A 
ATOM     79  C   UNL A   1      49.664  26.924  24.721  1.00  0.00     0.173 A 
ATOM     80  C   UNL A   1      50.181  26.199  26.950  1.00  0.00     0.173 A 
ATOM     81  F   UNL A   1      48.806  27.410  23.814  1.00  0.00    -0.203 F 
ATOM     82  C   UNL A   1      50.962  26.613  24.320  1.00  0.00     0.198 A 
ATOM     83  C   UNL A   1      51.486  25.913  26.554  1.00  0.00     0.198 A 
ATOM     84  F   UNL A   1      49.832  25.998  28.229  1.00  0.00    -0.203 F 
ATOM     85  F   UNL A   1      51.328  26.793  23.044  1.00  0.00    -0.200 F 
ATOM     86  C   UNL A   1      51.873  26.112  25.238  1.00  0.00     0.200 A 
ATOM     87  F   UNL A   1      52.370  25.450  27.450  1.00  0.00    -0.200 F 
ATOM     88  F   UNL A   1      53.124  25.824  24.854  1.00  0.00    -0.200 F 
ENDBRANCH  54  78
BRANCH  66  89
ATOM     89  C   UNL A   1      45.916  32.404  28.344  1.00  0.00     0.064 A 
ATOM     90  C   UNL A   1      45.853  33.352  27.312  1.00  0.00     0.173 A 
ATOM     91  C   UNL A   1      46.478  32.798  29.568  1.00  0.00     0.173 A 
ATOM     92  F   UNL A   1      45.333  33.021  26.120  1.00  0.00    -0.203 F 
ATOM     93  C   UNL A   1      46.354  34.639  27.490  1.00  0.00     0.198 A 
ATOM     94  C   UNL A   1      46.952  34.094  29.750  1.00  0.00     0.198 A 
ATOM     95  F   UNL A   1      46.549  31.930  30.588  1.00  0.00    -0.203 F 
ATOM     96  F   UNL A   1      46.318  35.516  26.478  1.00  0.00    -0.200 F 
ATOM     97  C   UNL A   1      46.900  35.009  28.709  1.00  0.00     0.200 A 
ATOM     98  F   UNL A   1      47.458  34.459  30.937  1.00  0.00    -0.200 F 
ATOM     99  F   UNL A   1      47.376  36.250  28.882  1.00  0.00    -0.200 F 
ENDBRANCH  66  89
ENDBRANCH  40  41
ENDBRANCH  32  35
ENDBRANCH  30  31
ENDBRANCH  29  30
ENDBRANCH  28  29
ENDBRANCH   1  28
TORSDOF 18
ENDMDL
MODEL 3
REMARK VINA RESULT:     -12.1      0.633      7.262
REMARK SMILES Cc1nc(Nc2ccc(F)cc2)nc(OCC(=O)NCCCCNC(=O)c2ccc(-c3c4nc(c(-c5c(F)c(F)c(F)c(F)c5F)c5ccc([nH]5)c(-c5c(F)c(F)c(F)c(F)c5F)c5nc(c(-c6c(F)c(F)c(F)c(F)c6F)c6ccc3[nH]6)C=C5)C=C4)cc2)c1CCO
REMARK SMILES IDX 20 1 19 2 17 3 18 4 16 6 15 7 14 8 1 9 2 10 3 11 90 12 4 13
REMARK SMILES IDX 13 14 91 15 92 16 93 17 5 19 6 21 7 22 12 23 8 24 11 25 9 26
REMARK SMILES IDX 10 27 21 28 22 29 23 30 24 31 25 32 26 34 27 35 28 36 89 37
REMARK SMILES IDX 29 38 88 39 30 40 31 41 32 42 82 43 33 44 87 45 81 46 83 47
REMARK SMILES IDX 34 48 86 49 80 50 79 51 35 53 67 54 47 55 66 56 48 57 51 58
REMARK SMILES IDX 65 59 84 60 49 61 50 62 64 64 85 65 52 66 36 67 37 68 45 69
REMARK SMILES IDX 38 70 39 71 43 72 46 73 40 74 41 75 44 76 42 77 68 78 69 79
REMARK SMILES IDX 77 80 70 81 71 82 75 83 78 84 72 85 73 86 76 87 74 88 53 89
REMARK SMILES IDX 54 90 62 91 55 92 56 93 60 94 63 95 57 96 58 97 61 98 59 99
REMARK H PARENT 19 5 93 18 5 20 24 33 83 52 51 63
REMARK Flexibility Score: inf
ROOT
ATOM      1  C   UNL A   1      32.546  30.259  25.677  1.00  0.00     0.116 C 
ENDROOT
BRANCH   1   2
ATOM      2  N   UNL A   1      33.767  30.083  26.429  1.00  0.00    -0.353 N 
ATOM      3  C   UNL A   1      34.353  28.928  26.837  1.00  0.00     0.258 C 
ATOM      4  O   UNL A   1      35.425  29.012  27.440  1.00  0.00    -0.271 OA
ATOM      5  H   UNL A   1      34.238  30.911  26.679  1.00  0.00     0.163 HD
BRANCH   3   6
ATOM      6  C   UNL A   1      33.718  27.577  26.478  1.00  0.00     0.331 C 
BRANCH   6   7
ATOM      7  O   UNL A   1      33.851  27.009  25.193  1.00  0.00    -0.467 OA
BRANCH   7   8
ATOM      8  C   UNL A   1      32.826  26.382  24.558  1.00  0.00     0.222 A 
ATOM      9  C   UNL A   1      30.968  23.274  23.518  1.00  0.00     0.067 C 
ATOM     10  C   UNL A   1      31.442  24.679  23.751  1.00  0.00     0.050 A 
ATOM     11  N   UNL A   1      30.669  25.598  23.144  1.00  0.00    -0.218 NA
ATOM     12  C   UNL A   1      32.614  25.013  24.428  1.00  0.00     0.038 A 
ATOM     13  C   UNL A   1      31.046  26.874  23.169  1.00  0.00     0.230 A 
ATOM     14  N   UNL A   1      32.080  27.299  23.896  1.00  0.00    -0.177 NA
BRANCH  12  15
ATOM     15  C   UNL A   1      33.590  23.939  24.837  1.00  0.00     0.071 C 
BRANCH  15  16
ATOM     16  C   UNL A   1      33.486  23.516  26.306  1.00  0.00     0.161 C 
BRANCH  16  17
ATOM     17  O   UNL A   1      32.281  23.938  26.927  1.00  0.00    -0.396 OA
ATOM     18  H   UNL A   1      31.808  24.546  26.337  1.00  0.00     0.210 HD
ENDBRANCH  16  17
ENDBRANCH  15  16
ENDBRANCH  12  15
BRANCH  13  19
ATOM     19  N   UNL A   1      30.439  27.780  22.295  1.00  0.00    -0.324 N 
ATOM     20  H   UNL A   1      30.679  27.695  21.344  1.00  0.00     0.170 HD
BRANCH  19  21
ATOM     21  C   UNL A   1      29.528  28.796  22.617  1.00  0.00     0.041 A 
ATOM     22  C   UNL A   1      29.969  30.072  23.001  1.00  0.00     0.029 A 
ATOM     23  C   UNL A   1      28.156  28.514  22.702  1.00  0.00     0.029 A 
ATOM     24  C   UNL A   1      29.072  31.046  23.444  1.00  0.00     0.041 A 
ATOM     25  C   UNL A   1      27.256  29.481  23.165  1.00  0.00     0.041 A 
ATOM     26  C   UNL A   1      27.723  30.737  23.532  1.00  0.00     0.123 A 
ATOM     27  F   UNL A   1      26.864  31.656  23.991  1.00  0.00    -0.207 F 
ENDBRANCH  19  21
ENDBRANCH  13  19
ENDBRANCH   7   8
ENDBRANCH   6   7
ENDBRANCH   3   6
ENDBRANCH   1   2
BRANCH   1  28
ATOM     28  C   UNL A   1      31.442  30.881  26.525  1.00  0.00     0.023 C 
BRANCH  28  29
ATOM     29  C   UNL A   1      31.445  32.411  26.582  1.00  0.00     0.023 C 
BRANCH  29  30
ATOM     30  C   UNL A   1      32.617  33.050  27.319  1.00  0.00     0.116 C 
BRANCH  30  31
ATOM     31  N   UNL A   1      32.342  34.401  27.780  1.00  0.00    -0.352 N 
ATOM     32  C   UNL A   1      32.996  35.134  28.739  1.00  0.00     0.251 C 
ATOM     33  H   UNL A   1      31.585  34.853  27.344  1.00  0.00     0.163 HD
ATOM     34  O   UNL A   1      32.579  36.241  29.067  1.00  0.00    -0.269 OA
BRANCH  32  35
ATOM     35  C   UNL A   1      34.181  34.563  29.411  1.00  0.00     0.039 A 
ATOM     36  C   UNL A   1      34.012  33.952  30.655  1.00  0.00     0.014 A 
ATOM     37  C   UNL A   1      35.440  34.599  28.805  1.00  0.00     0.014 A 
ATOM     38  C   UNL A   1      35.095  33.316  31.262  1.00  0.00     0.010 A 
ATOM     39  C   UNL A   1      36.501  33.904  29.377  1.00  0.00     0.010 A 
ATOM     40  C   UNL A   1      36.338  33.253  30.610  1.00  0.00    -0.014 A 
BRANCH  40  41
ATOM     41  C   UNL A   1      37.475  32.505  31.203  1.00  0.00     0.031 A 
ATOM     42  C   UNL A   1      37.977  32.857  32.573  1.00  0.00     0.074 A 
ATOM     43  C   UNL A   1      38.083  31.541  30.486  1.00  0.00     0.049 A 
ATOM     44  N   UNL A   1      38.989  32.358  33.237  1.00  0.00    -0.248 NA
ATOM     45  C   UNL A   1      37.262  33.929  33.286  1.00  0.00     0.031 C 
ATOM     46  C   UNL A   1      37.710  31.134  29.131  1.00  0.00     0.029 A 
ATOM     47  N   UNL A   1      39.145  30.728  30.796  1.00  0.00    -0.354 N 
ATOM     48  C   UNL A   1      39.035  33.055  34.436  1.00  0.00     0.074 A 
ATOM     49  C   UNL A   1      37.988  34.053  34.388  1.00  0.00     0.031 C 
ATOM     50  C   UNL A   1      38.506  30.126  28.739  1.00  0.00     0.029 A 
ATOM     51  C   UNL A   1      39.472  29.842  29.798  1.00  0.00     0.049 A 
ATOM     52  H   UNL A   1      39.629  30.775  31.652  1.00  0.00     0.167 HD
ATOM     53  C   UNL A   1      39.857  32.861  35.493  1.00  0.00     0.037 A 
ATOM     54  C   UNL A   1      40.441  28.909  29.741  1.00  0.00     0.037 A 
ATOM     55  C   UNL A   1      40.882  31.853  35.546  1.00  0.00     0.049 A 
ATOM     56  C   UNL A   1      41.357  28.728  30.920  1.00  0.00     0.074 A 
ATOM     57  C   UNL A   1      41.739  31.550  36.590  1.00  0.00     0.029 A 
ATOM     58  N   UNL A   1      41.186  30.979  34.512  1.00  0.00    -0.354 N 
ATOM     59  N   UNL A   1      41.362  29.363  32.066  1.00  0.00    -0.248 NA
ATOM     60  C   UNL A   1      42.401  27.700  30.800  1.00  0.00     0.031 C 
ATOM     61  C   UNL A   1      42.592  30.524  36.171  1.00  0.00     0.029 A 
ATOM     62  C   UNL A   1      42.231  30.151  34.886  1.00  0.00     0.049 A 
ATOM     63  H   UNL A   1      40.728  30.952  33.641  1.00  0.00     0.167 HD
ATOM     64  C   UNL A   1      42.388  28.798  32.812  1.00  0.00     0.074 A 
ATOM     65  C   UNL A   1      42.977  27.760  31.993  1.00  0.00     0.031 C 
ATOM     66  C   UNL A   1      42.802  29.115  34.063  1.00  0.00     0.037 A 
BRANCH  53  67
ATOM     67  C   UNL A   1      39.676  33.746  36.692  1.00  0.00     0.064 A 
ATOM     68  C   UNL A   1      38.842  33.355  37.749  1.00  0.00     0.173 A 
ATOM     69  C   UNL A   1      40.278  35.011  36.763  1.00  0.00     0.173 A 
ATOM     70  F   UNL A   1      38.237  32.157  37.728  1.00  0.00    -0.203 F 
ATOM     71  C   UNL A   1      38.607  34.203  38.828  1.00  0.00     0.198 A 
ATOM     72  C   UNL A   1      40.066  35.845  37.858  1.00  0.00     0.198 A 
ATOM     73  F   UNL A   1      41.094  35.427  35.783  1.00  0.00    -0.203 F 
ATOM     74  F   UNL A   1      37.781  33.821  39.812  1.00  0.00    -0.200 F 
ATOM     75  C   UNL A   1      39.223  35.444  38.885  1.00  0.00     0.200 A 
ATOM     76  F   UNL A   1      40.681  37.033  37.923  1.00  0.00    -0.200 F 
ATOM     77  F   UNL A   1      39.007  36.254  39.929  1.00  0.00    -0.200 F 
ENDBRANCH  53  67
BRANCH  54  78
ATOM     78  C   UNL A   1      40.561  28.047  28.536  1.00  0.00     0.064 A 
ATOM     79  C   UNL A   1      39.938  26.794  28.466  1.00  0.00     0.173 A 
ATOM     80  C   UNL A   1      41.335  28.454  27.440  1.00  0.00     0.173 A 
ATOM     81  F   UNL A   1      39.190  26.357  29.489  1.00  0.00    -0.203 F 
ATOM     82  C   UNL A   1      40.101  25.970  27.353  1.00  0.00     0.198 A 
ATOM     83  C   UNL A   1      41.476  27.641  26.318  1.00  0.00     0.198 A 
ATOM     84  F   UNL A   1      41.934  29.654  27.453  1.00  0.00    -0.203 F 
ATOM     85  F   UNL A   1      39.522  24.762  27.325  1.00  0.00    -0.200 F 
ATOM     86  C   UNL A   1      40.865  26.397  26.278  1.00  0.00     0.200 A 
ATOM     87  F   UNL A   1      42.198  28.067  25.271  1.00  0.00    -0.200 F 
ATOM     88  F   UNL A   1      41.013  25.609  25.204  1.00  0.00    -0.200 F 
ENDBRANCH  54  78
BRANCH  66  89
ATOM     89  C   UNL A   1      43.933  28.319  34.646  1.00  0.00     0.064 A 
ATOM     90  C   UNL A   1      45.262  28.722  34.445  1.00  0.00     0.173 A 
ATOM     91  C   UNL A   1      43.707  27.113  35.326  1.00  0.00     0.173 A 
ATOM     92  F   UNL A   1      45.530  29.864  33.792  1.00  0.00    -0.203 F 
ATOM     93  C   UNL A   1      46.323  27.938  34.887  1.00  0.00     0.198 A 
ATOM     94  C   UNL A   1      44.771  26.346  35.791  1.00  0.00     0.198 A 
ATOM     95  F   UNL A   1      42.454  26.691  35.553  1.00  0.00    -0.203 F 
ATOM     96  F   UNL A   1      47.584  28.324  34.649  1.00  0.00    -0.200 F 
ATOM     97  C   UNL A   1      46.076  26.752  35.562  1.00  0.00     0.200 A 
ATOM     98  F   UNL A   1      44.532  25.212  36.465  1.00  0.00    -0.200 F 
ATOM     99  F   UNL A   1      47.099  26.001  35.992  1.00  0.00    -0.200 F 
ENDBRANCH  66  89
ENDBRANCH  40  41
ENDBRANCH  32  35
ENDBRANCH  30  31
ENDBRANCH  29  30
ENDBRANCH  28  29
ENDBRANCH   1  28
TORSDOF 18
ENDMDL
