MODEL 1
REMARK VINA RESULT:     -13.4      0.000      0.000
REMARK SMILES NC(=O)C[C@H](NC(=O)C1(c2ccccc2)CCN(C(=O)[C@@H]2CCC[NH2+]2)CC1)C(=O)NCCCCNC(=O)c1ccc(-c2c3nc(c(-c4c(F)c(F)c(F)c(F)c4F)c4ccc([nH]4)c(-c4c(F)c(F)c(F)c(F)c4F)c4nc(c(-c5c(F)c(F)c(F)c(F)c5F)c5ccc2[nH]5)C=C4)C=C3)cc1
REMARK SMILES IDX 32 1 31 2 30 3 28 4 29 5 5 7 4 8 2 9 1 10 3 13 6 14 7 15
REMARK SMILES IDX 8 17 9 18 16 19 27 20 17 21 26 22 18 23 19 24 20 25 10 26
REMARK SMILES IDX 11 27 15 28 12 29 14 30 13 31 21 32 22 33 25 34 23 35 24 36
REMARK SMILES IDX 33 39 34 40 35 41 36 42 37 44 38 45 39 46 100 47 40 48 99 49
REMARK SMILES IDX 41 50 42 51 43 52 93 53 44 54 98 55 92 56 94 57 45 58 97 59
REMARK SMILES IDX 91 60 90 61 46 63 78 64 58 65 77 66 59 67 62 68 76 69 95 70
REMARK SMILES IDX 60 71 61 72 75 74 96 75 63 76 47 77 48 78 56 79 49 80 50 81
REMARK SMILES IDX 54 82 57 83 51 84 52 85 55 86 53 87 79 88 80 89 88 90 81 91
REMARK SMILES IDX 82 92 86 93 89 94 83 95 84 96 87 97 85 98 64 99 65 100
REMARK SMILES IDX 73 101 66 102 67 103 71 104 74 105 68 106 69 107 72 108
REMARK SMILES IDX 70 109
REMARK H PARENT 30 6 1 11 1 12 6 16 25 37 25 38 35 43 94 62 62 73
REMARK Flexibility Score: inf
ROOT
ATOM      1  C   UNL A   1      33.896  28.375  25.401  1.00  0.00     0.023 C 
ENDROOT
BRANCH   1   2
ATOM      2  C   UNL A   1      33.329  26.968  25.198  1.00  0.00     0.116 C 
BRANCH   2   3
ATOM      3  N   UNL A   1      33.759  26.382  23.945  1.00  0.00    -0.354 N 
ATOM      4  C   UNL A   1      33.137  25.465  23.152  1.00  0.00     0.243 C 
ATOM      5  O   UNL A   1      33.643  25.242  22.046  1.00  0.00    -0.273 OA
ATOM      6  H   UNL A   1      34.632  26.695  23.616  1.00  0.00     0.163 HD
BRANCH   4   7
ATOM      7  C   UNL A   1      31.755  24.840  23.504  1.00  0.00     0.180 C 
BRANCH   7   8
ATOM      8  C   UNL A   1      30.716  25.945  23.339  1.00  0.00     0.134 C 
BRANCH   8   9
ATOM      9  C   UNL A   1      29.598  26.040  24.359  1.00  0.00     0.220 C 
ATOM     10  N   UNL A   1      28.323  26.236  23.940  1.00  0.00    -0.370 N 
ATOM     11  H   UNL A   1      27.593  26.298  24.598  1.00  0.00     0.159 HD
ATOM     12  H   UNL A   1      28.128  26.317  22.979  1.00  0.00     0.159 HD
ATOM     13  O   UNL A   1      29.824  25.968  25.567  1.00  0.00    -0.275 OA
ENDBRANCH   8   9
ENDBRANCH   7   8
BRANCH   7  14
ATOM     14  N   UNL A   1      31.849  23.933  24.677  1.00  0.00    -0.343 N 
ATOM     15  C   UNL A   1      32.379  22.801  25.187  1.00  0.00     0.231 C 
ATOM     16  H   UNL A   1      31.287  24.325  25.384  1.00  0.00     0.164 HD
ATOM     17  O   UNL A   1      31.824  22.470  26.248  1.00  0.00    -0.274 OA
BRANCH  15  18
ATOM     18  C   UNL A   1      33.541  21.923  24.634  1.00  0.00     0.077 C 
ATOM     19  C   UNL A   1      33.290  21.658  23.098  1.00  0.00     0.043 C 
ATOM     20  C   UNL A   1      33.539  20.544  25.308  1.00  0.00     0.043 C 
ATOM     21  C   UNL A   1      32.118  20.705  22.806  1.00  0.00     0.121 C 
ATOM     22  C   UNL A   1      32.295  19.725  25.015  1.00  0.00     0.121 C 
ATOM     23  N   UNL A   1      32.248  19.477  23.590  1.00  0.00    -0.337 N 
ATOM     24  C   UNL A   1      32.492  18.272  22.938  1.00  0.00     0.280 C 
ATOM     25  O   UNL A   1      32.506  18.220  21.702  1.00  0.00    -0.268 OA
BRANCH  18  26
ATOM     26  C   UNL A   1      34.895  22.659  24.787  1.00  0.00    -0.032 A 
ATOM     27  C   UNL A   1      35.851  22.703  23.756  1.00  0.00     0.005 A 
ATOM     28  C   UNL A   1      35.226  23.310  25.990  1.00  0.00     0.005 A 
ATOM     29  C   UNL A   1      37.112  23.275  23.947  1.00  0.00     0.000 A 
ATOM     30  C   UNL A   1      36.470  23.925  26.164  1.00  0.00     0.000 A 
ATOM     31  C   UNL A   1      37.426  23.878  25.157  1.00  0.00     0.000 A 
ENDBRANCH  18  26
BRANCH  24  32
ATOM     32  C   UNL A   1      32.734  16.963  23.728  1.00  0.00     0.272 C 
ATOM     33  C   UNL A   1      32.274  16.958  25.174  1.00  0.00     0.081 C 
ATOM     34  N   UNL A   1      34.145  16.517  23.721  1.00  0.00    -0.336 N 
ATOM     35  C   UNL A   1      33.127  15.880  25.813  1.00  0.00     0.068 C 
ATOM     36  C   UNL A   1      34.389  15.794  24.969  1.00  0.00     0.261 C 
ATOM     37  H   UNL A   1      34.764  17.325  23.662  1.00  0.00     0.346 HD
ATOM     38  H   UNL A   1      34.325  15.915  22.919  1.00  0.00     0.346 HD
ENDBRANCH  24  32
ENDBRANCH  15  18
ENDBRANCH   7  14
ENDBRANCH   4   7
ENDBRANCH   2   3
ENDBRANCH   1   2
BRANCH   1  39
ATOM     39  C   UNL A   1      32.831  29.478  25.443  1.00  0.00     0.023 C 
BRANCH  39  40
ATOM     40  C   UNL A   1      32.389  29.908  26.844  1.00  0.00     0.116 C 
BRANCH  40  41
ATOM     41  N   UNL A   1      32.421  31.344  27.058  1.00  0.00    -0.352 N 
ATOM     42  C   UNL A   1      33.445  32.136  27.521  1.00  0.00     0.251 C 
ATOM     43  H   UNL A   1      31.587  31.820  26.839  1.00  0.00     0.163 HD
ATOM     44  O   UNL A   1      33.279  33.349  27.623  1.00  0.00    -0.269 OA
BRANCH  42  45
ATOM     45  C   UNL A   1      34.722  31.533  27.960  1.00  0.00     0.039 A 
ATOM     46  C   UNL A   1      35.852  32.356  27.999  1.00  0.00     0.014 A 
ATOM     47  C   UNL A   1      34.819  30.198  28.363  1.00  0.00     0.014 A 
ATOM     48  C   UNL A   1      37.044  31.874  28.542  1.00  0.00     0.010 A 
ATOM     49  C   UNL A   1      35.989  29.737  28.964  1.00  0.00     0.010 A 
ATOM     50  C   UNL A   1      37.104  30.579  29.083  1.00  0.00    -0.014 A 
BRANCH  50  51
ATOM     51  C   UNL A   1      38.302  30.144  29.844  1.00  0.00     0.031 A 
ATOM     52  C   UNL A   1      38.555  30.629  31.240  1.00  0.00     0.074 A 
ATOM     53  C   UNL A   1      39.192  29.331  29.241  1.00  0.00     0.049 A 
ATOM     54  N   UNL A   1      39.534  30.322  32.055  1.00  0.00    -0.248 NA
ATOM     55  C   UNL A   1      37.600  31.604  31.787  1.00  0.00     0.031 C 
ATOM     56  C   UNL A   1      39.092  28.849  27.861  1.00  0.00     0.029 A 
ATOM     57  N   UNL A   1      40.350  28.762  29.707  1.00  0.00    -0.354 N 
ATOM     58  C   UNL A   1      39.312  31.061  33.209  1.00  0.00     0.074 A 
ATOM     59  C   UNL A   1      38.137  31.874  32.969  1.00  0.00     0.031 C 
ATOM     60  C   UNL A   1      40.125  28.030  27.606  1.00  0.00     0.029 A 
ATOM     61  C   UNL A   1      40.973  27.951  28.790  1.00  0.00     0.049 A 
ATOM     62  H   UNL A   1      40.703  28.922  30.612  1.00  0.00     0.167 HD
ATOM     63  C   UNL A   1      40.010  31.043  34.369  1.00  0.00     0.037 A 
ATOM     64  C   UNL A   1      42.096  27.214  28.896  1.00  0.00     0.037 A 
ATOM     65  C   UNL A   1      41.172  30.225  34.607  1.00  0.00     0.049 A 
ATOM     66  C   UNL A   1      42.841  27.202  30.201  1.00  0.00     0.074 A 
ATOM     67  C   UNL A   1      41.914  30.094  35.768  1.00  0.00     0.029 A 
ATOM     68  N   UNL A   1      41.766  29.402  33.661  1.00  0.00    -0.354 N 
ATOM     69  N   UNL A   1      42.570  27.836  31.315  1.00  0.00    -0.248 NA
ATOM     70  C   UNL A   1      44.044  26.360  30.266  1.00  0.00     0.031 C 
ATOM     71  C   UNL A   1      42.982  29.227  35.512  1.00  0.00     0.029 A 
ATOM     72  C   UNL A   1      42.877  28.778  34.205  1.00  0.00     0.049 A 
ATOM     73  H   UNL A   1      41.444  29.280  32.739  1.00  0.00     0.167 HD
ATOM     74  C   UNL A   1      43.551  27.454  32.220  1.00  0.00     0.074 A 
ATOM     75  C   UNL A   1      44.411  26.514  31.530  1.00  0.00     0.031 C 
ATOM     76  C   UNL A   1      43.726  27.847  33.506  1.00  0.00     0.037 A 
BRANCH  63  77
ATOM     77  C   UNL A   1      39.529  31.933  35.479  1.00  0.00     0.064 A 
ATOM     78  C   UNL A   1      38.608  31.481  36.436  1.00  0.00     0.173 A 
ATOM     79  C   UNL A   1      40.021  33.241  35.611  1.00  0.00     0.173 A 
ATOM     80  F   UNL A   1      38.098  30.242  36.350  1.00  0.00    -0.203 F 
ATOM     81  C   UNL A   1      38.176  32.312  37.466  1.00  0.00     0.198 A 
ATOM     82  C   UNL A   1      39.609  34.060  36.660  1.00  0.00     0.198 A 
ATOM     83  F   UNL A   1      40.908  33.722  34.728  1.00  0.00    -0.203 F 
ATOM     84  F   UNL A   1      37.258  31.873  38.339  1.00  0.00    -0.200 F 
ATOM     85  C   UNL A   1      38.681  33.598  37.581  1.00  0.00     0.200 A 
ATOM     86  F   UNL A   1      40.107  35.298  36.776  1.00  0.00    -0.200 F 
ATOM     87  F   UNL A   1      38.268  34.395  38.575  1.00  0.00    -0.200 F 
ENDBRANCH  63  77
BRANCH  64  88
ATOM     88  C   UNL A   1      42.557  26.396  27.745  1.00  0.00     0.064 A 
ATOM     89  C   UNL A   1      43.521  26.887  26.854  1.00  0.00     0.173 A 
ATOM     90  C   UNL A   1      42.044  25.113  27.509  1.00  0.00     0.173 A 
ATOM     91  F   UNL A   1      44.028  28.117  27.027  1.00  0.00    -0.203 F 
ATOM     92  C   UNL A   1      43.939  26.135  25.759  1.00  0.00     0.198 A 
ATOM     93  C   UNL A   1      42.483  24.350  26.430  1.00  0.00     0.198 A 
ATOM     94  F   UNL A   1      41.124  24.594  28.336  1.00  0.00    -0.203 F 
ATOM     95  F   UNL A   1      44.829  26.648  24.897  1.00  0.00    -0.200 F 
ATOM     96  C   UNL A   1      43.424  24.865  25.550  1.00  0.00     0.200 A 
ATOM     97  F   UNL A   1      41.994  23.117  26.240  1.00  0.00    -0.200 F 
ATOM     98  F   UNL A   1      43.828  24.139  24.499  1.00  0.00    -0.200 F 
ENDBRANCH  64  88
BRANCH  76  99
ATOM     99  C   UNL A   1      44.879  27.244  34.251  1.00  0.00     0.064 A 
ATOM    100  C   UNL A   1      46.139  27.862  34.283  1.00  0.00     0.173 A 
ATOM    101  C   UNL A   1      44.720  26.042  34.957  1.00  0.00     0.173 A 
ATOM    102  F   UNL A   1      46.348  29.004  33.611  1.00  0.00    -0.203 F 
ATOM    103  C   UNL A   1      47.204  27.281  34.965  1.00  0.00     0.198 A 
ATOM    104  C   UNL A   1      45.779  25.480  35.664  1.00  0.00     0.198 A 
ATOM    105  F   UNL A   1      43.535  25.414  34.965  1.00  0.00    -0.203 F 
ATOM    106  F   UNL A   1      48.412  27.859  34.934  1.00  0.00    -0.200 F 
ATOM    107  C   UNL A   1      47.023  26.094  35.659  1.00  0.00     0.200 A 
ATOM    108  F   UNL A   1      45.599  24.339  36.344  1.00  0.00    -0.200 F 
ATOM    109  F   UNL A   1      48.049  25.536  36.315  1.00  0.00    -0.200 F 
ENDBRANCH  76  99
ENDBRANCH  50  51
ENDBRANCH  42  45
ENDBRANCH  40  41
ENDBRANCH  39  40
ENDBRANCH   1  39
TORSDOF 17
ENDMDL
MODEL 2
REMARK VINA RESULT:     -13.4      4.171     10.029
REMARK SMILES NC(=O)C[C@H](NC(=O)C1(c2ccccc2)CCN(C(=O)[C@@H]2CCC[NH2+]2)CC1)C(=O)NCCCCNC(=O)c1ccc(-c2c3nc(c(-c4c(F)c(F)c(F)c(F)c4F)c4ccc([nH]4)c(-c4c(F)c(F)c(F)c(F)c4F)c4nc(c(-c5c(F)c(F)c(F)c(F)c5F)c5ccc2[nH]5)C=C4)C=C3)cc1
REMARK SMILES IDX 32 1 31 2 30 3 28 4 29 5 5 7 4 8 2 9 1 10 3 13 6 14 7 15
REMARK SMILES IDX 8 17 9 18 16 19 27 20 17 21 26 22 18 23 19 24 20 25 10 26
REMARK SMILES IDX 11 27 15 28 12 29 14 30 13 31 21 32 22 33 25 34 23 35 24 36
REMARK SMILES IDX 33 39 34 40 35 41 36 42 37 44 38 45 39 46 100 47 40 48 99 49
REMARK SMILES IDX 41 50 42 51 43 52 93 53 44 54 98 55 92 56 94 57 45 58 97 59
REMARK SMILES IDX 91 60 90 61 46 63 78 64 58 65 77 66 59 67 62 68 76 69 95 70
REMARK SMILES IDX 60 71 61 72 75 74 96 75 63 76 47 77 48 78 56 79 49 80 50 81
REMARK SMILES IDX 54 82 57 83 51 84 52 85 55 86 53 87 79 88 80 89 88 90 81 91
REMARK SMILES IDX 82 92 86 93 89 94 83 95 84 96 87 97 85 98 64 99 65 100
REMARK SMILES IDX 73 101 66 102 67 103 71 104 74 105 68 106 69 107 72 108
REMARK SMILES IDX 70 109
REMARK H PARENT 30 6 1 11 1 12 6 16 25 37 25 38 35 43 94 62 62 73
REMARK Flexibility Score: inf
ROOT
ATOM      1  C   UNL A   1      35.197  22.768  25.953  1.00  0.00     0.023 C 
ENDROOT
BRANCH   1   2
ATOM      2  C   UNL A   1      34.612  24.116  25.523  1.00  0.00     0.116 C 
BRANCH   2   3
ATOM      3  N   UNL A   1      33.406  24.445  26.254  1.00  0.00    -0.354 N 
ATOM      4  C   UNL A   1      32.120  24.551  25.813  1.00  0.00     0.243 C 
ATOM      5  O   UNL A   1      31.242  24.691  26.671  1.00  0.00    -0.273 OA
ATOM      6  H   UNL A   1      33.533  24.617  27.215  1.00  0.00     0.163 HD
BRANCH   4   7
ATOM      7  C   UNL A   1      31.714  24.328  24.326  1.00  0.00     0.180 C 
BRANCH   7   8
ATOM      8  C   UNL A   1      31.978  22.859  24.012  1.00  0.00     0.134 C 
BRANCH   8   9
ATOM      9  C   UNL A   1      32.572  22.508  22.662  1.00  0.00     0.220 C 
ATOM     10  N   UNL A   1      31.982  21.555  21.898  1.00  0.00    -0.370 N 
ATOM     11  H   UNL A   1      32.363  21.322  21.020  1.00  0.00     0.159 HD
ATOM     12  H   UNL A   1      31.174  21.096  22.221  1.00  0.00     0.159 HD
ATOM     13  O   UNL A   1      33.597  23.050  22.252  1.00  0.00    -0.275 OA
ENDBRANCH   8   9
ENDBRANCH   7   8
BRANCH   7  14
ATOM     14  N   UNL A   1      32.134  25.467  23.469  1.00  0.00    -0.343 N 
ATOM     15  C   UNL A   1      32.015  26.787  23.211  1.00  0.00     0.231 C 
ATOM     16  H   UNL A   1      32.771  25.107  22.811  1.00  0.00     0.164 HD
ATOM     17  O   UNL A   1      32.517  27.089  22.114  1.00  0.00    -0.274 OA
BRANCH  15  18
ATOM     18  C   UNL A   1      31.370  27.906  24.082  1.00  0.00     0.077 C 
ATOM     19  C   UNL A   1      29.997  27.376  24.653  1.00  0.00     0.043 C 
ATOM     20  C   UNL A   1      31.027  29.127  23.218  1.00  0.00     0.043 C 
ATOM     21  C   UNL A   1      28.888  27.234  23.596  1.00  0.00     0.121 C 
ATOM     22  C   UNL A   1      29.981  28.847  22.155  1.00  0.00     0.121 C 
ATOM     23  N   UNL A   1      28.754  28.469  22.824  1.00  0.00    -0.337 N 
ATOM     24  C   UNL A   1      27.594  29.227  22.943  1.00  0.00     0.280 C 
ATOM     25  O   UNL A   1      26.645  28.818  23.622  1.00  0.00    -0.268 OA
BRANCH  18  26
ATOM     26  C   UNL A   1      32.290  28.260  25.276  1.00  0.00    -0.032 A 
ATOM     27  C   UNL A   1      33.689  28.127  25.217  1.00  0.00     0.005 A 
ATOM     28  C   UNL A   1      31.746  28.723  26.489  1.00  0.00     0.005 A 
ATOM     29  C   UNL A   1      34.497  28.343  26.337  1.00  0.00     0.000 A 
ATOM     30  C   UNL A   1      32.560  28.987  27.596  1.00  0.00     0.000 A 
ATOM     31  C   UNL A   1      33.930  28.764  27.532  1.00  0.00     0.000 A 
ENDBRANCH  18  26
BRANCH  24  32
ATOM     32  C   UNL A   1      27.444  30.590  22.223  1.00  0.00     0.272 C 
ATOM     33  C   UNL A   1      27.990  30.664  20.810  1.00  0.00     0.081 C 
ATOM     34  N   UNL A   1      28.027  31.725  22.973  1.00  0.00    -0.336 N 
ATOM     35  C   UNL A   1      28.250  32.145  20.607  1.00  0.00     0.068 C 
ATOM     36  C   UNL A   1      28.472  32.720  21.997  1.00  0.00     0.261 C 
ATOM     37  H   UNL A   1      28.821  31.404  23.527  1.00  0.00     0.346 HD
ATOM     38  H   UNL A   1      27.336  32.128  23.604  1.00  0.00     0.346 HD
ENDBRANCH  24  32
ENDBRANCH  15  18
ENDBRANCH   7  14
ENDBRANCH   4   7
ENDBRANCH   2   3
ENDBRANCH   1   2
BRANCH   1  39
ATOM     39  C   UNL A   1      35.884  21.995  24.820  1.00  0.00     0.023 C 
BRANCH  39  40
ATOM     40  C   UNL A   1      37.377  22.283  24.643  1.00  0.00     0.116 C 
BRANCH  40  41
ATOM     41  N   UNL A   1      38.244  21.234  25.150  1.00  0.00    -0.352 N 
ATOM     42  C   UNL A   1      39.253  21.310  26.082  1.00  0.00     0.251 C 
ATOM     43  H   UNL A   1      38.087  20.340  24.772  1.00  0.00     0.163 HD
ATOM     44  O   UNL A   1      39.873  20.295  26.391  1.00  0.00    -0.269 OA
BRANCH  42  45
ATOM     45  C   UNL A   1      39.641  22.612  26.666  1.00  0.00     0.039 A 
ATOM     46  C   UNL A   1      40.724  22.633  27.550  1.00  0.00     0.014 A 
ATOM     47  C   UNL A   1      38.989  23.803  26.336  1.00  0.00     0.014 A 
ATOM     48  C   UNL A   1      41.219  23.851  28.014  1.00  0.00     0.010 A 
ATOM     49  C   UNL A   1      39.523  25.024  26.747  1.00  0.00     0.010 A 
ATOM     50  C   UNL A   1      40.659  25.060  27.568  1.00  0.00    -0.014 A 
BRANCH  50  51
ATOM     51  C   UNL A   1      41.315  26.351  27.894  1.00  0.00     0.031 A 
ATOM     52  C   UNL A   1      42.726  26.635  27.474  1.00  0.00     0.074 A 
ATOM     53  C   UNL A   1      40.631  27.260  28.618  1.00  0.00     0.049 A 
ATOM     54  N   UNL A   1      43.436  27.722  27.650  1.00  0.00    -0.248 NA
ATOM     55  C   UNL A   1      43.444  25.551  26.788  1.00  0.00     0.031 C 
ATOM     56  C   UNL A   1      39.278  27.071  29.146  1.00  0.00     0.029 A 
ATOM     57  N   UNL A   1      40.974  28.522  29.033  1.00  0.00    -0.354 N 
ATOM     58  C   UNL A   1      44.680  27.455  27.095  1.00  0.00     0.074 A 
ATOM     59  C   UNL A   1      44.647  26.085  26.627  1.00  0.00     0.031 C 
ATOM     60  C   UNL A   1      38.893  28.189  29.782  1.00  0.00     0.029 A 
ATOM     61  C   UNL A   1      39.979  29.161  29.732  1.00  0.00     0.049 A 
ATOM     62  H   UNL A   1      41.851  28.930  28.849  1.00  0.00     0.167 HD
ATOM     63  C   UNL A   1      45.742  28.286  26.967  1.00  0.00     0.037 A 
ATOM     64  C   UNL A   1      39.941  30.398  30.262  1.00  0.00     0.037 A 
ATOM     65  C   UNL A   1      45.766  29.652  27.425  1.00  0.00     0.049 A 
ATOM     66  C   UNL A   1      41.128  31.303  30.091  1.00  0.00     0.074 A 
ATOM     67  C   UNL A   1      46.774  30.591  27.291  1.00  0.00     0.029 A 
ATOM     68  N   UNL A   1      44.734  30.272  28.115  1.00  0.00    -0.354 N 
ATOM     69  N   UNL A   1      42.267  31.071  29.485  1.00  0.00    -0.248 NA
ATOM     70  C   UNL A   1      41.019  32.651  30.668  1.00  0.00     0.031 C 
ATOM     71  C   UNL A   1      46.370  31.765  27.936  1.00  0.00     0.029 A 
ATOM     72  C   UNL A   1      45.090  31.575  28.431  1.00  0.00     0.049 A 
ATOM     73  H   UNL A   1      43.876  29.850  28.345  1.00  0.00     0.167 HD
ATOM     74  C   UNL A   1      43.000  32.245  29.587  1.00  0.00     0.074 A 
ATOM     75  C   UNL A   1      42.168  33.197  30.293  1.00  0.00     0.031 C 
ATOM     76  C   UNL A   1      44.252  32.510  29.137  1.00  0.00     0.037 A 
BRANCH  63  77
ATOM     77  C   UNL A   1      46.969  27.741  26.295  1.00  0.00     0.064 A 
ATOM     78  C   UNL A   1      48.030  27.197  27.035  1.00  0.00     0.173 A 
ATOM     79  C   UNL A   1      47.073  27.729  24.895  1.00  0.00     0.173 A 
ATOM     80  F   UNL A   1      47.985  27.193  28.376  1.00  0.00    -0.203 F 
ATOM     81  C   UNL A   1      49.159  26.686  26.401  1.00  0.00     0.198 A 
ATOM     82  C   UNL A   1      48.192  27.192  24.264  1.00  0.00     0.198 A 
ATOM     83  F   UNL A   1      46.086  28.232  24.139  1.00  0.00    -0.203 F 
ATOM     84  F   UNL A   1      50.180  26.215  27.131  1.00  0.00    -0.200 F 
ATOM     85  C   UNL A   1      49.237  26.678  25.016  1.00  0.00     0.200 A 
ATOM     86  F   UNL A   1      48.260  27.174  22.926  1.00  0.00    -0.200 F 
ATOM     87  F   UNL A   1      50.322  26.182  24.408  1.00  0.00    -0.200 F 
ENDBRANCH  63  77
BRANCH  64  88
ATOM     88  C   UNL A   1      38.720  30.865  30.968  1.00  0.00     0.064 A 
ATOM     89  C   UNL A   1      37.643  31.412  30.256  1.00  0.00     0.173 A 
ATOM     90  C   UNL A   1      38.604  30.780  32.362  1.00  0.00     0.173 A 
ATOM     91  F   UNL A   1      37.715  31.533  28.922  1.00  0.00    -0.203 F 
ATOM     92  C   UNL A   1      36.506  31.874  30.914  1.00  0.00     0.198 A 
ATOM     93  C   UNL A   1      37.454  31.216  33.017  1.00  0.00     0.198 A 
ATOM     94  F   UNL A   1      39.603  30.258  33.088  1.00  0.00    -0.203 F 
ATOM     95  F   UNL A   1      35.510  32.435  30.213  1.00  0.00    -0.200 F 
ATOM     96  C   UNL A   1      36.410  31.771  32.293  1.00  0.00     0.200 A 
ATOM     97  F   UNL A   1      37.360  31.101  34.349  1.00  0.00    -0.200 F 
ATOM     98  F   UNL A   1      35.314  32.213  32.926  1.00  0.00    -0.200 F 
ENDBRANCH  64  88
BRANCH  76  99
ATOM     99  C   UNL A   1      44.784  33.892  29.380  1.00  0.00     0.064 A 
ATOM    100  C   UNL A   1      45.527  34.202  30.528  1.00  0.00     0.173 A 
ATOM    101  C   UNL A   1      44.562  34.914  28.445  1.00  0.00     0.173 A 
ATOM    102  F   UNL A   1      45.753  33.264  31.461  1.00  0.00    -0.203 F 
ATOM    103  C   UNL A   1      45.999  35.493  30.748  1.00  0.00     0.198 A 
ATOM    104  C   UNL A   1      45.061  36.196  28.653  1.00  0.00     0.198 A 
ATOM    105  F   UNL A   1      43.863  34.668  27.327  1.00  0.00    -0.203 F 
ATOM    106  F   UNL A   1      46.657  35.781  31.879  1.00  0.00    -0.200 F 
ATOM    107  C   UNL A   1      45.771  36.488  29.808  1.00  0.00     0.200 A 
ATOM    108  F   UNL A   1      44.850  37.153  27.738  1.00  0.00    -0.200 F 
ATOM    109  F   UNL A   1      46.226  37.730  30.021  1.00  0.00    -0.200 F 
ENDBRANCH  76  99
ENDBRANCH  50  51
ENDBRANCH  42  45
ENDBRANCH  40  41
ENDBRANCH  39  40
ENDBRANCH   1  39
TORSDOF 17
ENDMDL
MODEL 3
REMARK VINA RESULT:     -13.2      2.503      3.663
REMARK SMILES NC(=O)C[C@H](NC(=O)C1(c2ccccc2)CCN(C(=O)[C@@H]2CCC[NH2+]2)CC1)C(=O)NCCCCNC(=O)c1ccc(-c2c3nc(c(-c4c(F)c(F)c(F)c(F)c4F)c4ccc([nH]4)c(-c4c(F)c(F)c(F)c(F)c4F)c4nc(c(-c5c(F)c(F)c(F)c(F)c5F)c5ccc2[nH]5)C=C4)C=C3)cc1
REMARK SMILES IDX 32 1 31 2 30 3 28 4 29 5 5 7 4 8 2 9 1 10 3 13 6 14 7 15
REMARK SMILES IDX 8 17 9 18 16 19 27 20 17 21 26 22 18 23 19 24 20 25 10 26
REMARK SMILES IDX 11 27 15 28 12 29 14 30 13 31 21 32 22 33 25 34 23 35 24 36
REMARK SMILES IDX 33 39 34 40 35 41 36 42 37 44 38 45 39 46 100 47 40 48 99 49
REMARK SMILES IDX 41 50 42 51 43 52 93 53 44 54 98 55 92 56 94 57 45 58 97 59
REMARK SMILES IDX 91 60 90 61 46 63 78 64 58 65 77 66 59 67 62 68 76 69 95 70
REMARK SMILES IDX 60 71 61 72 75 74 96 75 63 76 47 77 48 78 56 79 49 80 50 81
REMARK SMILES IDX 54 82 57 83 51 84 52 85 55 86 53 87 79 88 80 89 88 90 81 91
REMARK SMILES IDX 82 92 86 93 89 94 83 95 84 96 87 97 85 98 64 99 65 100
REMARK SMILES IDX 73 101 66 102 67 103 71 104 74 105 68 106 69 107 72 108
REMARK SMILES IDX 70 109
REMARK H PARENT 30 6 1 11 1 12 6 16 25 37 25 38 35 43 94 62 62 73
REMARK Flexibility Score: inf
ROOT
ATOM      1  C   UNL A   1      32.772  28.928  24.824  1.00  0.00     0.023 C 
ENDROOT
BRANCH   1   2
ATOM      2  C   UNL A   1      32.095  27.945  23.866  1.00  0.00     0.116 C 
BRANCH   2   3
ATOM      3  N   UNL A   1      30.993  27.245  24.491  1.00  0.00    -0.354 N 
ATOM      4  C   UNL A   1      30.817  25.910  24.709  1.00  0.00     0.243 C 
ATOM      5  O   UNL A   1      29.855  25.577  25.408  1.00  0.00    -0.273 OA
ATOM      6  H   UNL A   1      30.258  27.819  24.808  1.00  0.00     0.163 HD
BRANCH   4   7
ATOM      7  C   UNL A   1      31.858  24.838  24.271  1.00  0.00     0.180 C 
BRANCH   7   8
ATOM      8  C   UNL A   1      31.602  24.550  22.795  1.00  0.00     0.134 C 
BRANCH   8   9
ATOM      9  C   UNL A   1      32.575  25.109  21.774  1.00  0.00     0.220 C 
ATOM     10  N   UNL A   1      32.100  25.701  20.650  1.00  0.00    -0.370 N 
ATOM     11  H   UNL A   1      32.726  26.066  19.984  1.00  0.00     0.159 HD
ATOM     12  H   UNL A   1      31.129  25.765  20.501  1.00  0.00     0.159 HD
ATOM     13  O   UNL A   1      33.792  25.015  21.929  1.00  0.00    -0.275 OA
ENDBRANCH   8   9
ENDBRANCH   7   8
BRANCH   7  14
ATOM     14  N   UNL A   1      32.044  23.799  25.318  1.00  0.00    -0.343 N 
ATOM     15  C   UNL A   1      32.610  22.618  25.645  1.00  0.00     0.231 C 
ATOM     16  H   UNL A   1      31.542  24.101  26.109  1.00  0.00     0.164 HD
ATOM     17  O   UNL A   1      32.141  22.160  26.702  1.00  0.00    -0.274 OA
BRANCH  15  18
ATOM     18  C   UNL A   1      33.722  21.820  24.902  1.00  0.00     0.077 C 
ATOM     19  C   UNL A   1      33.301  21.655  23.389  1.00  0.00     0.043 C 
ATOM     20  C   UNL A   1      33.831  20.398  25.469  1.00  0.00     0.043 C 
ATOM     21  C   UNL A   1      32.128  20.686  23.164  1.00  0.00     0.121 C 
ATOM     22  C   UNL A   1      32.583  19.560  25.260  1.00  0.00     0.121 C 
ATOM     23  N   UNL A   1      32.378  19.412  23.835  1.00  0.00    -0.337 N 
ATOM     24  C   UNL A   1      32.574  18.264  23.073  1.00  0.00     0.280 C 
ATOM     25  O   UNL A   1      32.447  18.298  21.844  1.00  0.00    -0.268 OA
BRANCH  18  26
ATOM     26  C   UNL A   1      35.065  22.588  24.953  1.00  0.00    -0.032 A 
ATOM     27  C   UNL A   1      36.025  22.502  23.928  1.00  0.00     0.005 A 
ATOM     28  C   UNL A   1      35.384  23.403  26.055  1.00  0.00     0.005 A 
ATOM     29  C   UNL A   1      37.278  23.111  24.040  1.00  0.00     0.000 A 
ATOM     30  C   UNL A   1      36.620  24.053  26.145  1.00  0.00     0.000 A 
ATOM     31  C   UNL A   1      37.580  23.880  25.155  1.00  0.00     0.000 A 
ENDBRANCH  18  26
BRANCH  24  32
ATOM     32  C   UNL A   1      32.938  16.911  23.734  1.00  0.00     0.272 C 
ATOM     33  C   UNL A   1      32.223  16.585  25.031  1.00  0.00     0.081 C 
ATOM     34  N   UNL A   1      34.387  16.744  23.984  1.00  0.00    -0.336 N 
ATOM     35  C   UNL A   1      33.151  15.594  25.707  1.00  0.00     0.068 C 
ATOM     36  C   UNL A   1      34.539  15.884  25.159  1.00  0.00     0.261 C 
ATOM     37  H   UNL A   1      34.816  17.652  24.161  1.00  0.00     0.346 HD
ATOM     38  H   UNL A   1      34.844  16.325  23.175  1.00  0.00     0.346 HD
ENDBRANCH  24  32
ENDBRANCH  15  18
ENDBRANCH   7  14
ENDBRANCH   4   7
ENDBRANCH   2   3
ENDBRANCH   1   2
BRANCH   1  39
ATOM     39  C   UNL A   1      33.677  28.260  25.867  1.00  0.00     0.023 C 
BRANCH  39  40
ATOM     40  C   UNL A   1      33.346  28.586  27.325  1.00  0.00     0.116 C 
BRANCH  40  41
ATOM     41  N   UNL A   1      33.405  30.004  27.640  1.00  0.00    -0.352 N 
ATOM     42  C   UNL A   1      34.475  30.762  28.053  1.00  0.00     0.251 C 
ATOM     43  H   UNL A   1      32.556  30.491  27.544  1.00  0.00     0.163 HD
ATOM     44  O   UNL A   1      34.326  31.964  28.261  1.00  0.00    -0.269 OA
BRANCH  42  45
ATOM     45  C   UNL A   1      35.788  30.132  28.312  1.00  0.00     0.039 A 
ATOM     46  C   UNL A   1      36.740  30.162  27.288  1.00  0.00     0.014 A 
ATOM     47  C   UNL A   1      36.109  29.553  29.543  1.00  0.00     0.014 A 
ATOM     48  C   UNL A   1      38.037  29.712  27.531  1.00  0.00     0.010 A 
ATOM     49  C   UNL A   1      37.421  29.164  29.807  1.00  0.00     0.010 A 
ATOM     50  C   UNL A   1      38.404  29.265  28.812  1.00  0.00    -0.014 A 
BRANCH  50  51
ATOM     51  C   UNL A   1      39.828  28.986  29.125  1.00  0.00     0.031 A 
ATOM     52  C   UNL A   1      40.653  29.952  29.922  1.00  0.00     0.074 A 
ATOM     53  C   UNL A   1      40.389  27.860  28.641  1.00  0.00     0.049 A 
ATOM     54  N   UNL A   1      41.900  29.847  30.310  1.00  0.00    -0.248 NA
ATOM     55  C   UNL A   1      40.003  31.211  30.316  1.00  0.00     0.031 C 
ATOM     56  C   UNL A   1      39.710  26.877  27.793  1.00  0.00     0.029 A 
ATOM     57  N   UNL A   1      41.652  27.347  28.793  1.00  0.00    -0.354 N 
ATOM     58  C   UNL A   1      42.183  31.021  30.995  1.00  0.00     0.074 A 
ATOM     59  C   UNL A   1      40.996  31.848  30.921  1.00  0.00     0.031 C 
ATOM     60  C   UNL A   1      40.552  25.865  27.530  1.00  0.00     0.029 A 
ATOM     61  C   UNL A   1      41.835  26.138  28.167  1.00  0.00     0.049 A 
ATOM     62  H   UNL A   1      42.361  27.803  29.302  1.00  0.00     0.167 HD
ATOM     63  C   UNL A   1      43.320  31.365  31.646  1.00  0.00     0.037 A 
ATOM     64  C   UNL A   1      42.914  25.334  28.121  1.00  0.00     0.037 A 
ATOM     65  C   UNL A   1      44.495  30.534  31.724  1.00  0.00     0.049 A 
ATOM     66  C   UNL A   1      44.157  25.733  28.864  1.00  0.00     0.074 A 
ATOM     67  C   UNL A   1      45.675  30.769  32.408  1.00  0.00     0.029 A 
ATOM     68  N   UNL A   1      44.639  29.308  31.091  1.00  0.00    -0.354 N 
ATOM     69  N   UNL A   1      44.382  26.805  29.584  1.00  0.00    -0.248 NA
ATOM     70  C   UNL A   1      45.293  24.803  28.800  1.00  0.00     0.031 C 
ATOM     71  C   UNL A   1      46.550  29.708  32.153  1.00  0.00     0.029 A 
ATOM     72  C   UNL A   1      45.897  28.785  31.350  1.00  0.00     0.049 A 
ATOM     73  H   UNL A   1      43.949  28.874  30.540  1.00  0.00     0.167 HD
ATOM     74  C   UNL A   1      45.673  26.669  30.077  1.00  0.00     0.074 A 
ATOM     75  C   UNL A   1      46.173  25.400  29.592  1.00  0.00     0.031 C 
ATOM     76  C   UNL A   1      46.381  27.521  30.858  1.00  0.00     0.037 A 
BRANCH  63  77
ATOM     77  C   UNL A   1      43.347  32.699  32.333  1.00  0.00     0.064 A 
ATOM     78  C   UNL A   1      43.780  33.858  31.670  1.00  0.00     0.173 A 
ATOM     79  C   UNL A   1      42.901  32.831  33.658  1.00  0.00     0.173 A 
ATOM     80  F   UNL A   1      44.225  33.785  30.407  1.00  0.00    -0.203 F 
ATOM     81  C   UNL A   1      43.792  35.092  32.315  1.00  0.00     0.198 A 
ATOM     82  C   UNL A   1      42.888  34.072  34.290  1.00  0.00     0.198 A 
ATOM     83  F   UNL A   1      42.471  31.757  34.337  1.00  0.00    -0.203 F 
ATOM     84  F   UNL A   1      44.256  36.175  31.675  1.00  0.00    -0.200 F 
ATOM     85  C   UNL A   1      43.341  35.199  33.621  1.00  0.00     0.200 A 
ATOM     86  F   UNL A   1      42.441  34.176  35.549  1.00  0.00    -0.200 F 
ATOM     87  F   UNL A   1      43.349  36.388  34.239  1.00  0.00    -0.200 F 
ENDBRANCH  63  77
BRANCH  64  88
ATOM     88  C   UNL A   1      42.849  24.050  27.376  1.00  0.00     0.064 A 
ATOM     89  C   UNL A   1      42.410  22.876  28.003  1.00  0.00     0.173 A 
ATOM     90  C   UNL A   1      43.227  23.967  26.028  1.00  0.00     0.173 A 
ATOM     91  F   UNL A   1      42.057  22.900  29.297  1.00  0.00    -0.203 F 
ATOM     92  C   UNL A   1      42.371  21.664  27.318  1.00  0.00     0.198 A 
ATOM     93  C   UNL A   1      43.160  22.761  25.335  1.00  0.00     0.198 A 
ATOM     94  F   UNL A   1      43.647  25.063  25.380  1.00  0.00    -0.203 F 
ATOM     95  F   UNL A   1      41.990  20.548  27.955  1.00  0.00    -0.200 F 
ATOM     96  C   UNL A   1      42.740  21.608  25.983  1.00  0.00     0.200 A 
ATOM     97  F   UNL A   1      43.504  22.714  24.040  1.00  0.00    -0.200 F 
ATOM     98  F   UNL A   1      42.700  20.443  25.321  1.00  0.00    -0.200 F 
ENDBRANCH  64  88
BRANCH  76  99
ATOM     99  C   UNL A   1      47.765  27.093  31.252  1.00  0.00     0.064 A 
ATOM    100  C   UNL A   1      48.886  27.428  30.478  1.00  0.00     0.173 A 
ATOM    101  C   UNL A   1      47.974  26.354  32.425  1.00  0.00     0.173 A 
ATOM    102  F   UNL A   1      48.738  28.120  29.338  1.00  0.00    -0.203 F 
ATOM    103  C   UNL A   1      50.162  27.009  30.847  1.00  0.00     0.198 A 
ATOM    104  C   UNL A   1      49.254  25.962  32.807  1.00  0.00     0.198 A 
ATOM    105  F   UNL A   1      46.937  26.013  33.204  1.00  0.00    -0.203 F 
ATOM    106  F   UNL A   1      51.211  27.292  30.063  1.00  0.00    -0.200 F 
ATOM    107  C   UNL A   1      50.345  26.282  32.013  1.00  0.00     0.200 A 
ATOM    108  F   UNL A   1      49.432  25.269  33.941  1.00  0.00    -0.200 F 
ATOM    109  F   UNL A   1      51.573  25.879  32.367  1.00  0.00    -0.200 F 
ENDBRANCH  76  99
ENDBRANCH  50  51
ENDBRANCH  42  45
ENDBRANCH  40  41
ENDBRANCH  39  40
ENDBRANCH   1  39
TORSDOF 17
ENDMDL
