MODEL 1
REMARK VINA RESULT:     -12.1      0.000      0.000
REMARK SMILES COc1ccc(-c2cc(C(F)(F)F)n3nc(C(=O)NCCCCNC(=O)c4ccc(-c5c6nc(c(-c7c(F)c(F)c(F)c(F)c7F)c7ccc([nH]7)c(-c7c(F)c(F)c(F)c(F)c7F)c7nc(c(-c8c(F)c(F)c(F)c(F)c8F)c8ccc5[nH]8)C=C7)C=C6)cc4)cc3n2)cc1OC
REMARK SMILES IDX 21 1 20 2 19 3 17 4 18 5 16 7 7 8 8 9 92 10 9 11 91 12 14 13
REMARK SMILES IDX 90 14 15 15 6 16 3 17 4 18 94 19 5 20 93 21 2 22 1 23 95 24
REMARK SMILES IDX 96 25 10 26 11 27 12 28 13 29 22 30 23 31 24 32 25 33 26 35
REMARK SMILES IDX 27 36 28 37 89 38 29 39 88 40 30 41 31 42 32 43 82 44 33 45
REMARK SMILES IDX 87 46 81 47 83 48 34 49 86 50 80 51 79 52 35 54 67 55 47 56
REMARK SMILES IDX 66 57 48 58 51 59 65 60 84 61 49 62 50 63 64 65 85 66 52 67
REMARK SMILES IDX 36 68 37 69 45 70 38 71 39 72 43 73 46 74 40 75 41 76 44 77
REMARK SMILES IDX 42 78 68 79 69 80 77 81 70 82 71 83 75 84 78 85 72 86 73 87
REMARK SMILES IDX 76 88 74 89 53 90 54 91 62 92 55 93 56 94 60 95 63 96 57 97
REMARK SMILES IDX 58 98 61 99 59 100
REMARK H PARENT 19 6 24 34 83 53 51 64
REMARK Flexibility Score: inf
ROOT
ATOM      1  C   UNL A   1      31.489  27.852  26.043  1.00  0.00     0.023 C 
ENDROOT
BRANCH   1   2
ATOM      2  C   UNL A   1      30.866  26.565  25.499  1.00  0.00     0.116 C 
BRANCH   2   3
ATOM      3  N   UNL A   1      30.819  26.586  24.053  1.00  0.00    -0.351 N 
ATOM      4  C   UNL A   1      31.558  25.921  23.101  1.00  0.00     0.271 C 
ATOM      5  O   UNL A   1      31.242  26.147  21.929  1.00  0.00    -0.267 OA
ATOM      6  H   UNL A   1      30.132  27.186  23.682  1.00  0.00     0.163 HD
BRANCH   4   7
ATOM      7  C   UNL A   1      32.640  24.977  23.460  1.00  0.00     0.152 A 
ATOM      8  C   UNL A   1      36.006  22.405  24.757  1.00  0.00     0.075 A 
ATOM      9  C   UNL A   1      34.978  21.325  24.621  1.00  0.00     0.062 A 
ATOM     10  N   UNL A   1      35.796  23.665  24.507  1.00  0.00    -0.228 NA
ATOM     11  C   UNL A   1      33.746  21.722  24.244  1.00  0.00     0.150 A 
ATOM     12  C   UNL A   1      34.543  23.994  24.086  1.00  0.00     0.157 A 
ATOM     13  N   UNL A   1      33.505  23.068  23.995  1.00  0.00    -0.209 N 
ATOM     14  C   UNL A   1      34.027  25.185  23.643  1.00  0.00     0.085 A 
ATOM     15  N   UNL A   1      32.349  23.675  23.653  1.00  0.00    -0.161 NA
BRANCH   8  16
ATOM     16  C   UNL A   1      37.345  21.975  25.211  1.00  0.00     0.004 A 
ATOM     17  C   UNL A   1      39.852  21.152  26.117  1.00  0.00     0.160 A 
ATOM     18  C   UNL A   1      39.046  20.274  25.377  1.00  0.00     0.051 A 
ATOM     19  C   UNL A   1      39.406  22.450  26.403  1.00  0.00     0.161 A 
ATOM     20  C   UNL A   1      37.783  20.677  24.939  1.00  0.00     0.014 A 
ATOM     21  C   UNL A   1      38.148  22.854  25.941  1.00  0.00     0.060 A 
BRANCH  17  22
ATOM     22  O   UNL A   1      41.118  20.753  26.452  1.00  0.00    -0.493 OA
ATOM     23  C   UNL A   1      41.146  20.006  27.669  1.00  0.00     0.278 C 
ENDBRANCH  17  22
BRANCH  19  24
ATOM     24  O   UNL A   1      40.060  23.441  27.084  1.00  0.00    -0.493 OA
ATOM     25  C   UNL A   1      39.290  24.529  27.571  1.00  0.00     0.278 C 
ENDBRANCH  19  24
ENDBRANCH   8  16
BRANCH  11  26
ATOM     26  C   UNL A   1      32.606  20.798  24.043  1.00  0.00     0.433 C 
ATOM     27  F   UNL A   1      31.742  20.785  25.086  1.00  0.00    -0.165 F 
ATOM     28  F   UNL A   1      31.900  21.073  22.918  1.00  0.00    -0.165 F 
ATOM     29  F   UNL A   1      33.035  19.511  23.900  1.00  0.00    -0.165 F 
ENDBRANCH  11  26
ENDBRANCH   4   7
ENDBRANCH   2   3
ENDBRANCH   1   2
BRANCH   1  30
ATOM     30  C   UNL A   1      33.017  27.894  25.936  1.00  0.00     0.023 C 
BRANCH  30  31
ATOM     31  C   UNL A   1      33.588  29.190  25.365  1.00  0.00     0.116 C 
BRANCH  31  32
ATOM     32  N   UNL A   1      33.034  30.386  25.980  1.00  0.00    -0.352 N 
ATOM     33  C   UNL A   1      33.529  31.117  27.033  1.00  0.00     0.251 C 
ATOM     34  H   UNL A   1      32.192  30.715  25.591  1.00  0.00     0.163 HD
ATOM     35  O   UNL A   1      32.879  32.044  27.503  1.00  0.00    -0.269 OA
BRANCH  33  36
ATOM     36  C   UNL A   1      34.831  30.750  27.627  1.00  0.00     0.039 A 
ATOM     37  C   UNL A   1      35.822  31.730  27.717  1.00  0.00     0.014 A 
ATOM     38  C   UNL A   1      35.066  29.461  28.114  1.00  0.00     0.014 A 
ATOM     39  C   UNL A   1      37.026  31.433  28.357  1.00  0.00     0.010 A 
ATOM     40  C   UNL A   1      36.235  29.190  28.817  1.00  0.00     0.010 A 
ATOM     41  C   UNL A   1      37.227  30.174  28.947  1.00  0.00    -0.014 A 
BRANCH  41  42
ATOM     42  C   UNL A   1      38.463  29.889  29.718  1.00  0.00     0.031 A 
ATOM     43  C   UNL A   1      38.637  30.421  31.113  1.00  0.00     0.074 A 
ATOM     44  C   UNL A   1      39.451  29.178  29.139  1.00  0.00     0.049 A 
ATOM     45  N   UNL A   1      39.640  30.262  31.940  1.00  0.00    -0.248 NA
ATOM     46  C   UNL A   1      37.554  31.266  31.640  1.00  0.00     0.031 C 
ATOM     47  C   UNL A   1      39.430  28.667  27.767  1.00  0.00     0.029 A 
ATOM     48  N   UNL A   1      40.663  28.761  29.629  1.00  0.00    -0.354 N 
ATOM     49  C   UNL A   1      39.311  30.989  33.076  1.00  0.00     0.074 A 
ATOM     50  C   UNL A   1      38.048  31.640  32.812  1.00  0.00     0.031 C 
ATOM     51  C   UNL A   1      40.557  27.975  27.538  1.00  0.00     0.029 A 
ATOM     52  C   UNL A   1      41.391  28.018  28.734  1.00  0.00     0.049 A 
ATOM     53  H   UNL A   1      40.979  28.975  30.536  1.00  0.00     0.167 HD
ATOM     54  C   UNL A   1      39.989  31.080  34.247  1.00  0.00     0.037 A 
ATOM     55  C   UNL A   1      42.596  27.429  28.867  1.00  0.00     0.037 A 
ATOM     56  C   UNL A   1      41.239  30.416  34.511  1.00  0.00     0.049 A 
ATOM     57  C   UNL A   1      43.319  27.534  30.182  1.00  0.00     0.074 A 
ATOM     58  C   UNL A   1      41.979  30.400  35.682  1.00  0.00     0.029 A 
ATOM     59  N   UNL A   1      41.940  29.654  33.588  1.00  0.00    -0.354 N 
ATOM     60  N   UNL A   1      42.958  28.153  31.280  1.00  0.00    -0.248 NA
ATOM     61  C   UNL A   1      44.610  26.843  30.279  1.00  0.00     0.031 C 
ATOM     62  C   UNL A   1      43.149  29.669  35.451  1.00  0.00     0.029 A 
ATOM     63  C   UNL A   1      43.112  29.179  34.156  1.00  0.00     0.049 A 
ATOM     64  H   UNL A   1      41.648  29.476  32.664  1.00  0.00     0.167 HD
ATOM     65  C   UNL A   1      43.961  27.902  32.206  1.00  0.00     0.074 A 
ATOM     66  C   UNL A   1      44.933  27.055  31.547  1.00  0.00     0.031 C 
ATOM     67  C   UNL A   1      44.069  28.335  33.487  1.00  0.00     0.037 A 
BRANCH  54  68
ATOM     68  C   UNL A   1      39.386  31.924  35.333  1.00  0.00     0.064 A 
ATOM     69  C   UNL A   1      38.526  31.376  36.299  1.00  0.00     0.173 A 
ATOM     70  C   UNL A   1      39.697  33.288  35.436  1.00  0.00     0.173 A 
ATOM     71  F   UNL A   1      38.186  30.079  36.242  1.00  0.00    -0.203 F 
ATOM     72  C   UNL A   1      37.979  32.167  37.305  1.00  0.00     0.198 A 
ATOM     73  C   UNL A   1      39.174  34.069  36.463  1.00  0.00     0.198 A 
ATOM     74  F   UNL A   1      40.518  33.863  34.543  1.00  0.00    -0.203 F 
ATOM     75  F   UNL A   1      37.120  31.632  38.185  1.00  0.00    -0.200 F 
ATOM     76  C   UNL A   1      38.310  33.511  37.392  1.00  0.00     0.200 A 
ATOM     77  F   UNL A   1      39.505  35.365  36.553  1.00  0.00    -0.200 F 
ATOM     78  F   UNL A   1      37.788  34.269  38.366  1.00  0.00    -0.200 F 
ENDBRANCH  54  68
BRANCH  55  79
ATOM     79  C   UNL A   1      43.174  26.654  27.738  1.00  0.00     0.064 A 
ATOM     80  C   UNL A   1      43.046  25.259  27.683  1.00  0.00     0.173 A 
ATOM     81  C   UNL A   1      43.871  27.286  26.698  1.00  0.00     0.173 A 
ATOM     82  F   UNL A   1      42.404  24.607  28.663  1.00  0.00    -0.203 F 
ATOM     83  C   UNL A   1      43.618  24.524  26.646  1.00  0.00     0.198 A 
ATOM     84  C   UNL A   1      44.415  26.554  25.646  1.00  0.00     0.198 A 
ATOM     85  F   UNL A   1      44.014  28.620  26.700  1.00  0.00    -0.203 F 
ATOM     86  F   UNL A   1      43.526  23.187  26.647  1.00  0.00    -0.200 F 
ATOM     87  C   UNL A   1      44.297  25.172  25.626  1.00  0.00     0.200 A 
ATOM     88  F   UNL A   1      45.056  27.185  24.653  1.00  0.00    -0.200 F 
ATOM     89  F   UNL A   1      44.844  24.464  24.628  1.00  0.00    -0.200 F 
ENDBRANCH  55  79
BRANCH  67  90
ATOM     90  C   UNL A   1      45.266  27.866  34.267  1.00  0.00     0.064 A 
ATOM     91  C   UNL A   1      46.464  28.594  34.291  1.00  0.00     0.173 A 
ATOM     92  C   UNL A   1      45.208  26.673  35.003  1.00  0.00     0.173 A 
ATOM     93  F   UNL A   1      46.576  29.735  33.592  1.00  0.00    -0.203 F 
ATOM     94  C   UNL A   1      47.574  28.123  34.986  1.00  0.00     0.198 A 
ATOM     95  C   UNL A   1      46.308  26.223  35.727  1.00  0.00     0.198 A 
ATOM     96  F   UNL A   1      44.083  25.943  35.022  1.00  0.00    -0.203 F 
ATOM     97  F   UNL A   1      48.730  28.800  34.938  1.00  0.00    -0.200 F 
ATOM     98  C   UNL A   1      47.494  26.941  35.707  1.00  0.00     0.200 A 
ATOM     99  F   UNL A   1      46.224  25.089  36.435  1.00  0.00    -0.200 F 
ATOM    100  F   UNL A   1      48.564  26.488  36.374  1.00  0.00    -0.200 F 
ENDBRANCH  67  90
ENDBRANCH  41  42
ENDBRANCH  33  36
ENDBRANCH  31  32
ENDBRANCH  30  31
ENDBRANCH   1  30
TORSDOF 15
ENDMDL
MODEL 2
REMARK VINA RESULT:     -12.0      4.331      8.502
REMARK SMILES COc1ccc(-c2cc(C(F)(F)F)n3nc(C(=O)NCCCCNC(=O)c4ccc(-c5c6nc(c(-c7c(F)c(F)c(F)c(F)c7F)c7ccc([nH]7)c(-c7c(F)c(F)c(F)c(F)c7F)c7nc(c(-c8c(F)c(F)c(F)c(F)c8F)c8ccc5[nH]8)C=C7)C=C6)cc4)cc3n2)cc1OC
REMARK SMILES IDX 21 1 20 2 19 3 17 4 18 5 16 7 7 8 8 9 92 10 9 11 91 12 14 13
REMARK SMILES IDX 90 14 15 15 6 16 3 17 4 18 94 19 5 20 93 21 2 22 1 23 95 24
REMARK SMILES IDX 96 25 10 26 11 27 12 28 13 29 22 30 23 31 24 32 25 33 26 35
REMARK SMILES IDX 27 36 28 37 89 38 29 39 88 40 30 41 31 42 32 43 82 44 33 45
REMARK SMILES IDX 87 46 81 47 83 48 34 49 86 50 80 51 79 52 35 54 67 55 47 56
REMARK SMILES IDX 66 57 48 58 51 59 65 60 84 61 49 62 50 63 64 65 85 66 52 67
REMARK SMILES IDX 36 68 37 69 45 70 38 71 39 72 43 73 46 74 40 75 41 76 44 77
REMARK SMILES IDX 42 78 68 79 69 80 77 81 70 82 71 83 75 84 78 85 72 86 73 87
REMARK SMILES IDX 76 88 74 89 53 90 54 91 62 92 55 93 56 94 60 95 63 96 57 97
REMARK SMILES IDX 58 98 61 99 59 100
REMARK H PARENT 19 6 24 34 83 53 51 64
REMARK Flexibility Score: inf
ROOT
ATOM      1  C   UNL A   1      34.080  34.684  29.235  1.00  0.00     0.023 C 
ENDROOT
BRANCH   1   2
ATOM      2  C   UNL A   1      34.837  34.198  30.472  1.00  0.00     0.116 C 
BRANCH   2   3
ATOM      3  N   UNL A   1      34.612  35.081  31.595  1.00  0.00    -0.351 N 
ATOM      4  C   UNL A   1      35.197  35.153  32.839  1.00  0.00     0.271 C 
ATOM      5  O   UNL A   1      34.785  36.059  33.569  1.00  0.00    -0.267 OA
ATOM      6  H   UNL A   1      33.911  35.756  31.440  1.00  0.00     0.163 HD
BRANCH   4   7
ATOM      7  C   UNL A   1      36.268  34.222  33.261  1.00  0.00     0.152 A 
ATOM      8  C   UNL A   1      39.428  31.266  34.210  1.00  0.00     0.075 A 
ATOM      9  C   UNL A   1      40.080  32.456  34.843  1.00  0.00     0.062 A 
ATOM     10  N   UNL A   1      38.269  31.281  33.619  1.00  0.00    -0.228 NA
ATOM     11  C   UNL A   1      39.408  33.622  34.748  1.00  0.00     0.150 A 
ATOM     12  C   UNL A   1      37.621  32.480  33.597  1.00  0.00     0.157 A 
ATOM     13  N   UNL A   1      38.179  33.654  34.100  1.00  0.00    -0.209 N 
ATOM     14  C   UNL A   1      36.365  32.815  33.162  1.00  0.00     0.085 A 
ATOM     15  N   UNL A   1      37.373  34.710  33.860  1.00  0.00    -0.161 NA
BRANCH   8  16
ATOM     16  C   UNL A   1      40.184  29.998  34.278  1.00  0.00     0.004 A 
ATOM     17  C   UNL A   1      41.572  27.583  34.437  1.00  0.00     0.160 A 
ATOM     18  C   UNL A   1      40.780  27.869  33.315  1.00  0.00     0.051 A 
ATOM     19  C   UNL A   1      41.674  28.509  35.485  1.00  0.00     0.161 A 
ATOM     20  C   UNL A   1      40.069  29.069  33.242  1.00  0.00     0.014 A 
ATOM     21  C   UNL A   1      40.977  29.719  35.392  1.00  0.00     0.060 A 
BRANCH  17  22
ATOM     22  O   UNL A   1      42.323  26.438  34.433  1.00  0.00    -0.493 OA
ATOM     23  C   UNL A   1      43.565  26.609  33.748  1.00  0.00     0.278 C 
ENDBRANCH  17  22
BRANCH  19  24
ATOM     24  O   UNL A   1      42.412  28.411  36.633  1.00  0.00    -0.493 OA
ATOM     25  C   UNL A   1      43.595  29.190  36.728  1.00  0.00     0.278 C 
ENDBRANCH  19  24
ENDBRANCH   8  16
BRANCH  11  26
ATOM     26  C   UNL A   1      39.886  34.900  35.325  1.00  0.00     0.433 C 
ATOM     27  F   UNL A   1      38.898  35.623  35.904  1.00  0.00    -0.165 F 
ATOM     28  F   UNL A   1      40.871  34.726  36.241  1.00  0.00    -0.165 F 
ATOM     29  F   UNL A   1      40.420  35.704  34.362  1.00  0.00    -0.165 F 
ENDBRANCH  11  26
ENDBRANCH   4   7
ENDBRANCH   2   3
ENDBRANCH   1   2
BRANCH   1  30
ATOM     30  C   UNL A   1      33.562  33.552  28.341  1.00  0.00     0.023 C 
BRANCH  30  31
ATOM     31  C   UNL A   1      34.557  32.421  28.090  1.00  0.00     0.116 C 
BRANCH  31  32
ATOM     32  N   UNL A   1      33.923  31.127  27.894  1.00  0.00    -0.352 N 
ATOM     33  C   UNL A   1      34.499  29.880  27.904  1.00  0.00     0.251 C 
ATOM     34  H   UNL A   1      32.952  31.147  27.733  1.00  0.00     0.163 HD
ATOM     35  O   UNL A   1      33.836  28.890  27.612  1.00  0.00    -0.269 OA
BRANCH  33  36
ATOM     36  C   UNL A   1      35.934  29.742  28.222  1.00  0.00     0.039 A 
ATOM     37  C   UNL A   1      36.296  29.347  29.512  1.00  0.00     0.014 A 
ATOM     38  C   UNL A   1      36.915  29.974  27.254  1.00  0.00     0.014 A 
ATOM     39  C   UNL A   1      37.641  29.121  29.810  1.00  0.00     0.010 A 
ATOM     40  C   UNL A   1      38.245  29.676  27.532  1.00  0.00     0.010 A 
ATOM     41  C   UNL A   1      38.622  29.246  28.813  1.00  0.00    -0.014 A 
BRANCH  41  42
ATOM     42  C   UNL A   1      40.038  28.905  29.099  1.00  0.00     0.031 A 
ATOM     43  C   UNL A   1      40.916  29.856  29.863  1.00  0.00     0.074 A 
ATOM     44  C   UNL A   1      40.544  27.747  28.630  1.00  0.00     0.049 A 
ATOM     45  N   UNL A   1      42.170  29.720  30.217  1.00  0.00    -0.248 NA
ATOM     46  C   UNL A   1      40.317  31.140  30.260  1.00  0.00     0.031 C 
ATOM     47  C   UNL A   1      39.812  26.775  27.815  1.00  0.00     0.029 A 
ATOM     48  N   UNL A   1      41.790  27.191  28.770  1.00  0.00    -0.354 N 
ATOM     49  C   UNL A   1      42.508  30.899  30.870  1.00  0.00     0.074 A 
ATOM     50  C   UNL A   1      41.349  31.763  30.809  1.00  0.00     0.031 C 
ATOM     51  C   UNL A   1      40.609  25.726  27.560  1.00  0.00     0.029 A 
ATOM     52  C   UNL A   1      41.915  25.964  28.166  1.00  0.00     0.049 A 
ATOM     53  H   UNL A   1      42.524  27.629  29.258  1.00  0.00     0.167 HD
ATOM     54  C   UNL A   1      43.669  31.219  31.490  1.00  0.00     0.037 A 
ATOM     55  C   UNL A   1      42.965  25.122  28.114  1.00  0.00     0.037 A 
ATOM     56  C   UNL A   1      44.815  30.348  31.561  1.00  0.00     0.049 A 
ATOM     57  C   UNL A   1      44.238  25.496  28.824  1.00  0.00     0.074 A 
ATOM     58  C   UNL A   1      46.019  30.556  32.211  1.00  0.00     0.029 A 
ATOM     59  N   UNL A   1      44.899  29.103  30.955  1.00  0.00    -0.354 N 
ATOM     60  N   UNL A   1      44.517  26.576  29.512  1.00  0.00    -0.248 NA
ATOM     61  C   UNL A   1      45.335  24.522  28.763  1.00  0.00     0.031 C 
ATOM     62  C   UNL A   1      46.849  29.458  31.958  1.00  0.00     0.029 A 
ATOM     63  C   UNL A   1      46.142  28.540  31.199  1.00  0.00     0.049 A 
ATOM     64  H   UNL A   1      44.183  28.681  30.428  1.00  0.00     0.167 HD
ATOM     65  C   UNL A   1      45.809  26.401  29.989  1.00  0.00     0.074 A 
ATOM     66  C   UNL A   1      46.248  25.099  29.531  1.00  0.00     0.031 C 
ATOM     67  C   UNL A   1      46.564  27.242  30.738  1.00  0.00     0.037 A 
BRANCH  54  68
ATOM     68  C   UNL A   1      43.757  32.567  32.147  1.00  0.00     0.064 A 
ATOM     69  C   UNL A   1      44.060  33.725  31.411  1.00  0.00     0.173 A 
ATOM     70  C   UNL A   1      43.500  32.713  33.518  1.00  0.00     0.173 A 
ATOM     71  F   UNL A   1      44.326  33.641  30.099  1.00  0.00    -0.203 F 
ATOM     72  C   UNL A   1      44.132  34.970  32.030  1.00  0.00     0.198 A 
ATOM     73  C   UNL A   1      43.541  33.965  34.127  1.00  0.00     0.198 A 
ATOM     74  F   UNL A   1      43.201  31.641  34.267  1.00  0.00    -0.203 F 
ATOM     75  F   UNL A   1      44.473  36.053  31.318  1.00  0.00    -0.200 F 
ATOM     76  C   UNL A   1      43.864  35.090  33.385  1.00  0.00     0.200 A 
ATOM     77  F   UNL A   1      43.269  34.081  35.434  1.00  0.00    -0.200 F 
ATOM     78  F   UNL A   1      43.926  36.290  33.978  1.00  0.00    -0.200 F 
ENDBRANCH  54  68
BRANCH  55  79
ATOM     79  C   UNL A   1      42.844  23.824  27.399  1.00  0.00     0.064 A 
ATOM     80  C   UNL A   1      43.258  23.695  26.066  1.00  0.00     0.173 A 
ATOM     81  C   UNL A   1      42.305  22.692  28.026  1.00  0.00     0.173 A 
ATOM     82  F   UNL A   1      43.763  24.754  25.416  1.00  0.00    -0.203 F 
ATOM     83  C   UNL A   1      43.113  22.491  25.379  1.00  0.00     0.198 A 
ATOM     84  C   UNL A   1      42.189  21.480  27.349  1.00  0.00     0.198 A 
ATOM     85  F   UNL A   1      41.901  22.760  29.303  1.00  0.00    -0.203 F 
ATOM     86  F   UNL A   1      43.468  22.411  24.090  1.00  0.00    -0.200 F 
ATOM     87  C   UNL A   1      42.583  21.383  26.023  1.00  0.00     0.200 A 
ATOM     88  F   UNL A   1      41.693  20.407  27.980  1.00  0.00    -0.200 F 
ATOM     89  F   UNL A   1      42.446  20.225  25.363  1.00  0.00    -0.200 F 
ENDBRANCH  55  79
BRANCH  67  90
ATOM     90  C   UNL A   1      47.931  26.759  31.137  1.00  0.00     0.064 A 
ATOM     91  C   UNL A   1      49.065  27.020  30.354  1.00  0.00     0.173 A 
ATOM     92  C   UNL A   1      48.106  26.028  32.322  1.00  0.00     0.173 A 
ATOM     93  F   UNL A   1      48.950  27.703  29.205  1.00  0.00    -0.203 F 
ATOM     94  C   UNL A   1      50.316  26.531  30.719  1.00  0.00     0.198 A 
ATOM     95  C   UNL A   1      49.364  25.571  32.703  1.00  0.00     0.198 A 
ATOM     96  F   UNL A   1      47.056  25.759  33.112  1.00  0.00    -0.203 F 
ATOM     97  F   UNL A   1      51.373  26.734  29.921  1.00  0.00    -0.200 F 
ATOM     98  C   UNL A   1      50.465  25.810  31.896  1.00  0.00     0.200 A 
ATOM     99  F   UNL A   1      49.509  24.888  33.847  1.00  0.00    -0.200 F 
ATOM    100  F   UNL A   1      51.669  25.337  32.245  1.00  0.00    -0.200 F 
ENDBRANCH  67  90
ENDBRANCH  41  42
ENDBRANCH  33  36
ENDBRANCH  31  32
ENDBRANCH  30  31
ENDBRANCH   1  30
TORSDOF 15
ENDMDL
MODEL 3
REMARK VINA RESULT:     -12.0      2.368      3.704
REMARK SMILES COc1ccc(-c2cc(C(F)(F)F)n3nc(C(=O)NCCCCNC(=O)c4ccc(-c5c6nc(c(-c7c(F)c(F)c(F)c(F)c7F)c7ccc([nH]7)c(-c7c(F)c(F)c(F)c(F)c7F)c7nc(c(-c8c(F)c(F)c(F)c(F)c8F)c8ccc5[nH]8)C=C7)C=C6)cc4)cc3n2)cc1OC
REMARK SMILES IDX 21 1 20 2 19 3 17 4 18 5 16 7 7 8 8 9 92 10 9 11 91 12 14 13
REMARK SMILES IDX 90 14 15 15 6 16 3 17 4 18 94 19 5 20 93 21 2 22 1 23 95 24
REMARK SMILES IDX 96 25 10 26 11 27 12 28 13 29 22 30 23 31 24 32 25 33 26 35
REMARK SMILES IDX 27 36 28 37 89 38 29 39 88 40 30 41 31 42 32 43 82 44 33 45
REMARK SMILES IDX 87 46 81 47 83 48 34 49 86 50 80 51 79 52 35 54 67 55 47 56
REMARK SMILES IDX 66 57 48 58 51 59 65 60 84 61 49 62 50 63 64 65 85 66 52 67
REMARK SMILES IDX 36 68 37 69 45 70 38 71 39 72 43 73 46 74 40 75 41 76 44 77
REMARK SMILES IDX 42 78 68 79 69 80 77 81 70 82 71 83 75 84 78 85 72 86 73 87
REMARK SMILES IDX 76 88 74 89 53 90 54 91 62 92 55 93 56 94 60 95 63 96 57 97
REMARK SMILES IDX 58 98 61 99 59 100
REMARK H PARENT 19 6 24 34 83 53 51 64
REMARK Flexibility Score: inf
ROOT
ATOM      1  C   UNL A   1      31.156  29.506  24.521  1.00  0.00     0.023 C 
ENDROOT
BRANCH   1   2
ATOM      2  C   UNL A   1      31.025  28.708  23.223  1.00  0.00     0.116 C 
BRANCH   2   3
ATOM      3  N   UNL A   1      32.298  28.622  22.540  1.00  0.00    -0.351 N 
ATOM      4  C   UNL A   1      33.150  27.565  22.317  1.00  0.00     0.271 C 
ATOM      5  O   UNL A   1      34.163  27.828  21.663  1.00  0.00    -0.267 OA
ATOM      6  H   UNL A   1      32.610  29.478  22.165  1.00  0.00     0.163 HD
BRANCH   4   7
ATOM      7  C   UNL A   1      32.856  26.199  22.804  1.00  0.00     0.152 A 
ATOM      8  C   UNL A   1      32.318  22.025  24.187  1.00  0.00     0.075 A 
ATOM      9  C   UNL A   1      31.440  22.682  25.207  1.00  0.00     0.062 A 
ATOM     10  N   UNL A   1      32.955  22.652  23.242  1.00  0.00    -0.228 NA
ATOM     11  C   UNL A   1      31.349  24.025  25.135  1.00  0.00     0.150 A 
ATOM     12  C   UNL A   1      32.785  24.004  23.196  1.00  0.00     0.157 A 
ATOM     13  N   UNL A   1      32.041  24.707  24.142  1.00  0.00    -0.209 N 
ATOM     14  C   UNL A   1      33.213  24.933  22.284  1.00  0.00     0.085 A 
ATOM     15  N   UNL A   1      32.120  26.036  23.922  1.00  0.00    -0.161 NA
BRANCH   8  16
ATOM     16  C   UNL A   1      32.451  20.557  24.293  1.00  0.00     0.004 A 
ATOM     17  C   UNL A   1      32.755  17.789  24.479  1.00  0.00     0.160 A 
ATOM     18  C   UNL A   1      32.769  18.581  25.638  1.00  0.00     0.051 A 
ATOM     19  C   UNL A   1      32.583  18.383  23.220  1.00  0.00     0.161 A 
ATOM     20  C   UNL A   1      32.637  19.967  25.545  1.00  0.00     0.014 A 
ATOM     21  C   UNL A   1      32.428  19.771  23.139  1.00  0.00     0.060 A 
BRANCH  17  22
ATOM     22  O   UNL A   1      32.797  16.428  24.617  1.00  0.00    -0.493 OA
ATOM     23  C   UNL A   1      33.957  15.991  25.327  1.00  0.00     0.278 C 
ENDBRANCH  17  22
BRANCH  19  24
ATOM     24  O   UNL A   1      32.519  17.772  21.998  1.00  0.00    -0.493 OA
ATOM     25  C   UNL A   1      32.041  18.536  20.901  1.00  0.00     0.278 C 
ENDBRANCH  19  24
ENDBRANCH   8  16
BRANCH  11  26
ATOM     26  C   UNL A   1      30.518  24.846  26.046  1.00  0.00     0.433 C 
ATOM     27  F   UNL A   1      29.763  24.104  26.891  1.00  0.00    -0.165 F 
ATOM     28  F   UNL A   1      31.253  25.711  26.789  1.00  0.00    -0.165 F 
ATOM     29  F   UNL A   1      29.639  25.620  25.347  1.00  0.00    -0.165 F 
ENDBRANCH  11  26
ENDBRANCH   4   7
ENDBRANCH   2   3
ENDBRANCH   1   2
BRANCH   1  30
ATOM     30  C   UNL A   1      32.571  29.502  25.111  1.00  0.00     0.023 C 
BRANCH  30  31
ATOM     31  C   UNL A   1      32.657  29.898  26.583  1.00  0.00     0.116 C 
BRANCH  31  32
ATOM     32  N   UNL A   1      32.554  31.332  26.803  1.00  0.00    -0.352 N 
ATOM     33  C   UNL A   1      33.418  32.161  27.475  1.00  0.00     0.251 C 
ATOM     34  H   UNL A   1      31.758  31.767  26.418  1.00  0.00     0.163 HD
ATOM     35  O   UNL A   1      33.127  33.337  27.663  1.00  0.00    -0.269 OA
BRANCH  33  36
ATOM     36  C   UNL A   1      34.682  31.616  28.012  1.00  0.00     0.039 A 
ATOM     37  C   UNL A   1      35.777  32.473  28.139  1.00  0.00     0.014 A 
ATOM     38  C   UNL A   1      34.780  30.280  28.412  1.00  0.00     0.014 A 
ATOM     39  C   UNL A   1      36.952  32.005  28.728  1.00  0.00     0.010 A 
ATOM     40  C   UNL A   1      35.925  29.838  29.067  1.00  0.00     0.010 A 
ATOM     41  C   UNL A   1      37.023  30.695  29.233  1.00  0.00    -0.014 A 
BRANCH  41  42
ATOM     42  C   UNL A   1      38.233  30.227  29.953  1.00  0.00     0.031 A 
ATOM     43  C   UNL A   1      38.515  30.685  31.357  1.00  0.00     0.074 A 
ATOM     44  C   UNL A   1      39.103  29.416  29.319  1.00  0.00     0.049 A 
ATOM     45  N   UNL A   1      39.513  30.369  32.144  1.00  0.00    -0.248 NA
ATOM     46  C   UNL A   1      37.567  31.643  31.945  1.00  0.00     0.031 C 
ATOM     47  C   UNL A   1      38.976  28.960  27.934  1.00  0.00     0.029 A 
ATOM     48  N   UNL A   1      40.264  28.830  29.756  1.00  0.00    -0.354 N 
ATOM     49  C   UNL A   1      39.315  31.092  33.313  1.00  0.00     0.074 A 
ATOM     50  C   UNL A   1      38.139  31.909  33.111  1.00  0.00     0.031 C 
ATOM     51  C   UNL A   1      39.996  28.136  27.646  1.00  0.00     0.029 A 
ATOM     52  C   UNL A   1      40.863  28.030  28.815  1.00  0.00     0.049 A 
ATOM     53  H   UNL A   1      40.631  28.969  30.658  1.00  0.00     0.167 HD
ATOM     54  C   UNL A   1      40.032  31.055  34.463  1.00  0.00     0.037 A 
ATOM     55  C   UNL A   1      41.985  27.287  28.889  1.00  0.00     0.037 A 
ATOM     56  C   UNL A   1      41.193  30.227  34.664  1.00  0.00     0.049 A 
ATOM     57  C   UNL A   1      42.754  27.252  30.182  1.00  0.00     0.074 A 
ATOM     58  C   UNL A   1      41.958  30.075  35.808  1.00  0.00     0.029 A 
ATOM     59  N   UNL A   1      41.761  29.413  33.695  1.00  0.00    -0.354 N 
ATOM     60  N   UNL A   1      42.508  27.874  31.310  1.00  0.00    -0.248 NA
ATOM     61  C   UNL A   1      43.947  26.397  30.215  1.00  0.00     0.031 C 
ATOM     62  C   UNL A   1      43.016  29.207  35.517  1.00  0.00     0.029 A 
ATOM     63  C   UNL A   1      42.878  28.771  34.209  1.00  0.00     0.049 A 
ATOM     64  H   UNL A   1      41.422  29.306  32.777  1.00  0.00     0.167 HD
ATOM     65  C   UNL A   1      43.497  27.464  32.194  1.00  0.00     0.074 A 
ATOM     66  C   UNL A   1      44.331  26.522  31.477  1.00  0.00     0.031 C 
ATOM     67  C   UNL A   1      43.698  27.835  33.483  1.00  0.00     0.037 A 
BRANCH  54  68
ATOM     68  C   UNL A   1      39.576  31.931  35.594  1.00  0.00     0.064 A 
ATOM     69  C   UNL A   1      40.092  33.226  35.775  1.00  0.00     0.173 A 
ATOM     70  C   UNL A   1      38.588  31.492  36.487  1.00  0.00     0.173 A 
ATOM     71  F   UNL A   1      41.047  33.692  34.957  1.00  0.00    -0.203 F 
ATOM     72  C   UNL A   1      39.657  34.031  36.824  1.00  0.00     0.198 A 
ATOM     73  C   UNL A   1      38.132  32.313  37.515  1.00  0.00     0.198 A 
ATOM     74  F   UNL A   1      38.057  30.266  36.357  1.00  0.00    -0.203 F 
ATOM     75  F   UNL A   1      40.201  35.243  37.007  1.00  0.00    -0.200 F 
ATOM     76  C   UNL A   1      38.671  33.578  37.687  1.00  0.00     0.200 A 
ATOM     77  F   UNL A   1      37.170  31.878  38.341  1.00  0.00    -0.200 F 
ATOM     78  F   UNL A   1      38.248  34.358  38.691  1.00  0.00    -0.200 F 
ENDBRANCH  54  68
BRANCH  55  79
ATOM     79  C   UNL A   1      42.424  26.483  27.719  1.00  0.00     0.064 A 
ATOM     80  C   UNL A   1      43.371  26.985  26.815  1.00  0.00     0.173 A 
ATOM     81  C   UNL A   1      41.904  25.204  27.474  1.00  0.00     0.173 A 
ATOM     82  F   UNL A   1      43.885  28.211  26.996  1.00  0.00    -0.203 F 
ATOM     83  C   UNL A   1      43.759  26.251  25.696  1.00  0.00     0.198 A 
ATOM     84  C   UNL A   1      42.316  24.458  26.372  1.00  0.00     0.198 A 
ATOM     85  F   UNL A   1      41.002  24.675  28.313  1.00  0.00    -0.203 F 
ATOM     86  F   UNL A   1      44.626  26.778  24.820  1.00  0.00    -0.200 F 
ATOM     87  C   UNL A   1      43.236  24.986  25.478  1.00  0.00     0.200 A 
ATOM     88  F   UNL A   1      41.820  23.229  26.175  1.00  0.00    -0.200 F 
ATOM     89  F   UNL A   1      43.611  24.279  24.403  1.00  0.00    -0.200 F 
ENDBRANCH  55  79
BRANCH  67  90
ATOM     90  C   UNL A   1      44.845  27.189  34.208  1.00  0.00     0.064 A 
ATOM     91  C   UNL A   1      44.695  25.979  34.900  1.00  0.00     0.173 A 
ATOM     92  C   UNL A   1      46.113  27.790  34.204  1.00  0.00     0.173 A 
ATOM     93  F   UNL A   1      43.500  25.370  34.946  1.00  0.00    -0.203 F 
ATOM     94  C   UNL A   1      45.760  25.416  35.599  1.00  0.00     0.198 A 
ATOM     95  C   UNL A   1      47.185  27.206  34.873  1.00  0.00     0.198 A 
ATOM     96  F   UNL A   1      46.315  28.942  33.549  1.00  0.00    -0.203 F 
ATOM     97  F   UNL A   1      45.575  24.296  36.311  1.00  0.00    -0.200 F 
ATOM     98  C   UNL A   1      47.005  26.028  35.581  1.00  0.00     0.200 A 
ATOM     99  F   UNL A   1      48.391  27.790  34.843  1.00  0.00    -0.200 F 
ATOM    100  F   UNL A   1      48.028  25.487  36.256  1.00  0.00    -0.200 F 
ENDBRANCH  67  90
ENDBRANCH  41  42
ENDBRANCH  33  36
ENDBRANCH  31  32
ENDBRANCH  30  31
ENDBRANCH   1  30
TORSDOF 15
ENDMDL
