MODEL 1
REMARK VINA RESULT:     -10.3      0.000      0.000
REMARK SMILES CCCNC(=O)CN(C)C(=O)C[N@H+]1CCCC[C@H]1C(=O)NCCCCNC(=O)c1ccc(-c2c3nc(c(-c4c(F)c(F)c(F)c(F)c4F)c4ccc([nH]4)c(-c4c(F)c(F)c(F)c(F)c4F)c4nc(c(-c5c(F)c(F)c(F)c(F)c5F)c5ccc2[nH]5)C=C4)C=C3)cc1
REMARK SMILES IDX 19 1 20 2 21 3 18 5 13 6 14 7 15 9 17 10 16 11 12 12 10 13
REMARK SMILES IDX 11 14 8 15 9 16 7 17 5 18 4 19 6 21 3 22 2 23 1 24 22 25
REMARK SMILES IDX 23 26 24 27 25 28 26 29 27 30 28 32 29 33 30 34 91 35 31 36
REMARK SMILES IDX 90 37 32 38 33 39 34 40 84 41 35 42 89 43 83 44 85 45 36 46
REMARK SMILES IDX 88 47 82 48 81 49 37 51 69 52 49 53 68 54 50 55 53 56 67 57
REMARK SMILES IDX 86 58 51 59 52 60 66 62 87 63 54 64 38 65 39 66 47 67 40 68
REMARK SMILES IDX 41 69 45 70 48 71 42 72 43 73 46 74 44 75 70 76 71 77 79 78
REMARK SMILES IDX 72 79 73 80 77 81 80 82 74 83 75 84 78 85 76 86 55 87 56 88
REMARK SMILES IDX 64 89 57 90 58 91 62 92 65 93 59 94 60 95 63 96 61 97
REMARK H PARENT 21 4 13 8 4 20 26 31 85 50 53 61
REMARK Flexibility Score: inf
ROOT
ATOM      1  C   UNL A   1      35.881  23.928  24.661  1.00  0.00     0.278 C 
ATOM      2  O   UNL A   1      36.601  23.649  23.707  1.00  0.00    -0.268 OA
ATOM      3  N   UNL A   1      34.785  24.655  24.340  1.00  0.00    -0.351 N 
ATOM      4  H   UNL A   1      34.396  24.444  23.459  1.00  0.00     0.163 HD
ENDROOT
BRANCH   1   5
ATOM      5  C   UNL A   1      36.173  23.419  26.072  1.00  0.00     0.274 C 
ATOM      6  N   UNL A   1      36.434  21.949  26.110  1.00  0.00    -0.317 N 
ATOM      7  C   UNL A   1      37.732  21.543  25.539  1.00  0.00     0.263 C 
ATOM      8  H   UNL A   1      36.489  21.780  27.115  1.00  0.00     0.349 HD
ATOM      9  C   UNL A   1      38.905  22.322  26.131  1.00  0.00     0.062 C 
ATOM     10  C   UNL A   1      37.351  24.202  26.672  1.00  0.00     0.076 C 
ATOM     11  C   UNL A   1      38.684  23.824  26.032  1.00  0.00     0.012 C 
BRANCH   6  12
ATOM     12  C   UNL A   1      35.322  21.076  25.627  1.00  0.00     0.364 C 
BRANCH  12  13
ATOM     13  C   UNL A   1      33.935  21.329  26.285  1.00  0.00     0.277 C 
ATOM     14  O   UNL A   1      33.858  21.472  27.507  1.00  0.00    -0.268 OA
BRANCH  13  15
ATOM     15  N   UNL A   1      32.808  21.358  25.463  1.00  0.00    -0.332 N 
ATOM     16  C   UNL A   1      32.153  20.146  25.000  1.00  0.00     0.147 C 
BRANCH  15  17
ATOM     17  C   UNL A   1      32.125  22.633  25.159  1.00  0.00     0.219 C 
BRANCH  17  18
ATOM     18  C   UNL A   1      31.095  23.319  26.090  1.00  0.00     0.239 C 
ATOM     19  N   UNL A   1      30.354  24.397  25.675  1.00  0.00    -0.355 N 
ATOM     20  H   UNL A   1      29.726  24.736  26.354  1.00  0.00     0.163 HD
ATOM     21  O   UNL A   1      30.956  22.953  27.262  1.00  0.00    -0.273 OA
BRANCH  19  22
ATOM     22  C   UNL A   1      30.321  25.137  24.419  1.00  0.00     0.115 C 
BRANCH  22  23
ATOM     23  C   UNL A   1      29.517  26.443  24.512  1.00  0.00     0.018 C 
ATOM     24  C   UNL A   1      29.850  27.459  23.437  1.00  0.00     0.006 C 
ENDBRANCH  22  23
ENDBRANCH  19  22
ENDBRANCH  17  18
ENDBRANCH  15  17
ENDBRANCH  13  15
ENDBRANCH  12  13
ENDBRANCH   6  12
ENDBRANCH   1   5
BRANCH   3  25
ATOM     25  C   UNL A   1      34.091  25.686  25.071  1.00  0.00     0.116 C 
BRANCH  25  26
ATOM     26  C   UNL A   1      33.644  26.809  24.123  1.00  0.00     0.023 C 
BRANCH  26  27
ATOM     27  C   UNL A   1      33.657  28.245  24.687  1.00  0.00     0.023 C 
BRANCH  27  28
ATOM     28  C   UNL A   1      32.741  28.548  25.873  1.00  0.00     0.116 C 
BRANCH  28  29
ATOM     29  N   UNL A   1      32.502  29.965  26.048  1.00  0.00    -0.352 N 
ATOM     30  C   UNL A   1      33.169  30.906  26.791  1.00  0.00     0.251 C 
ATOM     31  H   UNL A   1      31.728  30.312  25.550  1.00  0.00     0.163 HD
ATOM     32  O   UNL A   1      32.681  32.030  26.886  1.00  0.00    -0.269 OA
BRANCH  30  33
ATOM     33  C   UNL A   1      34.446  30.614  27.492  1.00  0.00     0.039 A 
ATOM     34  C   UNL A   1      34.568  29.371  28.128  1.00  0.00     0.014 A 
ATOM     35  C   UNL A   1      35.471  31.554  27.627  1.00  0.00     0.014 A 
ATOM     36  C   UNL A   1      35.717  29.059  28.861  1.00  0.00     0.010 A 
ATOM     37  C   UNL A   1      36.642  31.225  28.325  1.00  0.00     0.010 A 
ATOM     38  C   UNL A   1      36.774  29.976  28.956  1.00  0.00    -0.014 A 
BRANCH  38  39
ATOM     39  C   UNL A   1      38.010  29.630  29.710  1.00  0.00     0.031 A 
ATOM     40  C   UNL A   1      38.269  30.204  31.077  1.00  0.00     0.074 A 
ATOM     41  C   UNL A   1      38.923  28.806  29.157  1.00  0.00     0.049 A 
ATOM     42  N   UNL A   1      39.300  30.032  31.868  1.00  0.00    -0.248 NA
ATOM     43  C   UNL A   1      37.240  31.103  31.621  1.00  0.00     0.031 C 
ATOM     44  C   UNL A   1      38.813  28.197  27.832  1.00  0.00     0.029 A 
ATOM     45  N   UNL A   1      40.125  28.346  29.638  1.00  0.00    -0.354 N 
ATOM     46  C   UNL A   1      39.050  30.805  32.994  1.00  0.00     0.074 A 
ATOM     47  C   UNL A   1      37.787  31.477  32.770  1.00  0.00     0.031 C 
ATOM     48  C   UNL A   1      39.895  27.433  27.610  1.00  0.00     0.029 A 
ATOM     49  C   UNL A   1      40.787  27.519  28.764  1.00  0.00     0.049 A 
ATOM     50  H   UNL A   1      40.477  28.584  30.526  1.00  0.00     0.167 HD
ATOM     51  C   UNL A   1      39.797  30.933  34.119  1.00  0.00     0.037 A 
ATOM     52  C   UNL A   1      41.980  26.905  28.873  1.00  0.00     0.037 A 
ATOM     53  C   UNL A   1      41.040  30.247  34.362  1.00  0.00     0.049 A 
ATOM     54  C   UNL A   1      42.792  27.068  30.128  1.00  0.00     0.074 A 
ATOM     55  C   UNL A   1      41.831  30.270  35.499  1.00  0.00     0.029 A 
ATOM     56  N   UNL A   1      41.676  29.418  33.452  1.00  0.00    -0.354 N 
ATOM     57  N   UNL A   1      42.514  27.756  31.208  1.00  0.00    -0.248 NA
ATOM     58  C   UNL A   1      44.081  26.365  30.181  1.00  0.00     0.031 C 
ATOM     59  C   UNL A   1      42.964  29.485  35.263  1.00  0.00     0.029 A 
ATOM     60  C   UNL A   1      42.861  28.940  33.994  1.00  0.00     0.049 A 
ATOM     61  H   UNL A   1      41.338  29.199  32.554  1.00  0.00     0.167 HD
ATOM     62  C   UNL A   1      43.580  27.550  32.075  1.00  0.00     0.074 A 
ATOM     63  C   UNL A   1      44.503  26.662  31.401  1.00  0.00     0.031 C 
ATOM     64  C   UNL A   1      43.772  28.054  33.319  1.00  0.00     0.037 A 
BRANCH  51  65
ATOM     65  C   UNL A   1      39.287  31.853  35.189  1.00  0.00     0.064 A 
ATOM     66  C   UNL A   1      38.512  31.379  36.258  1.00  0.00     0.173 A 
ATOM     67  C   UNL A   1      39.621  33.216  35.173  1.00  0.00     0.173 A 
ATOM     68  F   UNL A   1      38.160  30.086  36.313  1.00  0.00    -0.203 F 
ATOM     69  C   UNL A   1      38.069  32.239  37.259  1.00  0.00     0.198 A 
ATOM     70  C   UNL A   1      39.196  34.070  36.189  1.00  0.00     0.198 A 
ATOM     71  F   UNL A   1      40.367  33.718  34.178  1.00  0.00    -0.203 F 
ATOM     72  F   UNL A   1      37.297  31.772  38.249  1.00  0.00    -0.200 F 
ATOM     73  C   UNL A   1      38.416  33.582  37.227  1.00  0.00     0.200 A 
ATOM     74  F   UNL A   1      39.543  35.364  36.164  1.00  0.00    -0.200 F 
ATOM     75  F   UNL A   1      37.995  34.408  38.194  1.00  0.00    -0.200 F 
ENDBRANCH  51  65
BRANCH  52  76
ATOM     76  C   UNL A   1      42.477  26.056  27.761  1.00  0.00     0.064 A 
ATOM     77  C   UNL A   1      42.058  24.724  27.632  1.00  0.00     0.173 A 
ATOM     78  C   UNL A   1      43.378  26.554  26.810  1.00  0.00     0.173 A 
ATOM     79  F   UNL A   1      41.216  24.197  28.531  1.00  0.00    -0.203 F 
ATOM     80  C   UNL A   1      42.535  23.919  26.600  1.00  0.00     0.198 A 
ATOM     81  C   UNL A   1      43.835  25.755  25.765  1.00  0.00     0.198 A 
ATOM     82  F   UNL A   1      43.805  27.824  26.891  1.00  0.00    -0.203 F 
ATOM     83  F   UNL A   1      42.151  22.637  26.521  1.00  0.00    -0.200 F 
ATOM     84  C   UNL A   1      43.418  24.436  25.664  1.00  0.00     0.200 A 
ATOM     85  F   UNL A   1      44.680  26.262  24.857  1.00  0.00    -0.200 F 
ATOM     86  F   UNL A   1      43.874  23.662  24.670  1.00  0.00    -0.200 F 
ENDBRANCH  52  76
BRANCH  64  87
ATOM     87  C   UNL A   1      45.018  27.638  34.044  1.00  0.00     0.064 A 
ATOM     88  C   UNL A   1      46.201  28.388  33.960  1.00  0.00     0.173 A 
ATOM     89  C   UNL A   1      45.020  26.495  34.857  1.00  0.00     0.173 A 
ATOM     90  F   UNL A   1      46.254  29.480  33.183  1.00  0.00    -0.203 F 
ATOM     91  C   UNL A   1      47.346  27.996  34.649  1.00  0.00     0.198 A 
ATOM     92  C   UNL A   1      46.160  26.119  35.563  1.00  0.00     0.198 A 
ATOM     93  F   UNL A   1      43.913  25.746  34.973  1.00  0.00    -0.203 F 
ATOM     94  F   UNL A   1      48.476  28.704  34.522  1.00  0.00    -0.200 F 
ATOM     95  C   UNL A   1      47.323  26.867  35.454  1.00  0.00     0.200 A 
ATOM     96  F   UNL A   1      46.134  25.033  36.347  1.00  0.00    -0.200 F 
ATOM     97  F   UNL A   1      48.426  26.494  36.118  1.00  0.00    -0.200 F 
ENDBRANCH  64  87
ENDBRANCH  38  39
ENDBRANCH  30  33
ENDBRANCH  28  29
ENDBRANCH  27  28
ENDBRANCH  26  27
ENDBRANCH  25  26
ENDBRANCH   3  25
TORSDOF 18
ENDMDL
MODEL 2
REMARK VINA RESULT:     -10.2      4.280      9.314
REMARK SMILES CCCNC(=O)CN(C)C(=O)C[N@H+]1CCCC[C@H]1C(=O)NCCCCNC(=O)c1ccc(-c2c3nc(c(-c4c(F)c(F)c(F)c(F)c4F)c4ccc([nH]4)c(-c4c(F)c(F)c(F)c(F)c4F)c4nc(c(-c5c(F)c(F)c(F)c(F)c5F)c5ccc2[nH]5)C=C4)C=C3)cc1
REMARK SMILES IDX 19 1 20 2 21 3 18 5 13 6 14 7 15 9 17 10 16 11 12 12 10 13
REMARK SMILES IDX 11 14 8 15 9 16 7 17 5 18 4 19 6 21 3 22 2 23 1 24 22 25
REMARK SMILES IDX 23 26 24 27 25 28 26 29 27 30 28 32 29 33 30 34 91 35 31 36
REMARK SMILES IDX 90 37 32 38 33 39 34 40 84 41 35 42 89 43 83 44 85 45 36 46
REMARK SMILES IDX 88 47 82 48 81 49 37 51 69 52 49 53 68 54 50 55 53 56 67 57
REMARK SMILES IDX 86 58 51 59 52 60 66 62 87 63 54 64 38 65 39 66 47 67 40 68
REMARK SMILES IDX 41 69 45 70 48 71 42 72 43 73 46 74 44 75 70 76 71 77 79 78
REMARK SMILES IDX 72 79 73 80 77 81 80 82 74 83 75 84 78 85 76 86 55 87 56 88
REMARK SMILES IDX 64 89 57 90 58 91 62 92 65 93 59 94 60 95 63 96 61 97
REMARK H PARENT 21 4 13 8 4 20 26 31 85 50 53 61
REMARK Flexibility Score: inf
ROOT
ATOM      1  C   UNL A   1      36.433  23.008  24.136  1.00  0.00     0.278 C 
ATOM      2  O   UNL A   1      36.493  22.726  22.944  1.00  0.00    -0.268 OA
ATOM      3  N   UNL A   1      37.636  23.101  24.750  1.00  0.00    -0.351 N 
ATOM      4  H   UNL A   1      38.360  23.457  24.184  1.00  0.00     0.163 HD
ENDROOT
BRANCH   1   5
ATOM      5  C   UNL A   1      35.105  23.305  24.832  1.00  0.00     0.274 C 
ATOM      6  N   UNL A   1      34.078  23.855  23.898  1.00  0.00    -0.317 N 
ATOM      7  C   UNL A   1      33.526  22.872  22.948  1.00  0.00     0.263 C 
ATOM      8  H   UNL A   1      33.325  24.094  24.544  1.00  0.00     0.349 HD
ATOM      9  C   UNL A   1      33.016  21.607  23.637  1.00  0.00     0.062 C 
ATOM     10  C   UNL A   1      34.590  22.037  25.529  1.00  0.00     0.076 C 
ATOM     11  C   UNL A   1      34.079  20.995  24.536  1.00  0.00     0.012 C 
BRANCH   6  12
ATOM     12  C   UNL A   1      34.432  25.138  23.219  1.00  0.00     0.364 C 
BRANCH  12  13
ATOM     13  C   UNL A   1      33.278  25.821  22.430  1.00  0.00     0.277 C 
ATOM     14  O   UNL A   1      33.388  25.990  21.214  1.00  0.00    -0.268 OA
BRANCH  13  15
ATOM     15  N   UNL A   1      32.156  26.249  23.140  1.00  0.00    -0.332 N 
ATOM     16  C   UNL A   1      30.889  25.539  23.092  1.00  0.00     0.147 C 
BRANCH  15  17
ATOM     17  C   UNL A   1      32.253  27.359  24.113  1.00  0.00     0.219 C 
BRANCH  17  18
ATOM     18  C   UNL A   1      32.678  28.805  23.754  1.00  0.00     0.239 C 
ATOM     19  N   UNL A   1      33.140  29.677  24.706  1.00  0.00    -0.355 N 
ATOM     20  H   UNL A   1      33.389  30.562  24.351  1.00  0.00     0.163 HD
ATOM     21  O   UNL A   1      32.550  29.236  22.603  1.00  0.00    -0.273 OA
BRANCH  19  22
ATOM     22  C   UNL A   1      33.333  29.543  26.146  1.00  0.00     0.115 C 
BRANCH  22  23
ATOM     23  C   UNL A   1      32.023  29.661  26.941  1.00  0.00     0.018 C 
ATOM     24  C   UNL A   1      31.586  28.375  27.616  1.00  0.00     0.006 C 
ENDBRANCH  22  23
ENDBRANCH  19  22
ENDBRANCH  17  18
ENDBRANCH  15  17
ENDBRANCH  13  15
ENDBRANCH  12  13
ENDBRANCH   6  12
ENDBRANCH   1   5
BRANCH   3  25
ATOM     25  C   UNL A   1      38.035  22.766  26.095  1.00  0.00     0.116 C 
BRANCH  25  26
ATOM     26  C   UNL A   1      39.413  22.085  26.092  1.00  0.00     0.023 C 
BRANCH  26  27
ATOM     27  C   UNL A   1      39.497  20.682  25.456  1.00  0.00     0.023 C 
BRANCH  27  28
ATOM     28  C   UNL A   1      39.911  19.520  26.360  1.00  0.00     0.116 C 
BRANCH  28  29
ATOM     29  N   UNL A   1      41.156  18.907  25.947  1.00  0.00    -0.352 N 
ATOM     30  C   UNL A   1      42.414  19.435  25.798  1.00  0.00     0.251 C 
ATOM     31  H   UNL A   1      41.089  17.949  25.736  1.00  0.00     0.163 HD
ATOM     32  O   UNL A   1      43.287  18.732  25.294  1.00  0.00    -0.269 OA
BRANCH  30  33
ATOM     33  C   UNL A   1      42.753  20.822  26.206  1.00  0.00     0.039 A 
ATOM     34  C   UNL A   1      42.631  21.148  27.564  1.00  0.00     0.014 A 
ATOM     35  C   UNL A   1      43.085  21.825  25.291  1.00  0.00     0.014 A 
ATOM     36  C   UNL A   1      42.870  22.452  28.006  1.00  0.00     0.010 A 
ATOM     37  C   UNL A   1      43.369  23.123  25.740  1.00  0.00     0.010 A 
ATOM     38  C   UNL A   1      43.257  23.452  27.101  1.00  0.00    -0.014 A 
BRANCH  38  39
ATOM     39  C   UNL A   1      43.544  24.833  27.578  1.00  0.00     0.031 A 
ATOM     40  C   UNL A   1      44.959  25.305  27.777  1.00  0.00     0.074 A 
ATOM     41  C   UNL A   1      42.524  25.670  27.856  1.00  0.00     0.049 A 
ATOM     42  N   UNL A   1      45.394  26.464  28.208  1.00  0.00    -0.248 NA
ATOM     43  C   UNL A   1      46.026  24.343  27.465  1.00  0.00     0.031 C 
ATOM     44  C   UNL A   1      41.104  25.338  27.733  1.00  0.00     0.029 A 
ATOM     45  N   UNL A   1      42.525  26.968  28.307  1.00  0.00    -0.354 N 
ATOM     46  C   UNL A   1      46.780  26.367  28.228  1.00  0.00     0.074 A 
ATOM     47  C   UNL A   1      47.113  25.024  27.802  1.00  0.00     0.031 C 
ATOM     48  C   UNL A   1      40.372  26.407  28.085  1.00  0.00     0.029 A 
ATOM     49  C   UNL A   1      41.267  27.490  28.485  1.00  0.00     0.049 A 
ATOM     50  H   UNL A   1      43.349  27.476  28.483  1.00  0.00     0.167 HD
ATOM     51  C   UNL A   1      47.692  27.315  28.558  1.00  0.00     0.037 A 
ATOM     52  C   UNL A   1      40.876  28.700  28.928  1.00  0.00     0.037 A 
ATOM     53  C   UNL A   1      47.371  28.661  28.956  1.00  0.00     0.049 A 
ATOM     54  C   UNL A   1      41.908  29.731  29.294  1.00  0.00     0.074 A 
ATOM     55  C   UNL A   1      48.234  29.705  29.247  1.00  0.00     0.029 A 
ATOM     56  N   UNL A   1      46.085  29.151  29.123  1.00  0.00    -0.354 N 
ATOM     57  N   UNL A   1      43.215  29.644  29.251  1.00  0.00    -0.248 NA
ATOM     58  C   UNL A   1      41.409  31.031  29.763  1.00  0.00     0.031 C 
ATOM     59  C   UNL A   1      47.471  30.815  29.627  1.00  0.00     0.029 A 
ATOM     60  C   UNL A   1      46.132  30.475  29.534  1.00  0.00     0.049 A 
ATOM     61  H   UNL A   1      45.260  28.636  28.972  1.00  0.00     0.167 HD
ATOM     62  C   UNL A   1      43.693  30.880  29.665  1.00  0.00     0.074 A 
ATOM     63  C   UNL A   1      42.536  31.706  29.941  1.00  0.00     0.031 C 
ATOM     64  C   UNL A   1      44.977  31.291  29.803  1.00  0.00     0.037 A 
BRANCH  51  65
ATOM     65  C   UNL A   1      49.142  26.932  28.499  1.00  0.00     0.064 A 
ATOM     66  C   UNL A   1      49.878  27.023  27.308  1.00  0.00     0.173 A 
ATOM     67  C   UNL A   1      49.816  26.518  29.657  1.00  0.00     0.173 A 
ATOM     68  F   UNL A   1      49.276  27.406  26.172  1.00  0.00    -0.203 F 
ATOM     69  C   UNL A   1      51.229  26.691  27.274  1.00  0.00     0.198 A 
ATOM     70  C   UNL A   1      51.174  26.210  29.625  1.00  0.00     0.198 A 
ATOM     71  F   UNL A   1      49.160  26.423  30.824  1.00  0.00    -0.203 F 
ATOM     72  F   UNL A   1      51.902  26.748  26.116  1.00  0.00    -0.200 F 
ATOM     73  C   UNL A   1      51.877  26.291  28.433  1.00  0.00     0.200 A 
ATOM     74  F   UNL A   1      51.802  25.836  30.748  1.00  0.00    -0.200 F 
ATOM     75  F   UNL A   1      53.180  25.978  28.399  1.00  0.00    -0.200 F 
ENDBRANCH  51  65
BRANCH  52  76
ATOM     76  C   UNL A   1      39.429  29.013  29.034  1.00  0.00     0.064 A 
ATOM     77  C   UNL A   1      38.695  29.412  27.907  1.00  0.00     0.173 A 
ATOM     78  C   UNL A   1      38.752  28.925  30.258  1.00  0.00     0.173 A 
ATOM     79  F   UNL A   1      39.306  29.534  26.720  1.00  0.00    -0.203 F 
ATOM     80  C   UNL A   1      37.342  29.724  28.006  1.00  0.00     0.198 A 
ATOM     81  C   UNL A   1      37.392  29.214  30.350  1.00  0.00     0.198 A 
ATOM     82  F   UNL A   1      39.411  28.545  31.364  1.00  0.00    -0.203 F 
ATOM     83  F   UNL A   1      36.672  30.141  26.922  1.00  0.00    -0.200 F 
ATOM     84  C   UNL A   1      36.690  29.619  29.225  1.00  0.00     0.200 A 
ATOM     85  F   UNL A   1      36.764  29.100  31.528  1.00  0.00    -0.200 F 
ATOM     86  F   UNL A   1      35.387  29.915  29.319  1.00  0.00    -0.200 F 
ENDBRANCH  52  76
BRANCH  64  87
ATOM     87  C   UNL A   1      45.202  32.706  30.250  1.00  0.00     0.064 A 
ATOM     88  C   UNL A   1      45.268  33.764  29.331  1.00  0.00     0.173 A 
ATOM     89  C   UNL A   1      45.320  33.010  31.614  1.00  0.00     0.173 A 
ATOM     90  F   UNL A   1      45.177  33.521  28.015  1.00  0.00    -0.203 F 
ATOM     91  C   UNL A   1      45.465  35.073  29.762  1.00  0.00     0.198 A 
ATOM     92  C   UNL A   1      45.493  34.324  32.043  1.00  0.00     0.198 A 
ATOM     93  F   UNL A   1      45.260  32.034  32.533  1.00  0.00    -0.203 F 
ATOM     94  F   UNL A   1      45.567  36.063  28.865  1.00  0.00    -0.200 F 
ATOM     95  C   UNL A   1      45.571  35.353  31.117  1.00  0.00     0.200 A 
ATOM     96  F   UNL A   1      45.587  34.593  33.352  1.00  0.00    -0.200 F 
ATOM     97  F   UNL A   1      45.758  36.614  31.529  1.00  0.00    -0.200 F 
ENDBRANCH  64  87
ENDBRANCH  38  39
ENDBRANCH  30  33
ENDBRANCH  28  29
ENDBRANCH  27  28
ENDBRANCH  26  27
ENDBRANCH  25  26
ENDBRANCH   3  25
TORSDOF 18
ENDMDL
MODEL 3
REMARK VINA RESULT:     -10.2      4.432      7.887
REMARK SMILES CCCNC(=O)CN(C)C(=O)C[N@H+]1CCCC[C@H]1C(=O)NCCCCNC(=O)c1ccc(-c2c3nc(c(-c4c(F)c(F)c(F)c(F)c4F)c4ccc([nH]4)c(-c4c(F)c(F)c(F)c(F)c4F)c4nc(c(-c5c(F)c(F)c(F)c(F)c5F)c5ccc2[nH]5)C=C4)C=C3)cc1
REMARK SMILES IDX 19 1 20 2 21 3 18 5 13 6 14 7 15 9 17 10 16 11 12 12 10 13
REMARK SMILES IDX 11 14 8 15 9 16 7 17 5 18 4 19 6 21 3 22 2 23 1 24 22 25
REMARK SMILES IDX 23 26 24 27 25 28 26 29 27 30 28 32 29 33 30 34 91 35 31 36
REMARK SMILES IDX 90 37 32 38 33 39 34 40 84 41 35 42 89 43 83 44 85 45 36 46
REMARK SMILES IDX 88 47 82 48 81 49 37 51 69 52 49 53 68 54 50 55 53 56 67 57
REMARK SMILES IDX 86 58 51 59 52 60 66 62 87 63 54 64 38 65 39 66 47 67 40 68
REMARK SMILES IDX 41 69 45 70 48 71 42 72 43 73 46 74 44 75 70 76 71 77 79 78
REMARK SMILES IDX 72 79 73 80 77 81 80 82 74 83 75 84 78 85 76 86 55 87 56 88
REMARK SMILES IDX 64 89 57 90 58 91 62 92 65 93 59 94 60 95 63 96 61 97
REMARK H PARENT 21 4 13 8 4 20 26 31 85 50 53 61
REMARK Flexibility Score: inf
ROOT
ATOM      1  C   UNL A   1      35.585  23.005  23.873  1.00  0.00     0.278 C 
ATOM      2  O   UNL A   1      35.480  23.327  22.694  1.00  0.00    -0.268 OA
ATOM      3  N   UNL A   1      36.853  22.749  24.273  1.00  0.00    -0.351 N 
ATOM      4  H   UNL A   1      37.540  23.308  23.840  1.00  0.00     0.163 HD
ENDROOT
BRANCH   1   5
ATOM      5  C   UNL A   1      34.382  22.978  24.816  1.00  0.00     0.274 C 
ATOM      6  N   UNL A   1      33.503  24.176  24.659  1.00  0.00    -0.317 N 
ATOM      7  C   UNL A   1      32.711  24.195  23.415  1.00  0.00     0.263 C 
ATOM      8  H   UNL A   1      32.843  24.044  25.426  1.00  0.00     0.349 HD
ATOM      9  C   UNL A   1      31.921  22.905  23.200  1.00  0.00     0.062 C 
ATOM     10  C   UNL A   1      33.586  21.682  24.605  1.00  0.00     0.076 C 
ATOM     11  C   UNL A   1      32.819  21.680  23.285  1.00  0.00     0.012 C 
BRANCH   6  12
ATOM     12  C   UNL A   1      34.148  25.498  24.922  1.00  0.00     0.364 C 
BRANCH  12  13
ATOM     13  C   UNL A   1      33.178  26.652  25.308  1.00  0.00     0.277 C 
ATOM     14  O   UNL A   1      32.039  26.387  25.697  1.00  0.00    -0.268 OA
BRANCH  13  15
ATOM     15  N   UNL A   1      33.628  27.966  25.173  1.00  0.00    -0.332 N 
ATOM     16  C   UNL A   1      34.193  28.712  26.285  1.00  0.00     0.147 C 
BRANCH  15  17
ATOM     17  C   UNL A   1      33.706  28.607  23.843  1.00  0.00     0.219 C 
BRANCH  17  18
ATOM     18  C   UNL A   1      33.156  27.983  22.536  1.00  0.00     0.239 C 
ATOM     19  N   UNL A   1      31.855  28.168  22.142  1.00  0.00    -0.355 N 
ATOM     20  H   UNL A   1      31.630  27.731  21.288  1.00  0.00     0.163 HD
ATOM     21  O   UNL A   1      33.860  27.244  21.840  1.00  0.00    -0.273 OA
BRANCH  19  22
ATOM     22  C   UNL A   1      30.741  28.888  22.748  1.00  0.00     0.115 C 
BRANCH  22  23
ATOM     23  C   UNL A   1      29.745  27.961  23.464  1.00  0.00     0.018 C 
ATOM     24  C   UNL A   1      28.302  28.150  23.039  1.00  0.00     0.006 C 
ENDBRANCH  22  23
ENDBRANCH  19  22
ENDBRANCH  17  18
ENDBRANCH  15  17
ENDBRANCH  13  15
ENDBRANCH  12  13
ENDBRANCH   6  12
ENDBRANCH   1   5
BRANCH   3  25
ATOM     25  C   UNL A   1      37.366  21.797  25.226  1.00  0.00     0.116 C 
BRANCH  25  26
ATOM     26  C   UNL A   1      37.177  20.363  24.707  1.00  0.00     0.023 C 
BRANCH  26  27
ATOM     27  C   UNL A   1      38.327  19.369  24.967  1.00  0.00     0.023 C 
BRANCH  27  28
ATOM     28  C   UNL A   1      39.315  19.707  26.085  1.00  0.00     0.116 C 
BRANCH  28  29
ATOM     29  N   UNL A   1      40.506  18.885  26.046  1.00  0.00    -0.352 N 
ATOM     30  C   UNL A   1      41.836  19.225  26.070  1.00  0.00     0.251 C 
ATOM     31  H   UNL A   1      40.333  17.919  25.992  1.00  0.00     0.163 HD
ATOM     32  O   UNL A   1      42.669  18.341  25.882  1.00  0.00    -0.269 OA
BRANCH  30  33
ATOM     33  C   UNL A   1      42.302  20.616  26.298  1.00  0.00     0.039 A 
ATOM     34  C   UNL A   1      42.402  21.059  27.624  1.00  0.00     0.014 A 
ATOM     35  C   UNL A   1      42.543  21.518  25.258  1.00  0.00     0.014 A 
ATOM     36  C   UNL A   1      42.771  22.377  27.907  1.00  0.00     0.010 A 
ATOM     37  C   UNL A   1      42.956  22.828  25.542  1.00  0.00     0.010 A 
ATOM     38  C   UNL A   1      43.067  23.274  26.870  1.00  0.00    -0.014 A 
BRANCH  38  39
ATOM     39  C   UNL A   1      43.492  24.668  27.174  1.00  0.00     0.031 A 
ATOM     40  C   UNL A   1      42.524  25.661  27.759  1.00  0.00     0.074 A 
ATOM     41  C   UNL A   1      44.754  25.057  26.904  1.00  0.00     0.049 A 
ATOM     42  N   UNL A   1      42.712  26.922  28.065  1.00  0.00    -0.248 NA
ATOM     43  C   UNL A   1      41.160  25.178  28.021  1.00  0.00     0.031 C 
ATOM     44  C   UNL A   1      45.789  24.208  26.315  1.00  0.00     0.029 A 
ATOM     45  N   UNL A   1      45.378  26.268  27.084  1.00  0.00    -0.354 N 
ATOM     46  C   UNL A   1      41.493  27.384  28.544  1.00  0.00     0.074 A 
ATOM     47  C   UNL A   1      40.561  26.279  28.455  1.00  0.00     0.031 C 
ATOM     48  C   UNL A   1      46.922  24.918  26.194  1.00  0.00     0.029 A 
ATOM     49  C   UNL A   1      46.687  26.279  26.670  1.00  0.00     0.049 A 
ATOM     50  H   UNL A   1      44.929  27.053  27.474  1.00  0.00     0.167 HD
ATOM     51  C   UNL A   1      41.182  28.612  29.028  1.00  0.00     0.037 A 
ATOM     52  C   UNL A   1      47.596  27.273  26.668  1.00  0.00     0.037 A 
ATOM     53  C   UNL A   1      42.109  29.707  29.146  1.00  0.00     0.049 A 
ATOM     54  C   UNL A   1      47.223  28.627  27.203  1.00  0.00     0.074 A 
ATOM     55  C   UNL A   1      41.895  30.966  29.683  1.00  0.00     0.029 A 
ATOM     56  N   UNL A   1      43.427  29.678  28.717  1.00  0.00    -0.354 N 
ATOM     57  N   UNL A   1      46.084  29.031  27.708  1.00  0.00    -0.248 NA
ATOM     58  C   UNL A   1      48.267  29.662  27.174  1.00  0.00     0.031 C 
ATOM     59  C   UNL A   1      43.071  31.711  29.545  1.00  0.00     0.029 A 
ATOM     60  C   UNL A   1      44.031  30.903  28.958  1.00  0.00     0.049 A 
ATOM     61  H   UNL A   1      43.869  28.902  28.303  1.00  0.00     0.167 HD
ATOM     62  C   UNL A   1      46.279  30.356  28.076  1.00  0.00     0.074 A 
ATOM     63  C   UNL A   1      47.651  30.685  27.751  1.00  0.00     0.031 C 
ATOM     64  C   UNL A   1      45.397  31.221  28.635  1.00  0.00     0.037 A 
BRANCH  51  65
ATOM     65  C   UNL A   1      39.768  28.842  29.477  1.00  0.00     0.064 A 
ATOM     66  C   UNL A   1      39.358  28.556  30.788  1.00  0.00     0.173 A 
ATOM     67  C   UNL A   1      38.827  29.404  28.601  1.00  0.00     0.173 A 
ATOM     68  F   UNL A   1      40.219  28.010  31.659  1.00  0.00    -0.203 F 
ATOM     69  C   UNL A   1      38.051  28.801  31.198  1.00  0.00     0.198 A 
ATOM     70  C   UNL A   1      37.526  29.670  29.023  1.00  0.00     0.198 A 
ATOM     71  F   UNL A   1      39.171  29.704  27.340  1.00  0.00    -0.203 F 
ATOM     72  F   UNL A   1      37.670  28.483  32.443  1.00  0.00    -0.200 F 
ATOM     73  C   UNL A   1      37.138  29.363  30.318  1.00  0.00     0.200 A 
ATOM     74  F   UNL A   1      36.649  30.225  28.175  1.00  0.00    -0.200 F 
ATOM     75  F   UNL A   1      35.881  29.604  30.717  1.00  0.00    -0.200 F 
ENDBRANCH  51  65
BRANCH  52  76
ATOM     76  C   UNL A   1      48.965  27.018  26.152  1.00  0.00     0.064 A 
ATOM     77  C   UNL A   1      49.975  26.542  26.999  1.00  0.00     0.173 A 
ATOM     78  C   UNL A   1      49.292  27.247  24.808  1.00  0.00     0.173 A 
ATOM     79  F   UNL A   1      49.715  26.331  28.298  1.00  0.00    -0.203 F 
ATOM     80  C   UNL A   1      51.265  26.318  26.524  1.00  0.00     0.198 A 
ATOM     81  C   UNL A   1      50.576  27.000  24.328  1.00  0.00     0.198 A 
ATOM     82  F   UNL A   1      48.358  27.701  23.958  1.00  0.00    -0.203 F 
ATOM     83  F   UNL A   1      52.223  25.900  27.363  1.00  0.00    -0.200 F 
ATOM     84  C   UNL A   1      51.563  26.541  25.188  1.00  0.00     0.200 A 
ATOM     85  F   UNL A   1      50.857  27.207  23.035  1.00  0.00    -0.200 F 
ATOM     86  F   UNL A   1      52.803  26.323  24.730  1.00  0.00    -0.200 F 
ENDBRANCH  52  76
BRANCH  64  87
ATOM     87  C   UNL A   1      45.894  32.600  28.953  1.00  0.00     0.064 A 
ATOM     88  C   UNL A   1      46.515  32.892  30.177  1.00  0.00     0.173 A 
ATOM     89  C   UNL A   1      45.778  33.633  28.012  1.00  0.00     0.173 A 
ATOM     90  F   UNL A   1      46.635  31.942  31.116  1.00  0.00    -0.203 F 
ATOM     91  C   UNL A   1      46.983  34.174  30.454  1.00  0.00     0.198 A 
ATOM     92  C   UNL A   1      46.268  34.908  28.282  1.00  0.00     0.198 A 
ATOM     93  F   UNL A   1      45.195  33.405  26.825  1.00  0.00    -0.203 F 
ATOM     94  F   UNL A   1      47.535  34.441  31.645  1.00  0.00    -0.200 F 
ATOM     95  C   UNL A   1      46.864  35.179  29.505  1.00  0.00     0.200 A 
ATOM     96  F   UNL A   1      46.161  35.876  27.362  1.00  0.00    -0.200 F 
ATOM     97  F   UNL A   1      47.318  36.411  29.773  1.00  0.00    -0.200 F 
ENDBRANCH  64  87
ENDBRANCH  38  39
ENDBRANCH  30  33
ENDBRANCH  28  29
ENDBRANCH  27  28
ENDBRANCH  26  27
ENDBRANCH  25  26
ENDBRANCH   3  25
TORSDOF 18
ENDMDL
