MODEL 1
REMARK VINA RESULT:     -12.6      0.000      0.000
REMARK SMILES O=C(NCCCCNC(=O)[C@@H]1CS[C@H](c2cccc([N+](=O)[O-])c2)[NH2+]1)c1ccc(-c2c3nc(c(-c4c(F)c(F)c(F)c(F)c4F)c4ccc([nH]4)c(-c4c(F)c(F)c(F)c(F)c4F)c4nc(c(-c5c(F)c(F)c(F)c(F)c5F)c5ccc2[nH]5)C=C4)C=C3)cc1
REMARK SMILES IDX 5 1 4 2 3 3 1 4 2 5 25 7 26 8 87 9 27 10 86 11 28 12 29 13
REMARK SMILES IDX 30 14 80 15 31 16 85 17 79 18 81 19 32 20 84 21 78 22 77 23
REMARK SMILES IDX 33 25 65 26 45 27 64 28 46 29 49 30 63 31 82 32 47 33 48 34
REMARK SMILES IDX 62 36 83 37 50 38 34 39 35 40 43 41 36 42 37 43 41 44 44 45
REMARK SMILES IDX 38 46 39 47 42 48 40 49 66 50 67 51 75 52 68 53 69 54 73 55
REMARK SMILES IDX 76 56 70 57 71 58 74 59 72 60 51 61 52 62 60 63 53 64 54 65
REMARK SMILES IDX 58 66 61 67 55 68 56 69 59 70 57 71 6 72 7 73 8 74 9 75
REMARK SMILES IDX 10 77 11 78 12 79 24 80 13 81 14 82 15 85 16 86 23 87 17 88
REMARK SMILES IDX 19 89 18 90 20 91 21 92 22 93
REMARK H PARENT 3 6 81 24 49 35 8 76 24 83 24 84
REMARK Flexibility Score: inf
ROOT
ATOM      1  C   UNL A   1      31.405  32.232  26.657  1.00  0.00     0.023 C 
ENDROOT
BRANCH   1   2
ATOM      2  C   UNL A   1      32.671  32.821  27.251  1.00  0.00     0.116 C 
BRANCH   2   3
ATOM      3  N   UNL A   1      32.487  34.207  27.672  1.00  0.00    -0.352 N 
ATOM      4  O   UNL A   1      32.675  35.977  29.068  1.00  0.00    -0.269 OA
ATOM      5  C   UNL A   1      33.088  34.881  28.703  1.00  0.00     0.251 C 
ATOM      6  H   UNL A   1      31.842  34.730  27.143  1.00  0.00     0.163 HD
BRANCH   5   7
ATOM      7  C   UNL A   1      34.240  34.253  29.369  1.00  0.00     0.039 A 
ATOM      8  C   UNL A   1      35.529  34.554  28.927  1.00  0.00     0.014 A 
ATOM      9  C   UNL A   1      34.027  33.333  30.395  1.00  0.00     0.014 A 
ATOM     10  C   UNL A   1      36.599  33.814  29.393  1.00  0.00     0.010 A 
ATOM     11  C   UNL A   1      35.122  32.675  30.951  1.00  0.00     0.010 A 
ATOM     12  C   UNL A   1      36.410  32.896  30.436  1.00  0.00    -0.014 A 
BRANCH  12  13
ATOM     13  C   UNL A   1      37.595  32.252  31.040  1.00  0.00     0.031 A 
ATOM     14  C   UNL A   1      38.349  31.182  30.316  1.00  0.00     0.074 A 
ATOM     15  C   UNL A   1      37.969  32.656  32.268  1.00  0.00     0.049 A 
ATOM     16  N   UNL A   1      39.357  30.460  30.734  1.00  0.00    -0.248 NA
ATOM     17  C   UNL A   1      37.908  30.866  28.950  1.00  0.00     0.031 C 
ATOM     18  C   UNL A   1      37.289  33.691  33.055  1.00  0.00     0.029 A 
ATOM     19  N   UNL A   1      39.002  32.254  33.071  1.00  0.00    -0.354 N 
ATOM     20  C   UNL A   1      39.650  29.584  29.700  1.00  0.00     0.074 A 
ATOM     21  C   UNL A   1      38.705  29.852  28.637  1.00  0.00     0.031 C 
ATOM     22  C   UNL A   1      37.939  33.862  34.211  1.00  0.00     0.029 A 
ATOM     23  C   UNL A   1      39.022  32.892  34.286  1.00  0.00     0.049 A 
ATOM     24  H   UNL A   1      39.664  31.576  32.804  1.00  0.00     0.167 HD
ATOM     25  C   UNL A   1      40.624  28.644  29.654  1.00  0.00     0.037 A 
ATOM     26  C   UNL A   1      39.797  32.688  35.364  1.00  0.00     0.037 A 
ATOM     27  C   UNL A   1      41.565  28.411  30.721  1.00  0.00     0.049 A 
ATOM     28  C   UNL A   1      40.852  31.628  35.295  1.00  0.00     0.074 A 
ATOM     29  C   UNL A   1      42.623  27.521  30.762  1.00  0.00     0.029 A 
ATOM     30  N   UNL A   1      41.553  29.073  31.942  1.00  0.00    -0.354 N 
ATOM     31  N   UNL A   1      41.141  30.819  34.304  1.00  0.00    -0.248 NA
ATOM     32  C   UNL A   1      41.685  31.444  36.489  1.00  0.00     0.031 C 
ATOM     33  C   UNL A   1      43.216  27.606  32.026  1.00  0.00     0.029 A 
ATOM     34  C   UNL A   1      42.565  28.588  32.755  1.00  0.00     0.049 A 
ATOM     35  H   UNL A   1      40.918  29.783  32.193  1.00  0.00     0.167 HD
ATOM     36  C   UNL A   1      42.196  30.038  34.746  1.00  0.00     0.074 A 
ATOM     37  C   UNL A   1      42.504  30.480  36.091  1.00  0.00     0.031 C 
ATOM     38  C   UNL A   1      42.848  29.044  34.094  1.00  0.00     0.037 A 
BRANCH  25  39
ATOM     39  C   UNL A   1      40.692  27.770  28.434  1.00  0.00     0.064 A 
ATOM     40  C   UNL A   1      40.004  26.550  28.351  1.00  0.00     0.173 A 
ATOM     41  C   UNL A   1      41.447  28.171  27.320  1.00  0.00     0.173 A 
ATOM     42  F   UNL A   1      39.274  26.114  29.389  1.00  0.00    -0.203 F 
ATOM     43  C   UNL A   1      40.098  25.749  27.214  1.00  0.00     0.198 A 
ATOM     44  C   UNL A   1      41.514  27.382  26.175  1.00  0.00     0.198 A 
ATOM     45  F   UNL A   1      42.120  29.330  27.341  1.00  0.00    -0.203 F 
ATOM     46  F   UNL A   1      39.475  24.562  27.179  1.00  0.00    -0.200 F 
ATOM     47  C   UNL A   1      40.848  26.167  26.126  1.00  0.00     0.200 A 
ATOM     48  F   UNL A   1      42.230  27.795  25.120  1.00  0.00    -0.200 F 
ATOM     49  F   UNL A   1      40.938  25.395  25.034  1.00  0.00    -0.200 F 
ENDBRANCH  25  39
BRANCH  26  50
ATOM     50  C   UNL A   1      39.557  33.494  36.586  1.00  0.00     0.064 A 
ATOM     51  C   UNL A   1      40.102  34.775  36.727  1.00  0.00     0.173 A 
ATOM     52  C   UNL A   1      38.701  33.029  37.598  1.00  0.00     0.173 A 
ATOM     53  F   UNL A   1      40.931  35.256  35.790  1.00  0.00    -0.203 F 
ATOM     54  C   UNL A   1      39.800  35.564  37.835  1.00  0.00     0.198 A 
ATOM     55  C   UNL A   1      38.376  33.830  38.690  1.00  0.00     0.198 A 
ATOM     56  F   UNL A   1      38.140  31.815  37.499  1.00  0.00    -0.203 F 
ATOM     57  F   UNL A   1      40.347  36.780  37.957  1.00  0.00    -0.200 F 
ATOM     58  C   UNL A   1      38.929  35.095  38.809  1.00  0.00     0.200 A 
ATOM     59  F   UNL A   1      37.514  33.384  39.613  1.00  0.00    -0.200 F 
ATOM     60  F   UNL A   1      38.619  35.867  39.860  1.00  0.00    -0.200 F 
ENDBRANCH  26  50
BRANCH  38  61
ATOM     61  C   UNL A   1      43.979  28.384  34.824  1.00  0.00     0.064 A 
ATOM     62  C   UNL A   1      45.279  28.909  34.792  1.00  0.00     0.173 A 
ATOM     63  C   UNL A   1      43.745  27.245  35.607  1.00  0.00     0.173 A 
ATOM     64  F   UNL A   1      45.553  29.986  34.039  1.00  0.00    -0.203 F 
ATOM     65  C   UNL A   1      46.309  28.308  35.509  1.00  0.00     0.198 A 
ATOM     66  C   UNL A   1      44.771  26.663  36.346  1.00  0.00     0.198 A 
ATOM     67  F   UNL A   1      42.517  26.708  35.672  1.00  0.00    -0.203 F 
ATOM     68  F   UNL A   1      47.551  28.802  35.437  1.00  0.00    -0.200 F 
ATOM     69  C   UNL A   1      46.052  27.192  36.294  1.00  0.00     0.200 A 
ATOM     70  F   UNL A   1      44.519  25.592  37.112  1.00  0.00    -0.200 F 
ATOM     71  F   UNL A   1      47.041  26.623  36.995  1.00  0.00    -0.200 F 
ENDBRANCH  38  61
ENDBRANCH  12  13
ENDBRANCH   5   7
ENDBRANCH   2   3
ENDBRANCH   1   2
BRANCH   1  72
ATOM     72  C   UNL A   1      31.599  30.827  26.103  1.00  0.00     0.023 C 
BRANCH  72  73
ATOM     73  C   UNL A   1      32.331  29.864  27.026  1.00  0.00     0.116 C 
BRANCH  73  74
ATOM     74  N   UNL A   1      31.705  28.560  27.084  1.00  0.00    -0.351 N 
ATOM     75  C   UNL A   1      31.934  27.371  26.479  1.00  0.00     0.279 C 
ATOM     76  H   UNL A   1      30.940  28.531  27.704  1.00  0.00     0.163 HD
ATOM     77  O   UNL A   1      31.206  26.448  26.877  1.00  0.00    -0.268 OA
BRANCH  75  78
ATOM     78  C   UNL A   1      32.943  27.085  25.342  1.00  0.00     0.283 C 
ATOM     79  C   UNL A   1      33.763  28.182  24.701  1.00  0.00     0.151 C 
ATOM     80  N   UNL A   1      32.323  26.261  24.264  1.00  0.00    -0.321 N 
ATOM     81  S   UNL A   1      32.857  28.625  23.195  1.00  0.00    -0.088 SA
ATOM     82  C   UNL A   1      31.791  27.145  23.222  1.00  0.00     0.274 C 
ATOM     83  H   UNL A   1      31.564  25.703  24.655  1.00  0.00     0.348 HD
ATOM     84  H   UNL A   1      33.026  25.643  23.859  1.00  0.00     0.348 HD
BRANCH  82  85
ATOM     85  C   UNL A   1      30.304  27.456  23.355  1.00  0.00     0.027 A 
ATOM     86  C   UNL A   1      29.405  26.465  23.808  1.00  0.00     0.011 A 
ATOM     87  C   UNL A   1      29.774  28.728  23.055  1.00  0.00     0.096 A 
ATOM     88  C   UNL A   1      28.026  26.703  23.876  1.00  0.00     0.008 A 
ATOM     89  C   UNL A   1      28.391  28.952  23.096  1.00  0.00     0.269 A 
ATOM     90  C   UNL A   1      27.510  27.943  23.501  1.00  0.00     0.085 A 
BRANCH  89  91
ATOM     91  N   UNL A   1      27.852  30.236  22.636  1.00  0.00     0.062 N 
ATOM     92  O   UNL A   1      27.278  30.947  23.474  1.00  0.00    -0.258 OA
ATOM     93  O   UNL A   1      27.983  30.526  21.440  1.00  0.00    -0.258 OA
ENDBRANCH  89  91
ENDBRANCH  82  85
ENDBRANCH  75  78
ENDBRANCH  73  74
ENDBRANCH  72  73
ENDBRANCH   1  72
TORSDOF 13
ENDMDL
MODEL 2
REMARK VINA RESULT:     -12.6      0.075      1.613
REMARK SMILES O=C(NCCCCNC(=O)[C@@H]1CS[C@H](c2cccc([N+](=O)[O-])c2)[NH2+]1)c1ccc(-c2c3nc(c(-c4c(F)c(F)c(F)c(F)c4F)c4ccc([nH]4)c(-c4c(F)c(F)c(F)c(F)c4F)c4nc(c(-c5c(F)c(F)c(F)c(F)c5F)c5ccc2[nH]5)C=C4)C=C3)cc1
REMARK SMILES IDX 5 1 4 2 3 3 1 4 2 5 25 7 26 8 87 9 27 10 86 11 28 12 29 13
REMARK SMILES IDX 30 14 80 15 31 16 85 17 79 18 81 19 32 20 84 21 78 22 77 23
REMARK SMILES IDX 33 25 65 26 45 27 64 28 46 29 49 30 63 31 82 32 47 33 48 34
REMARK SMILES IDX 62 36 83 37 50 38 34 39 35 40 43 41 36 42 37 43 41 44 44 45
REMARK SMILES IDX 38 46 39 47 42 48 40 49 66 50 67 51 75 52 68 53 69 54 73 55
REMARK SMILES IDX 76 56 70 57 71 58 74 59 72 60 51 61 52 62 60 63 53 64 54 65
REMARK SMILES IDX 58 66 61 67 55 68 56 69 59 70 57 71 6 72 7 73 8 74 9 75
REMARK SMILES IDX 10 77 11 78 12 79 24 80 13 81 14 82 15 85 16 86 23 87 17 88
REMARK SMILES IDX 19 89 18 90 20 91 21 92 22 93
REMARK H PARENT 3 6 81 24 49 35 8 76 24 83 24 84
REMARK Flexibility Score: inf
ROOT
ATOM      1  C   UNL A   1      31.403  32.250  26.577  1.00  0.00     0.023 C 
ENDROOT
BRANCH   1   2
ATOM      2  C   UNL A   1      32.644  32.807  27.249  1.00  0.00     0.116 C 
BRANCH   2   3
ATOM      3  N   UNL A   1      32.475  34.202  27.645  1.00  0.00    -0.352 N 
ATOM      4  O   UNL A   1      32.688  35.996  29.005  1.00  0.00    -0.269 OA
ATOM      5  C   UNL A   1      33.089  34.890  28.659  1.00  0.00     0.251 C 
ATOM      6  H   UNL A   1      31.833  34.721  27.109  1.00  0.00     0.163 HD
BRANCH   5   7
ATOM      7  C   UNL A   1      34.238  34.264  29.330  1.00  0.00     0.039 A 
ATOM      8  C   UNL A   1      35.528  34.549  28.879  1.00  0.00     0.014 A 
ATOM      9  C   UNL A   1      34.022  33.362  30.372  1.00  0.00     0.014 A 
ATOM     10  C   UNL A   1      36.594  33.808  29.353  1.00  0.00     0.010 A 
ATOM     11  C   UNL A   1      35.115  32.704  30.934  1.00  0.00     0.010 A 
ATOM     12  C   UNL A   1      36.402  32.907  30.411  1.00  0.00    -0.014 A 
BRANCH  12  13
ATOM     13  C   UNL A   1      37.585  32.264  31.020  1.00  0.00     0.031 A 
ATOM     14  C   UNL A   1      38.339  31.190  30.302  1.00  0.00     0.074 A 
ATOM     15  C   UNL A   1      37.956  32.672  32.248  1.00  0.00     0.049 A 
ATOM     16  N   UNL A   1      39.345  30.469  30.726  1.00  0.00    -0.248 NA
ATOM     17  C   UNL A   1      37.901  30.869  28.936  1.00  0.00     0.031 C 
ATOM     18  C   UNL A   1      37.277  33.711  33.028  1.00  0.00     0.029 A 
ATOM     19  N   UNL A   1      38.987  32.273  33.055  1.00  0.00    -0.354 N 
ATOM     20  C   UNL A   1      39.639  29.588  29.696  1.00  0.00     0.074 A 
ATOM     21  C   UNL A   1      38.697  29.853  28.629  1.00  0.00     0.031 C 
ATOM     22  C   UNL A   1      37.923  33.887  34.186  1.00  0.00     0.029 A 
ATOM     23  C   UNL A   1      39.005  32.916  34.267  1.00  0.00     0.049 A 
ATOM     24  H   UNL A   1      39.649  31.592  32.792  1.00  0.00     0.167 HD
ATOM     25  C   UNL A   1      40.612  28.645  29.656  1.00  0.00     0.037 A 
ATOM     26  C   UNL A   1      39.777  32.714  35.348  1.00  0.00     0.037 A 
ATOM     27  C   UNL A   1      41.550  28.416  30.726  1.00  0.00     0.049 A 
ATOM     28  C   UNL A   1      40.831  31.652  35.286  1.00  0.00     0.074 A 
ATOM     29  C   UNL A   1      42.606  27.524  30.774  1.00  0.00     0.029 A 
ATOM     30  N   UNL A   1      41.535  29.083  31.945  1.00  0.00    -0.354 N 
ATOM     31  N   UNL A   1      41.121  30.839  34.299  1.00  0.00    -0.248 NA
ATOM     32  C   UNL A   1      41.660  31.473  36.482  1.00  0.00     0.031 C 
ATOM     33  C   UNL A   1      43.196  27.613  32.039  1.00  0.00     0.029 A 
ATOM     34  C   UNL A   1      42.545  28.600  32.762  1.00  0.00     0.049 A 
ATOM     35  H   UNL A   1      40.901  29.795  32.192  1.00  0.00     0.167 HD
ATOM     36  C   UNL A   1      42.173  30.058  34.746  1.00  0.00     0.074 A 
ATOM     37  C   UNL A   1      42.479  30.506  36.091  1.00  0.00     0.031 C 
ATOM     38  C   UNL A   1      42.825  29.061  34.101  1.00  0.00     0.037 A 
BRANCH  25  39
ATOM     39  C   UNL A   1      40.681  27.767  28.440  1.00  0.00     0.064 A 
ATOM     40  C   UNL A   1      41.430  28.120  27.306  1.00  0.00     0.173 A 
ATOM     41  C   UNL A   1      40.001  26.540  28.415  1.00  0.00     0.173 A 
ATOM     42  F   UNL A   1      42.093  29.286  27.272  1.00  0.00    -0.203 F 
ATOM     43  C   UNL A   1      41.463  27.296  26.183  1.00  0.00     0.198 A 
ATOM     44  C   UNL A   1      40.061  25.705  27.303  1.00  0.00     0.198 A 
ATOM     45  F   UNL A   1      39.276  26.148  29.473  1.00  0.00    -0.203 F 
ATOM     46  F   UNL A   1      42.141  27.681  25.092  1.00  0.00    -0.200 F 
ATOM     47  C   UNL A   1      40.784  26.088  26.183  1.00  0.00     0.200 A 
ATOM     48  F   UNL A   1      39.414  24.531  27.311  1.00  0.00    -0.200 F 
ATOM     49  F   UNL A   1      40.817  25.296  25.102  1.00  0.00    -0.200 F 
ENDBRANCH  25  39
BRANCH  26  50
ATOM     50  C   UNL A   1      39.535  33.526  36.566  1.00  0.00     0.064 A 
ATOM     51  C   UNL A   1      40.079  34.808  36.701  1.00  0.00     0.173 A 
ATOM     52  C   UNL A   1      38.679  33.065  37.579  1.00  0.00     0.173 A 
ATOM     53  F   UNL A   1      40.908  35.286  35.762  1.00  0.00    -0.203 F 
ATOM     54  C   UNL A   1      39.775  35.602  37.805  1.00  0.00     0.198 A 
ATOM     55  C   UNL A   1      38.353  33.871  38.667  1.00  0.00     0.198 A 
ATOM     56  F   UNL A   1      38.119  31.850  37.485  1.00  0.00    -0.203 F 
ATOM     57  F   UNL A   1      40.321  36.819  37.922  1.00  0.00    -0.200 F 
ATOM     58  C   UNL A   1      38.904  35.137  38.781  1.00  0.00     0.200 A 
ATOM     59  F   UNL A   1      37.490  33.428  39.592  1.00  0.00    -0.200 F 
ATOM     60  F   UNL A   1      38.592  35.913  39.828  1.00  0.00    -0.200 F 
ENDBRANCH  26  50
BRANCH  38  61
ATOM     61  C   UNL A   1      43.953  28.402  34.835  1.00  0.00     0.064 A 
ATOM     62  C   UNL A   1      43.754  27.238  35.593  1.00  0.00     0.173 A 
ATOM     63  C   UNL A   1      45.256  28.910  34.734  1.00  0.00     0.173 A 
ATOM     64  F   UNL A   1      42.522  26.728  35.736  1.00  0.00    -0.203 F 
ATOM     65  C   UNL A   1      44.821  26.615  36.235  1.00  0.00     0.198 A 
ATOM     66  C   UNL A   1      46.324  28.268  35.353  1.00  0.00     0.198 A 
ATOM     67  F   UNL A   1      45.496  30.019  34.018  1.00  0.00    -0.203 F 
ATOM     68  F   UNL A   1      44.605  25.526  36.984  1.00  0.00    -0.200 F 
ATOM     69  C   UNL A   1      46.106  27.124  36.106  1.00  0.00     0.200 A 
ATOM     70  F   UNL A   1      47.566  28.755  35.218  1.00  0.00    -0.200 F 
ATOM     71  F   UNL A   1      47.133  26.514  36.712  1.00  0.00    -0.200 F 
ENDBRANCH  38  61
ENDBRANCH  12  13
ENDBRANCH   5   7
ENDBRANCH   2   3
ENDBRANCH   1   2
BRANCH   1  72
ATOM     72  C   UNL A   1      31.581  30.824  26.073  1.00  0.00     0.023 C 
BRANCH  72  73
ATOM     73  C   UNL A   1      32.299  29.886  27.031  1.00  0.00     0.116 C 
BRANCH  73  74
ATOM     74  N   UNL A   1      31.688  28.575  27.093  1.00  0.00    -0.351 N 
ATOM     75  C   UNL A   1      31.933  27.386  26.494  1.00  0.00     0.279 C 
ATOM     76  H   UNL A   1      30.922  28.540  27.711  1.00  0.00     0.163 HD
ATOM     77  O   UNL A   1      31.215  26.456  26.895  1.00  0.00    -0.268 OA
BRANCH  75  78
ATOM     78  C   UNL A   1      32.948  27.106  25.361  1.00  0.00     0.283 C 
ATOM     79  C   UNL A   1      33.765  28.208  24.725  1.00  0.00     0.151 C 
ATOM     80  N   UNL A   1      32.337  26.281  24.279  1.00  0.00    -0.321 N 
ATOM     81  S   UNL A   1      32.864  28.649  23.216  1.00  0.00    -0.088 SA
ATOM     82  C   UNL A   1      31.805  27.164  23.236  1.00  0.00     0.274 C 
ATOM     83  H   UNL A   1      31.579  25.719  24.666  1.00  0.00     0.348 HD
ATOM     84  H   UNL A   1      33.045  25.667  23.877  1.00  0.00     0.348 HD
BRANCH  82  85
ATOM     85  C   UNL A   1      30.316  27.468  23.363  1.00  0.00     0.027 A 
ATOM     86  C   UNL A   1      29.420  26.473  23.814  1.00  0.00     0.011 A 
ATOM     87  C   UNL A   1      29.781  28.736  23.060  1.00  0.00     0.096 A 
ATOM     88  C   UNL A   1      28.041  26.704  23.876  1.00  0.00     0.008 A 
ATOM     89  C   UNL A   1      28.396  28.953  23.094  1.00  0.00     0.269 A 
ATOM     90  C   UNL A   1      27.520  27.940  23.497  1.00  0.00     0.085 A 
BRANCH  89  91
ATOM     91  N   UNL A   1      27.853  30.233  22.631  1.00  0.00     0.062 N 
ATOM     92  O   UNL A   1      27.278  30.946  23.468  1.00  0.00    -0.258 OA
ATOM     93  O   UNL A   1      27.982  30.520  21.434  1.00  0.00    -0.258 OA
ENDBRANCH  89  91
ENDBRANCH  82  85
ENDBRANCH  75  78
ENDBRANCH  73  74
ENDBRANCH  72  73
ENDBRANCH   1  72
TORSDOF 13
ENDMDL
MODEL 3
REMARK VINA RESULT:     -12.5      0.327      7.503
REMARK SMILES O=C(NCCCCNC(=O)[C@@H]1CS[C@H](c2cccc([N+](=O)[O-])c2)[NH2+]1)c1ccc(-c2c3nc(c(-c4c(F)c(F)c(F)c(F)c4F)c4ccc([nH]4)c(-c4c(F)c(F)c(F)c(F)c4F)c4nc(c(-c5c(F)c(F)c(F)c(F)c5F)c5ccc2[nH]5)C=C4)C=C3)cc1
REMARK SMILES IDX 5 1 4 2 3 3 1 4 2 5 25 7 26 8 87 9 27 10 86 11 28 12 29 13
REMARK SMILES IDX 30 14 80 15 31 16 85 17 79 18 81 19 32 20 84 21 78 22 77 23
REMARK SMILES IDX 33 25 65 26 45 27 64 28 46 29 49 30 63 31 82 32 47 33 48 34
REMARK SMILES IDX 62 36 83 37 50 38 34 39 35 40 43 41 36 42 37 43 41 44 44 45
REMARK SMILES IDX 38 46 39 47 42 48 40 49 66 50 67 51 75 52 68 53 69 54 73 55
REMARK SMILES IDX 76 56 70 57 71 58 74 59 72 60 51 61 52 62 60 63 53 64 54 65
REMARK SMILES IDX 58 66 61 67 55 68 56 69 59 70 57 71 6 72 7 73 8 74 9 75
REMARK SMILES IDX 10 77 11 78 12 79 24 80 13 81 14 82 15 85 16 86 23 87 17 88
REMARK SMILES IDX 19 89 18 90 20 91 21 92 22 93
REMARK H PARENT 3 6 81 24 49 35 8 76 24 83 24 84
REMARK Flexibility Score: inf
ROOT
ATOM      1  C   UNL A   1      31.390  32.306  26.680  1.00  0.00     0.023 C 
ENDROOT
BRANCH   1   2
ATOM      2  C   UNL A   1      32.668  32.878  27.267  1.00  0.00     0.116 C 
BRANCH   2   3
ATOM      3  N   UNL A   1      32.513  34.274  27.666  1.00  0.00    -0.352 N 
ATOM      4  O   UNL A   1      32.700  36.053  29.049  1.00  0.00    -0.269 OA
ATOM      5  C   UNL A   1      33.091  34.940  28.715  1.00  0.00     0.251 C 
ATOM      6  H   UNL A   1      31.910  34.812  27.103  1.00  0.00     0.163 HD
BRANCH   5   7
ATOM      7  C   UNL A   1      34.191  34.282  29.437  1.00  0.00     0.039 A 
ATOM      8  C   UNL A   1      35.507  34.527  29.043  1.00  0.00     0.014 A 
ATOM      9  C   UNL A   1      33.903  33.388  30.468  1.00  0.00     0.014 A 
ATOM     10  C   UNL A   1      36.529  33.756  29.564  1.00  0.00     0.010 A 
ATOM     11  C   UNL A   1      34.949  32.699  31.079  1.00  0.00     0.010 A 
ATOM     12  C   UNL A   1      36.264  32.864  30.613  1.00  0.00    -0.014 A 
BRANCH  12  13
ATOM     13  C   UNL A   1      37.399  32.187  31.275  1.00  0.00     0.031 A 
ATOM     14  C   UNL A   1      37.848  32.587  32.645  1.00  0.00     0.074 A 
ATOM     15  C   UNL A   1      38.020  31.202  30.600  1.00  0.00     0.049 A 
ATOM     16  N   UNL A   1      38.871  32.153  33.333  1.00  0.00    -0.248 NA
ATOM     17  C   UNL A   1      37.056  33.620  33.329  1.00  0.00     0.031 C 
ATOM     18  C   UNL A   1      37.655  30.747  29.255  1.00  0.00     0.029 A 
ATOM     19  N   UNL A   1      39.081  30.408  30.943  1.00  0.00    -0.354 N 
ATOM     20  C   UNL A   1      38.869  32.880  34.515  1.00  0.00     0.074 A 
ATOM     21  C   UNL A   1      37.749  33.796  34.446  1.00  0.00     0.031 C 
ATOM     22  C   UNL A   1      38.458  29.737  28.899  1.00  0.00     0.029 A 
ATOM     23  C   UNL A   1      39.445  29.535  29.949  1.00  0.00     0.049 A 
ATOM     24  H   UNL A   1      39.536  30.458  31.814  1.00  0.00     0.167 HD
ATOM     25  C   UNL A   1      39.730  32.784  35.556  1.00  0.00     0.037 A 
ATOM     26  C   UNL A   1      40.491  28.694  29.869  1.00  0.00     0.037 A 
ATOM     27  C   UNL A   1      40.826  31.849  35.605  1.00  0.00     0.049 A 
ATOM     28  C   UNL A   1      41.440  28.622  31.024  1.00  0.00     0.074 A 
ATOM     29  C   UNL A   1      41.730  31.629  36.630  1.00  0.00     0.029 A 
ATOM     30  N   UNL A   1      41.171  30.981  34.577  1.00  0.00    -0.354 N 
ATOM     31  N   UNL A   1      41.417  29.294  32.149  1.00  0.00    -0.248 NA
ATOM     32  C   UNL A   1      42.561  27.684  30.902  1.00  0.00     0.031 C 
ATOM     33  C   UNL A   1      42.652  30.670  36.200  1.00  0.00     0.029 A 
ATOM     34  C   UNL A   1      42.292  30.248  34.930  1.00  0.00     0.049 A 
ATOM     35  H   UNL A   1      40.688  30.900  33.722  1.00  0.00     0.167 HD
ATOM     36  C   UNL A   1      42.510  28.855  32.877  1.00  0.00     0.074 A 
ATOM     37  C   UNL A   1      43.168  27.846  32.069  1.00  0.00     0.031 C 
ATOM     38  C   UNL A   1      42.930  29.252  34.103  1.00  0.00     0.037 A 
BRANCH  25  39
ATOM     39  C   UNL A   1      39.549  33.739  36.701  1.00  0.00     0.064 A 
ATOM     40  C   UNL A   1      40.122  35.020  36.701  1.00  0.00     0.173 A 
ATOM     41  C   UNL A   1      38.773  33.371  37.811  1.00  0.00     0.173 A 
ATOM     42  F   UNL A   1      40.881  35.421  35.670  1.00  0.00    -0.203 F 
ATOM     43  C   UNL A   1      39.953  35.881  37.784  1.00  0.00     0.198 A 
ATOM     44  C   UNL A   1      38.582  34.245  38.878  1.00  0.00     0.198 A 
ATOM     45  F   UNL A   1      38.196  32.161  37.861  1.00  0.00    -0.203 F 
ATOM     46  F   UNL A   1      40.555  37.079  37.785  1.00  0.00    -0.200 F 
ATOM     47  C   UNL A   1      39.181  35.496  38.868  1.00  0.00     0.200 A 
ATOM     48  F   UNL A   1      37.824  33.875  39.919  1.00  0.00    -0.200 F 
ATOM     49  F   UNL A   1      39.020  36.325  39.909  1.00  0.00    -0.200 F 
ENDBRANCH  25  39
BRANCH  26  50
ATOM     50  C   UNL A   1      40.681  27.899  28.630  1.00  0.00     0.064 A 
ATOM     51  C   UNL A   1      40.043  26.666  28.458  1.00  0.00     0.173 A 
ATOM     52  C   UNL A   1      41.435  28.405  27.559  1.00  0.00     0.173 A 
ATOM     53  F   UNL A   1      39.319  26.141  29.457  1.00  0.00    -0.203 F 
ATOM     54  C   UNL A   1      40.152  25.965  27.258  1.00  0.00     0.198 A 
ATOM     55  C   UNL A   1      41.518  27.718  26.351  1.00  0.00     0.198 A 
ATOM     56  F   UNL A   1      42.049  29.592  27.670  1.00  0.00    -0.203 F 
ATOM     57  F   UNL A   1      39.547  24.778  27.122  1.00  0.00    -0.200 F 
ATOM     58  C   UNL A   1      40.880  26.497  26.203  1.00  0.00     0.200 A 
ATOM     59  F   UNL A   1      42.199  28.249  25.326  1.00  0.00    -0.200 F 
ATOM     60  F   UNL A   1      40.960  25.834  25.041  1.00  0.00    -0.200 F 
ENDBRANCH  26  50
BRANCH  38  61
ATOM     61  C   UNL A   1      44.147  28.574  34.655  1.00  0.00     0.064 A 
ATOM     62  C   UNL A   1      45.430  29.113  34.480  1.00  0.00     0.173 A 
ATOM     63  C   UNL A   1      44.021  27.401  35.415  1.00  0.00     0.173 A 
ATOM     64  F   UNL A   1      45.602  30.221  33.743  1.00  0.00    -0.203 F 
ATOM     65  C   UNL A   1      46.546  28.493  35.035  1.00  0.00     0.198 A 
ATOM     66  C   UNL A   1      45.135  26.800  35.993  1.00  0.00     0.198 A 
ATOM     67  F   UNL A   1      42.814  26.850  35.613  1.00  0.00    -0.203 F 
ATOM     68  F   UNL A   1      47.767  29.002  34.826  1.00  0.00    -0.200 F 
ATOM     69  C   UNL A   1      46.396  27.344  35.799  1.00  0.00     0.200 A 
ATOM     70  F   UNL A   1      44.987  25.697  36.739  1.00  0.00    -0.200 F 
ATOM     71  F   UNL A   1      47.469  26.757  36.345  1.00  0.00    -0.200 F 
ENDBRANCH  38  61
ENDBRANCH  12  13
ENDBRANCH   5   7
ENDBRANCH   2   3
ENDBRANCH   1   2
BRANCH   1  72
ATOM     72  C   UNL A   1      31.559  30.896  26.133  1.00  0.00     0.023 C 
BRANCH  72  73
ATOM     73  C   UNL A   1      32.277  29.925  27.059  1.00  0.00     0.116 C 
BRANCH  73  74
ATOM     74  N   UNL A   1      31.652  28.620  27.093  1.00  0.00    -0.351 N 
ATOM     75  C   UNL A   1      31.893  27.437  26.480  1.00  0.00     0.279 C 
ATOM     76  H   UNL A   1      30.877  28.584  27.700  1.00  0.00     0.163 HD
ATOM     77  O   UNL A   1      31.161  26.509  26.857  1.00  0.00    -0.268 OA
BRANCH  75  78
ATOM     78  C   UNL A   1      32.921  27.164  25.357  1.00  0.00     0.283 C 
ATOM     79  C   UNL A   1      33.737  28.271  24.728  1.00  0.00     0.151 C 
ATOM     80  N   UNL A   1      32.325  26.336  24.268  1.00  0.00    -0.321 N 
ATOM     81  S   UNL A   1      32.847  28.707  23.211  1.00  0.00    -0.088 SA
ATOM     82  C   UNL A   1      31.798  27.215  23.221  1.00  0.00     0.274 C 
ATOM     83  H   UNL A   1      31.567  25.768  24.648  1.00  0.00     0.348 HD
ATOM     84  H   UNL A   1      33.041  25.726  23.873  1.00  0.00     0.348 HD
BRANCH  82  85
ATOM     85  C   UNL A   1      30.306  27.509  23.334  1.00  0.00     0.027 A 
ATOM     86  C   UNL A   1      29.418  26.522  23.815  1.00  0.00     0.011 A 
ATOM     87  C   UNL A   1      29.760  28.762  22.987  1.00  0.00     0.096 A 
ATOM     88  C   UNL A   1      28.036  26.742  23.866  1.00  0.00     0.008 A 
ATOM     89  C   UNL A   1      28.373  28.968  23.011  1.00  0.00     0.269 A 
ATOM     90  C   UNL A   1      27.505  27.960  23.445  1.00  0.00     0.085 A 
BRANCH  89  91
ATOM     91  N   UNL A   1      27.820  30.227  22.503  1.00  0.00     0.062 N 
ATOM     92  O   UNL A   1      27.241  30.963  23.316  1.00  0.00    -0.258 OA
ATOM     93  O   UNL A   1      27.945  30.472  21.297  1.00  0.00    -0.258 OA
ENDBRANCH  89  91
ENDBRANCH  82  85
ENDBRANCH  75  78
ENDBRANCH  73  74
ENDBRANCH  72  73
ENDBRANCH   1  72
TORSDOF 13
ENDMDL
