MODEL 1
REMARK VINA RESULT:     -11.6      0.000      0.000
REMARK SMILES COC(=O)Cc1nc(NC(=O)[C@H]2CC[C@@H]2C(=O)NCCCCNC(=O)c2ccc(-c3c4nc(c(-c5c(F)c(F)c(F)c(F)c5F)c5ccc([nH]5)c(-c5c(F)c(F)c(F)c(F)c5F)c5nc(c(-c6c(F)c(F)c(F)c(F)c6F)c6ccc3[nH]6)C=C5)C=C4)cc2)sc1C
REMARK SMILES IDX 19 1 18 2 16 3 17 4 15 6 12 7 13 8 14 9 10 10 9 11 11 13
REMARK SMILES IDX 8 14 6 15 7 16 90 17 89 18 91 19 5 20 3 21 4 22 2 23 1 24
REMARK SMILES IDX 20 25 21 26 22 27 23 28 24 29 25 31 26 32 27 33 88 34 28 35
REMARK SMILES IDX 87 36 29 37 30 38 31 39 81 40 32 41 86 42 80 43 82 44 33 45
REMARK SMILES IDX 85 46 79 47 78 48 34 50 66 51 46 52 65 53 47 54 50 55 64 56
REMARK SMILES IDX 83 57 48 58 49 59 63 61 84 62 51 63 35 64 36 65 44 66 37 67
REMARK SMILES IDX 38 68 42 69 45 70 39 71 40 72 43 73 41 74 67 75 68 76 76 77
REMARK SMILES IDX 69 78 70 79 74 80 77 81 71 82 72 83 75 84 73 85 52 86 53 87
REMARK SMILES IDX 61 88 54 89 55 90 59 91 62 92 56 93 57 94 60 95 58 96
REMARK H PARENT 18 5 9 12 23 30 82 49 50 60
REMARK Flexibility Score: inf
ROOT
ATOM      1  C   UNL A   1      34.428  28.915  26.636  1.00  0.00     0.116 C 
ENDROOT
BRANCH   1   2
ATOM      2  N   UNL A   1      33.144  28.263  26.783  1.00  0.00    -0.356 N 
ATOM      3  C   UNL A   1      32.724  26.997  26.416  1.00  0.00     0.223 C 
ATOM      4  O   UNL A   1      31.600  26.681  26.835  1.00  0.00    -0.275 OA
ATOM      5  H   UNL A   1      32.453  28.814  27.218  1.00  0.00     0.163 HD
BRANCH   3   6
ATOM      6  C   UNL A   1      33.577  26.040  25.529  1.00  0.00     0.091 C 
ATOM      7  C   UNL A   1      32.917  25.323  24.324  1.00  0.00     0.091 C 
ATOM      8  C   UNL A   1      33.246  23.957  25.001  1.00  0.00     0.015 C 
ATOM      9  C   UNL A   1      34.013  24.681  26.105  1.00  0.00     0.015 C 
BRANCH   7  10
ATOM     10  C   UNL A   1      33.493  25.452  22.871  1.00  0.00     0.230 C 
ATOM     11  N   UNL A   1      32.921  26.382  22.009  1.00  0.00    -0.302 N 
ATOM     12  H   UNL A   1      33.184  26.330  21.061  1.00  0.00     0.172 HD
ATOM     13  O   UNL A   1      34.338  24.681  22.402  1.00  0.00    -0.274 OA
BRANCH  11  14
ATOM     14  C   UNL A   1      32.027  27.362  22.350  1.00  0.00     0.189 A 
ATOM     15  C   UNL A   1      30.134  28.293  22.996  1.00  0.00     0.068 A 
ATOM     16  N   UNL A   1      30.723  27.288  22.218  1.00  0.00    -0.224 NA
ATOM     17  C   UNL A   1      31.058  29.065  23.689  1.00  0.00     0.027 A 
ATOM     18  S   UNL A   1      32.576  28.871  22.927  1.00  0.00    -0.102 S 
ATOM     19  C   UNL A   1      30.936  29.988  24.845  1.00  0.00     0.058 C 
BRANCH  15  20
ATOM     20  C   UNL A   1      28.643  28.372  23.082  1.00  0.00     0.180 C 
BRANCH  20  21
ATOM     21  C   UNL A   1      28.131  29.565  22.305  1.00  0.00     0.311 C 
ATOM     22  O   UNL A   1      28.547  29.923  21.212  1.00  0.00    -0.252 OA
BRANCH  21  23
ATOM     23  O   UNL A   1      27.194  30.236  23.037  1.00  0.00    -0.469 OA
ATOM     24  C   UNL A   1      27.617  31.497  23.559  1.00  0.00     0.282 C 
ENDBRANCH  21  23
ENDBRANCH  20  21
ENDBRANCH  15  20
ENDBRANCH  11  14
ENDBRANCH   7  10
ENDBRANCH   3   6
ENDBRANCH   1   2
BRANCH   1  25
ATOM     25  C   UNL A   1      34.697  30.017  27.656  1.00  0.00     0.023 C 
BRANCH  25  26
ATOM     26  C   UNL A   1      34.240  31.418  27.263  1.00  0.00     0.023 C 
BRANCH  26  27
ATOM     27  C   UNL A   1      32.806  31.775  27.636  1.00  0.00     0.116 C 
BRANCH  27  28
ATOM     28  N   UNL A   1      32.539  33.209  27.644  1.00  0.00    -0.352 N 
ATOM     29  C   UNL A   1      33.162  34.214  28.349  1.00  0.00     0.251 C 
ATOM     30  H   UNL A   1      31.804  33.501  27.058  1.00  0.00     0.163 HD
ATOM     31  O   UNL A   1      32.740  35.365  28.285  1.00  0.00    -0.269 OA
BRANCH  29  32
ATOM     32  C   UNL A   1      34.313  33.893  29.220  1.00  0.00     0.039 A 
ATOM     33  C   UNL A   1      34.100  33.141  30.377  1.00  0.00     0.014 A 
ATOM     34  C   UNL A   1      35.606  34.280  28.860  1.00  0.00     0.014 A 
ATOM     35  C   UNL A   1      35.196  32.684  31.114  1.00  0.00     0.010 A 
ATOM     36  C   UNL A   1      36.694  33.746  29.539  1.00  0.00     0.010 A 
ATOM     37  C   UNL A   1      36.503  32.933  30.668  1.00  0.00    -0.014 A 
BRANCH  37  38
ATOM     38  C   UNL A   1      37.687  32.350  31.351  1.00  0.00     0.031 A 
ATOM     39  C   UNL A   1      38.427  31.201  30.724  1.00  0.00     0.074 A 
ATOM     40  C   UNL A   1      38.039  32.788  32.577  1.00  0.00     0.049 A 
ATOM     41  N   UNL A   1      39.407  30.481  31.209  1.00  0.00    -0.248 NA
ATOM     42  C   UNL A   1      37.982  30.784  29.385  1.00  0.00     0.031 C 
ATOM     43  C   UNL A   1      37.365  33.853  33.322  1.00  0.00     0.029 A 
ATOM     44  N   UNL A   1      39.040  32.376  33.422  1.00  0.00    -0.354 N 
ATOM     45  C   UNL A   1      39.678  29.518  30.247  1.00  0.00     0.074 A 
ATOM     46  C   UNL A   1      38.722  29.705  29.178  1.00  0.00     0.031 C 
ATOM     47  C   UNL A   1      37.984  34.025  34.501  1.00  0.00     0.029 A 
ATOM     48  C   UNL A   1      39.071  33.056  34.615  1.00  0.00     0.049 A 
ATOM     49  H   UNL A   1      39.677  31.661  33.194  1.00  0.00     0.167 HD
ATOM     50  C   UNL A   1      40.655  28.579  30.241  1.00  0.00     0.037 A 
ATOM     51  C   UNL A   1      39.876  32.910  35.685  1.00  0.00     0.037 A 
ATOM     52  C   UNL A   1      41.625  28.414  31.290  1.00  0.00     0.049 A 
ATOM     53  C   UNL A   1      40.958  31.864  35.651  1.00  0.00     0.074 A 
ATOM     54  C   UNL A   1      42.691  27.534  31.350  1.00  0.00     0.029 A 
ATOM     55  N   UNL A   1      41.645  29.148  32.467  1.00  0.00    -0.354 N 
ATOM     56  N   UNL A   1      41.249  31.004  34.705  1.00  0.00    -0.248 NA
ATOM     57  C   UNL A   1      41.828  31.772  36.833  1.00  0.00     0.031 C 
ATOM     58  C   UNL A   1      43.331  27.706  32.581  1.00  0.00     0.029 A 
ATOM     59  C   UNL A   1      42.695  28.729  33.267  1.00  0.00     0.049 A 
ATOM     60  H   UNL A   1      41.008  29.861  32.700  1.00  0.00     0.167 HD
ATOM     61  C   UNL A   1      42.348  30.291  35.163  1.00  0.00     0.074 A 
ATOM     62  C   UNL A   1      42.682  30.827  36.465  1.00  0.00     0.031 C 
ATOM     63  C   UNL A   1      43.021  29.281  34.557  1.00  0.00     0.037 A 
BRANCH  50  64
ATOM     64  C   UNL A   1      40.727  27.665  29.050  1.00  0.00     0.064 A 
ATOM     65  C   UNL A   1      41.634  27.893  28.004  1.00  0.00     0.173 A 
ATOM     66  C   UNL A   1      39.897  26.537  28.965  1.00  0.00     0.173 A 
ATOM     67  F   UNL A   1      42.441  28.965  28.030  1.00  0.00    -0.203 F 
ATOM     68  C   UNL A   1      41.683  27.045  26.901  1.00  0.00     0.198 A 
ATOM     69  C   UNL A   1      39.972  25.674  27.876  1.00  0.00     0.198 A 
ATOM     70  F   UNL A   1      39.016  26.270  29.941  1.00  0.00    -0.203 F 
ATOM     71  F   UNL A   1      42.518  27.316  25.888  1.00  0.00    -0.200 F 
ATOM     72  C   UNL A   1      40.858  25.933  26.841  1.00  0.00     0.200 A 
ATOM     73  F   UNL A   1      39.183  24.591  27.825  1.00  0.00    -0.200 F 
ATOM     74  F   UNL A   1      40.909  25.116  25.780  1.00  0.00    -0.200 F 
ENDBRANCH  50  64
BRANCH  51  75
ATOM     75  C   UNL A   1      39.708  33.792  36.869  1.00  0.00     0.064 A 
ATOM     76  C   UNL A   1      40.410  35.001  36.971  1.00  0.00     0.173 A 
ATOM     77  C   UNL A   1      38.848  33.447  37.923  1.00  0.00     0.173 A 
ATOM     78  F   UNL A   1      41.258  35.365  35.998  1.00  0.00    -0.203 F 
ATOM     79  C   UNL A   1      40.275  35.821  38.089  1.00  0.00     0.198 A 
ATOM     80  C   UNL A   1      38.693  34.281  39.028  1.00  0.00     0.198 A 
ATOM     81  F   UNL A   1      38.149  32.303  37.873  1.00  0.00    -0.203 F 
ATOM     82  F   UNL A   1      40.993  36.950  38.180  1.00  0.00    -0.200 F 
ATOM     83  C   UNL A   1      39.412  35.464  39.115  1.00  0.00     0.200 A 
ATOM     84  F   UNL A   1      37.847  33.940  40.009  1.00  0.00    -0.200 F 
ATOM     85  F   UNL A   1      39.280  36.255  40.187  1.00  0.00    -0.200 F 
ENDBRANCH  51  75
BRANCH  63  86
ATOM     86  C   UNL A   1      44.209  28.714  35.279  1.00  0.00     0.064 A 
ATOM     87  C   UNL A   1      44.084  27.639  36.170  1.00  0.00     0.173 A 
ATOM     88  C   UNL A   1      45.494  29.223  35.035  1.00  0.00     0.173 A 
ATOM     89  F   UNL A   1      42.876  27.126  36.446  1.00  0.00    -0.203 F 
ATOM     90  C   UNL A   1      45.202  27.108  36.808  1.00  0.00     0.198 A 
ATOM     91  C   UNL A   1      46.611  28.670  35.653  1.00  0.00     0.198 A 
ATOM     92  F   UNL A   1      45.666  30.247  34.186  1.00  0.00    -0.203 F 
ATOM     93  F   UNL A   1      45.056  26.109  37.690  1.00  0.00    -0.200 F 
ATOM     94  C   UNL A   1      46.465  27.618  36.543  1.00  0.00     0.200 A 
ATOM     95  F   UNL A   1      47.832  29.155  35.386  1.00  0.00    -0.200 F 
ATOM     96  F   UNL A   1      47.539  27.098  37.152  1.00  0.00    -0.200 F 
ENDBRANCH  63  86
ENDBRANCH  37  38
ENDBRANCH  29  32
ENDBRANCH  27  28
ENDBRANCH  26  27
ENDBRANCH  25  26
ENDBRANCH   1  25
TORSDOF 16
ENDMDL
MODEL 2
REMARK VINA RESULT:     -11.5      5.989     11.425
REMARK SMILES COC(=O)Cc1nc(NC(=O)[C@H]2CC[C@@H]2C(=O)NCCCCNC(=O)c2ccc(-c3c4nc(c(-c5c(F)c(F)c(F)c(F)c5F)c5ccc([nH]5)c(-c5c(F)c(F)c(F)c(F)c5F)c5nc(c(-c6c(F)c(F)c(F)c(F)c6F)c6ccc3[nH]6)C=C5)C=C4)cc2)sc1C
REMARK SMILES IDX 19 1 18 2 16 3 17 4 15 6 12 7 13 8 14 9 10 10 9 11 11 13
REMARK SMILES IDX 8 14 6 15 7 16 90 17 89 18 91 19 5 20 3 21 4 22 2 23 1 24
REMARK SMILES IDX 20 25 21 26 22 27 23 28 24 29 25 31 26 32 27 33 88 34 28 35
REMARK SMILES IDX 87 36 29 37 30 38 31 39 81 40 32 41 86 42 80 43 82 44 33 45
REMARK SMILES IDX 85 46 79 47 78 48 34 50 66 51 46 52 65 53 47 54 50 55 64 56
REMARK SMILES IDX 83 57 48 58 49 59 63 61 84 62 51 63 35 64 36 65 44 66 37 67
REMARK SMILES IDX 38 68 42 69 45 70 39 71 40 72 43 73 41 74 67 75 68 76 76 77
REMARK SMILES IDX 69 78 70 79 74 80 77 81 71 82 72 83 75 84 73 85 52 86 53 87
REMARK SMILES IDX 61 88 54 89 55 90 59 91 62 92 56 93 57 94 60 95 58 96
REMARK H PARENT 18 5 9 12 23 30 82 49 50 60
REMARK Flexibility Score: inf
ROOT
ATOM      1  C   UNL A   1      36.351  22.122  24.783  1.00  0.00     0.116 C 
ENDROOT
BRANCH   1   2
ATOM      2  N   UNL A   1      35.654  22.867  23.755  1.00  0.00    -0.356 N 
ATOM      3  C   UNL A   1      34.697  23.861  23.848  1.00  0.00     0.223 C 
ATOM      4  O   UNL A   1      34.418  24.415  22.774  1.00  0.00    -0.275 OA
ATOM      5  H   UNL A   1      35.904  22.624  22.834  1.00  0.00     0.163 HD
BRANCH   3   6
ATOM      6  C   UNL A   1      34.000  24.251  25.187  1.00  0.00     0.091 C 
ATOM      7  C   UNL A   1      32.483  23.991  25.364  1.00  0.00     0.091 C 
ATOM      8  C   UNL A   1      32.277  25.526  25.547  1.00  0.00     0.015 C 
ATOM      9  C   UNL A   1      33.788  25.740  25.511  1.00  0.00     0.015 C 
BRANCH   7  10
ATOM     10  C   UNL A   1      31.925  23.141  26.558  1.00  0.00     0.230 C 
ATOM     11  N   UNL A   1      31.917  21.755  26.442  1.00  0.00    -0.302 N 
ATOM     12  H   UNL A   1      31.415  21.254  27.125  1.00  0.00     0.172 HD
ATOM     13  O   UNL A   1      31.365  23.636  27.544  1.00  0.00    -0.274 OA
BRANCH  11  14
ATOM     14  C   UNL A   1      32.540  21.020  25.469  1.00  0.00     0.189 A 
ATOM     15  C   UNL A   1      33.698  19.387  24.541  1.00  0.00     0.068 A 
ATOM     16  N   UNL A   1      33.578  20.236  25.649  1.00  0.00    -0.224 NA
ATOM     17  C   UNL A   1      32.709  19.585  23.585  1.00  0.00     0.027 A 
ATOM     18  S   UNL A   1      32.041  21.138  23.841  1.00  0.00    -0.102 S 
ATOM     19  C   UNL A   1      32.224  18.762  22.450  1.00  0.00     0.058 C 
BRANCH  15  20
ATOM     20  C   UNL A   1      34.761  18.334  24.538  1.00  0.00     0.180 C 
BRANCH  20  21
ATOM     21  C   UNL A   1      34.138  16.955  24.532  1.00  0.00     0.311 C 
ATOM     22  O   UNL A   1      34.273  16.127  23.642  1.00  0.00    -0.252 OA
BRANCH  21  23
ATOM     23  O   UNL A   1      33.336  16.796  25.625  1.00  0.00    -0.469 OA
ATOM     24  C   UNL A   1      32.547  15.604  25.634  1.00  0.00     0.282 C 
ENDBRANCH  21  23
ENDBRANCH  20  21
ENDBRANCH  15  20
ENDBRANCH  11  14
ENDBRANCH   7  10
ENDBRANCH   3   6
ENDBRANCH   1   2
BRANCH   1  25
ATOM     25  C   UNL A   1      37.490  21.249  24.267  1.00  0.00     0.023 C 
BRANCH  25  26
ATOM     26  C   UNL A   1      37.980  20.161  25.217  1.00  0.00     0.023 C 
BRANCH  26  27
ATOM     27  C   UNL A   1      39.312  20.435  25.907  1.00  0.00     0.116 C 
BRANCH  27  28
ATOM     28  N   UNL A   1      40.211  19.287  25.926  1.00  0.00    -0.352 N 
ATOM     29  C   UNL A   1      41.570  19.239  26.148  1.00  0.00     0.251 C 
ATOM     30  H   UNL A   1      39.784  18.418  25.756  1.00  0.00     0.163 HD
ATOM     31  O   UNL A   1      42.175  18.176  26.044  1.00  0.00    -0.269 OA
BRANCH  29  32
ATOM     32  C   UNL A   1      42.304  20.483  26.464  1.00  0.00     0.039 A 
ATOM     33  C   UNL A   1      42.857  21.230  25.422  1.00  0.00     0.014 A 
ATOM     34  C   UNL A   1      42.391  20.942  27.780  1.00  0.00     0.014 A 
ATOM     35  C   UNL A   1      43.401  22.490  25.687  1.00  0.00     0.010 A 
ATOM     36  C   UNL A   1      42.844  22.232  28.028  1.00  0.00     0.010 A 
ATOM     37  C   UNL A   1      43.344  23.025  26.983  1.00  0.00    -0.014 A 
BRANCH  37  38
ATOM     38  C   UNL A   1      43.790  24.413  27.275  1.00  0.00     0.031 A 
ATOM     39  C   UNL A   1      42.804  25.428  27.784  1.00  0.00     0.074 A 
ATOM     40  C   UNL A   1      45.055  24.786  26.992  1.00  0.00     0.049 A 
ATOM     41  N   UNL A   1      42.965  26.711  27.989  1.00  0.00    -0.248 NA
ATOM     42  C   UNL A   1      41.445  24.940  28.068  1.00  0.00     0.031 C 
ATOM     43  C   UNL A   1      46.091  23.915  26.437  1.00  0.00     0.029 A 
ATOM     44  N   UNL A   1      45.678  26.004  27.116  1.00  0.00    -0.354 N 
ATOM     45  C   UNL A   1      41.727  27.183  28.403  1.00  0.00     0.074 A 
ATOM     46  C   UNL A   1      40.810  26.064  28.363  1.00  0.00     0.031 C 
ATOM     47  C   UNL A   1      47.225  24.619  26.288  1.00  0.00     0.029 A 
ATOM     48  C   UNL A   1      46.986  26.000  26.697  1.00  0.00     0.049 A 
ATOM     49  H   UNL A   1      45.229  26.804  27.472  1.00  0.00     0.167 HD
ATOM     50  C   UNL A   1      41.389  28.431  28.810  1.00  0.00     0.037 A 
ATOM     51  C   UNL A   1      47.888  26.998  26.639  1.00  0.00     0.037 A 
ATOM     52  C   UNL A   1      42.309  29.535  28.879  1.00  0.00     0.049 A 
ATOM     53  C   UNL A   1      47.491  28.375  27.101  1.00  0.00     0.074 A 
ATOM     54  C   UNL A   1      42.080  30.821  29.334  1.00  0.00     0.029 A 
ATOM     55  N   UNL A   1      43.636  29.481  28.480  1.00  0.00    -0.354 N 
ATOM     56  N   UNL A   1      46.336  28.793  27.558  1.00  0.00    -0.248 NA
ATOM     57  C   UNL A   1      48.527  29.417  27.046  1.00  0.00     0.031 C 
ATOM     58  C   UNL A   1      43.257  31.558  29.172  1.00  0.00     0.029 A 
ATOM     59  C   UNL A   1      44.235  30.717  28.663  1.00  0.00     0.049 A 
ATOM     60  H   UNL A   1      44.087  28.683  28.120  1.00  0.00     0.167 HD
ATOM     61  C   UNL A   1      46.512  30.135  27.869  1.00  0.00     0.074 A 
ATOM     62  C   UNL A   1      47.889  30.458  27.565  1.00  0.00     0.031 C 
ATOM     63  C   UNL A   1      45.611  31.019  28.365  1.00  0.00     0.037 A 
BRANCH  50  64
ATOM     64  C   UNL A   1      39.963  28.661  29.222  1.00  0.00     0.064 A 
ATOM     65  C   UNL A   1      38.997  29.106  28.307  1.00  0.00     0.173 A 
ATOM     66  C   UNL A   1      39.552  28.412  30.540  1.00  0.00     0.173 A 
ATOM     67  F   UNL A   1      39.341  29.371  27.038  1.00  0.00    -0.203 F 
ATOM     68  C   UNL A   1      37.681  29.327  28.704  1.00  0.00     0.198 A 
ATOM     69  C   UNL A   1      38.228  28.603  30.925  1.00  0.00     0.198 A 
ATOM     70  F   UNL A   1      40.434  27.980  31.455  1.00  0.00    -0.203 F 
ATOM     71  F   UNL A   1      36.790  29.807  27.825  1.00  0.00    -0.200 F 
ATOM     72  C   UNL A   1      37.296  29.068  30.010  1.00  0.00     0.200 A 
ATOM     73  F   UNL A   1      37.854  28.340  32.186  1.00  0.00    -0.200 F 
ATOM     74  F   UNL A   1      36.028  29.278  30.390  1.00  0.00    -0.200 F 
ENDBRANCH  50  64
BRANCH  51  75
ATOM     75  C   UNL A   1      49.265  26.730  26.147  1.00  0.00     0.064 A 
ATOM     76  C   UNL A   1      50.250  26.223  27.006  1.00  0.00     0.173 A 
ATOM     77  C   UNL A   1      49.626  26.974  24.814  1.00  0.00     0.173 A 
ATOM     78  F   UNL A   1      49.958  25.991  28.294  1.00  0.00    -0.203 F 
ATOM     79  C   UNL A   1      51.548  25.991  26.558  1.00  0.00     0.198 A 
ATOM     80  C   UNL A   1      50.918  26.716  24.359  1.00  0.00     0.198 A 
ATOM     81  F   UNL A   1      48.720  27.454  23.949  1.00  0.00    -0.203 F 
ATOM     82  F   UNL A   1      52.481  25.548  27.413  1.00  0.00    -0.200 F 
ATOM     83  C   UNL A   1      51.880  26.232  25.232  1.00  0.00     0.200 A 
ATOM     84  F   UNL A   1      51.230  26.935  23.075  1.00  0.00    -0.200 F 
ATOM     85  F   UNL A   1      53.127  26.004  24.801  1.00  0.00    -0.200 F 
ENDBRANCH  51  75
BRANCH  63  86
ATOM     86  C   UNL A   1      46.095  32.412  28.643  1.00  0.00     0.064 A 
ATOM     87  C   UNL A   1      46.006  33.429  27.682  1.00  0.00     0.173 A 
ATOM     88  C   UNL A   1      46.609  32.744  29.907  1.00  0.00     0.173 A 
ATOM     89  F   UNL A   1      45.536  33.159  26.454  1.00  0.00    -0.203 F 
ATOM     90  C   UNL A   1      46.435  34.722  27.968  1.00  0.00     0.198 A 
ATOM     91  C   UNL A   1      47.009  34.044  30.198  1.00  0.00     0.198 A 
ATOM     92  F   UNL A   1      46.708  31.808  30.863  1.00  0.00    -0.203 F 
ATOM     93  F   UNL A   1      46.383  35.669  27.020  1.00  0.00    -0.200 F 
ATOM     94  C   UNL A   1      46.927  35.031  29.228  1.00  0.00     0.200 A 
ATOM     95  F   UNL A   1      47.472  34.343  31.420  1.00  0.00    -0.200 F 
ATOM     96  F   UNL A   1      47.330  36.279  29.504  1.00  0.00    -0.200 F 
ENDBRANCH  63  86
ENDBRANCH  37  38
ENDBRANCH  29  32
ENDBRANCH  27  28
ENDBRANCH  26  27
ENDBRANCH  25  26
ENDBRANCH   1  25
TORSDOF 16
ENDMDL
MODEL 3
REMARK VINA RESULT:     -11.5      1.014      2.040
REMARK SMILES COC(=O)Cc1nc(NC(=O)[C@H]2CC[C@@H]2C(=O)NCCCCNC(=O)c2ccc(-c3c4nc(c(-c5c(F)c(F)c(F)c(F)c5F)c5ccc([nH]5)c(-c5c(F)c(F)c(F)c(F)c5F)c5nc(c(-c6c(F)c(F)c(F)c(F)c6F)c6ccc3[nH]6)C=C5)C=C4)cc2)sc1C
REMARK SMILES IDX 19 1 18 2 16 3 17 4 15 6 12 7 13 8 14 9 10 10 9 11 11 13
REMARK SMILES IDX 8 14 6 15 7 16 90 17 89 18 91 19 5 20 3 21 4 22 2 23 1 24
REMARK SMILES IDX 20 25 21 26 22 27 23 28 24 29 25 31 26 32 27 33 88 34 28 35
REMARK SMILES IDX 87 36 29 37 30 38 31 39 81 40 32 41 86 42 80 43 82 44 33 45
REMARK SMILES IDX 85 46 79 47 78 48 34 50 66 51 46 52 65 53 47 54 50 55 64 56
REMARK SMILES IDX 83 57 48 58 49 59 63 61 84 62 51 63 35 64 36 65 44 66 37 67
REMARK SMILES IDX 38 68 42 69 45 70 39 71 40 72 43 73 41 74 67 75 68 76 76 77
REMARK SMILES IDX 69 78 70 79 74 80 77 81 71 82 72 83 75 84 73 85 52 86 53 87
REMARK SMILES IDX 61 88 54 89 55 90 59 91 62 92 56 93 57 94 60 95 58 96
REMARK H PARENT 18 5 9 12 23 30 82 49 50 60
REMARK Flexibility Score: inf
ROOT
ATOM      1  C   UNL A   1      32.127  29.155  26.242  1.00  0.00     0.116 C 
ENDROOT
BRANCH   1   2
ATOM      2  N   UNL A   1      31.599  27.858  26.610  1.00  0.00    -0.356 N 
ATOM      3  C   UNL A   1      31.952  26.587  26.194  1.00  0.00     0.223 C 
ATOM      4  O   UNL A   1      31.414  25.666  26.827  1.00  0.00    -0.275 OA
ATOM      5  H   UNL A   1      30.866  27.886  27.265  1.00  0.00     0.163 HD
BRANCH   3   6
ATOM      6  C   UNL A   1      32.931  26.317  25.011  1.00  0.00     0.091 C 
ATOM      7  C   UNL A   1      32.365  26.068  23.590  1.00  0.00     0.091 C 
ATOM      8  C   UNL A   1      33.015  24.651  23.617  1.00  0.00     0.015 C 
ATOM      9  C   UNL A   1      33.679  24.973  24.954  1.00  0.00     0.015 C 
BRANCH   7  10
ATOM     10  C   UNL A   1      32.810  26.934  22.361  1.00  0.00     0.230 C 
ATOM     11  N   UNL A   1      31.999  27.992  21.963  1.00  0.00    -0.302 N 
ATOM     12  H   UNL A   1      32.209  28.413  21.099  1.00  0.00     0.172 HD
ATOM     13  O   UNL A   1      33.773  26.649  21.639  1.00  0.00    -0.274 OA
BRANCH  11  14
ATOM     14  C   UNL A   1      30.936  28.504  22.659  1.00  0.00     0.189 A 
ATOM     15  C   UNL A   1      29.485  29.985  23.413  1.00  0.00     0.068 A 
ATOM     16  N   UNL A   1      30.825  29.740  23.086  1.00  0.00    -0.224 NA
ATOM     17  C   UNL A   1      28.655  28.893  23.189  1.00  0.00     0.027 A 
ATOM     18  S   UNL A   1      29.639  27.497  23.123  1.00  0.00    -0.102 S 
ATOM     19  C   UNL A   1      27.183  28.754  23.065  1.00  0.00     0.058 C 
BRANCH  15  20
ATOM     20  C   UNL A   1      29.078  31.357  23.850  1.00  0.00     0.180 C 
BRANCH  20  21
ATOM     21  C   UNL A   1      28.847  32.248  22.649  1.00  0.00     0.311 C 
ATOM     22  O   UNL A   1      28.665  33.456  22.695  1.00  0.00    -0.252 OA
BRANCH  21  23
ATOM     23  O   UNL A   1      28.790  31.497  21.510  1.00  0.00    -0.469 OA
ATOM     24  C   UNL A   1      27.955  32.022  20.476  1.00  0.00     0.282 C 
ENDBRANCH  21  23
ENDBRANCH  20  21
ENDBRANCH  15  20
ENDBRANCH  11  14
ENDBRANCH   7  10
ENDBRANCH   3   6
ENDBRANCH   1   2
BRANCH   1  25
ATOM     25  C   UNL A   1      31.754  30.282  27.200  1.00  0.00     0.023 C 
BRANCH  25  26
ATOM     26  C   UNL A   1      31.879  31.698  26.647  1.00  0.00     0.023 C 
BRANCH  26  27
ATOM     27  C   UNL A   1      32.953  32.567  27.289  1.00  0.00     0.116 C 
BRANCH  27  28
ATOM     28  N   UNL A   1      32.508  33.922  27.597  1.00  0.00    -0.352 N 
ATOM     29  C   UNL A   1      32.995  34.817  28.523  1.00  0.00     0.251 C 
ATOM     30  H   UNL A   1      31.747  34.243  27.064  1.00  0.00     0.163 HD
ATOM     31  O   UNL A   1      32.432  35.895  28.695  1.00  0.00    -0.269 OA
BRANCH  29  32
ATOM     32  C   UNL A   1      34.172  34.457  29.343  1.00  0.00     0.039 A 
ATOM     33  C   UNL A   1      33.973  33.873  30.596  1.00  0.00     0.014 A 
ATOM     34  C   UNL A   1      35.465  34.635  28.848  1.00  0.00     0.014 A 
ATOM     35  C   UNL A   1      35.068  33.370  31.305  1.00  0.00     0.010 A 
ATOM     36  C   UNL A   1      36.538  34.050  29.507  1.00  0.00     0.010 A 
ATOM     37  C   UNL A   1      36.351  33.401  30.739  1.00  0.00    -0.014 A 
BRANCH  37  38
ATOM     38  C   UNL A   1      37.515  32.756  31.403  1.00  0.00     0.031 A 
ATOM     39  C   UNL A   1      38.205  31.593  30.748  1.00  0.00     0.074 A 
ATOM     40  C   UNL A   1      37.889  33.153  32.636  1.00  0.00     0.049 A 
ATOM     41  N   UNL A   1      39.157  30.824  31.212  1.00  0.00    -0.248 NA
ATOM     42  C   UNL A   1      37.737  31.222  29.403  1.00  0.00     0.031 C 
ATOM     43  C   UNL A   1      37.263  34.229  33.407  1.00  0.00     0.029 A 
ATOM     44  N   UNL A   1      38.877  32.684  33.467  1.00  0.00    -0.354 N 
ATOM     45  C   UNL A   1      39.384  29.871  30.228  1.00  0.00     0.074 A 
ATOM     46  C   UNL A   1      38.431  30.119  29.168  1.00  0.00     0.031 C 
ATOM     47  C   UNL A   1      37.894  34.350  34.586  1.00  0.00     0.029 A 
ATOM     48  C   UNL A   1      38.941  33.336  34.674  1.00  0.00     0.049 A 
ATOM     49  H   UNL A   1      39.483  31.948  33.219  1.00  0.00     0.167 HD
ATOM     50  C   UNL A   1      40.322  28.894  30.196  1.00  0.00     0.037 A 
ATOM     51  C   UNL A   1      39.745  33.135  35.735  1.00  0.00     0.037 A 
ATOM     52  C   UNL A   1      41.290  28.668  31.236  1.00  0.00     0.049 A 
ATOM     53  C   UNL A   1      40.783  32.047  35.674  1.00  0.00     0.074 A 
ATOM     54  C   UNL A   1      42.319  27.744  31.272  1.00  0.00     0.029 A 
ATOM     55  N   UNL A   1      41.345  29.374  32.429  1.00  0.00    -0.354 N 
ATOM     56  N   UNL A   1      41.035  31.197  34.708  1.00  0.00    -0.248 NA
ATOM     57  C   UNL A   1      41.654  31.894  36.848  1.00  0.00     0.031 C 
ATOM     58  C   UNL A   1      42.972  27.864  32.502  1.00  0.00     0.029 A 
ATOM     59  C   UNL A   1      42.381  28.896  33.214  1.00  0.00     0.049 A 
ATOM     60  H   UNL A   1      40.738  30.108  32.680  1.00  0.00     0.167 HD
ATOM     61  C   UNL A   1      42.107  30.430  35.144  1.00  0.00     0.074 A 
ATOM     62  C   UNL A   1      42.468  30.924  36.455  1.00  0.00     0.031 C 
ATOM     63  C   UNL A   1      42.735  29.407  34.513  1.00  0.00     0.037 A 
BRANCH  50  64
ATOM     64  C   UNL A   1      40.352  28.004  28.986  1.00  0.00     0.064 A 
ATOM     65  C   UNL A   1      41.103  28.336  27.848  1.00  0.00     0.173 A 
ATOM     66  C   UNL A   1      39.641  26.794  28.972  1.00  0.00     0.173 A 
ATOM     67  F   UNL A   1      41.790  29.487  27.805  1.00  0.00    -0.203 F 
ATOM     68  C   UNL A   1      41.112  27.508  26.729  1.00  0.00     0.198 A 
ATOM     69  C   UNL A   1      39.679  25.954  27.863  1.00  0.00     0.198 A 
ATOM     70  F   UNL A   1      38.910  26.425  30.036  1.00  0.00    -0.203 F 
ATOM     71  F   UNL A   1      41.791  27.876  25.633  1.00  0.00    -0.200 F 
ATOM     72  C   UNL A   1      40.407  26.315  26.740  1.00  0.00     0.200 A 
ATOM     73  F   UNL A   1      39.007  24.794  27.880  1.00  0.00    -0.200 F 
ATOM     74  F   UNL A   1      40.421  25.518  25.663  1.00  0.00    -0.200 F 
ENDBRANCH  50  64
BRANCH  51  75
ATOM     75  C   UNL A   1      39.618  33.997  36.939  1.00  0.00     0.064 A 
ATOM     76  C   UNL A   1      38.820  33.605  38.023  1.00  0.00     0.173 A 
ATOM     77  C   UNL A   1      40.286  35.227  37.033  1.00  0.00     0.173 A 
ATOM     78  F   UNL A   1      38.146  32.447  37.974  1.00  0.00    -0.203 F 
ATOM     79  C   UNL A   1      38.678  34.419  39.145  1.00  0.00     0.198 A 
ATOM     80  C   UNL A   1      40.165  36.028  38.167  1.00  0.00     0.198 A 
ATOM     81  F   UNL A   1      41.066  35.646  36.026  1.00  0.00    -0.203 F 
ATOM     82  F   UNL A   1      37.873  34.039  40.148  1.00  0.00    -0.200 F 
ATOM     83  C   UNL A   1      39.355  35.627  39.219  1.00  0.00     0.200 A 
ATOM     84  F   UNL A   1      40.833  37.187  38.240  1.00  0.00    -0.200 F 
ATOM     85  F   UNL A   1      39.221  36.407  40.300  1.00  0.00    -0.200 F 
ENDBRANCH  51  75
BRANCH  63  86
ATOM     86  C   UNL A   1      43.902  28.777  35.216  1.00  0.00     0.064 A 
ATOM     87  C   UNL A   1      45.210  29.252  35.043  1.00  0.00     0.173 A 
ATOM     88  C   UNL A   1      43.700  27.716  36.112  1.00  0.00     0.173 A 
ATOM     89  F   UNL A   1      45.457  30.255  34.187  1.00  0.00    -0.203 F 
ATOM     90  C   UNL A   1      46.276  28.673  35.726  1.00  0.00     0.198 A 
ATOM     91  C   UNL A   1      44.764  27.159  36.814  1.00  0.00     0.198 A 
ATOM     92  F   UNL A   1      42.467  27.230  36.317  1.00  0.00    -0.203 F 
ATOM     93  F   UNL A   1      47.524  29.113  35.513  1.00  0.00    -0.200 F 
ATOM     94  C   UNL A   1      46.051  27.633  36.617  1.00  0.00     0.200 A 
ATOM     95  F   UNL A   1      44.543  26.164  37.684  1.00  0.00    -0.200 F 
ATOM     96  F   UNL A   1      47.078  27.084  37.280  1.00  0.00    -0.200 F 
ENDBRANCH  63  86
ENDBRANCH  37  38
ENDBRANCH  29  32
ENDBRANCH  27  28
ENDBRANCH  26  27
ENDBRANCH  25  26
ENDBRANCH   1  25
TORSDOF 16
ENDMDL
