MODEL 1
REMARK VINA RESULT:     -13.1      0.000      0.000
REMARK SMILES O=C(CCC(=O)Nc1ccc2nc(-c3ccccc3)oc2c1)NCCCCNC(=O)c1ccc(-c2c3nc(c(-c4c(F)c(F)c(F)c(F)c4F)c4ccc([nH]4)c(-c4c(F)c(F)c(F)c(F)c4F)c4nc(c(-c5c(F)c(F)c(F)c(F)c5F)c5ccc2[nH]5)C=C4)C=C3)cc1
REMARK SMILES IDX 24 1 23 2 1 3 2 4 3 6 4 7 5 8 6 9 7 10 8 12 9 13 22 14 10 15
REMARK SMILES IDX 21 16 11 17 20 18 12 19 13 20 14 21 15 22 19 23 16 24 18 25
REMARK SMILES IDX 17 26 25 27 26 28 27 29 28 30 29 31 30 33 31 34 32 35 93 36
REMARK SMILES IDX 33 37 92 38 34 39 35 40 36 41 86 42 37 43 91 44 85 45 87 46
REMARK SMILES IDX 38 47 90 48 84 49 83 50 39 52 71 53 51 54 70 55 52 56 55 57
REMARK SMILES IDX 69 58 88 59 53 60 54 61 68 63 89 64 56 65 40 66 41 67 49 68
REMARK SMILES IDX 42 69 43 70 47 71 50 72 44 73 45 74 48 75 46 76 72 77 73 78
REMARK SMILES IDX 81 79 74 80 75 81 79 82 82 83 76 84 77 85 80 86 78 87 57 88
REMARK SMILES IDX 58 89 66 90 59 91 60 92 64 93 67 94 61 95 62 96 65 97 63 98
REMARK H PARENT 23 5 7 11 28 32 87 51 55 62
REMARK Flexibility Score: inf
ROOT
ATOM      1  C   UNL A   1      34.905  23.869  23.675  1.00  0.00     0.116 C 
ENDROOT
BRANCH   1   2
ATOM      2  N   UNL A   1      34.817  24.883  24.714  1.00  0.00    -0.356 N 
ATOM      3  O   UNL A   1      33.492  26.336  23.521  1.00  0.00    -0.275 OA
ATOM      4  C   UNL A   1      34.009  25.991  24.579  1.00  0.00     0.220 C 
ATOM      5  H   UNL A   1      35.349  24.774  25.534  1.00  0.00     0.163 HD
BRANCH   4   6
ATOM      6  C   UNL A   1      33.730  26.733  25.872  1.00  0.00     0.110 C 
BRANCH   6   7
ATOM      7  C   UNL A   1      32.497  27.638  25.841  1.00  0.00     0.110 C 
BRANCH   7   8
ATOM      8  C   UNL A   1      31.356  27.158  26.706  1.00  0.00     0.224 C 
ATOM      9  O   UNL A   1      31.135  27.735  27.780  1.00  0.00    -0.275 OA
ATOM     10  N   UNL A   1      30.554  26.096  26.410  1.00  0.00    -0.326 N 
ATOM     11  H   UNL A   1      29.709  26.103  26.914  1.00  0.00     0.169 HD
BRANCH  10  12
ATOM     12  C   UNL A   1      30.666  24.989  25.543  1.00  0.00     0.045 A 
ATOM     13  C   UNL A   1      30.305  25.008  24.193  1.00  0.00     0.028 A 
ATOM     14  C   UNL A   1      31.321  23.852  26.069  1.00  0.00     0.075 A 
ATOM     15  C   UNL A   1      30.726  24.025  23.290  1.00  0.00     0.034 A 
ATOM     16  C   UNL A   1      31.680  22.865  25.151  1.00  0.00     0.157 A 
ATOM     17  C   UNL A   1      31.452  22.953  23.790  1.00  0.00     0.110 A 
ATOM     18  O   UNL A   1      32.299  21.663  25.385  1.00  0.00    -0.436 OA
ATOM     19  N   UNL A   1      31.995  21.891  23.144  1.00  0.00    -0.209 NA
ATOM     20  C   UNL A   1      32.420  21.125  24.126  1.00  0.00     0.227 A 
BRANCH  20  21
ATOM     21  C   UNL A   1      32.796  19.731  24.004  1.00  0.00     0.037 A 
ATOM     22  C   UNL A   1      33.915  19.247  24.693  1.00  0.00     0.014 A 
ATOM     23  C   UNL A   1      32.205  18.943  23.008  1.00  0.00     0.014 A 
ATOM     24  C   UNL A   1      34.457  18.003  24.368  1.00  0.00     0.001 A 
ATOM     25  C   UNL A   1      32.759  17.708  22.672  1.00  0.00     0.001 A 
ATOM     26  C   UNL A   1      33.889  17.245  23.344  1.00  0.00     0.000 A 
ENDBRANCH  20  21
ENDBRANCH  10  12
ENDBRANCH   7   8
ENDBRANCH   6   7
ENDBRANCH   4   6
ENDBRANCH   1   2
BRANCH   1  27
ATOM     27  C   UNL A   1      36.284  23.233  23.530  1.00  0.00     0.023 C 
BRANCH  27  28
ATOM     28  C   UNL A   1      36.444  21.860  24.186  1.00  0.00     0.023 C 
BRANCH  28  29
ATOM     29  C   UNL A   1      37.019  21.868  25.600  1.00  0.00     0.116 C 
BRANCH  29  30
ATOM     30  N   UNL A   1      38.044  20.855  25.806  1.00  0.00    -0.352 N 
ATOM     31  C   UNL A   1      39.350  20.989  26.214  1.00  0.00     0.251 C 
ATOM     32  H   UNL A   1      37.757  19.931  25.626  1.00  0.00     0.163 HD
ATOM     33  O   UNL A   1      40.109  20.021  26.173  1.00  0.00    -0.269 OA
BRANCH  31  34
ATOM     34  C   UNL A   1      39.870  22.297  26.673  1.00  0.00     0.039 A 
ATOM     35  C   UNL A   1      40.867  22.325  27.651  1.00  0.00     0.014 A 
ATOM     36  C   UNL A   1      39.378  23.496  26.151  1.00  0.00     0.014 A 
ATOM     37  C   UNL A   1      41.433  23.545  28.036  1.00  0.00     0.010 A 
ATOM     38  C   UNL A   1      40.001  24.701  26.471  1.00  0.00     0.010 A 
ATOM     39  C   UNL A   1      41.041  24.740  27.412  1.00  0.00    -0.014 A 
BRANCH  39  40
ATOM     40  C   UNL A   1      41.718  26.031  27.714  1.00  0.00     0.031 A 
ATOM     41  C   UNL A   1      40.986  27.129  28.437  1.00  0.00     0.074 A 
ATOM     42  C   UNL A   1      42.975  26.244  27.277  1.00  0.00     0.049 A 
ATOM     43  N   UNL A   1      41.385  28.345  28.722  1.00  0.00    -0.248 NA
ATOM     44  C   UNL A   1      39.614  26.831  28.874  1.00  0.00     0.031 C 
ATOM     45  C   UNL A   1      43.781  25.282  26.522  1.00  0.00     0.029 A 
ATOM     46  N   UNL A   1      43.794  27.342  27.390  1.00  0.00    -0.354 N 
ATOM     47  C   UNL A   1      40.313  28.954  29.361  1.00  0.00     0.074 A 
ATOM     48  C   UNL A   1      39.227  27.999  29.367  1.00  0.00     0.031 C 
ATOM     49  C   UNL A   1      44.981  25.822  26.259  1.00  0.00     0.029 A 
ATOM     50  C   UNL A   1      45.017  27.183  26.785  1.00  0.00     0.049 A 
ATOM     51  H   UNL A   1      43.527  28.164  27.861  1.00  0.00     0.167 HD
ATOM     52  C   UNL A   1      40.248  30.190  29.914  1.00  0.00     0.037 A 
ATOM     53  C   UNL A   1      46.047  28.041  26.655  1.00  0.00     0.037 A 
ATOM     54  C   UNL A   1      41.333  31.138  29.917  1.00  0.00     0.049 A 
ATOM     55  C   UNL A   1      45.942  29.417  27.258  1.00  0.00     0.074 A 
ATOM     56  C   UNL A   1      41.380  32.395  30.495  1.00  0.00     0.029 A 
ATOM     57  N   UNL A   1      42.562  30.936  29.305  1.00  0.00    -0.354 N 
ATOM     58  N   UNL A   1      44.948  29.957  27.920  1.00  0.00    -0.248 NA
ATOM     59  C   UNL A   1      47.106  30.300  27.100  1.00  0.00     0.031 C 
ATOM     60  C   UNL A   1      42.614  32.975  30.185  1.00  0.00     0.029 A 
ATOM     61  C   UNL A   1      43.363  32.055  29.469  1.00  0.00     0.049 A 
ATOM     62  H   UNL A   1      42.826  30.117  28.825  1.00  0.00     0.167 HD
ATOM     63  C   UNL A   1      45.376  31.227  28.284  1.00  0.00     0.074 A 
ATOM     64  C   UNL A   1      46.726  31.372  27.783  1.00  0.00     0.031 C 
ATOM     65  C   UNL A   1      44.709  32.187  28.971  1.00  0.00     0.037 A 
BRANCH  52  66
ATOM     66  C   UNL A   1      38.954  30.591  30.567  1.00  0.00     0.064 A 
ATOM     67  C   UNL A   1      37.885  31.114  29.823  1.00  0.00     0.173 A 
ATOM     68  C   UNL A   1      38.767  30.417  31.946  1.00  0.00     0.173 A 
ATOM     69  F   UNL A   1      38.011  31.309  28.502  1.00  0.00    -0.203 F 
ATOM     70  C   UNL A   1      36.691  31.480  30.441  1.00  0.00     0.198 A 
ATOM     71  C   UNL A   1      37.560  30.751  32.556  1.00  0.00     0.198 A 
ATOM     72  F   UNL A   1      39.752  29.912  32.706  1.00  0.00    -0.203 F 
ATOM     73  F   UNL A   1      35.706  32.030  29.718  1.00  0.00    -0.200 F 
ATOM     74  C   UNL A   1      36.527  31.291  31.805  1.00  0.00     0.200 A 
ATOM     75  F   UNL A   1      37.397  30.553  33.871  1.00  0.00    -0.200 F 
ATOM     76  F   UNL A   1      35.376  31.637  32.396  1.00  0.00    -0.200 F 
ENDBRANCH  52  66
BRANCH  53  77
ATOM     77  C   UNL A   1      47.278  27.621  25.933  1.00  0.00     0.064 A 
ATOM     78  C   UNL A   1      47.381  27.750  24.541  1.00  0.00     0.173 A 
ATOM     79  C   UNL A   1      48.374  27.074  26.619  1.00  0.00     0.173 A 
ATOM     80  F   UNL A   1      46.353  28.248  23.838  1.00  0.00    -0.203 F 
ATOM     81  C   UNL A   1      48.520  27.327  23.860  1.00  0.00     0.198 A 
ATOM     82  C   UNL A   1      49.526  26.681  25.939  1.00  0.00     0.198 A 
ATOM     83  F   UNL A   1      48.331  26.931  27.951  1.00  0.00    -0.203 F 
ATOM     84  F   UNL A   1      48.569  27.415  22.523  1.00  0.00    -0.200 F 
ATOM     85  C   UNL A   1      49.595  26.800  24.560  1.00  0.00     0.200 A 
ATOM     86  F   UNL A   1      50.568  26.186  26.622  1.00  0.00    -0.200 F 
ATOM     87  F   UNL A   1      50.692  26.397  23.905  1.00  0.00    -0.200 F 
ENDBRANCH  53  77
BRANCH  65  88
ATOM     88  C   UNL A   1      45.443  33.466  29.261  1.00  0.00     0.064 A 
ATOM     89  C   UNL A   1      46.252  33.615  30.396  1.00  0.00     0.173 A 
ATOM     90  C   UNL A   1      45.364  34.546  28.366  1.00  0.00     0.173 A 
ATOM     91  F   UNL A   1      46.351  32.619  31.290  1.00  0.00    -0.203 F 
ATOM     92  C   UNL A   1      46.933  34.806  30.640  1.00  0.00     0.198 A 
ATOM     93  C   UNL A   1      46.073  35.722  28.596  1.00  0.00     0.198 A 
ATOM     94  F   UNL A   1      44.610  34.455  27.260  1.00  0.00    -0.203 F 
ATOM     95  F   UNL A   1      47.658  34.943  31.759  1.00  0.00    -0.200 F 
ATOM     96  C   UNL A   1      46.849  35.855  29.736  1.00  0.00     0.200 A 
ATOM     97  F   UNL A   1      46.004  36.727  27.712  1.00  0.00    -0.200 F 
ATOM     98  F   UNL A   1      47.512  36.995  29.969  1.00  0.00    -0.200 F 
ENDBRANCH  65  88
ENDBRANCH  39  40
ENDBRANCH  31  34
ENDBRANCH  29  30
ENDBRANCH  28  29
ENDBRANCH  27  28
ENDBRANCH   1  27
TORSDOF 15
ENDMDL
MODEL 2
REMARK VINA RESULT:     -13.0      4.762     10.383
REMARK SMILES O=C(CCC(=O)Nc1ccc2nc(-c3ccccc3)oc2c1)NCCCCNC(=O)c1ccc(-c2c3nc(c(-c4c(F)c(F)c(F)c(F)c4F)c4ccc([nH]4)c(-c4c(F)c(F)c(F)c(F)c4F)c4nc(c(-c5c(F)c(F)c(F)c(F)c5F)c5ccc2[nH]5)C=C4)C=C3)cc1
REMARK SMILES IDX 24 1 23 2 1 3 2 4 3 6 4 7 5 8 6 9 7 10 8 12 9 13 22 14 10 15
REMARK SMILES IDX 21 16 11 17 20 18 12 19 13 20 14 21 15 22 19 23 16 24 18 25
REMARK SMILES IDX 17 26 25 27 26 28 27 29 28 30 29 31 30 33 31 34 32 35 93 36
REMARK SMILES IDX 33 37 92 38 34 39 35 40 36 41 86 42 37 43 91 44 85 45 87 46
REMARK SMILES IDX 38 47 90 48 84 49 83 50 39 52 71 53 51 54 70 55 52 56 55 57
REMARK SMILES IDX 69 58 88 59 53 60 54 61 68 63 89 64 56 65 40 66 41 67 49 68
REMARK SMILES IDX 42 69 43 70 47 71 50 72 44 73 45 74 48 75 46 76 72 77 73 78
REMARK SMILES IDX 81 79 74 80 75 81 79 82 82 83 76 84 77 85 80 86 78 87 57 88
REMARK SMILES IDX 58 89 66 90 59 91 60 92 64 93 67 94 61 95 62 96 65 97 63 98
REMARK H PARENT 23 5 7 11 28 32 87 51 55 62
REMARK Flexibility Score: inf
ROOT
ATOM      1  C   UNL A   1      31.907  28.766  26.359  1.00  0.00     0.116 C 
ENDROOT
BRANCH   1   2
ATOM      2  N   UNL A   1      33.082  27.993  25.991  1.00  0.00    -0.356 N 
ATOM      3  O   UNL A   1      32.133  25.928  26.339  1.00  0.00    -0.275 OA
ATOM      4  C   UNL A   1      33.050  26.618  25.904  1.00  0.00     0.220 C 
ATOM      5  H   UNL A   1      33.924  28.465  25.799  1.00  0.00     0.163 HD
BRANCH   4   6
ATOM      6  C   UNL A   1      34.211  26.003  25.149  1.00  0.00     0.110 C 
BRANCH   6   7
ATOM      7  C   UNL A   1      34.074  24.504  24.869  1.00  0.00     0.110 C 
BRANCH   7   8
ATOM      8  C   UNL A   1      33.970  24.156  23.404  1.00  0.00     0.224 C 
ATOM      9  O   UNL A   1      34.961  23.687  22.828  1.00  0.00    -0.275 OA
ATOM     10  N   UNL A   1      32.859  24.352  22.639  1.00  0.00    -0.326 N 
ATOM     11  H   UNL A   1      32.864  23.818  21.812  1.00  0.00     0.169 HD
BRANCH  10  12
ATOM     12  C   UNL A   1      31.703  25.150  22.768  1.00  0.00     0.045 A 
ATOM     13  C   UNL A   1      30.569  24.781  23.496  1.00  0.00     0.028 A 
ATOM     14  C   UNL A   1      31.789  26.457  22.235  1.00  0.00     0.075 A 
ATOM     15  C   UNL A   1      29.590  25.705  23.880  1.00  0.00     0.034 A 
ATOM     16  C   UNL A   1      30.770  27.339  22.593  1.00  0.00     0.157 A 
ATOM     17  C   UNL A   1      29.723  27.012  23.436  1.00  0.00     0.110 A 
ATOM     18  O   UNL A   1      30.592  28.644  22.208  1.00  0.00    -0.436 OA
ATOM     19  N   UNL A   1      28.944  28.098  23.675  1.00  0.00    -0.209 NA
ATOM     20  C   UNL A   1      29.452  29.015  22.879  1.00  0.00     0.227 A 
BRANCH  20  21
ATOM     21  C   UNL A   1      28.807  30.259  22.511  1.00  0.00     0.037 A 
ATOM     22  C   UNL A   1      28.371  30.456  21.194  1.00  0.00     0.014 A 
ATOM     23  C   UNL A   1      28.855  31.347  23.392  1.00  0.00     0.014 A 
ATOM     24  C   UNL A   1      28.019  31.733  20.755  1.00  0.00     0.001 A 
ATOM     25  C   UNL A   1      28.519  32.625  22.946  1.00  0.00     0.001 A 
ATOM     26  C   UNL A   1      28.112  32.818  21.626  1.00  0.00     0.000 A 
ENDBRANCH  20  21
ENDBRANCH  10  12
ENDBRANCH   7   8
ENDBRANCH   6   7
ENDBRANCH   4   6
ENDBRANCH   1   2
BRANCH   1  27
ATOM     27  C   UNL A   1      31.774  30.099  25.630  1.00  0.00     0.023 C 
BRANCH  27  28
ATOM     28  C   UNL A   1      31.480  31.307  26.522  1.00  0.00     0.023 C 
BRANCH  28  29
ATOM     29  C   UNL A   1      32.704  32.048  27.053  1.00  0.00     0.116 C 
BRANCH  29  30
ATOM     30  N   UNL A   1      32.441  33.448  27.350  1.00  0.00    -0.352 N 
ATOM     31  C   UNL A   1      33.024  34.281  28.275  1.00  0.00     0.251 C 
ATOM     32  H   UNL A   1      31.735  33.863  26.803  1.00  0.00     0.163 HD
ATOM     33  O   UNL A   1      32.548  35.397  28.485  1.00  0.00    -0.269 OA
BRANCH  31  34
ATOM     34  C   UNL A   1      34.204  33.840  29.053  1.00  0.00     0.039 A 
ATOM     35  C   UNL A   1      34.022  32.950  30.116  1.00  0.00     0.014 A 
ATOM     36  C   UNL A   1      35.486  34.302  28.750  1.00  0.00     0.014 A 
ATOM     37  C   UNL A   1      35.130  32.454  30.809  1.00  0.00     0.010 A 
ATOM     38  C   UNL A   1      36.596  33.743  29.383  1.00  0.00     0.010 A 
ATOM     39  C   UNL A   1      36.432  32.806  30.415  1.00  0.00    -0.014 A 
BRANCH  39  40
ATOM     40  C   UNL A   1      37.628  32.193  31.055  1.00  0.00     0.031 A 
ATOM     41  C   UNL A   1      38.410  31.120  30.346  1.00  0.00     0.074 A 
ATOM     42  C   UNL A   1      37.974  32.553  32.307  1.00  0.00     0.049 A 
ATOM     43  N   UNL A   1      39.432  30.419  30.773  1.00  0.00    -0.248 NA
ATOM     44  C   UNL A   1      37.969  30.770  28.988  1.00  0.00     0.031 C 
ATOM     45  C   UNL A   1      37.272  33.545  33.125  1.00  0.00     0.029 A 
ATOM     46  N   UNL A   1      38.993  32.118  33.120  1.00  0.00    -0.354 N 
ATOM     47  C   UNL A   1      39.747  29.544  29.742  1.00  0.00     0.074 A 
ATOM     48  C   UNL A   1      38.772  29.757  28.695  1.00  0.00     0.031 C 
ATOM     49  C   UNL A   1      37.892  33.656  34.310  1.00  0.00     0.029 A 
ATOM     50  C   UNL A   1      39.006  32.715  34.357  1.00  0.00     0.049 A 
ATOM     51  H   UNL A   1      39.651  31.441  32.840  1.00  0.00     0.167 HD
ATOM     52  C   UNL A   1      40.771  28.659  29.665  1.00  0.00     0.037 A 
ATOM     53  C   UNL A   1      39.815  32.518  35.415  1.00  0.00     0.037 A 
ATOM     54  C   UNL A   1      41.748  28.454  30.704  1.00  0.00     0.049 A 
ATOM     55  C   UNL A   1      40.932  31.512  35.314  1.00  0.00     0.074 A 
ATOM     56  C   UNL A   1      42.851  27.617  30.699  1.00  0.00     0.029 A 
ATOM     57  N   UNL A   1      41.736  29.088  31.938  1.00  0.00    -0.354 N 
ATOM     58  N   UNL A   1      41.261  30.740  34.308  1.00  0.00    -0.248 NA
ATOM     59  C   UNL A   1      41.792  31.356  36.495  1.00  0.00     0.031 C 
ATOM     60  C   UNL A   1      43.472  27.701  31.949  1.00  0.00     0.029 A 
ATOM     61  C   UNL A   1      42.795  28.640  32.711  1.00  0.00     0.049 A 
ATOM     62  H   UNL A   1      41.071  29.757  32.223  1.00  0.00     0.167 HD
ATOM     63  C   UNL A   1      42.382  30.031  34.720  1.00  0.00     0.074 A 
ATOM     64  C   UNL A   1      42.686  30.477  36.063  1.00  0.00     0.031 C 
ATOM     65  C   UNL A   1      43.094  29.095  34.046  1.00  0.00     0.037 A 
BRANCH  52  66
ATOM     66  C   UNL A   1      40.889  27.842  28.408  1.00  0.00     0.064 A 
ATOM     67  C   UNL A   1      41.643  28.285  27.310  1.00  0.00     0.173 A 
ATOM     68  C   UNL A   1      40.272  26.585  28.313  1.00  0.00     0.173 A 
ATOM     69  F   UNL A   1      42.247  29.482  27.344  1.00  0.00    -0.203 F 
ATOM     70  C   UNL A   1      41.745  27.518  26.152  1.00  0.00     0.198 A 
ATOM     71  C   UNL A   1      40.405  25.805  27.168  1.00  0.00     0.198 A 
ATOM     72  F   UNL A   1      39.546  26.107  29.336  1.00  0.00    -0.203 F 
ATOM     73  F   UNL A   1      42.423  27.988  25.096  1.00  0.00    -0.200 F 
ATOM     74  C   UNL A   1      41.132  26.275  26.085  1.00  0.00     0.200 A 
ATOM     75  F   UNL A   1      39.827  24.598  27.110  1.00  0.00    -0.200 F 
ATOM     76  F   UNL A   1      41.238  25.535  24.972  1.00  0.00    -0.200 F 
ENDBRANCH  52  66
BRANCH  53  77
ATOM     77  C   UNL A   1      39.609  33.300  36.664  1.00  0.00     0.064 A 
ATOM     78  C   UNL A   1      38.730  32.854  37.661  1.00  0.00     0.173 A 
ATOM     79  C   UNL A   1      40.280  34.513  36.883  1.00  0.00     0.173 A 
ATOM     80  F   UNL A   1      38.050  31.711  37.490  1.00  0.00    -0.203 F 
ATOM     81  C   UNL A   1      38.512  33.601  38.816  1.00  0.00     0.198 A 
ATOM     82  C   UNL A   1      40.085  35.243  38.054  1.00  0.00     0.198 A 
ATOM     83  F   UNL A   1      41.135  34.985  35.964  1.00  0.00    -0.203 F 
ATOM     84  F   UNL A   1      37.626  33.175  39.728  1.00  0.00    -0.200 F 
ATOM     85  C   UNL A   1      39.195  34.791  39.015  1.00  0.00     0.200 A 
ATOM     86  F   UNL A   1      40.759  36.385  38.250  1.00  0.00    -0.200 F 
ATOM     87  F   UNL A   1      38.987  35.507  40.129  1.00  0.00    -0.200 F 
ENDBRANCH  53  77
BRANCH  65  88
ATOM     88  C   UNL A   1      44.299  28.517  34.732  1.00  0.00     0.064 A 
ATOM     89  C   UNL A   1      44.226  27.339  35.490  1.00  0.00     0.173 A 
ATOM     90  C   UNL A   1      45.555  29.130  34.594  1.00  0.00     0.173 A 
ATOM     91  F   UNL A   1      43.048  26.721  35.665  1.00  0.00    -0.203 F 
ATOM     92  C   UNL A   1      45.358  26.814  36.109  1.00  0.00     0.198 A 
ATOM     93  C   UNL A   1      46.690  28.583  35.185  1.00  0.00     0.198 A 
ATOM     94  F   UNL A   1      45.684  30.254  33.874  1.00  0.00    -0.203 F 
ATOM     95  F   UNL A   1      45.253  25.717  36.872  1.00  0.00    -0.200 F 
ATOM     96  C   UNL A   1      46.590  27.430  35.949  1.00  0.00     0.200 A 
ATOM     97  F   UNL A   1      47.882  29.171  35.015  1.00  0.00    -0.200 F 
ATOM     98  F   UNL A   1      47.679  26.918  36.538  1.00  0.00    -0.200 F 
ENDBRANCH  65  88
ENDBRANCH  39  40
ENDBRANCH  31  34
ENDBRANCH  29  30
ENDBRANCH  28  29
ENDBRANCH  27  28
ENDBRANCH   1  27
TORSDOF 15
ENDMDL
MODEL 3
REMARK VINA RESULT:     -13.0      2.922      7.588
REMARK SMILES O=C(CCC(=O)Nc1ccc2nc(-c3ccccc3)oc2c1)NCCCCNC(=O)c1ccc(-c2c3nc(c(-c4c(F)c(F)c(F)c(F)c4F)c4ccc([nH]4)c(-c4c(F)c(F)c(F)c(F)c4F)c4nc(c(-c5c(F)c(F)c(F)c(F)c5F)c5ccc2[nH]5)C=C4)C=C3)cc1
REMARK SMILES IDX 24 1 23 2 1 3 2 4 3 6 4 7 5 8 6 9 7 10 8 12 9 13 22 14 10 15
REMARK SMILES IDX 21 16 11 17 20 18 12 19 13 20 14 21 15 22 19 23 16 24 18 25
REMARK SMILES IDX 17 26 25 27 26 28 27 29 28 30 29 31 30 33 31 34 32 35 93 36
REMARK SMILES IDX 33 37 92 38 34 39 35 40 36 41 86 42 37 43 91 44 85 45 87 46
REMARK SMILES IDX 38 47 90 48 84 49 83 50 39 52 71 53 51 54 70 55 52 56 55 57
REMARK SMILES IDX 69 58 88 59 53 60 54 61 68 63 89 64 56 65 40 66 41 67 49 68
REMARK SMILES IDX 42 69 43 70 47 71 50 72 44 73 45 74 48 75 46 76 72 77 73 78
REMARK SMILES IDX 81 79 74 80 75 81 79 82 82 83 76 84 77 85 80 86 78 87 57 88
REMARK SMILES IDX 58 89 66 90 59 91 60 92 64 93 67 94 61 95 62 96 65 97 63 98
REMARK H PARENT 23 5 7 11 28 32 87 51 55 62
REMARK Flexibility Score: inf
ROOT
ATOM      1  C   UNL A   1      34.500  24.320  23.284  1.00  0.00     0.116 C 
ENDROOT
BRANCH   1   2
ATOM      2  N   UNL A   1      34.453  25.262  24.390  1.00  0.00    -0.356 N 
ATOM      3  O   UNL A   1      33.527  26.994  23.193  1.00  0.00    -0.275 OA
ATOM      4  C   UNL A   1      33.855  26.497  24.267  1.00  0.00     0.220 C 
ATOM      5  H   UNL A   1      34.861  25.011  25.250  1.00  0.00     0.163 HD
BRANCH   4   6
ATOM      6  C   UNL A   1      33.548  27.187  25.581  1.00  0.00     0.110 C 
BRANCH   6   7
ATOM      7  C   UNL A   1      32.156  27.816  25.668  1.00  0.00     0.110 C 
BRANCH   7   8
ATOM      8  C   UNL A   1      31.260  27.194  26.712  1.00  0.00     0.224 C 
ATOM      9  O   UNL A   1      31.158  27.743  27.818  1.00  0.00    -0.275 OA
ATOM     10  N   UNL A   1      30.565  26.034  26.544  1.00  0.00    -0.326 N 
ATOM     11  H   UNL A   1      29.829  25.931  27.189  1.00  0.00     0.169 HD
BRANCH  10  12
ATOM     12  C   UNL A   1      30.666  24.946  25.651  1.00  0.00     0.045 A 
ATOM     13  C   UNL A   1      30.298  24.996  24.304  1.00  0.00     0.028 A 
ATOM     14  C   UNL A   1      31.319  23.794  26.148  1.00  0.00     0.075 A 
ATOM     15  C   UNL A   1      30.709  24.032  23.377  1.00  0.00     0.034 A 
ATOM     16  C   UNL A   1      31.668  22.826  25.207  1.00  0.00     0.157 A 
ATOM     17  C   UNL A   1      31.433  22.946  23.849  1.00  0.00     0.110 A 
ATOM     18  O   UNL A   1      32.283  21.617  25.409  1.00  0.00    -0.436 OA
ATOM     19  N   UNL A   1      31.967  21.896  23.176  1.00  0.00    -0.209 NA
ATOM     20  C   UNL A   1      32.394  21.106  24.139  1.00  0.00     0.227 A 
BRANCH  20  21
ATOM     21  C   UNL A   1      32.763  19.714  23.983  1.00  0.00     0.037 A 
ATOM     22  C   UNL A   1      33.856  19.198  24.692  1.00  0.00     0.014 A 
ATOM     23  C   UNL A   1      32.198  18.963  22.944  1.00  0.00     0.014 A 
ATOM     24  C   UNL A   1      34.397  17.960  24.343  1.00  0.00     0.001 A 
ATOM     25  C   UNL A   1      32.753  17.735  22.585  1.00  0.00     0.001 A 
ATOM     26  C   UNL A   1      33.857  17.241  23.278  1.00  0.00     0.000 A 
ENDBRANCH  20  21
ENDBRANCH  10  12
ENDBRANCH   7   8
ENDBRANCH   6   7
ENDBRANCH   4   6
ENDBRANCH   1   2
BRANCH   1  27
ATOM     27  C   UNL A   1      35.473  23.162  23.482  1.00  0.00     0.023 C 
BRANCH  27  28
ATOM     28  C   UNL A   1      35.830  22.847  24.935  1.00  0.00     0.023 C 
BRANCH  28  29
ATOM     29  C   UNL A   1      37.017  23.620  25.505  1.00  0.00     0.116 C 
BRANCH  29  30
ATOM     30  N   UNL A   1      38.200  22.793  25.694  1.00  0.00    -0.352 N 
ATOM     31  C   UNL A   1      39.421  23.110  26.240  1.00  0.00     0.251 C 
ATOM     32  H   UNL A   1      38.112  21.864  25.383  1.00  0.00     0.163 HD
ATOM     33  O   UNL A   1      40.355  22.311  26.164  1.00  0.00    -0.269 OA
BRANCH  31  34
ATOM     34  C   UNL A   1      39.643  24.420  26.893  1.00  0.00     0.039 A 
ATOM     35  C   UNL A   1      39.195  24.610  28.203  1.00  0.00     0.014 A 
ATOM     36  C   UNL A   1      40.283  25.465  26.222  1.00  0.00     0.014 A 
ATOM     37  C   UNL A   1      39.469  25.809  28.868  1.00  0.00     0.010 A 
ATOM     38  C   UNL A   1      40.632  26.625  26.912  1.00  0.00     0.010 A 
ATOM     39  C   UNL A   1      40.236  26.808  28.246  1.00  0.00    -0.014 A 
BRANCH  39  40
ATOM     40  C   UNL A   1      40.648  28.037  28.978  1.00  0.00     0.031 A 
ATOM     41  C   UNL A   1      42.038  28.164  29.540  1.00  0.00     0.074 A 
ATOM     42  C   UNL A   1      39.748  29.017  29.198  1.00  0.00     0.049 A 
ATOM     43  N   UNL A   1      42.555  29.124  30.269  1.00  0.00    -0.248 NA
ATOM     44  C   UNL A   1      42.962  27.052  29.272  1.00  0.00     0.031 C 
ATOM     45  C   UNL A   1      38.355  29.000  28.750  1.00  0.00     0.029 A 
ATOM     46  N   UNL A   1      39.865  30.212  29.866  1.00  0.00    -0.354 N 
ATOM     47  C   UNL A   1      43.855  28.727  30.549  1.00  0.00     0.074 A 
ATOM     48  C   UNL A   1      44.031  27.413  29.968  1.00  0.00     0.031 C 
ATOM     49  C   UNL A   1      37.753  30.135  29.136  1.00  0.00     0.029 A 
ATOM     50  C   UNL A   1      38.702  30.943  29.896  1.00  0.00     0.049 A 
ATOM     51  H   UNL A   1      40.703  30.516  30.282  1.00  0.00     0.167 HD
ATOM     52  C   UNL A   1      44.824  29.405  31.212  1.00  0.00     0.037 A 
ATOM     53  C   UNL A   1      38.425  32.123  30.483  1.00  0.00     0.037 A 
ATOM     54  C   UNL A   1      44.653  30.717  31.781  1.00  0.00     0.049 A 
ATOM     55  C   UNL A   1      39.512  32.848  31.233  1.00  0.00     0.074 A 
ATOM     56  C   UNL A   1      45.588  31.507  32.427  1.00  0.00     0.029 A 
ATOM     57  N   UNL A   1      43.463  31.431  31.781  1.00  0.00    -0.354 N 
ATOM     58  N   UNL A   1      40.757  32.493  31.432  1.00  0.00    -0.248 NA
ATOM     59  C   UNL A   1      39.153  34.140  31.834  1.00  0.00     0.031 C 
ATOM     60  C   UNL A   1      44.952  32.672  32.866  1.00  0.00     0.029 A 
ATOM     61  C   UNL A   1      43.635  32.639  32.438  1.00  0.00     0.049 A 
ATOM     62  H   UNL A   1      42.620  31.124  31.373  1.00  0.00     0.167 HD
ATOM     63  C   UNL A   1      41.339  33.528  32.152  1.00  0.00     0.074 A 
ATOM     64  C   UNL A   1      40.314  34.533  32.341  1.00  0.00     0.031 C 
ATOM     65  C   UNL A   1      42.608  33.636  32.616  1.00  0.00     0.037 A 
BRANCH  52  66
ATOM     66  C   UNL A   1      46.164  28.739  31.355  1.00  0.00     0.064 A 
ATOM     67  C   UNL A   1      47.195  28.950  30.426  1.00  0.00     0.173 A 
ATOM     68  C   UNL A   1      46.435  27.908  32.453  1.00  0.00     0.173 A 
ATOM     69  F   UNL A   1      46.989  29.728  29.353  1.00  0.00    -0.203 F 
ATOM     70  C   UNL A   1      48.432  28.327  30.571  1.00  0.00     0.198 A 
ATOM     71  C   UNL A   1      47.684  27.315  32.615  1.00  0.00     0.198 A 
ATOM     72  F   UNL A   1      45.489  27.678  33.378  1.00  0.00    -0.203 F 
ATOM     73  F   UNL A   1      49.381  28.499  29.640  1.00  0.00    -0.200 F 
ATOM     74  C   UNL A   1      48.678  27.516  31.669  1.00  0.00     0.200 A 
ATOM     75  F   UNL A   1      47.925  26.545  33.684  1.00  0.00    -0.200 F 
ATOM     76  F   UNL A   1      49.871  26.923  31.811  1.00  0.00    -0.200 F 
ENDBRANCH  52  66
BRANCH  53  77
ATOM     77  C   UNL A   1      37.060  32.706  30.374  1.00  0.00     0.064 A 
ATOM     78  C   UNL A   1      36.710  33.533  29.298  1.00  0.00     0.173 A 
ATOM     79  C   UNL A   1      36.080  32.453  31.346  1.00  0.00     0.173 A 
ATOM     80  F   UNL A   1      37.618  33.821  28.353  1.00  0.00    -0.203 F 
ATOM     81  C   UNL A   1      35.443  34.105  29.210  1.00  0.00     0.198 A 
ATOM     82  C   UNL A   1      34.803  33.000  31.240  1.00  0.00     0.198 A 
ATOM     83  F   UNL A   1      36.360  31.666  32.395  1.00  0.00    -0.203 F 
ATOM     84  F   UNL A   1      35.154  34.935  28.198  1.00  0.00    -0.200 F 
ATOM     85  C   UNL A   1      34.488  33.833  30.178  1.00  0.00     0.200 A 
ATOM     86  F   UNL A   1      33.878  32.721  32.169  1.00  0.00    -0.200 F 
ATOM     87  F   UNL A   1      33.268  34.380  30.091  1.00  0.00    -0.200 F 
ENDBRANCH  53  77
BRANCH  65  88
ATOM     88  C   UNL A   1      42.977  34.902  33.337  1.00  0.00     0.064 A 
ATOM     89  C   UNL A   1      43.404  36.048  32.650  1.00  0.00     0.173 A 
ATOM     90  C   UNL A   1      42.861  34.981  34.733  1.00  0.00     0.173 A 
ATOM     91  F   UNL A   1      43.545  36.022  31.316  1.00  0.00    -0.203 F 
ATOM     92  C   UNL A   1      43.731  37.215  33.336  1.00  0.00     0.198 A 
ATOM     93  C   UNL A   1      43.154  36.160  35.413  1.00  0.00     0.198 A 
ATOM     94  F   UNL A   1      42.449  33.918  35.440  1.00  0.00    -0.203 F 
ATOM     95  F   UNL A   1      44.188  38.280  32.663  1.00  0.00    -0.200 F 
ATOM     96  C   UNL A   1      43.597  37.273  34.716  1.00  0.00     0.200 A 
ATOM     97  F   UNL A   1      43.009  36.219  36.744  1.00  0.00    -0.200 F 
ATOM     98  F   UNL A   1      43.903  38.400  35.373  1.00  0.00    -0.200 F 
ENDBRANCH  65  88
ENDBRANCH  39  40
ENDBRANCH  31  34
ENDBRANCH  29  30
ENDBRANCH  28  29
ENDBRANCH  27  28
ENDBRANCH   1  27
TORSDOF 15
ENDMDL
