MODEL 1
REMARK VINA RESULT:     -10.3      0.000      0.000
REMARK SMILES COCc1cccc(O[C@@H](F)C(=O)NCCCCNC(=O)c2ccc(-c3c4nc(c(-c5c(F)c(F)c(F)c(F)c5F)c5ccc([nH]5)c(-c5c(F)c(F)c(F)c(F)c5F)c5nc(c(-c6c(F)c(F)c(F)c(F)c6F)c6ccc3[nH]6)C=C5)C=C4)cc2)c1
REMARK SMILES IDX 15 1 14 2 12 3 13 4 10 6 11 7 9 8 8 9 4 10 5 11 85 12 6 13
REMARK SMILES IDX 7 14 3 15 2 16 1 17 16 18 17 19 18 20 19 21 20 22 21 24
REMARK SMILES IDX 22 25 23 26 84 27 24 28 83 29 25 30 26 31 27 32 77 33 28 34
REMARK SMILES IDX 82 35 76 36 78 37 29 38 81 39 75 40 74 41 30 43 62 44 42 45
REMARK SMILES IDX 61 46 43 47 46 48 60 49 79 50 44 51 45 52 59 54 80 55 47 56
REMARK SMILES IDX 31 57 32 58 40 59 33 60 34 61 38 62 41 63 35 64 36 65 39 66
REMARK SMILES IDX 37 67 63 68 64 69 72 70 65 71 66 72 70 73 73 74 67 75 68 76
REMARK SMILES IDX 71 77 69 78 48 79 49 80 57 81 50 82 51 83 55 84 58 85 52 86
REMARK SMILES IDX 53 87 56 88 54 89
REMARK H PARENT 14 5 19 23 78 42 46 53
REMARK Flexibility Score: inf
ROOT
ATOM      1  C   UNL A   1      42.598  18.831  26.140  1.00  0.00     0.116 C 
ENDROOT
BRANCH   1   2
ATOM      2  N   UNL A   1      43.972  18.379  26.106  1.00  0.00    -0.350 N 
ATOM      3  C   UNL A   1      44.982  18.702  25.241  1.00  0.00     0.294 C 
ATOM      4  O   UNL A   1      46.045  18.082  25.378  1.00  0.00    -0.267 OA
ATOM      5  H   UNL A   1      44.218  17.740  26.814  1.00  0.00     0.163 HD
BRANCH   3   6
ATOM      6  C   UNL A   1      44.837  19.807  24.158  1.00  0.00     0.440 C 
ATOM      7  F   UNL A   1      44.839  19.294  22.892  1.00  0.00    -0.191 F 
BRANCH   6   8
ATOM      8  O   UNL A   1      45.664  20.969  24.258  1.00  0.00    -0.452 OA
BRANCH   8   9
ATOM      9  C   UNL A   1      45.183  22.083  24.878  1.00  0.00     0.124 A 
ATOM     10  C   UNL A   1      45.074  23.684  26.712  1.00  0.00    -0.019 A 
ATOM     11  C   UNL A   1      43.975  24.295  26.089  1.00  0.00     0.006 A 
ATOM     12  C   UNL A   1      45.717  22.633  26.042  1.00  0.00     0.052 A 
ATOM     13  C   UNL A   1      43.515  23.837  24.851  1.00  0.00     0.004 A 
ATOM     14  C   UNL A   1      44.110  22.723  24.257  1.00  0.00     0.046 A 
BRANCH  10  15
ATOM     15  C   UNL A   1      45.453  24.094  28.119  1.00  0.00     0.195 C 
BRANCH  15  16
ATOM     16  O   UNL A   1      45.031  23.192  29.145  1.00  0.00    -0.380 OA
ATOM     17  C   UNL A   1      43.870  23.610  29.855  1.00  0.00     0.195 C 
ENDBRANCH  15  16
ENDBRANCH  10  15
ENDBRANCH   8   9
ENDBRANCH   6   8
ENDBRANCH   3   6
ENDBRANCH   1   2
BRANCH   1  18
ATOM     18  C   UNL A   1      42.300  19.584  27.439  1.00  0.00     0.023 C 
BRANCH  18  19
ATOM     19  C   UNL A   1      42.670  21.065  27.413  1.00  0.00     0.023 C 
BRANCH  19  20
ATOM     20  C   UNL A   1      41.496  22.015  27.624  1.00  0.00     0.116 C 
BRANCH  20  21
ATOM     21  N   UNL A   1      40.300  21.672  26.867  1.00  0.00    -0.352 N 
ATOM     22  C   UNL A   1      39.302  22.512  26.410  1.00  0.00     0.251 C 
ATOM     23  H   UNL A   1      40.188  20.719  26.652  1.00  0.00     0.163 HD
ATOM     24  O   UNL A   1      38.348  22.066  25.791  1.00  0.00    -0.269 OA
BRANCH  22  25
ATOM     25  C   UNL A   1      39.366  23.951  26.757  1.00  0.00     0.039 A 
ATOM     26  C   UNL A   1      38.873  24.357  28.000  1.00  0.00     0.014 A 
ATOM     27  C   UNL A   1      40.020  24.863  25.927  1.00  0.00     0.014 A 
ATOM     28  C   UNL A   1      39.153  25.645  28.465  1.00  0.00     0.010 A 
ATOM     29  C   UNL A   1      40.366  26.116  26.422  1.00  0.00     0.010 A 
ATOM     30  C   UNL A   1      39.965  26.507  27.709  1.00  0.00    -0.014 A 
BRANCH  30  31
ATOM     31  C   UNL A   1      40.454  27.795  28.271  1.00  0.00     0.031 A 
ATOM     32  C   UNL A   1      41.909  27.979  28.590  1.00  0.00     0.074 A 
ATOM     33  C   UNL A   1      39.568  28.767  28.572  1.00  0.00     0.049 A 
ATOM     34  N   UNL A   1      42.507  28.990  29.168  1.00  0.00    -0.248 NA
ATOM     35  C   UNL A   1      42.808  26.868  28.242  1.00  0.00     0.031 C 
ATOM     36  C   UNL A   1      38.119  28.686  28.369  1.00  0.00     0.029 A 
ATOM     37  N   UNL A   1      39.752  30.010  29.123  1.00  0.00    -0.354 N 
ATOM     38  C   UNL A   1      43.845  28.633  29.263  1.00  0.00     0.074 A 
ATOM     39  C   UNL A   1      43.964  27.291  28.733  1.00  0.00     0.031 C 
ATOM     40  C   UNL A   1      37.551  29.837  28.765  1.00  0.00     0.029 A 
ATOM     41  C   UNL A   1      38.588  30.725  29.282  1.00  0.00     0.049 A 
ATOM     42  H   UNL A   1      40.636  30.359  29.382  1.00  0.00     0.167 HD
ATOM     43  C   UNL A   1      44.885  29.365  29.727  1.00  0.00     0.037 A 
ATOM     44  C   UNL A   1      38.381  31.955  29.791  1.00  0.00     0.037 A 
ATOM     45  C   UNL A   1      44.773  30.709  30.227  1.00  0.00     0.049 A 
ATOM     46  C   UNL A   1      39.559  32.753  30.279  1.00  0.00     0.074 A 
ATOM     47  C   UNL A   1      45.773  31.548  30.686  1.00  0.00     0.029 A 
ATOM     48  N   UNL A   1      43.582  31.415  30.326  1.00  0.00    -0.354 N 
ATOM     49  N   UNL A   1      40.826  32.423  30.310  1.00  0.00    -0.248 NA
ATOM     50  C   UNL A   1      39.278  34.101  30.795  1.00  0.00     0.031 C 
ATOM     51  C   UNL A   1      45.186  32.753  31.084  1.00  0.00     0.029 A 
ATOM     52  C   UNL A   1      43.825  32.678  30.840  1.00  0.00     0.049 A 
ATOM     53  H   UNL A   1      42.698  31.070  30.068  1.00  0.00     0.167 HD
ATOM     54  C   UNL A   1      41.496  33.528  30.818  1.00  0.00     0.074 A 
ATOM     55  C   UNL A   1      40.496  34.545  31.068  1.00  0.00     0.031 C 
ATOM     56  C   UNL A   1      42.819  33.684  31.060  1.00  0.00     0.037 A 
BRANCH  43  57
ATOM     57  C   UNL A   1      46.246  28.735  29.690  1.00  0.00     0.064 A 
ATOM     58  C   UNL A   1      47.080  28.868  28.571  1.00  0.00     0.173 A 
ATOM     59  C   UNL A   1      46.737  28.027  30.797  1.00  0.00     0.173 A 
ATOM     60  F   UNL A   1      46.650  29.523  27.483  1.00  0.00    -0.203 F 
ATOM     61  C   UNL A   1      48.349  28.294  28.551  1.00  0.00     0.198 A 
ATOM     62  C   UNL A   1      48.017  27.478  30.785  1.00  0.00     0.198 A 
ATOM     63  F   UNL A   1      45.979  27.875  31.894  1.00  0.00    -0.203 F 
ATOM     64  F   UNL A   1      49.111  28.398  27.455  1.00  0.00    -0.200 F 
ATOM     65  C   UNL A   1      48.819  27.608  29.660  1.00  0.00     0.200 A 
ATOM     66  F   UNL A   1      48.474  26.823  31.860  1.00  0.00    -0.200 F 
ATOM     67  F   UNL A   1      50.043  27.064  29.643  1.00  0.00    -0.200 F 
ENDBRANCH  43  57
BRANCH  44  68
ATOM     68  C   UNL A   1      37.009  32.525  29.843  1.00  0.00     0.064 A 
ATOM     69  C   UNL A   1      36.499  33.268  28.768  1.00  0.00     0.173 A 
ATOM     70  C   UNL A   1      36.192  32.368  30.971  1.00  0.00     0.173 A 
ATOM     71  F   UNL A   1      37.251  33.464  27.674  1.00  0.00    -0.203 F 
ATOM     72  C   UNL A   1      35.238  33.858  28.831  1.00  0.00     0.198 A 
ATOM     73  C   UNL A   1      34.919  32.935  31.024  1.00  0.00     0.198 A 
ATOM     74  F   UNL A   1      36.629  31.662  32.025  1.00  0.00    -0.203 F 
ATOM     75  F   UNL A   1      34.800  34.608  27.812  1.00  0.00    -0.200 F 
ATOM     76  C   UNL A   1      34.447  33.688  29.958  1.00  0.00     0.200 A 
ATOM     77  F   UNL A   1      34.153  32.759  32.108  1.00  0.00    -0.200 F 
ATOM     78  F   UNL A   1      33.237  34.258  30.022  1.00  0.00    -0.200 F 
ENDBRANCH  44  68
BRANCH  56  79
ATOM     79  C   UNL A   1      43.269  35.015  31.582  1.00  0.00     0.064 A 
ATOM     80  C   UNL A   1      43.347  35.276  32.957  1.00  0.00     0.173 A 
ATOM     81  C   UNL A   1      43.665  36.027  30.694  1.00  0.00     0.173 A 
ATOM     82  F   UNL A   1      42.964  34.345  33.843  1.00  0.00    -0.203 F 
ATOM     83  C   UNL A   1      43.787  36.511  33.425  1.00  0.00     0.198 A 
ATOM     84  C   UNL A   1      44.128  37.252  31.167  1.00  0.00     0.198 A 
ATOM     85  F   UNL A   1      43.611  35.823  29.370  1.00  0.00    -0.203 F 
ATOM     86  F   UNL A   1      43.817  36.754  34.743  1.00  0.00    -0.200 F 
ATOM     87  C   UNL A   1      44.184  37.495  32.530  1.00  0.00     0.200 A 
ATOM     88  F   UNL A   1      44.520  38.197  30.301  1.00  0.00    -0.200 F 
ATOM     89  F   UNL A   1      44.613  38.680  32.984  1.00  0.00    -0.200 F 
ENDBRANCH  56  79
ENDBRANCH  30  31
ENDBRANCH  22  25
ENDBRANCH  20  21
ENDBRANCH  19  20
ENDBRANCH  18  19
ENDBRANCH   1  18
TORSDOF 15
ENDMDL
MODEL 2
REMARK VINA RESULT:     -10.1      1.064      2.084
REMARK SMILES COCc1cccc(O[C@@H](F)C(=O)NCCCCNC(=O)c2ccc(-c3c4nc(c(-c5c(F)c(F)c(F)c(F)c5F)c5ccc([nH]5)c(-c5c(F)c(F)c(F)c(F)c5F)c5nc(c(-c6c(F)c(F)c(F)c(F)c6F)c6ccc3[nH]6)C=C5)C=C4)cc2)c1
REMARK SMILES IDX 15 1 14 2 12 3 13 4 10 6 11 7 9 8 8 9 4 10 5 11 85 12 6 13
REMARK SMILES IDX 7 14 3 15 2 16 1 17 16 18 17 19 18 20 19 21 20 22 21 24
REMARK SMILES IDX 22 25 23 26 84 27 24 28 83 29 25 30 26 31 27 32 77 33 28 34
REMARK SMILES IDX 82 35 76 36 78 37 29 38 81 39 75 40 74 41 30 43 62 44 42 45
REMARK SMILES IDX 61 46 43 47 46 48 60 49 79 50 44 51 45 52 59 54 80 55 47 56
REMARK SMILES IDX 31 57 32 58 40 59 33 60 34 61 38 62 41 63 35 64 36 65 39 66
REMARK SMILES IDX 37 67 63 68 64 69 72 70 65 71 66 72 70 73 73 74 67 75 68 76
REMARK SMILES IDX 71 77 69 78 48 79 49 80 57 81 50 82 51 83 55 84 58 85 52 86
REMARK SMILES IDX 53 87 56 88 54 89
REMARK H PARENT 14 5 19 23 78 42 46 53
REMARK Flexibility Score: inf
ROOT
ATOM      1  C   UNL A   1      42.714  19.431  25.607  1.00  0.00     0.116 C 
ENDROOT
BRANCH   1   2
ATOM      2  N   UNL A   1      43.877  18.576  25.503  1.00  0.00    -0.350 N 
ATOM      3  C   UNL A   1      45.155  18.876  25.116  1.00  0.00     0.294 C 
ATOM      4  O   UNL A   1      45.937  17.922  25.014  1.00  0.00    -0.267 OA
ATOM      5  H   UNL A   1      43.725  17.635  25.747  1.00  0.00     0.163 HD
BRANCH   3   6
ATOM      6  C   UNL A   1      45.630  20.331  24.845  1.00  0.00     0.440 C 
ATOM      7  F   UNL A   1      46.061  20.953  25.982  1.00  0.00    -0.191 F 
BRANCH   6   8
ATOM      8  O   UNL A   1      44.794  21.184  24.060  1.00  0.00    -0.452 OA
BRANCH   8   9
ATOM      9  C   UNL A   1      44.678  22.500  24.392  1.00  0.00     0.124 A 
ATOM     10  C   UNL A   1      45.576  24.700  24.933  1.00  0.00    -0.019 A 
ATOM     11  C   UNL A   1      44.276  25.136  25.235  1.00  0.00     0.006 A 
ATOM     12  C   UNL A   1      45.740  23.402  24.429  1.00  0.00     0.052 A 
ATOM     13  C   UNL A   1      43.185  24.279  25.070  1.00  0.00     0.004 A 
ATOM     14  C   UNL A   1      43.390  22.959  24.664  1.00  0.00     0.046 A 
BRANCH  10  15
ATOM     15  C   UNL A   1      46.755  25.589  25.269  1.00  0.00     0.195 C 
BRANCH  15  16
ATOM     16  O   UNL A   1      46.689  26.909  24.725  1.00  0.00    -0.380 OA
ATOM     17  C   UNL A   1      47.882  27.340  24.080  1.00  0.00     0.195 C 
ENDBRANCH  15  16
ENDBRANCH  10  15
ENDBRANCH   8   9
ENDBRANCH   6   8
ENDBRANCH   3   6
ENDBRANCH   1   2
BRANCH   1  18
ATOM     18  C   UNL A   1      42.411  19.770  27.070  1.00  0.00     0.023 C 
BRANCH  18  19
ATOM     19  C   UNL A   1      42.558  21.249  27.421  1.00  0.00     0.023 C 
BRANCH  19  20
ATOM     20  C   UNL A   1      41.253  21.939  27.809  1.00  0.00     0.116 C 
BRANCH  20  21
ATOM     21  N   UNL A   1      40.129  21.637  26.934  1.00  0.00    -0.352 N 
ATOM     22  C   UNL A   1      39.208  22.509  26.386  1.00  0.00     0.251 C 
ATOM     23  H   UNL A   1      40.010  20.688  26.703  1.00  0.00     0.163 HD
ATOM     24  O   UNL A   1      38.307  22.096  25.672  1.00  0.00    -0.269 OA
BRANCH  22  25
ATOM     25  C   UNL A   1      39.281  23.944  26.748  1.00  0.00     0.039 A 
ATOM     26  C   UNL A   1      38.869  24.329  28.026  1.00  0.00     0.014 A 
ATOM     27  C   UNL A   1      39.870  24.873  25.888  1.00  0.00     0.014 A 
ATOM     28  C   UNL A   1      39.168  25.613  28.489  1.00  0.00     0.010 A 
ATOM     29  C   UNL A   1      40.237  26.123  26.377  1.00  0.00     0.010 A 
ATOM     30  C   UNL A   1      39.919  26.494  27.693  1.00  0.00    -0.014 A 
BRANCH  30  31
ATOM     31  C   UNL A   1      40.432  27.779  28.238  1.00  0.00     0.031 A 
ATOM     32  C   UNL A   1      41.900  27.962  28.494  1.00  0.00     0.074 A 
ATOM     33  C   UNL A   1      39.560  28.749  28.582  1.00  0.00     0.049 A 
ATOM     34  N   UNL A   1      42.523  28.970  29.049  1.00  0.00    -0.248 NA
ATOM     35  C   UNL A   1      42.783  26.852  28.102  1.00  0.00     0.031 C 
ATOM     36  C   UNL A   1      38.103  28.669  28.443  1.00  0.00     0.029 A 
ATOM     37  N   UNL A   1      39.768  29.990  29.131  1.00  0.00    -0.354 N 
ATOM     38  C   UNL A   1      43.864  28.612  29.083  1.00  0.00     0.074 A 
ATOM     39  C   UNL A   1      43.959  27.273  28.542  1.00  0.00     0.031 C 
ATOM     40  C   UNL A   1      37.554  29.818  28.869  1.00  0.00     0.029 A 
ATOM     41  C   UNL A   1      38.612  30.704  29.344  1.00  0.00     0.049 A 
ATOM     42  H   UNL A   1      40.663  30.338  29.351  1.00  0.00     0.167 HD
ATOM     43  C   UNL A   1      44.924  29.343  29.504  1.00  0.00     0.037 A 
ATOM     44  C   UNL A   1      38.428  31.931  29.867  1.00  0.00     0.037 A 
ATOM     45  C   UNL A   1      44.833  30.685  30.015  1.00  0.00     0.049 A 
ATOM     46  C   UNL A   1      39.627  32.728  30.306  1.00  0.00     0.074 A 
ATOM     47  C   UNL A   1      45.853  31.522  30.433  1.00  0.00     0.029 A 
ATOM     48  N   UNL A   1      43.649  31.390  30.169  1.00  0.00    -0.354 N 
ATOM     49  N   UNL A   1      40.894  32.398  30.279  1.00  0.00    -0.248 NA
ATOM     50  C   UNL A   1      39.369  34.074  30.840  1.00  0.00     0.031 C 
ATOM     51  C   UNL A   1      45.284  32.725  30.863  1.00  0.00     0.029 A 
ATOM     52  C   UNL A   1      43.913  32.651  30.678  1.00  0.00     0.049 A 
ATOM     53  H   UNL A   1      42.753  31.046  29.949  1.00  0.00     0.167 HD
ATOM     54  C   UNL A   1      41.586  33.500  30.763  1.00  0.00     0.074 A 
ATOM     55  C   UNL A   1      40.598  34.516  31.061  1.00  0.00     0.031 C 
ATOM     56  C   UNL A   1      42.919  33.655  30.947  1.00  0.00     0.037 A 
BRANCH  43  57
ATOM     57  C   UNL A   1      46.281  28.713  29.404  1.00  0.00     0.064 A 
ATOM     58  C   UNL A   1      46.810  27.953  30.458  1.00  0.00     0.173 A 
ATOM     59  C   UNL A   1      47.043  28.834  28.233  1.00  0.00     0.173 A 
ATOM     60  F   UNL A   1      46.126  27.821  31.604  1.00  0.00    -0.203 F 
ATOM     61  C   UNL A   1      48.063  27.357  30.351  1.00  0.00     0.198 A 
ATOM     62  C   UNL A   1      48.284  28.213  28.119  1.00  0.00     0.198 A 
ATOM     63  F   UNL A   1      46.580  29.547  27.195  1.00  0.00    -0.203 F 
ATOM     64  F   UNL A   1      48.567  26.671  31.387  1.00  0.00    -0.200 F 
ATOM     65  C   UNL A   1      48.795  27.480  29.180  1.00  0.00     0.200 A 
ATOM     66  F   UNL A   1      48.986  28.325  26.984  1.00  0.00    -0.200 F 
ATOM     67  F   UNL A   1      49.998  26.898  29.076  1.00  0.00    -0.200 F 
ENDBRANCH  43  57
BRANCH  44  68
ATOM     68  C   UNL A   1      37.060  32.501  29.982  1.00  0.00     0.064 A 
ATOM     69  C   UNL A   1      36.504  33.250  28.934  1.00  0.00     0.173 A 
ATOM     70  C   UNL A   1      36.293  32.338  31.144  1.00  0.00     0.173 A 
ATOM     71  F   UNL A   1      37.208  33.453  27.810  1.00  0.00    -0.203 F 
ATOM     72  C   UNL A   1      35.247  33.839  29.056  1.00  0.00     0.198 A 
ATOM     73  C   UNL A   1      35.024  32.904  31.255  1.00  0.00     0.198 A 
ATOM     74  F   UNL A   1      36.775  31.626  32.173  1.00  0.00    -0.203 F 
ATOM     75  F   UNL A   1      34.765  34.596  28.062  1.00  0.00    -0.200 F 
ATOM     76  C   UNL A   1      34.506  33.663  30.215  1.00  0.00     0.200 A 
ATOM     77  F   UNL A   1      34.306  32.722  32.371  1.00  0.00    -0.200 F 
ATOM     78  F   UNL A   1      33.300  34.233  30.335  1.00  0.00    -0.200 F 
ENDBRANCH  44  68
BRANCH  56  79
ATOM     79  C   UNL A   1      43.391  34.985  31.455  1.00  0.00     0.064 A 
ATOM     80  C   UNL A   1      43.754  36.017  30.580  1.00  0.00     0.173 A 
ATOM     81  C   UNL A   1      43.439  35.239  32.834  1.00  0.00     0.173 A 
ATOM     82  F   UNL A   1      43.738  35.815  29.254  1.00  0.00    -0.203 F 
ATOM     83  C   UNL A   1      44.169  37.253  31.067  1.00  0.00     0.198 A 
ATOM     84  C   UNL A   1      43.831  36.485  33.317  1.00  0.00     0.198 A 
ATOM     85  F   UNL A   1      43.097  34.284  33.710  1.00  0.00    -0.203 F 
ATOM     86  F   UNL A   1      44.550  38.215  30.215  1.00  0.00    -0.200 F 
ATOM     87  C   UNL A   1      44.201  37.488  32.435  1.00  0.00     0.200 A 
ATOM     88  F   UNL A   1      43.851  36.712  34.638  1.00  0.00    -0.200 F 
ATOM     89  F   UNL A   1      44.595  38.680  32.901  1.00  0.00    -0.200 F 
ENDBRANCH  56  79
ENDBRANCH  30  31
ENDBRANCH  22  25
ENDBRANCH  20  21
ENDBRANCH  19  20
ENDBRANCH  18  19
ENDBRANCH   1  18
TORSDOF 15
ENDMDL
MODEL 3
REMARK VINA RESULT:     -10.1      6.097     11.732
REMARK SMILES COCc1cccc(O[C@@H](F)C(=O)NCCCCNC(=O)c2ccc(-c3c4nc(c(-c5c(F)c(F)c(F)c(F)c5F)c5ccc([nH]5)c(-c5c(F)c(F)c(F)c(F)c5F)c5nc(c(-c6c(F)c(F)c(F)c(F)c6F)c6ccc3[nH]6)C=C5)C=C4)cc2)c1
REMARK SMILES IDX 15 1 14 2 12 3 13 4 10 6 11 7 9 8 8 9 4 10 5 11 85 12 6 13
REMARK SMILES IDX 7 14 3 15 2 16 1 17 16 18 17 19 18 20 19 21 20 22 21 24
REMARK SMILES IDX 22 25 23 26 84 27 24 28 83 29 25 30 26 31 27 32 77 33 28 34
REMARK SMILES IDX 82 35 76 36 78 37 29 38 81 39 75 40 74 41 30 43 62 44 42 45
REMARK SMILES IDX 61 46 43 47 46 48 60 49 79 50 44 51 45 52 59 54 80 55 47 56
REMARK SMILES IDX 31 57 32 58 40 59 33 60 34 61 38 62 41 63 35 64 36 65 39 66
REMARK SMILES IDX 37 67 63 68 64 69 72 70 65 71 66 72 70 73 73 74 67 75 68 76
REMARK SMILES IDX 71 77 69 78 48 79 49 80 57 81 50 82 51 83 55 84 58 85 52 86
REMARK SMILES IDX 53 87 56 88 54 89
REMARK H PARENT 14 5 19 23 78 42 46 53
REMARK Flexibility Score: inf
ROOT
ATOM      1  C   UNL A   1      32.034  29.723  25.414  1.00  0.00     0.116 C 
ENDROOT
BRANCH   1   2
ATOM      2  N   UNL A   1      33.036  28.729  25.095  1.00  0.00    -0.350 N 
ATOM      3  C   UNL A   1      32.964  27.646  24.261  1.00  0.00     0.294 C 
ATOM      4  O   UNL A   1      33.945  26.891  24.254  1.00  0.00    -0.267 OA
ATOM      5  H   UNL A   1      33.902  28.850  25.547  1.00  0.00     0.163 HD
BRANCH   3   6
ATOM      6  C   UNL A   1      31.741  27.375  23.341  1.00  0.00     0.440 C 
ATOM      7  F   UNL A   1      31.773  26.124  22.794  1.00  0.00    -0.191 F 
BRANCH   6   8
ATOM      8  O   UNL A   1      31.386  28.366  22.374  1.00  0.00    -0.452 OA
BRANCH   8   9
ATOM      9  C   UNL A   1      30.118  28.862  22.356  1.00  0.00     0.124 A 
ATOM     10  C   UNL A   1      28.434  30.524  21.775  1.00  0.00    -0.019 A 
ATOM     11  C   UNL A   1      27.499  29.825  22.554  1.00  0.00     0.006 A 
ATOM     12  C   UNL A   1      29.714  29.974  21.620  1.00  0.00     0.052 A 
ATOM     13  C   UNL A   1      27.856  28.631  23.188  1.00  0.00     0.004 A 
ATOM     14  C   UNL A   1      29.168  28.162  23.101  1.00  0.00     0.046 A 
BRANCH  10  15
ATOM     15  C   UNL A   1      28.072  31.890  21.230  1.00  0.00     0.195 C 
BRANCH  15  16
ATOM     16  O   UNL A   1      28.885  32.965  21.707  1.00  0.00    -0.380 OA
ATOM     17  C   UNL A   1      28.816  33.177  23.112  1.00  0.00     0.195 C 
ENDBRANCH  15  16
ENDBRANCH  10  15
ENDBRANCH   8   9
ENDBRANCH   6   8
ENDBRANCH   3   6
ENDBRANCH   1   2
BRANCH   1  18
ATOM     18  C   UNL A   1      32.319  30.373  26.771  1.00  0.00     0.023 C 
BRANCH  18  19
ATOM     19  C   UNL A   1      31.914  31.842  26.868  1.00  0.00     0.023 C 
BRANCH  19  20
ATOM     20  C   UNL A   1      32.917  32.728  27.601  1.00  0.00     0.116 C 
BRANCH  20  21
ATOM     21  N   UNL A   1      32.455  34.088  27.842  1.00  0.00    -0.352 N 
ATOM     22  C   UNL A   1      33.019  35.056  28.651  1.00  0.00     0.251 C 
ATOM     23  H   UNL A   1      31.635  34.352  27.367  1.00  0.00     0.163 HD
ATOM     24  O   UNL A   1      32.501  36.157  28.757  1.00  0.00    -0.269 OA
BRANCH  22  25
ATOM     25  C   UNL A   1      34.215  34.707  29.453  1.00  0.00     0.039 A 
ATOM     26  C   UNL A   1      34.029  34.250  30.760  1.00  0.00     0.014 A 
ATOM     27  C   UNL A   1      35.489  34.707  28.882  1.00  0.00     0.014 A 
ATOM     28  C   UNL A   1      35.099  33.668  31.446  1.00  0.00     0.010 A 
ATOM     29  C   UNL A   1      36.533  34.058  29.533  1.00  0.00     0.010 A 
ATOM     30  C   UNL A   1      36.339  33.503  30.808  1.00  0.00    -0.014 A 
BRANCH  30  31
ATOM     31  C   UNL A   1      37.425  32.701  31.432  1.00  0.00     0.031 A 
ATOM     32  C   UNL A   1      37.928  33.042  32.805  1.00  0.00     0.074 A 
ATOM     33  C   UNL A   1      38.015  31.717  30.722  1.00  0.00     0.049 A 
ATOM     34  N   UNL A   1      38.925  32.521  33.473  1.00  0.00    -0.248 NA
ATOM     35  C   UNL A   1      37.240  34.135  33.508  1.00  0.00     0.031 C 
ATOM     36  C   UNL A   1      37.661  31.329  29.353  1.00  0.00     0.029 A 
ATOM     37  N   UNL A   1      39.045  30.869  31.045  1.00  0.00    -0.354 N 
ATOM     38  C   UNL A   1      38.990  33.227  34.666  1.00  0.00     0.074 A 
ATOM     39  C   UNL A   1      37.968  34.250  34.609  1.00  0.00     0.031 C 
ATOM     40  C   UNL A   1      38.441  30.306  28.967  1.00  0.00     0.029 A 
ATOM     41  C   UNL A   1      39.374  29.987  30.043  1.00  0.00     0.049 A 
ATOM     42  H   UNL A   1      39.507  30.890  31.916  1.00  0.00     0.167 HD
ATOM     43  C   UNL A   1      39.811  33.026  35.724  1.00  0.00     0.037 A 
ATOM     44  C   UNL A   1      40.322  29.031  29.997  1.00  0.00     0.037 A 
ATOM     45  C   UNL A   1      40.808  31.992  35.794  1.00  0.00     0.049 A 
ATOM     46  C   UNL A   1      41.205  28.817  31.197  1.00  0.00     0.074 A 
ATOM     47  C   UNL A   1      41.665  31.684  36.836  1.00  0.00     0.029 A 
ATOM     48  N   UNL A   1      41.076  31.087  34.776  1.00  0.00    -0.354 N 
ATOM     49  N   UNL A   1      41.217  29.457  32.340  1.00  0.00    -0.248 NA
ATOM     50  C   UNL A   1      42.202  27.741  31.102  1.00  0.00     0.031 C 
ATOM     51  C   UNL A   1      42.467  30.609  36.442  1.00  0.00     0.029 A 
ATOM     52  C   UNL A   1      42.086  30.224  35.167  1.00  0.00     0.049 A 
ATOM     53  H   UNL A   1      40.616  31.062  33.907  1.00  0.00     0.167 HD
ATOM     54  C   UNL A   1      42.196  28.845  33.110  1.00  0.00     0.074 A 
ATOM     55  C   UNL A   1      42.748  27.772  32.310  1.00  0.00     0.031 C 
ATOM     56  C   UNL A   1      42.605  29.148  34.365  1.00  0.00     0.037 A 
BRANCH  43  57
ATOM     57  C   UNL A   1      39.647  33.932  36.908  1.00  0.00     0.064 A 
ATOM     58  C   UNL A   1      40.245  35.200  36.944  1.00  0.00     0.173 A 
ATOM     59  C   UNL A   1      38.852  33.548  37.999  1.00  0.00     0.173 A 
ATOM     60  F   UNL A   1      41.026  35.606  35.932  1.00  0.00    -0.203 F 
ATOM     61  C   UNL A   1      40.073  36.042  38.039  1.00  0.00     0.198 A 
ATOM     62  C   UNL A   1      38.660  34.404  39.080  1.00  0.00     0.198 A 
ATOM     63  F   UNL A   1      38.254  32.347  38.012  1.00  0.00    -0.203 F 
ATOM     64  F   UNL A   1      40.689  37.231  38.069  1.00  0.00    -0.200 F 
ATOM     65  C   UNL A   1      39.274  35.648  39.102  1.00  0.00     0.200 A 
ATOM     66  F   UNL A   1      37.880  34.026  40.102  1.00  0.00    -0.200 F 
ATOM     67  F   UNL A   1      39.103  36.463  40.151  1.00  0.00    -0.200 F 
ENDBRANCH  43  57
BRANCH  44  68
ATOM     68  C   UNL A   1      40.474  28.181  28.787  1.00  0.00     0.064 A 
ATOM     69  C   UNL A   1      41.281  28.595  27.716  1.00  0.00     0.173 A 
ATOM     70  C   UNL A   1      39.799  26.959  28.660  1.00  0.00     0.173 A 
ATOM     71  F   UNL A   1      41.929  29.768  27.782  1.00  0.00    -0.203 F 
ATOM     72  C   UNL A   1      41.382  27.834  26.553  1.00  0.00     0.198 A 
ATOM     73  C   UNL A   1      39.923  26.185  27.507  1.00  0.00     0.198 A 
ATOM     74  F   UNL A   1      39.020  26.514  29.657  1.00  0.00    -0.203 F 
ATOM     75  F   UNL A   1      42.115  28.282  25.525  1.00  0.00    -0.200 F 
ATOM     76  C   UNL A   1      40.706  26.628  26.451  1.00  0.00     0.200 A 
ATOM     77  F   UNL A   1      39.278  25.014  27.416  1.00  0.00    -0.200 F 
ATOM     78  F   UNL A   1      40.799  25.899  25.331  1.00  0.00    -0.200 F 
ENDBRANCH  44  68
BRANCH  56  79
ATOM     79  C   UNL A   1      43.670  28.281  34.967  1.00  0.00     0.064 A 
ATOM     80  C   UNL A   1      45.029  28.605  34.858  1.00  0.00     0.173 A 
ATOM     81  C   UNL A   1      43.321  27.135  35.697  1.00  0.00     0.173 A 
ATOM     82  F   UNL A   1      45.411  29.683  34.155  1.00  0.00    -0.203 F 
ATOM     83  C   UNL A   1      46.004  27.801  35.441  1.00  0.00     0.198 A 
ATOM     84  C   UNL A   1      44.297  26.347  36.301  1.00  0.00     0.198 A 
ATOM     85  F   UNL A   1      42.033  26.786  35.833  1.00  0.00    -0.203 F 
ATOM     86  F   UNL A   1      47.301  28.106  35.292  1.00  0.00    -0.200 F 
ATOM     87  C   UNL A   1      45.637  26.677  36.168  1.00  0.00     0.200 A 
ATOM     88  F   UNL A   1      43.940  25.268  37.011  1.00  0.00    -0.200 F 
ATOM     89  F   UNL A   1      46.577  25.908  36.734  1.00  0.00    -0.200 F 
ENDBRANCH  56  79
ENDBRANCH  30  31
ENDBRANCH  22  25
ENDBRANCH  20  21
ENDBRANCH  19  20
ENDBRANCH  18  19
ENDBRANCH   1  18
TORSDOF 15
ENDMDL
