MODEL 1
REMARK VINA RESULT:     -11.3      0.000      0.000
REMARK SMILES O=C(CCC(=O)[C@H]1CSCCO1)NCCCCNC(=O)c1ccc(-c2c3nc(c(-c4c(F)c(F)c(F)c(F)c4F)c4ccc([nH]4)c(-c4c(F)c(F)c(F)c(F)c4F)c4nc(c(-c5c(F)c(F)c(F)c(F)c5F)c5ccc2[nH]5)C=C4)C=C3)cc1
REMARK SMILES IDX 15 1 14 2 13 3 1 4 2 5 3 7 4 8 5 9 6 10 7 11 8 12 12 13 9 14
REMARK SMILES IDX 11 15 10 16 16 17 17 18 18 19 19 20 20 22 21 23 22 24 83 25
REMARK SMILES IDX 23 26 82 27 24 28 25 29 26 30 76 31 27 32 81 33 75 34 77 35
REMARK SMILES IDX 28 36 80 37 74 38 73 39 29 41 61 42 41 43 60 44 42 45 45 46
REMARK SMILES IDX 59 47 78 48 43 49 44 50 58 52 79 53 46 54 30 55 31 56 39 57
REMARK SMILES IDX 32 58 33 59 37 60 40 61 34 62 35 63 38 64 36 65 62 66 63 67
REMARK SMILES IDX 71 68 64 69 65 70 69 71 72 72 66 73 67 74 70 75 68 76 47 77
REMARK SMILES IDX 48 78 56 79 49 80 50 81 54 82 57 83 51 84 52 85 55 86 53 87
REMARK H PARENT 13 6 18 21 77 40 45 51
REMARK Flexibility Score: inf
ROOT
ATOM      1  C   UNL A   1      31.820  30.621  26.173  1.00  0.00     0.023 C 
ENDROOT
BRANCH   1   2
ATOM      2  C   UNL A   1      32.688  29.669  26.991  1.00  0.00     0.116 C 
BRANCH   2   3
ATOM      3  N   UNL A   1      32.791  28.322  26.465  1.00  0.00    -0.356 N 
ATOM      4  O   UNL A   1      31.011  27.492  27.665  1.00  0.00    -0.275 OA
ATOM      5  C   UNL A   1      31.884  27.345  26.817  1.00  0.00     0.220 C 
ATOM      6  H   UNL A   1      33.524  28.102  25.845  1.00  0.00     0.163 HD
BRANCH   5   7
ATOM      7  C   UNL A   1      31.953  26.097  25.964  1.00  0.00     0.108 C 
BRANCH   7   8
ATOM      8  C   UNL A   1      30.554  25.513  25.783  1.00  0.00     0.088 C 
BRANCH   8   9
ATOM      9  C   UNL A   1      30.518  24.058  26.217  1.00  0.00     0.162 C 
ATOM     10  O   UNL A   1      30.004  23.785  27.311  1.00  0.00    -0.297 OA
BRANCH   9  11
ATOM     11  C   UNL A   1      31.179  22.954  25.364  1.00  0.00     0.194 C 
ATOM     12  C   UNL A   1      31.369  23.297  23.886  1.00  0.00     0.109 C 
ATOM     13  O   UNL A   1      32.436  22.695  26.016  1.00  0.00    -0.369 OA
ATOM     14  S   UNL A   1      32.209  21.964  22.967  1.00  0.00    -0.156 SA
ATOM     15  C   UNL A   1      33.136  21.561  25.503  1.00  0.00     0.172 C 
ATOM     16  C   UNL A   1      33.632  21.791  24.083  1.00  0.00     0.098 C 
ENDBRANCH   9  11
ENDBRANCH   8   9
ENDBRANCH   7   8
ENDBRANCH   5   7
ENDBRANCH   2   3
ENDBRANCH   1   2
BRANCH   1  17
ATOM     17  C   UNL A   1      31.517  32.006  26.753  1.00  0.00     0.023 C 
BRANCH  17  18
ATOM     18  C   UNL A   1      32.677  32.831  27.310  1.00  0.00     0.116 C 
BRANCH  18  19
ATOM     19  N   UNL A   1      32.328  34.189  27.700  1.00  0.00    -0.352 N 
ATOM     20  C   UNL A   1      32.962  35.033  28.583  1.00  0.00     0.251 C 
ATOM     21  H   UNL A   1      31.522  34.556  27.269  1.00  0.00     0.163 HD
ATOM     22  O   UNL A   1      32.518  36.161  28.782  1.00  0.00    -0.269 OA
BRANCH  20  23
ATOM     23  C   UNL A   1      34.148  34.576  29.342  1.00  0.00     0.039 A 
ATOM     24  C   UNL A   1      33.958  34.077  30.636  1.00  0.00     0.014 A 
ATOM     25  C   UNL A   1      35.431  34.610  28.791  1.00  0.00     0.014 A 
ATOM     26  C   UNL A   1      35.032  33.515  31.333  1.00  0.00     0.010 A 
ATOM     27  C   UNL A   1      36.495  34.010  29.470  1.00  0.00     0.010 A 
ATOM     28  C   UNL A   1      36.298  33.428  30.732  1.00  0.00    -0.014 A 
BRANCH  28  29
ATOM     29  C   UNL A   1      37.393  32.647  31.368  1.00  0.00     0.031 A 
ATOM     30  C   UNL A   1      37.906  32.997  32.735  1.00  0.00     0.074 A 
ATOM     31  C   UNL A   1      37.979  31.655  30.669  1.00  0.00     0.049 A 
ATOM     32  N   UNL A   1      38.889  32.457  33.412  1.00  0.00    -0.248 NA
ATOM     33  C   UNL A   1      37.240  34.112  33.423  1.00  0.00     0.031 C 
ATOM     34  C   UNL A   1      37.607  31.247  29.312  1.00  0.00     0.029 A 
ATOM     35  N   UNL A   1      39.021  30.820  30.991  1.00  0.00    -0.354 N 
ATOM     36  C   UNL A   1      38.966  33.168  34.600  1.00  0.00     0.074 A 
ATOM     37  C   UNL A   1      37.955  34.204  34.537  1.00  0.00     0.031 C 
ATOM     38  C   UNL A   1      38.397  30.234  28.926  1.00  0.00     0.029 A 
ATOM     39  C   UNL A   1      39.352  29.940  29.989  1.00  0.00     0.049 A 
ATOM     40  H   UNL A   1      39.486  30.850  31.859  1.00  0.00     0.167 HD
ATOM     41  C   UNL A   1      39.793  32.965  35.655  1.00  0.00     0.037 A 
ATOM     42  C   UNL A   1      40.322  29.008  29.929  1.00  0.00     0.037 A 
ATOM     43  C   UNL A   1      40.792  31.928  35.724  1.00  0.00     0.049 A 
ATOM     44  C   UNL A   1      41.231  28.809  31.111  1.00  0.00     0.074 A 
ATOM     45  C   UNL A   1      41.636  31.611  36.775  1.00  0.00     0.029 A 
ATOM     46  N   UNL A   1      41.088  31.045  34.696  1.00  0.00    -0.354 N 
ATOM     47  N   UNL A   1      41.244  29.439  32.260  1.00  0.00    -0.248 NA
ATOM     48  C   UNL A   1      42.258  27.765  30.988  1.00  0.00     0.031 C 
ATOM     49  C   UNL A   1      42.469  30.563  36.369  1.00  0.00     0.029 A 
ATOM     50  C   UNL A   1      42.115  30.197  35.082  1.00  0.00     0.049 A 
ATOM     51  H   UNL A   1      40.634  31.023  33.822  1.00  0.00     0.167 HD
ATOM     52  C   UNL A   1      42.256  28.852  33.005  1.00  0.00     0.074 A 
ATOM     53  C   UNL A   1      42.829  27.806  32.184  1.00  0.00     0.031 C 
ATOM     54  C   UNL A   1      42.672  29.154  34.259  1.00  0.00     0.037 A 
BRANCH  41  55
ATOM     55  C   UNL A   1      39.655  33.887  36.831  1.00  0.00     0.064 A 
ATOM     56  C   UNL A   1      40.282  35.141  36.856  1.00  0.00     0.173 A 
ATOM     57  C   UNL A   1      38.847  33.535  37.923  1.00  0.00     0.173 A 
ATOM     58  F   UNL A   1      41.070  35.522  35.839  1.00  0.00    -0.203 F 
ATOM     59  C   UNL A   1      40.129  35.998  37.943  1.00  0.00     0.198 A 
ATOM     60  C   UNL A   1      38.676  34.405  38.997  1.00  0.00     0.198 A 
ATOM     61  F   UNL A   1      38.217  32.351  37.945  1.00  0.00    -0.203 F 
ATOM     62  F   UNL A   1      40.772  37.173  37.963  1.00  0.00    -0.200 F 
ATOM     63  C   UNL A   1      39.321  35.632  39.010  1.00  0.00     0.200 A 
ATOM     64  F   UNL A   1      37.884  34.056  40.021  1.00  0.00    -0.200 F 
ATOM     65  F   UNL A   1      39.170  36.460  40.052  1.00  0.00    -0.200 F 
ENDBRANCH  41  55
BRANCH  42  66
ATOM     66  C   UNL A   1      40.468  28.170  28.712  1.00  0.00     0.064 A 
ATOM     67  C   UNL A   1      41.260  28.597  27.638  1.00  0.00     0.173 A 
ATOM     68  C   UNL A   1      39.820  26.932  28.596  1.00  0.00     0.173 A 
ATOM     69  F   UNL A   1      41.881  29.784  27.695  1.00  0.00    -0.203 F 
ATOM     70  C   UNL A   1      41.385  27.825  26.485  1.00  0.00     0.198 A 
ATOM     71  C   UNL A   1      39.966  26.149  27.452  1.00  0.00     0.198 A 
ATOM     72  F   UNL A   1      39.053  26.477  29.598  1.00  0.00    -0.203 F 
ATOM     73  F   UNL A   1      42.115  28.277  25.455  1.00  0.00    -0.200 F 
ATOM     74  C   UNL A   1      40.743  26.600  26.395  1.00  0.00     0.200 A 
ATOM     75  F   UNL A   1      39.353  24.960  27.374  1.00  0.00    -0.200 F 
ATOM     76  F   UNL A   1      40.865  25.858  25.287  1.00  0.00    -0.200 F 
ENDBRANCH  42  66
BRANCH  54  77
ATOM     77  C   UNL A   1      43.780  28.321  34.836  1.00  0.00     0.064 A 
ATOM     78  C   UNL A   1      45.124  28.704  34.718  1.00  0.00     0.173 A 
ATOM     79  C   UNL A   1      43.489  27.144  35.541  1.00  0.00     0.173 A 
ATOM     80  F   UNL A   1      45.454  29.811  34.038  1.00  0.00    -0.203 F 
ATOM     81  C   UNL A   1      46.139  27.926  35.272  1.00  0.00     0.198 A 
ATOM     82  C   UNL A   1      44.505  26.384  36.115  1.00  0.00     0.198 A 
ATOM     83  F   UNL A   1      42.219  26.737  35.684  1.00  0.00    -0.203 F 
ATOM     84  F   UNL A   1      47.420  28.288  35.111  1.00  0.00    -0.200 F 
ATOM     85  C   UNL A   1      45.829  26.772  35.974  1.00  0.00     0.200 A 
ATOM     86  F   UNL A   1      44.202  25.274  36.803  1.00  0.00    -0.200 F 
ATOM     87  F   UNL A   1      46.806  26.028  36.510  1.00  0.00    -0.200 F 
ENDBRANCH  54  77
ENDBRANCH  28  29
ENDBRANCH  20  23
ENDBRANCH  18  19
ENDBRANCH  17  18
ENDBRANCH   1  17
TORSDOF 14
ENDMDL
MODEL 2
REMARK VINA RESULT:     -11.3      1.293      2.229
REMARK SMILES O=C(CCC(=O)[C@H]1CSCCO1)NCCCCNC(=O)c1ccc(-c2c3nc(c(-c4c(F)c(F)c(F)c(F)c4F)c4ccc([nH]4)c(-c4c(F)c(F)c(F)c(F)c4F)c4nc(c(-c5c(F)c(F)c(F)c(F)c5F)c5ccc2[nH]5)C=C4)C=C3)cc1
REMARK SMILES IDX 15 1 14 2 13 3 1 4 2 5 3 7 4 8 5 9 6 10 7 11 8 12 12 13 9 14
REMARK SMILES IDX 11 15 10 16 16 17 17 18 18 19 19 20 20 22 21 23 22 24 83 25
REMARK SMILES IDX 23 26 82 27 24 28 25 29 26 30 76 31 27 32 81 33 75 34 77 35
REMARK SMILES IDX 28 36 80 37 74 38 73 39 29 41 61 42 41 43 60 44 42 45 45 46
REMARK SMILES IDX 59 47 78 48 43 49 44 50 58 52 79 53 46 54 30 55 31 56 39 57
REMARK SMILES IDX 32 58 33 59 37 60 40 61 34 62 35 63 38 64 36 65 62 66 63 67
REMARK SMILES IDX 71 68 64 69 65 70 69 71 72 72 66 73 67 74 70 75 68 76 47 77
REMARK SMILES IDX 48 78 56 79 49 80 50 81 54 82 57 83 51 84 52 85 55 86 53 87
REMARK H PARENT 13 6 18 21 77 40 45 51
REMARK Flexibility Score: inf
ROOT
ATOM      1  C   UNL A   1      31.763  30.515  26.505  1.00  0.00     0.023 C 
ENDROOT
BRANCH   1   2
ATOM      2  C   UNL A   1      33.154  30.028  26.106  1.00  0.00     0.116 C 
BRANCH   2   3
ATOM      3  N   UNL A   1      33.294  29.635  24.718  1.00  0.00    -0.356 N 
ATOM      4  O   UNL A   1      32.150  27.650  24.947  1.00  0.00    -0.275 OA
ATOM      5  C   UNL A   1      32.716  28.478  24.241  1.00  0.00     0.220 C 
ATOM      6  H   UNL A   1      33.813  30.205  24.105  1.00  0.00     0.163 HD
BRANCH   5   7
ATOM      7  C   UNL A   1      32.702  28.366  22.731  1.00  0.00     0.108 C 
BRANCH   7   8
ATOM      8  C   UNL A   1      31.913  27.130  22.307  1.00  0.00     0.088 C 
BRANCH   8   9
ATOM      9  C   UNL A   1      32.849  25.970  22.012  1.00  0.00     0.162 C 
ATOM     10  O   UNL A   1      33.292  25.854  20.860  1.00  0.00    -0.297 OA
BRANCH   9  11
ATOM     11  C   UNL A   1      33.173  24.911  23.087  1.00  0.00     0.194 C 
ATOM     12  C   UNL A   1      32.117  23.820  23.267  1.00  0.00     0.109 C 
ATOM     13  O   UNL A   1      34.441  24.363  22.685  1.00  0.00    -0.369 OA
ATOM     14  S   UNL A   1      32.605  22.580  24.512  1.00  0.00    -0.156 SA
ATOM     15  C   UNL A   1      35.031  23.490  23.651  1.00  0.00     0.172 C 
ATOM     16  C   UNL A   1      34.239  22.201  23.814  1.00  0.00     0.098 C 
ENDBRANCH   9  11
ENDBRANCH   8   9
ENDBRANCH   7   8
ENDBRANCH   5   7
ENDBRANCH   2   3
ENDBRANCH   1   2
BRANCH   1  17
ATOM     17  C   UNL A   1      31.550  32.019  26.701  1.00  0.00     0.023 C 
BRANCH  17  18
ATOM     18  C   UNL A   1      32.701  32.849  27.271  1.00  0.00     0.116 C 
BRANCH  18  19
ATOM     19  N   UNL A   1      32.338  34.200  27.671  1.00  0.00    -0.352 N 
ATOM     20  C   UNL A   1      32.959  35.040  28.568  1.00  0.00     0.251 C 
ATOM     21  H   UNL A   1      31.533  34.566  27.238  1.00  0.00     0.163 HD
ATOM     22  O   UNL A   1      32.504  36.163  28.775  1.00  0.00    -0.269 OA
BRANCH  20  23
ATOM     23  C   UNL A   1      34.143  34.585  29.332  1.00  0.00     0.039 A 
ATOM     24  C   UNL A   1      33.949  34.089  30.627  1.00  0.00     0.014 A 
ATOM     25  C   UNL A   1      35.427  34.617  28.784  1.00  0.00     0.014 A 
ATOM     26  C   UNL A   1      35.020  33.528  31.328  1.00  0.00     0.010 A 
ATOM     27  C   UNL A   1      36.489  34.019  29.467  1.00  0.00     0.010 A 
ATOM     28  C   UNL A   1      36.288  33.440  30.731  1.00  0.00    -0.014 A 
BRANCH  28  29
ATOM     29  C   UNL A   1      37.381  32.660  31.372  1.00  0.00     0.031 A 
ATOM     30  C   UNL A   1      37.894  33.017  32.737  1.00  0.00     0.074 A 
ATOM     31  C   UNL A   1      37.965  31.663  30.679  1.00  0.00     0.049 A 
ATOM     32  N   UNL A   1      38.875  32.479  33.417  1.00  0.00    -0.248 NA
ATOM     33  C   UNL A   1      37.230  34.138  33.418  1.00  0.00     0.031 C 
ATOM     34  C   UNL A   1      37.593  31.247  29.324  1.00  0.00     0.029 A 
ATOM     35  N   UNL A   1      39.005  30.827  31.006  1.00  0.00    -0.354 N 
ATOM     36  C   UNL A   1      38.953  33.197  34.602  1.00  0.00     0.074 A 
ATOM     37  C   UNL A   1      37.945  34.235  34.532  1.00  0.00     0.031 C 
ATOM     38  C   UNL A   1      38.381  30.230  28.944  1.00  0.00     0.029 A 
ATOM     39  C   UNL A   1      39.335  29.941  30.010  1.00  0.00     0.049 A 
ATOM     40  H   UNL A   1      39.469  30.861  31.874  1.00  0.00     0.167 HD
ATOM     41  C   UNL A   1      39.780  32.998  35.658  1.00  0.00     0.037 A 
ATOM     42  C   UNL A   1      40.302  29.006  29.956  1.00  0.00     0.037 A 
ATOM     43  C   UNL A   1      40.776  31.960  35.734  1.00  0.00     0.049 A 
ATOM     44  C   UNL A   1      41.210  28.812  31.139  1.00  0.00     0.074 A 
ATOM     45  C   UNL A   1      41.618  31.646  36.787  1.00  0.00     0.029 A 
ATOM     46  N   UNL A   1      41.070  31.069  34.712  1.00  0.00    -0.354 N 
ATOM     47  N   UNL A   1      41.224  29.449  32.284  1.00  0.00    -0.248 NA
ATOM     48  C   UNL A   1      42.235  27.765  31.023  1.00  0.00     0.031 C 
ATOM     49  C   UNL A   1      42.449  30.594  36.388  1.00  0.00     0.029 A 
ATOM     50  C   UNL A   1      42.095  30.221  35.102  1.00  0.00     0.049 A 
ATOM     51  H   UNL A   1      40.617  31.043  33.837  1.00  0.00     0.167 HD
ATOM     52  C   UNL A   1      42.234  28.863  33.034  1.00  0.00     0.074 A 
ATOM     53  C   UNL A   1      42.805  27.812  32.219  1.00  0.00     0.031 C 
ATOM     54  C   UNL A   1      42.651  29.173  34.286  1.00  0.00     0.037 A 
BRANCH  41  55
ATOM     55  C   UNL A   1      39.642  33.927  36.828  1.00  0.00     0.064 A 
ATOM     56  C   UNL A   1      38.872  33.585  37.949  1.00  0.00     0.173 A 
ATOM     57  C   UNL A   1      40.327  35.152  36.852  1.00  0.00     0.173 A 
ATOM     58  F   UNL A   1      38.192  32.429  37.973  1.00  0.00    -0.203 F 
ATOM     59  C   UNL A   1      38.768  34.446  39.038  1.00  0.00     0.198 A 
ATOM     60  C   UNL A   1      40.242  35.999  37.953  1.00  0.00     0.198 A 
ATOM     61  F   UNL A   1      41.086  35.523  35.810  1.00  0.00    -0.203 F 
ATOM     62  F   UNL A   1      37.991  34.117  40.079  1.00  0.00    -0.200 F 
ATOM     63  C   UNL A   1      39.458  35.650  39.042  1.00  0.00     0.200 A 
ATOM     64  F   UNL A   1      40.920  37.156  37.962  1.00  0.00    -0.200 F 
ATOM     65  F   UNL A   1      39.363  36.474  40.094  1.00  0.00    -0.200 F 
ENDBRANCH  41  55
BRANCH  42  66
ATOM     66  C   UNL A   1      40.447  28.160  28.744  1.00  0.00     0.064 A 
ATOM     67  C   UNL A   1      41.249  28.574  27.672  1.00  0.00     0.173 A 
ATOM     68  C   UNL A   1      39.788  26.928  28.630  1.00  0.00     0.173 A 
ATOM     69  F   UNL A   1      41.881  29.756  27.727  1.00  0.00    -0.203 F 
ATOM     70  C   UNL A   1      41.373  27.796  26.523  1.00  0.00     0.198 A 
ATOM     71  C   UNL A   1      39.933  26.139  27.491  1.00  0.00     0.198 A 
ATOM     72  F   UNL A   1      39.011  26.486  29.630  1.00  0.00    -0.203 F 
ATOM     73  F   UNL A   1      42.113  28.236  25.496  1.00  0.00    -0.200 F 
ATOM     74  C   UNL A   1      40.720  26.577  26.436  1.00  0.00     0.200 A 
ATOM     75  F   UNL A   1      39.309  24.955  27.416  1.00  0.00    -0.200 F 
ATOM     76  F   UNL A   1      40.841  25.827  25.333  1.00  0.00    -0.200 F 
ENDBRANCH  42  66
BRANCH  54  77
ATOM     77  C   UNL A   1      43.756  28.340  34.868  1.00  0.00     0.064 A 
ATOM     78  C   UNL A   1      43.495  27.129  35.525  1.00  0.00     0.173 A 
ATOM     79  C   UNL A   1      45.093  28.744  34.738  1.00  0.00     0.173 A 
ATOM     80  F   UNL A   1      42.232  26.709  35.691  1.00  0.00    -0.203 F 
ATOM     81  C   UNL A   1      44.533  26.361  36.048  1.00  0.00     0.198 A 
ATOM     82  C   UNL A   1      46.129  27.960  35.238  1.00  0.00     0.198 A 
ATOM     83  F   UNL A   1      45.395  29.893  34.115  1.00  0.00    -0.203 F 
ATOM     84  F   UNL A   1      44.258  25.228  36.709  1.00  0.00    -0.200 F 
ATOM     85  C   UNL A   1      45.849  26.773  35.898  1.00  0.00     0.200 A 
ATOM     86  F   UNL A   1      47.401  28.355  35.083  1.00  0.00    -0.200 F 
ATOM     87  F   UNL A   1      46.846  26.031  36.397  1.00  0.00    -0.200 F 
ENDBRANCH  54  77
ENDBRANCH  28  29
ENDBRANCH  20  23
ENDBRANCH  18  19
ENDBRANCH  17  18
ENDBRANCH   1  17
TORSDOF 14
ENDMDL
MODEL 3
REMARK VINA RESULT:     -11.2      2.152      8.182
REMARK SMILES O=C(CCC(=O)[C@H]1CSCCO1)NCCCCNC(=O)c1ccc(-c2c3nc(c(-c4c(F)c(F)c(F)c(F)c4F)c4ccc([nH]4)c(-c4c(F)c(F)c(F)c(F)c4F)c4nc(c(-c5c(F)c(F)c(F)c(F)c5F)c5ccc2[nH]5)C=C4)C=C3)cc1
REMARK SMILES IDX 15 1 14 2 13 3 1 4 2 5 3 7 4 8 5 9 6 10 7 11 8 12 12 13 9 14
REMARK SMILES IDX 11 15 10 16 16 17 17 18 18 19 19 20 20 22 21 23 22 24 83 25
REMARK SMILES IDX 23 26 82 27 24 28 25 29 26 30 76 31 27 32 81 33 75 34 77 35
REMARK SMILES IDX 28 36 80 37 74 38 73 39 29 41 61 42 41 43 60 44 42 45 45 46
REMARK SMILES IDX 59 47 78 48 43 49 44 50 58 52 79 53 46 54 30 55 31 56 39 57
REMARK SMILES IDX 32 58 33 59 37 60 40 61 34 62 35 63 38 64 36 65 62 66 63 67
REMARK SMILES IDX 71 68 64 69 65 70 69 71 72 72 66 73 67 74 70 75 68 76 47 77
REMARK SMILES IDX 48 78 56 79 49 80 50 81 54 82 57 83 51 84 52 85 55 86 53 87
REMARK H PARENT 13 6 18 21 77 40 45 51
REMARK Flexibility Score: inf
ROOT
ATOM      1  C   UNL A   1      32.136  30.451  26.648  1.00  0.00     0.023 C 
ENDROOT
BRANCH   1   2
ATOM      2  C   UNL A   1      33.434  29.748  26.261  1.00  0.00     0.116 C 
BRANCH   2   3
ATOM      3  N   UNL A   1      33.544  29.383  24.862  1.00  0.00    -0.356 N 
ATOM      4  O   UNL A   1      33.031  27.162  25.187  1.00  0.00    -0.275 OA
ATOM      5  C   UNL A   1      33.270  28.101  24.435  1.00  0.00     0.220 C 
ATOM      6  H   UNL A   1      33.819  30.063  24.206  1.00  0.00     0.163 HD
BRANCH   5   7
ATOM      7  C   UNL A   1      33.141  27.960  22.933  1.00  0.00     0.108 C 
BRANCH   7   8
ATOM      8  C   UNL A   1      32.127  28.969  22.401  1.00  0.00     0.088 C 
BRANCH   8   9
ATOM      9  C   UNL A   1      30.720  28.400  22.462  1.00  0.00     0.162 C 
ATOM     10  O   UNL A   1      30.582  27.170  22.387  1.00  0.00    -0.297 OA
BRANCH   9  11
ATOM     11  C   UNL A   1      29.486  29.324  22.528  1.00  0.00     0.194 C 
ATOM     12  C   UNL A   1      29.525  30.389  23.625  1.00  0.00     0.109 C 
ATOM     13  O   UNL A   1      29.404  29.914  21.217  1.00  0.00    -0.369 OA
ATOM     14  S   UNL A   1      28.059  31.473  23.593  1.00  0.00    -0.156 SA
ATOM     15  C   UNL A   1      28.210  30.665  20.990  1.00  0.00     0.172 C 
ATOM     16  C   UNL A   1      28.161  31.928  21.837  1.00  0.00     0.098 C 
ENDBRANCH   9  11
ENDBRANCH   8   9
ENDBRANCH   7   8
ENDBRANCH   5   7
ENDBRANCH   2   3
ENDBRANCH   1   2
BRANCH   1  17
ATOM     17  C   UNL A   1      32.217  31.655  27.592  1.00  0.00     0.023 C 
BRANCH  17  18
ATOM     18  C   UNL A   1      33.010  32.881  27.142  1.00  0.00     0.116 C 
BRANCH  18  19
ATOM     19  N   UNL A   1      32.495  34.152  27.629  1.00  0.00    -0.352 N 
ATOM     20  C   UNL A   1      32.998  34.980  28.607  1.00  0.00     0.251 C 
ATOM     21  H   UNL A   1      31.668  34.466  27.195  1.00  0.00     0.163 HD
ATOM     22  O   UNL A   1      32.423  36.030  28.881  1.00  0.00    -0.269 OA
BRANCH  20  23
ATOM     23  C   UNL A   1      34.202  34.590  29.376  1.00  0.00     0.039 A 
ATOM     24  C   UNL A   1      34.031  34.092  30.673  1.00  0.00     0.014 A 
ATOM     25  C   UNL A   1      35.485  34.687  28.832  1.00  0.00     0.014 A 
ATOM     26  C   UNL A   1      35.127  33.591  31.381  1.00  0.00     0.010 A 
ATOM     27  C   UNL A   1      36.574  34.149  29.522  1.00  0.00     0.010 A 
ATOM     28  C   UNL A   1      36.400  33.566  30.787  1.00  0.00    -0.014 A 
BRANCH  28  29
ATOM     29  C   UNL A   1      37.530  32.848  31.436  1.00  0.00     0.031 A 
ATOM     30  C   UNL A   1      38.178  31.663  30.780  1.00  0.00     0.074 A 
ATOM     31  C   UNL A   1      37.924  33.227  32.668  1.00  0.00     0.049 A 
ATOM     32  N   UNL A   1      39.134  30.890  31.230  1.00  0.00    -0.248 NA
ATOM     33  C   UNL A   1      37.672  31.287  29.452  1.00  0.00     0.031 C 
ATOM     34  C   UNL A   1      37.343  34.331  33.435  1.00  0.00     0.029 A 
ATOM     35  N   UNL A   1      38.892  32.719  33.500  1.00  0.00    -0.354 N 
ATOM     36  C   UNL A   1      39.341  29.932  30.248  1.00  0.00     0.074 A 
ATOM     37  C   UNL A   1      38.384  30.198  29.193  1.00  0.00     0.031 C 
ATOM     38  C   UNL A   1      37.974  34.425  34.616  1.00  0.00     0.029 A 
ATOM     39  C   UNL A   1      38.980  33.371  34.705  1.00  0.00     0.049 A 
ATOM     40  H   UNL A   1      39.468  31.959  33.254  1.00  0.00     0.167 HD
ATOM     41  C   UNL A   1      40.257  28.932  30.222  1.00  0.00     0.037 A 
ATOM     42  C   UNL A   1      39.774  33.142  35.768  1.00  0.00     0.037 A 
ATOM     43  C   UNL A   1      41.216  28.672  31.266  1.00  0.00     0.049 A 
ATOM     44  C   UNL A   1      40.776  32.021  35.715  1.00  0.00     0.074 A 
ATOM     45  C   UNL A   1      42.219  27.719  31.299  1.00  0.00     0.029 A 
ATOM     46  N   UNL A   1      41.286  29.365  32.465  1.00  0.00    -0.354 N 
ATOM     47  N   UNL A   1      41.013  31.170  34.748  1.00  0.00    -0.248 NA
ATOM     48  C   UNL A   1      41.624  31.834  36.901  1.00  0.00     0.031 C 
ATOM     49  C   UNL A   1      42.870  27.807  32.534  1.00  0.00     0.029 A 
ATOM     50  C   UNL A   1      42.302  28.846  33.253  1.00  0.00     0.049 A 
ATOM     51  H   UNL A   1      40.701  30.116  32.719  1.00  0.00     0.167 HD
ATOM     52  C   UNL A   1      42.052  30.366  35.194  1.00  0.00     0.074 A 
ATOM     53  C   UNL A   1      42.409  30.838  36.516  1.00  0.00     0.031 C 
ATOM     54  C   UNL A   1      42.654  29.328  34.564  1.00  0.00     0.037 A 
BRANCH  41  55
ATOM     55  C   UNL A   1      40.268  28.036  29.018  1.00  0.00     0.064 A 
ATOM     56  C   UNL A   1      41.015  28.354  27.875  1.00  0.00     0.173 A 
ATOM     57  C   UNL A   1      39.563  26.823  29.025  1.00  0.00     0.173 A 
ATOM     58  F   UNL A   1      41.700  29.506  27.816  1.00  0.00    -0.203 F 
ATOM     59  C   UNL A   1      41.034  27.505  26.772  1.00  0.00     0.198 A 
ATOM     60  C   UNL A   1      39.605  25.963  27.930  1.00  0.00     0.198 A 
ATOM     61  F   UNL A   1      38.841  26.465  30.097  1.00  0.00    -0.203 F 
ATOM     62  F   UNL A   1      41.721  27.851  25.674  1.00  0.00    -0.200 F 
ATOM     63  C   UNL A   1      40.335  26.307  26.802  1.00  0.00     0.200 A 
ATOM     64  F   UNL A   1      38.940  24.800  27.966  1.00  0.00    -0.200 F 
ATOM     65  F   UNL A   1      40.360  25.489  25.742  1.00  0.00    -0.200 F 
ENDBRANCH  41  55
BRANCH  42  66
ATOM     66  C   UNL A   1      39.674  34.011  36.968  1.00  0.00     0.064 A 
ATOM     67  C   UNL A   1      38.876  33.638  38.059  1.00  0.00     0.173 A 
ATOM     68  C   UNL A   1      40.366  35.228  37.050  1.00  0.00     0.173 A 
ATOM     69  F   UNL A   1      38.178  32.494  38.017  1.00  0.00    -0.203 F 
ATOM     70  C   UNL A   1      38.760  34.458  39.179  1.00  0.00     0.198 A 
ATOM     71  C   UNL A   1      40.269  36.034  38.182  1.00  0.00     0.198 A 
ATOM     72  F   UNL A   1      41.144  35.628  36.033  1.00  0.00    -0.203 F 
ATOM     73  F   UNL A   1      37.958  34.097  40.190  1.00  0.00    -0.200 F 
ATOM     74  C   UNL A   1      39.461  35.652  39.242  1.00  0.00     0.200 A 
ATOM     75  F   UNL A   1      40.957  37.183  38.243  1.00  0.00    -0.200 F 
ATOM     76  F   UNL A   1      39.352  36.439  40.320  1.00  0.00    -0.200 F 
ENDBRANCH  42  66
BRANCH  54  77
ATOM     77  C   UNL A   1      43.788  28.653  35.279  1.00  0.00     0.064 A 
ATOM     78  C   UNL A   1      43.567  27.590  36.167  1.00  0.00     0.173 A 
ATOM     79  C   UNL A   1      45.112  29.054  35.049  1.00  0.00     0.173 A 
ATOM     80  F   UNL A   1      42.318  27.182  36.434  1.00  0.00    -0.203 F 
ATOM     81  C   UNL A   1      44.631  26.965  36.812  1.00  0.00     0.198 A 
ATOM     82  C   UNL A   1      46.175  28.409  35.676  1.00  0.00     0.198 A 
ATOM     83  F   UNL A   1      45.377  30.065  34.207  1.00  0.00    -0.203 F 
ATOM     84  F   UNL A   1      44.394  25.979  37.689  1.00  0.00    -0.200 F 
ATOM     85  C   UNL A   1      45.934  27.370  36.562  1.00  0.00     0.200 A 
ATOM     86  F   UNL A   1      47.434  28.796  35.424  1.00  0.00    -0.200 F 
ATOM     87  F   UNL A   1      46.956  26.764  37.180  1.00  0.00    -0.200 F 
ENDBRANCH  54  77
ENDBRANCH  28  29
ENDBRANCH  20  23
ENDBRANCH  18  19
ENDBRANCH  17  18
ENDBRANCH   1  17
TORSDOF 14
ENDMDL
