MODEL 1
REMARK VINA RESULT:     -10.7      0.000      0.000
REMARK SMILES CCC[C@@H](C)[C@@](C#N)(CC)C(=O)NCCCCNC(=O)c1ccc(-c2c3nc(c(-c4c(F)c(F)c(F)c(F)c4F)c4ccc([nH]4)c(-c4c(F)c(F)c(F)c(F)c4F)c4nc(c(-c5c(F)c(F)c(F)c(F)c5F)c5ccc2[nH]5)C=C4)C=C3)cc1
REMARK SMILES IDX 15 1 14 2 13 3 11 4 12 5 6 7 4 8 5 9 3 10 2 11 1 12 7 13
REMARK SMILES IDX 8 14 9 15 10 16 16 17 17 18 18 19 19 20 20 22 21 23 22 24
REMARK SMILES IDX 83 25 23 26 82 27 24 28 25 29 26 30 76 31 27 32 81 33 75 34
REMARK SMILES IDX 77 35 28 36 80 37 74 38 73 39 29 41 61 42 41 43 60 44 42 45
REMARK SMILES IDX 45 46 59 47 78 48 43 49 44 50 58 52 79 53 46 54 30 55 31 56
REMARK SMILES IDX 39 57 32 58 33 59 37 60 40 61 34 62 35 63 38 64 36 65 62 66
REMARK SMILES IDX 63 67 71 68 64 69 65 70 69 71 72 72 66 73 67 74 70 75 68 76
REMARK SMILES IDX 47 77 48 78 56 79 49 80 50 81 54 82 57 83 51 84 52 85 55 86
REMARK SMILES IDX 53 87
REMARK H PARENT 13 6 18 21 77 40 45 51
REMARK Flexibility Score: inf
ROOT
ATOM      1  C   UNL A   1      32.068  30.416  26.659  1.00  0.00     0.023 C 
ENDROOT
BRANCH   1   2
ATOM      2  C   UNL A   1      31.635  29.866  25.303  1.00  0.00     0.116 C 
BRANCH   2   3
ATOM      3  N   UNL A   1      32.772  29.685  24.415  1.00  0.00    -0.355 N 
ATOM      4  C   UNL A   1      33.289  28.573  23.811  1.00  0.00     0.240 C 
ATOM      5  O   UNL A   1      34.300  28.758  23.130  1.00  0.00    -0.273 OA
ATOM      6  H   UNL A   1      33.259  30.515  24.212  1.00  0.00     0.163 HD
BRANCH   4   7
ATOM      7  C   UNL A   1      32.661  27.174  23.995  1.00  0.00     0.138 C 
BRANCH   7   8
ATOM      8  C   UNL A   1      32.982  26.508  25.408  1.00  0.00     0.016 C 
ATOM      9  C   UNL A   1      34.253  25.641  25.413  1.00  0.00     0.010 C 
BRANCH   8  10
ATOM     10  C   UNL A   1      31.782  25.746  26.039  1.00  0.00     0.005 C 
BRANCH  10  11
ATOM     11  C   UNL A   1      31.812  24.211  25.926  1.00  0.00    -0.003 C 
ATOM     12  C   UNL A   1      30.636  23.508  26.585  1.00  0.00     0.004 C 
ENDBRANCH  10  11
ENDBRANCH   8  10
ENDBRANCH   7   8
BRANCH   7  13
ATOM     13  C   UNL A   1      33.294  26.296  22.928  1.00  0.00     0.079 C 
ATOM     14  N   UNL A   1      33.819  25.569  22.042  1.00  0.00    -0.197 NA
ENDBRANCH   7  13
BRANCH   7  15
ATOM     15  C   UNL A   1      31.116  27.184  23.742  1.00  0.00     0.029 C 
ATOM     16  C   UNL A   1      30.626  27.704  22.391  1.00  0.00     0.006 C 
ENDBRANCH   7  15
ENDBRANCH   4   7
ENDBRANCH   2   3
ENDBRANCH   1   2
BRANCH   1  17
ATOM     17  C   UNL A   1      31.710  31.884  26.879  1.00  0.00     0.023 C 
BRANCH  17  18
ATOM     18  C   UNL A   1      32.877  32.758  27.316  1.00  0.00     0.116 C 
BRANCH  18  19
ATOM     19  N   UNL A   1      32.480  34.122  27.631  1.00  0.00    -0.352 N 
ATOM     20  C   UNL A   1      33.002  34.957  28.590  1.00  0.00     0.251 C 
ATOM     21  H   UNL A   1      31.747  34.494  27.088  1.00  0.00     0.163 HD
ATOM     22  O   UNL A   1      32.494  36.040  28.832  1.00  0.00    -0.269 OA
BRANCH  20  23
ATOM     23  C   UNL A   1      34.177  34.493  29.354  1.00  0.00     0.039 A 
ATOM     24  C   UNL A   1      33.979  33.853  30.579  1.00  0.00     0.014 A 
ATOM     25  C   UNL A   1      35.459  34.642  28.821  1.00  0.00     0.014 A 
ATOM     26  C   UNL A   1      35.073  33.304  31.247  1.00  0.00     0.010 A 
ATOM     27  C   UNL A   1      36.536  34.034  29.452  1.00  0.00     0.010 A 
ATOM     28  C   UNL A   1      36.352  33.365  30.674  1.00  0.00    -0.014 A 
BRANCH  28  29
ATOM     29  C   UNL A   1      37.535  32.769  31.338  1.00  0.00     0.031 A 
ATOM     30  C   UNL A   1      38.265  31.643  30.663  1.00  0.00     0.074 A 
ATOM     31  C   UNL A   1      37.891  33.170  32.573  1.00  0.00     0.049 A 
ATOM     32  N   UNL A   1      39.214  30.872  31.127  1.00  0.00    -0.248 NA
ATOM     33  C   UNL A   1      37.841  31.318  29.291  1.00  0.00     0.031 C 
ATOM     34  C   UNL A   1      37.239  34.232  33.340  1.00  0.00     0.029 A 
ATOM     35  N   UNL A   1      38.878  32.713  33.409  1.00  0.00    -0.354 N 
ATOM     36  C   UNL A   1      39.477  29.955  30.119  1.00  0.00     0.074 A 
ATOM     37  C   UNL A   1      38.560  30.235  29.036  1.00  0.00     0.031 C 
ATOM     38  C   UNL A   1      37.850  34.352  34.530  1.00  0.00     0.029 A 
ATOM     39  C   UNL A   1      38.907  33.348  34.626  1.00  0.00     0.049 A 
ATOM     40  H   UNL A   1      39.506  31.998  33.160  1.00  0.00     0.167 HD
ATOM     41  C   UNL A   1      40.414  28.979  30.093  1.00  0.00     0.037 A 
ATOM     42  C   UNL A   1      39.688  33.132  35.702  1.00  0.00     0.037 A 
ATOM     43  C   UNL A   1      41.349  28.733  31.158  1.00  0.00     0.049 A 
ATOM     44  C   UNL A   1      40.729  32.046  35.644  1.00  0.00     0.074 A 
ATOM     45  C   UNL A   1      42.371  27.803  31.210  1.00  0.00     0.029 A 
ATOM     46  N   UNL A   1      41.377  29.430  32.357  1.00  0.00    -0.354 N 
ATOM     47  N   UNL A   1      41.002  31.213  34.670  1.00  0.00    -0.248 NA
ATOM     48  C   UNL A   1      41.575  31.873  36.834  1.00  0.00     0.031 C 
ATOM     49  C   UNL A   1      42.998  27.915  32.455  1.00  0.00     0.029 A 
ATOM     50  C   UNL A   1      42.396  28.945  33.159  1.00  0.00     0.049 A 
ATOM     51  H   UNL A   1      40.765  30.161  32.600  1.00  0.00     0.167 HD
ATOM     52  C   UNL A   1      42.071  30.446  35.110  1.00  0.00     0.074 A 
ATOM     53  C   UNL A   1      42.400  30.911  36.441  1.00  0.00     0.031 C 
ATOM     54  C   UNL A   1      42.725  29.448  34.468  1.00  0.00     0.037 A 
BRANCH  41  55
ATOM     55  C   UNL A   1      40.474  28.108  28.873  1.00  0.00     0.064 A 
ATOM     56  C   UNL A   1      39.758  26.905  28.792  1.00  0.00     0.173 A 
ATOM     57  C   UNL A   1      41.234  28.496  27.760  1.00  0.00     0.173 A 
ATOM     58  F   UNL A   1      39.027  26.483  29.835  1.00  0.00    -0.203 F 
ATOM     59  C   UNL A   1      39.824  26.107  27.654  1.00  0.00     0.198 A 
ATOM     60  C   UNL A   1      41.274  27.710  26.611  1.00  0.00     0.198 A 
ATOM     61  F   UNL A   1      41.935  29.640  27.783  1.00  0.00    -0.203 F 
ATOM     62  F   UNL A   1      39.173  24.936  27.619  1.00  0.00    -0.200 F 
ATOM     63  C   UNL A   1      40.576  26.513  26.562  1.00  0.00     0.200 A 
ATOM     64  F   UNL A   1      41.993  28.110  25.553  1.00  0.00    -0.200 F 
ATOM     65  F   UNL A   1      40.635  25.747  25.464  1.00  0.00    -0.200 F 
ENDBRANCH  41  55
BRANCH  42  66
ATOM     66  C   UNL A   1      39.534  33.976  36.914  1.00  0.00     0.064 A 
ATOM     67  C   UNL A   1      40.164  35.225  37.003  1.00  0.00     0.173 A 
ATOM     68  C   UNL A   1      38.762  33.556  38.007  1.00  0.00     0.173 A 
ATOM     69  F   UNL A   1      40.930  35.660  35.991  1.00  0.00    -0.203 F 
ATOM     70  C   UNL A   1      40.044  36.013  38.146  1.00  0.00     0.198 A 
ATOM     71  C   UNL A   1      38.621  34.357  39.139  1.00  0.00     0.198 A 
ATOM     72  F   UNL A   1      38.133  32.372  37.970  1.00  0.00    -0.203 F 
ATOM     73  F   UNL A   1      40.693  37.183  38.220  1.00  0.00    -0.200 F 
ATOM     74  C   UNL A   1      39.269  35.580  39.210  1.00  0.00     0.200 A 
ATOM     75  F   UNL A   1      37.860  33.942  40.160  1.00  0.00    -0.200 F 
ATOM     76  F   UNL A   1      39.151  36.340  40.308  1.00  0.00    -0.200 F 
ENDBRANCH  42  66
BRANCH  54  77
ATOM     77  C   UNL A   1      43.904  28.832  35.160  1.00  0.00     0.064 A 
ATOM     78  C   UNL A   1      43.763  27.738  36.024  1.00  0.00     0.173 A 
ATOM     79  C   UNL A   1      45.199  29.302  34.894  1.00  0.00     0.173 A 
ATOM     80  F   UNL A   1      42.543  27.264  36.320  1.00  0.00    -0.203 F 
ATOM     81  C   UNL A   1      44.878  27.140  36.605  1.00  0.00     0.198 A 
ATOM     82  C   UNL A   1      46.313  28.686  35.456  1.00  0.00     0.198 A 
ATOM     83  F   UNL A   1      45.384  30.342  34.068  1.00  0.00    -0.203 F 
ATOM     84  F   UNL A   1      44.720  26.113  37.452  1.00  0.00    -0.200 F 
ATOM     85  C   UNL A   1      46.151  27.608  36.314  1.00  0.00     0.200 A 
ATOM     86  F   UNL A   1      47.542  29.130  35.163  1.00  0.00    -0.200 F 
ATOM     87  F   UNL A   1      47.224  27.021  36.862  1.00  0.00    -0.200 F 
ENDBRANCH  54  77
ENDBRANCH  28  29
ENDBRANCH  20  23
ENDBRANCH  18  19
ENDBRANCH  17  18
ENDBRANCH   1  17
TORSDOF 16
ENDMDL
MODEL 2
REMARK VINA RESULT:     -10.6      0.895      2.061
REMARK SMILES CCC[C@@H](C)[C@@](C#N)(CC)C(=O)NCCCCNC(=O)c1ccc(-c2c3nc(c(-c4c(F)c(F)c(F)c(F)c4F)c4ccc([nH]4)c(-c4c(F)c(F)c(F)c(F)c4F)c4nc(c(-c5c(F)c(F)c(F)c(F)c5F)c5ccc2[nH]5)C=C4)C=C3)cc1
REMARK SMILES IDX 15 1 14 2 13 3 11 4 12 5 6 7 4 8 5 9 3 10 2 11 1 12 7 13
REMARK SMILES IDX 8 14 9 15 10 16 16 17 17 18 18 19 19 20 20 22 21 23 22 24
REMARK SMILES IDX 83 25 23 26 82 27 24 28 25 29 26 30 76 31 27 32 81 33 75 34
REMARK SMILES IDX 77 35 28 36 80 37 74 38 73 39 29 41 61 42 41 43 60 44 42 45
REMARK SMILES IDX 45 46 59 47 78 48 43 49 44 50 58 52 79 53 46 54 30 55 31 56
REMARK SMILES IDX 39 57 32 58 33 59 37 60 40 61 34 62 35 63 38 64 36 65 62 66
REMARK SMILES IDX 63 67 71 68 64 69 65 70 69 71 72 72 66 73 67 74 70 75 68 76
REMARK SMILES IDX 47 77 48 78 56 79 49 80 50 81 54 82 57 83 51 84 52 85 55 86
REMARK SMILES IDX 53 87
REMARK H PARENT 13 6 18 21 77 40 45 51
REMARK Flexibility Score: inf
ROOT
ATOM      1  C   UNL A   1      32.085  30.530  26.610  1.00  0.00     0.023 C 
ENDROOT
BRANCH   1   2
ATOM      2  C   UNL A   1      31.376  29.875  25.428  1.00  0.00     0.116 C 
BRANCH   2   3
ATOM      3  N   UNL A   1      32.281  29.684  24.305  1.00  0.00    -0.355 N 
ATOM      4  C   UNL A   1      32.362  28.703  23.357  1.00  0.00     0.240 C 
ATOM      5  O   UNL A   1      33.283  28.821  22.546  1.00  0.00    -0.273 OA
ATOM      6  H   UNL A   1      32.959  30.390  24.212  1.00  0.00     0.163 HD
BRANCH   4   7
ATOM      7  C   UNL A   1      31.380  27.510  23.326  1.00  0.00     0.138 C 
BRANCH   7   8
ATOM      8  C   UNL A   1      29.866  27.919  23.612  1.00  0.00     0.016 C 
ATOM      9  C   UNL A   1      28.937  26.722  23.876  1.00  0.00     0.010 C 
BRANCH   8  10
ATOM     10  C   UNL A   1      29.255  28.878  22.549  1.00  0.00     0.005 C 
BRANCH  10  11
ATOM     11  C   UNL A   1      27.923  29.550  22.923  1.00  0.00    -0.003 C 
ATOM     12  C   UNL A   1      28.065  30.950  23.500  1.00  0.00     0.004 C 
ENDBRANCH  10  11
ENDBRANCH   8  10
ENDBRANCH   7   8
BRANCH   7  13
ATOM     13  C   UNL A   1      31.820  26.589  24.453  1.00  0.00     0.079 C 
ATOM     14  N   UNL A   1      32.184  25.825  25.387  1.00  0.00    -0.197 NA
ENDBRANCH   7  13
BRANCH   7  15
ATOM     15  C   UNL A   1      31.479  26.701  21.990  1.00  0.00     0.029 C 
ATOM     16  C   UNL A   1      32.446  25.518  21.952  1.00  0.00     0.006 C 
ENDBRANCH   7  15
ENDBRANCH   4   7
ENDBRANCH   2   3
ENDBRANCH   1   2
BRANCH   1  17
ATOM     17  C   UNL A   1      31.770  32.013  26.783  1.00  0.00     0.023 C 
BRANCH  17  18
ATOM     18  C   UNL A   1      32.905  32.834  27.379  1.00  0.00     0.116 C 
BRANCH  18  19
ATOM     19  N   UNL A   1      32.514  34.198  27.700  1.00  0.00    -0.352 N 
ATOM     20  C   UNL A   1      33.032  35.022  28.671  1.00  0.00     0.251 C 
ATOM     21  H   UNL A   1      31.789  34.579  27.152  1.00  0.00     0.163 HD
ATOM     22  O   UNL A   1      32.529  36.107  28.915  1.00  0.00    -0.269 OA
BRANCH  20  23
ATOM     23  C   UNL A   1      34.196  34.545  29.443  1.00  0.00     0.039 A 
ATOM     24  C   UNL A   1      33.988  33.977  30.700  1.00  0.00     0.014 A 
ATOM     25  C   UNL A   1      35.476  34.608  28.887  1.00  0.00     0.014 A 
ATOM     26  C   UNL A   1      35.066  33.413  31.383  1.00  0.00     0.010 A 
ATOM     27  C   UNL A   1      36.533  33.985  29.535  1.00  0.00     0.010 A 
ATOM     28  C   UNL A   1      36.338  33.387  30.791  1.00  0.00    -0.014 A 
BRANCH  28  29
ATOM     29  C   UNL A   1      37.503  32.772  31.471  1.00  0.00     0.031 A 
ATOM     30  C   UNL A   1      38.206  31.617  30.818  1.00  0.00     0.074 A 
ATOM     31  C   UNL A   1      37.863  33.185  32.700  1.00  0.00     0.049 A 
ATOM     32  N   UNL A   1      39.133  30.830  31.298  1.00  0.00    -0.248 NA
ATOM     33  C   UNL A   1      37.779  31.281  29.449  1.00  0.00     0.031 C 
ATOM     34  C   UNL A   1      37.236  34.276  33.447  1.00  0.00     0.029 A 
ATOM     35  N   UNL A   1      38.835  32.717  33.548  1.00  0.00    -0.354 N 
ATOM     36  C   UNL A   1      39.377  29.891  30.306  1.00  0.00     0.074 A 
ATOM     37  C   UNL A   1      38.472  30.176  29.215  1.00  0.00     0.031 C 
ATOM     38  C   UNL A   1      37.844  34.399  34.638  1.00  0.00     0.029 A 
ATOM     39  C   UNL A   1      38.875  33.371  34.755  1.00  0.00     0.049 A 
ATOM     40  H   UNL A   1      39.446  31.982  33.314  1.00  0.00     0.167 HD
ATOM     41  C   UNL A   1      40.289  28.890  30.301  1.00  0.00     0.037 A 
ATOM     42  C   UNL A   1      39.646  33.153  35.837  1.00  0.00     0.037 A 
ATOM     43  C   UNL A   1      41.213  28.639  31.374  1.00  0.00     0.049 A 
ATOM     44  C   UNL A   1      40.659  32.040  35.802  1.00  0.00     0.074 A 
ATOM     45  C   UNL A   1      42.211  27.684  31.446  1.00  0.00     0.029 A 
ATOM     46  N   UNL A   1      41.254  29.355  32.561  1.00  0.00    -0.354 N 
ATOM     47  N   UNL A   1      40.915  31.184  34.843  1.00  0.00    -0.248 NA
ATOM     48  C   UNL A   1      41.495  31.865  36.999  1.00  0.00     0.031 C 
ATOM     49  C   UNL A   1      42.836  27.801  32.691  1.00  0.00     0.029 A 
ATOM     50  C   UNL A   1      42.257  28.857  33.376  1.00  0.00     0.049 A 
ATOM     51  H   UNL A   1      40.659  30.105  32.789  1.00  0.00     0.167 HD
ATOM     52  C   UNL A   1      41.963  30.398  35.300  1.00  0.00     0.074 A 
ATOM     53  C   UNL A   1      42.297  30.877  36.625  1.00  0.00     0.031 C 
ATOM     54  C   UNL A   1      42.594  29.374  34.677  1.00  0.00     0.037 A 
BRANCH  41  55
ATOM     55  C   UNL A   1      40.332  27.999  29.096  1.00  0.00     0.064 A 
ATOM     56  C   UNL A   1      39.618  26.793  29.047  1.00  0.00     0.173 A 
ATOM     57  C   UNL A   1      41.074  28.368  27.964  1.00  0.00     0.173 A 
ATOM     58  F   UNL A   1      38.904  26.388  30.108  1.00  0.00    -0.203 F 
ATOM     59  C   UNL A   1      39.668  25.975  27.922  1.00  0.00     0.198 A 
ATOM     60  C   UNL A   1      41.098  27.562  26.829  1.00  0.00     0.198 A 
ATOM     61  F   UNL A   1      41.772  29.514  27.956  1.00  0.00    -0.203 F 
ATOM     62  F   UNL A   1      39.019  24.802  27.918  1.00  0.00    -0.200 F 
ATOM     63  C   UNL A   1      40.402  26.364  26.812  1.00  0.00     0.200 A 
ATOM     64  F   UNL A   1      41.798  27.945  25.752  1.00  0.00    -0.200 F 
ATOM     65  F   UNL A   1      40.445  25.578  25.727  1.00  0.00    -0.200 F 
ENDBRANCH  41  55
BRANCH  42  66
ATOM     66  C   UNL A   1      39.508  34.020  37.035  1.00  0.00     0.064 A 
ATOM     67  C   UNL A   1      40.182  35.246  37.113  1.00  0.00     0.173 A 
ATOM     68  C   UNL A   1      38.709  33.645  38.125  1.00  0.00     0.173 A 
ATOM     69  F   UNL A   1      40.975  35.639  36.104  1.00  0.00    -0.203 F 
ATOM     70  C   UNL A   1      40.078  36.056  38.242  1.00  0.00     0.198 A 
ATOM     71  C   UNL A   1      38.584  34.468  39.242  1.00  0.00     0.198 A 
ATOM     72  F   UNL A   1      38.038  32.484  38.097  1.00  0.00    -0.203 F 
ATOM     73  F   UNL A   1      40.767  37.203  38.307  1.00  0.00    -0.200 F 
ATOM     74  C   UNL A   1      39.275  35.668  39.303  1.00  0.00     0.200 A 
ATOM     75  F   UNL A   1      37.796  34.097  40.261  1.00  0.00    -0.200 F 
ATOM     76  F   UNL A   1      39.172  36.448  40.389  1.00  0.00    -0.200 F 
ENDBRANCH  42  66
BRANCH  54  77
ATOM     77  C   UNL A   1      43.754  28.739  35.385  1.00  0.00     0.064 A 
ATOM     78  C   UNL A   1      45.070  29.177  35.183  1.00  0.00     0.173 A 
ATOM     79  C   UNL A   1      43.531  27.729  36.332  1.00  0.00     0.173 A 
ATOM     80  F   UNL A   1      45.333  30.131  34.278  1.00  0.00    -0.203 F 
ATOM     81  C   UNL A   1      46.124  28.618  35.900  1.00  0.00     0.198 A 
ATOM     82  C   UNL A   1      44.584  27.191  37.065  1.00  0.00     0.198 A 
ATOM     83  F   UNL A   1      42.288  27.282  36.564  1.00  0.00    -0.203 F 
ATOM     84  F   UNL A   1      47.379  29.030  35.672  1.00  0.00    -0.200 F 
ATOM     85  C   UNL A   1      45.880  27.633  36.846  1.00  0.00     0.200 A 
ATOM     86  F   UNL A   1      44.345  26.249  37.988  1.00  0.00    -0.200 F 
ATOM     87  F   UNL A   1      46.895  27.108  37.545  1.00  0.00    -0.200 F 
ENDBRANCH  54  77
ENDBRANCH  28  29
ENDBRANCH  20  23
ENDBRANCH  18  19
ENDBRANCH  17  18
ENDBRANCH   1  17
TORSDOF 16
ENDMDL
MODEL 3
REMARK VINA RESULT:     -10.6      5.928     11.340
REMARK SMILES CCC[C@@H](C)[C@@](C#N)(CC)C(=O)NCCCCNC(=O)c1ccc(-c2c3nc(c(-c4c(F)c(F)c(F)c(F)c4F)c4ccc([nH]4)c(-c4c(F)c(F)c(F)c(F)c4F)c4nc(c(-c5c(F)c(F)c(F)c(F)c5F)c5ccc2[nH]5)C=C4)C=C3)cc1
REMARK SMILES IDX 15 1 14 2 13 3 11 4 12 5 6 7 4 8 5 9 3 10 2 11 1 12 7 13
REMARK SMILES IDX 8 14 9 15 10 16 16 17 17 18 18 19 19 20 20 22 21 23 22 24
REMARK SMILES IDX 83 25 23 26 82 27 24 28 25 29 26 30 76 31 27 32 81 33 75 34
REMARK SMILES IDX 77 35 28 36 80 37 74 38 73 39 29 41 61 42 41 43 60 44 42 45
REMARK SMILES IDX 45 46 59 47 78 48 43 49 44 50 58 52 79 53 46 54 30 55 31 56
REMARK SMILES IDX 39 57 32 58 33 59 37 60 40 61 34 62 35 63 38 64 36 65 62 66
REMARK SMILES IDX 63 67 71 68 64 69 65 70 69 71 72 72 66 73 67 74 70 75 68 76
REMARK SMILES IDX 47 77 48 78 56 79 49 80 50 81 54 82 57 83 51 84 52 85 55 86
REMARK SMILES IDX 53 87
REMARK H PARENT 13 6 18 21 77 40 45 51
REMARK Flexibility Score: inf
ROOT
ATOM      1  C   UNL A   1      36.875  20.538  25.120  1.00  0.00     0.023 C 
ENDROOT
BRANCH   1   2
ATOM      2  C   UNL A   1      36.364  21.954  25.372  1.00  0.00     0.116 C 
BRANCH   2   3
ATOM      3  N   UNL A   1      35.583  22.028  26.596  1.00  0.00    -0.355 N 
ATOM      4  C   UNL A   1      34.348  22.550  26.859  1.00  0.00     0.240 C 
ATOM      5  O   UNL A   1      33.979  22.478  28.034  1.00  0.00    -0.273 OA
ATOM      6  H   UNL A   1      36.026  21.629  27.379  1.00  0.00     0.163 HD
BRANCH   4   7
ATOM      7  C   UNL A   1      33.487  23.212  25.761  1.00  0.00     0.138 C 
BRANCH   7   8
ATOM      8  C   UNL A   1      34.198  24.448  25.048  1.00  0.00     0.016 C 
ATOM      9  C   UNL A   1      33.911  25.802  25.719  1.00  0.00     0.010 C 
BRANCH   8  10
ATOM     10  C   UNL A   1      33.957  24.521  23.513  1.00  0.00     0.005 C 
BRANCH  10  11
ATOM     11  C   UNL A   1      32.939  25.570  23.031  1.00  0.00    -0.003 C 
ATOM     12  C   UNL A   1      31.503  25.071  22.970  1.00  0.00     0.004 C 
ENDBRANCH  10  11
ENDBRANCH   8  10
ENDBRANCH   7   8
BRANCH   7  13
ATOM     13  C   UNL A   1      32.255  23.747  26.472  1.00  0.00     0.079 C 
ATOM     14  N   UNL A   1      31.233  24.191  27.063  1.00  0.00    -0.197 NA
ENDBRANCH   7  13
BRANCH   7  15
ATOM     15  C   UNL A   1      33.001  22.177  24.691  1.00  0.00     0.029 C 
ATOM     16  C   UNL A   1      32.153  21.003  25.179  1.00  0.00     0.006 C 
ENDBRANCH   7  15
ENDBRANCH   4   7
ENDBRANCH   2   3
ENDBRANCH   1   2
BRANCH   1  17
ATOM     17  C   UNL A   1      38.372  20.457  24.834  1.00  0.00     0.023 C 
BRANCH  17  18
ATOM     18  C   UNL A   1      39.246  20.340  26.075  1.00  0.00     0.116 C 
BRANCH  18  19
ATOM     19  N   UNL A   1      40.184  19.230  26.008  1.00  0.00    -0.352 N 
ATOM     20  C   UNL A   1      41.554  19.271  26.105  1.00  0.00     0.251 C 
ATOM     21  H   UNL A   1      39.788  18.337  25.878  1.00  0.00     0.163 HD
ATOM     22  O   UNL A   1      42.234  18.276  25.911  1.00  0.00    -0.269 OA
BRANCH  20  23
ATOM     23  C   UNL A   1      42.193  20.565  26.414  1.00  0.00     0.039 A 
ATOM     24  C   UNL A   1      42.525  21.425  25.367  1.00  0.00     0.014 A 
ATOM     25  C   UNL A   1      42.401  20.941  27.744  1.00  0.00     0.014 A 
ATOM     26  C   UNL A   1      43.015  22.699  25.656  1.00  0.00     0.010 A 
ATOM     27  C   UNL A   1      42.822  22.233  28.030  1.00  0.00     0.010 A 
ATOM     28  C   UNL A   1      43.138  23.120  26.989  1.00  0.00    -0.014 A 
BRANCH  28  29
ATOM     29  C   UNL A   1      43.627  24.475  27.337  1.00  0.00     0.031 A 
ATOM     30  C   UNL A   1      42.659  25.486  27.879  1.00  0.00     0.074 A 
ATOM     31  C   UNL A   1      44.903  24.819  27.082  1.00  0.00     0.049 A 
ATOM     32  N   UNL A   1      42.828  26.765  28.096  1.00  0.00    -0.248 NA
ATOM     33  C   UNL A   1      41.303  24.997  28.182  1.00  0.00     0.031 C 
ATOM     34  C   UNL A   1      45.927  23.932  26.528  1.00  0.00     0.029 A 
ATOM     35  N   UNL A   1      45.550  26.020  27.234  1.00  0.00    -0.354 N 
ATOM     36  C   UNL A   1      41.597  27.236  28.530  1.00  0.00     0.074 A 
ATOM     37  C   UNL A   1      40.678  26.120  28.505  1.00  0.00     0.031 C 
ATOM     38  C   UNL A   1      47.075  24.615  26.396  1.00  0.00     0.029 A 
ATOM     39  C   UNL A   1      46.858  25.997  26.816  1.00  0.00     0.049 A 
ATOM     40  H   UNL A   1      45.118  26.820  27.609  1.00  0.00     0.167 HD
ATOM     41  C   UNL A   1      41.269  28.487  28.932  1.00  0.00     0.037 A 
ATOM     42  C   UNL A   1      47.771  26.986  26.763  1.00  0.00     0.037 A 
ATOM     43  C   UNL A   1      42.199  29.582  28.993  1.00  0.00     0.049 A 
ATOM     44  C   UNL A   1      47.383  28.365  27.225  1.00  0.00     0.074 A 
ATOM     45  C   UNL A   1      41.981  30.874  29.435  1.00  0.00     0.029 A 
ATOM     46  N   UNL A   1      43.529  29.507  28.606  1.00  0.00    -0.354 N 
ATOM     47  N   UNL A   1      46.230  28.793  27.677  1.00  0.00    -0.248 NA
ATOM     48  C   UNL A   1      48.427  29.400  27.175  1.00  0.00     0.031 C 
ATOM     49  C   UNL A   1      43.172  31.592  29.284  1.00  0.00     0.029 A 
ATOM     50  C   UNL A   1      44.142  30.734  28.792  1.00  0.00     0.049 A 
ATOM     51  H   UNL A   1      43.970  28.701  28.253  1.00  0.00     0.167 HD
ATOM     52  C   UNL A   1      46.417  30.129  28.001  1.00  0.00     0.074 A 
ATOM     53  C   UNL A   1      47.796  30.445  27.694  1.00  0.00     0.031 C 
ATOM     54  C   UNL A   1      45.527  31.014  28.511  1.00  0.00     0.037 A 
BRANCH  41  55
ATOM     55  C   UNL A   1      39.847  28.733  29.340  1.00  0.00     0.064 A 
ATOM     56  C   UNL A   1      39.411  28.519  30.656  1.00  0.00     0.173 A 
ATOM     57  C   UNL A   1      38.914  29.215  28.410  1.00  0.00     0.173 A 
ATOM     58  F   UNL A   1      40.261  28.044  31.579  1.00  0.00    -0.203 F 
ATOM     59  C   UNL A   1      38.087  28.749  31.019  1.00  0.00     0.198 A 
ATOM     60  C   UNL A   1      37.598  29.474  28.784  1.00  0.00     0.198 A 
ATOM     61  F   UNL A   1      39.279  29.442  27.139  1.00  0.00    -0.203 F 
ATOM     62  F   UNL A   1      37.681  28.488  32.269  1.00  0.00    -0.200 F 
ATOM     63  C   UNL A   1      37.184  29.233  30.085  1.00  0.00     0.200 A 
ATOM     64  F   UNL A   1      36.729  29.953  27.883  1.00  0.00    -0.200 F 
ATOM     65  F   UNL A   1      35.911  29.461  30.437  1.00  0.00    -0.200 F 
ENDBRANCH  41  55
BRANCH  42  66
ATOM     66  C   UNL A   1      49.146  26.703  26.278  1.00  0.00     0.064 A 
ATOM     67  C   UNL A   1      49.504  26.965  24.948  1.00  0.00     0.173 A 
ATOM     68  C   UNL A   1      50.126  26.163  27.123  1.00  0.00     0.173 A 
ATOM     69  F   UNL A   1      48.594  27.461  24.096  1.00  0.00    -0.203 F 
ATOM     70  C   UNL A   1      50.784  26.680  24.477  1.00  0.00     0.198 A 
ATOM     71  C   UNL A   1      51.414  25.905  26.658  1.00  0.00     0.198 A 
ATOM     72  F   UNL A   1      49.836  25.901  28.406  1.00  0.00    -0.203 F 
ATOM     73  F   UNL A   1      51.085  26.901  23.190  1.00  0.00    -0.200 F 
ATOM     74  C   UNL A   1      51.739  26.155  25.333  1.00  0.00     0.200 A 
ATOM     75  F   UNL A   1      52.339  25.410  27.491  1.00  0.00    -0.200 F 
ATOM     76  F   UNL A   1      52.971  25.884  24.881  1.00  0.00    -0.200 F 
ENDBRANCH  42  66
BRANCH  54  77
ATOM     77  C   UNL A   1      46.025  32.391  28.835  1.00  0.00     0.064 A 
ATOM     78  C   UNL A   1      45.942  33.442  27.910  1.00  0.00     0.173 A 
ATOM     79  C   UNL A   1      46.523  32.675  30.115  1.00  0.00     0.173 A 
ATOM     80  F   UNL A   1      45.486  33.215  26.669  1.00  0.00    -0.203 F 
ATOM     81  C   UNL A   1      46.350  34.727  28.254  1.00  0.00     0.198 A 
ATOM     82  C   UNL A   1      46.906  33.966  30.464  1.00  0.00     0.198 A 
ATOM     83  F   UNL A   1      46.615  31.703  31.035  1.00  0.00    -0.203 F 
ATOM     84  F   UNL A   1      46.291  35.712  27.347  1.00  0.00    -0.200 F 
ATOM     85  C   UNL A   1      46.823  34.990  29.532  1.00  0.00     0.200 A 
ATOM     86  F   UNL A   1      47.349  34.222  31.702  1.00  0.00    -0.200 F 
ATOM     87  F   UNL A   1      47.200  36.232  29.866  1.00  0.00    -0.200 F 
ENDBRANCH  54  77
ENDBRANCH  28  29
ENDBRANCH  20  23
ENDBRANCH  18  19
ENDBRANCH  17  18
ENDBRANCH   1  17
TORSDOF 16
ENDMDL
