MODEL 1
REMARK VINA RESULT:     -12.2      0.000      0.000
REMARK SMILES [NH3+][C@H]1CCC[C@H]1C(=O)NCc1ccc(C(=O)NCCCCNC(=O)c2ccc(-c3c4nc(c(-c5c(F)c(F)c(F)c(F)c5F)c5ccc([nH]5)c(-c5c(F)c(F)c(F)c(F)c5F)c5nc(c(-c6c(F)c(F)c(F)c(F)c6F)c6ccc3[nH]6)C=C5)C=C4)cc2)o1
REMARK SMILES IDX 18 1 17 2 15 3 16 4 14 6 11 7 12 8 88 9 13 10 10 11 9 12
REMARK SMILES IDX 7 13 8 14 6 16 2 17 3 18 4 19 5 20 1 21 19 25 20 26 21 27
REMARK SMILES IDX 22 28 23 29 24 31 25 32 26 33 87 34 27 35 86 36 28 37 29 38
REMARK SMILES IDX 30 39 80 40 31 41 85 42 79 43 81 44 32 45 84 46 78 47 77 48
REMARK SMILES IDX 33 50 65 51 45 52 64 53 46 54 49 55 63 56 82 57 47 58 48 59
REMARK SMILES IDX 62 61 83 62 50 63 34 64 35 65 43 66 36 67 37 68 41 69 44 70
REMARK SMILES IDX 38 71 39 72 42 73 40 74 66 75 67 76 75 77 68 78 69 79 73 80
REMARK SMILES IDX 76 81 70 82 71 83 74 84 72 85 51 86 52 87 60 88 53 89 54 90
REMARK SMILES IDX 58 91 61 92 55 93 56 94 59 95 57 96
REMARK H PARENT 17 5 9 15 1 22 1 23 1 24 22 30 81 49 49 60
REMARK Flexibility Score: inf
ROOT
ATOM      1  C   UNL A   1      32.059  29.783  27.277  1.00  0.00     0.116 C 
ENDROOT
BRANCH   1   2
ATOM      2  N   UNL A   1      33.124  28.865  26.938  1.00  0.00    -0.349 N 
ATOM      3  C   UNL A   1      33.118  27.663  26.265  1.00  0.00     0.286 C 
ATOM      4  O   UNL A   1      34.224  27.133  26.133  1.00  0.00    -0.266 OA
ATOM      5  H   UNL A   1      34.014  29.150  27.245  1.00  0.00     0.163 HD
BRANCH   3   6
ATOM      6  C   UNL A   1      31.897  27.082  25.734  1.00  0.00     0.191 A 
ATOM      7  C   UNL A   1      30.300  26.942  24.203  1.00  0.00     0.124 A 
ATOM      8  C   UNL A   1      29.961  26.058  25.198  1.00  0.00     0.048 A 
ATOM      9  O   UNL A   1      31.448  27.593  24.533  1.00  0.00    -0.454 OA
ATOM     10  C   UNL A   1      31.023  26.082  26.126  1.00  0.00     0.056 A 
BRANCH   7  11
ATOM     11  C   UNL A   1      29.660  27.269  22.909  1.00  0.00     0.191 C 
BRANCH  11  12
ATOM     12  N   UNL A   1      28.306  27.744  23.125  1.00  0.00    -0.348 N 
ATOM     13  C   UNL A   1      27.741  28.973  23.181  1.00  0.00     0.229 C 
ATOM     14  O   UNL A   1      26.528  29.005  23.429  1.00  0.00    -0.275 OA
ATOM     15  H   UNL A   1      27.658  27.015  23.262  1.00  0.00     0.163 HD
BRANCH  13  16
ATOM     16  C   UNL A   1      28.485  30.297  23.021  1.00  0.00     0.136 C 
ATOM     17  C   UNL A   1      28.676  30.796  21.580  1.00  0.00     0.193 C 
ATOM     18  C   UNL A   1      28.777  32.321  21.675  1.00  0.00     0.066 C 
ATOM     19  C   UNL A   1      28.423  32.732  23.098  1.00  0.00     0.007 C 
ATOM     20  C   UNL A   1      28.053  31.479  23.876  1.00  0.00     0.020 C 
BRANCH  17  21
ATOM     21  N   UNL A   1      27.653  30.452  20.607  1.00  0.00    -0.354 N 
ATOM     22  H   UNL A   1      27.843  29.525  20.228  1.00  0.00     0.344 HD
ATOM     23  H   UNL A   1      27.658  31.136  19.851  1.00  0.00     0.344 HD
ATOM     24  H   UNL A   1      26.738  30.454  21.060  1.00  0.00     0.344 HD
ENDBRANCH  17  21
ENDBRANCH  13  16
ENDBRANCH  11  12
ENDBRANCH   7  11
ENDBRANCH   3   6
ENDBRANCH   1   2
BRANCH   1  25
ATOM     25  C   UNL A   1      31.721  30.695  26.097  1.00  0.00     0.023 C 
BRANCH  25  26
ATOM     26  C   UNL A   1      31.455  32.149  26.504  1.00  0.00     0.023 C 
BRANCH  26  27
ATOM     27  C   UNL A   1      32.600  32.826  27.255  1.00  0.00     0.116 C 
BRANCH  27  28
ATOM     28  N   UNL A   1      32.317  34.203  27.626  1.00  0.00    -0.352 N 
ATOM     29  C   UNL A   1      32.942  34.974  28.578  1.00  0.00     0.251 C 
ATOM     30  H   UNL A   1      31.587  34.640  27.132  1.00  0.00     0.163 HD
ATOM     31  O   UNL A   1      32.528  36.093  28.847  1.00  0.00    -0.269 OA
BRANCH  29  32
ATOM     32  C   UNL A   1      34.095  34.412  29.310  1.00  0.00     0.039 A 
ATOM     33  C   UNL A   1      33.858  33.687  30.481  1.00  0.00     0.014 A 
ATOM     34  C   UNL A   1      35.394  34.562  28.819  1.00  0.00     0.014 A 
ATOM     35  C   UNL A   1      34.921  33.050  31.123  1.00  0.00     0.010 A 
ATOM     36  C   UNL A   1      36.442  33.874  29.424  1.00  0.00     0.010 A 
ATOM     37  C   UNL A   1      36.214  33.108  30.577  1.00  0.00    -0.014 A 
BRANCH  37  38
ATOM     38  C   UNL A   1      37.341  32.365  31.194  1.00  0.00     0.031 A 
ATOM     39  C   UNL A   1      37.828  32.741  32.564  1.00  0.00     0.074 A 
ATOM     40  C   UNL A   1      37.968  31.403  30.491  1.00  0.00     0.049 A 
ATOM     41  N   UNL A   1      38.848  32.271  33.238  1.00  0.00    -0.248 NA
ATOM     42  C   UNL A   1      37.087  33.804  33.261  1.00  0.00     0.031 C 
ATOM     43  C   UNL A   1      37.619  30.984  29.132  1.00  0.00     0.029 A 
ATOM     44  N   UNL A   1      39.041  30.612  30.815  1.00  0.00    -0.354 N 
ATOM     45  C   UNL A   1      38.877  32.988  34.425  1.00  0.00     0.074 A 
ATOM     46  C   UNL A   1      37.807  33.959  34.362  1.00  0.00     0.031 C 
ATOM     47  C   UNL A   1      38.451  30.002  28.747  1.00  0.00     0.029 A 
ATOM     48  C   UNL A   1      39.411  29.746  29.815  1.00  0.00     0.049 A 
ATOM     49  H   UNL A   1      39.502  30.660  31.684  1.00  0.00     0.167 HD
ATOM     50  C   UNL A   1      39.707  32.833  35.484  1.00  0.00     0.037 A 
ATOM     51  C   UNL A   1      40.418  28.854  29.765  1.00  0.00     0.037 A 
ATOM     52  C   UNL A   1      40.752  31.848  35.556  1.00  0.00     0.049 A 
ATOM     53  C   UNL A   1      41.324  28.701  30.958  1.00  0.00     0.074 A 
ATOM     54  C   UNL A   1      41.613  31.577  36.605  1.00  0.00     0.029 A 
ATOM     55  N   UNL A   1      41.077  30.966  34.536  1.00  0.00    -0.354 N 
ATOM     56  N   UNL A   1      41.301  29.341  32.101  1.00  0.00    -0.248 NA
ATOM     57  C   UNL A   1      42.390  27.694  30.855  1.00  0.00     0.031 C 
ATOM     58  C   UNL A   1      42.483  30.557  36.207  1.00  0.00     0.029 A 
ATOM     59  C   UNL A   1      42.134  30.160  34.926  1.00  0.00     0.049 A 
ATOM     60  H   UNL A   1      40.623  30.920  33.663  1.00  0.00     0.167 HD
ATOM     61  C   UNL A   1      42.326  28.797  32.863  1.00  0.00     0.074 A 
ATOM     62  C   UNL A   1      42.943  27.764  32.058  1.00  0.00     0.031 C 
ATOM     63  C   UNL A   1      42.723  29.124  34.117  1.00  0.00     0.037 A 
BRANCH  50  64
ATOM     64  C   UNL A   1      39.509  33.742  36.662  1.00  0.00     0.064 A 
ATOM     65  C   UNL A   1      38.723  33.358  37.758  1.00  0.00     0.173 A 
ATOM     66  C   UNL A   1      40.149  34.989  36.717  1.00  0.00     0.173 A 
ATOM     67  F   UNL A   1      38.079  32.181  37.748  1.00  0.00    -0.203 F 
ATOM     68  C   UNL A   1      38.567  34.198  38.857  1.00  0.00     0.198 A 
ATOM     69  C   UNL A   1      40.014  35.814  37.829  1.00  0.00     0.198 A 
ATOM     70  F   UNL A   1      40.916  35.401  35.696  1.00  0.00    -0.203 F 
ATOM     71  F   UNL A   1      37.777  33.828  39.875  1.00  0.00    -0.200 F 
ATOM     72  C   UNL A   1      39.219  35.422  38.895  1.00  0.00     0.200 A 
ATOM     73  F   UNL A   1      40.654  36.992  37.871  1.00  0.00    -0.200 F 
ATOM     74  F   UNL A   1      39.077  36.225  39.959  1.00  0.00    -0.200 F 
ENDBRANCH  50  64
BRANCH  51  75
ATOM     75  C   UNL A   1      40.614  28.016  28.553  1.00  0.00     0.064 A 
ATOM     76  C   UNL A   1      41.385  28.477  27.476  1.00  0.00     0.173 A 
ATOM     77  C   UNL A   1      40.019  26.752  28.436  1.00  0.00     0.173 A 
ATOM     78  F   UNL A   1      41.957  29.688  27.534  1.00  0.00    -0.203 F 
ATOM     79  C   UNL A   1      41.532  27.717  26.318  1.00  0.00     0.198 A 
ATOM     80  C   UNL A   1      40.190  25.980  27.287  1.00  0.00     0.198 A 
ATOM     81  F   UNL A   1      39.276  26.262  29.439  1.00  0.00    -0.203 F 
ATOM     82  F   UNL A   1      42.230  28.205  25.284  1.00  0.00    -0.200 F 
ATOM     83  C   UNL A   1      40.937  26.468  26.226  1.00  0.00     0.200 A 
ATOM     84  F   UNL A   1      39.625  24.767  27.207  1.00  0.00    -0.200 F 
ATOM     85  F   UNL A   1      41.077  25.739  25.110  1.00  0.00    -0.200 F 
ENDBRANCH  51  75
BRANCH  63  86
ATOM     86  C   UNL A   1      43.848  28.331  34.711  1.00  0.00     0.064 A 
ATOM     87  C   UNL A   1      43.619  27.132  35.403  1.00  0.00     0.173 A 
ATOM     88  C   UNL A   1      45.176  28.754  34.550  1.00  0.00     0.173 A 
ATOM     89  F   UNL A   1      42.365  26.694  35.596  1.00  0.00    -0.203 F 
ATOM     90  C   UNL A   1      44.677  26.399  35.932  1.00  0.00     0.198 A 
ATOM     91  C   UNL A   1      46.233  28.004  35.055  1.00  0.00     0.198 A 
ATOM     92  F   UNL A   1      45.448  29.891  33.890  1.00  0.00    -0.203 F 
ATOM     93  F   UNL A   1      44.432  25.280  36.628  1.00  0.00    -0.200 F 
ATOM     94  C   UNL A   1      45.982  26.831  35.752  1.00  0.00     0.200 A 
ATOM     95  F   UNL A   1      47.495  28.416  34.869  1.00  0.00    -0.200 F 
ATOM     96  F   UNL A   1      47.000  26.120  36.256  1.00  0.00    -0.200 F 
ENDBRANCH  63  86
ENDBRANCH  37  38
ENDBRANCH  29  32
ENDBRANCH  27  28
ENDBRANCH  26  27
ENDBRANCH  25  26
ENDBRANCH   1  25
TORSDOF 15
ENDMDL
MODEL 2
REMARK VINA RESULT:     -12.1      1.728      3.266
REMARK SMILES [NH3+][C@H]1CCC[C@H]1C(=O)NCc1ccc(C(=O)NCCCCNC(=O)c2ccc(-c3c4nc(c(-c5c(F)c(F)c(F)c(F)c5F)c5ccc([nH]5)c(-c5c(F)c(F)c(F)c(F)c5F)c5nc(c(-c6c(F)c(F)c(F)c(F)c6F)c6ccc3[nH]6)C=C5)C=C4)cc2)o1
REMARK SMILES IDX 18 1 17 2 15 3 16 4 14 6 11 7 12 8 88 9 13 10 10 11 9 12
REMARK SMILES IDX 7 13 8 14 6 16 2 17 3 18 4 19 5 20 1 21 19 25 20 26 21 27
REMARK SMILES IDX 22 28 23 29 24 31 25 32 26 33 87 34 27 35 86 36 28 37 29 38
REMARK SMILES IDX 30 39 80 40 31 41 85 42 79 43 81 44 32 45 84 46 78 47 77 48
REMARK SMILES IDX 33 50 65 51 45 52 64 53 46 54 49 55 63 56 82 57 47 58 48 59
REMARK SMILES IDX 62 61 83 62 50 63 34 64 35 65 43 66 36 67 37 68 41 69 44 70
REMARK SMILES IDX 38 71 39 72 42 73 40 74 66 75 67 76 75 77 68 78 69 79 73 80
REMARK SMILES IDX 76 81 70 82 71 83 74 84 72 85 51 86 52 87 60 88 53 89 54 90
REMARK SMILES IDX 58 91 61 92 55 93 56 94 59 95 57 96
REMARK H PARENT 17 5 9 15 1 22 1 23 1 24 22 30 81 49 49 60
REMARK Flexibility Score: inf
ROOT
ATOM      1  C   UNL A   1      35.200  32.831  27.884  1.00  0.00     0.116 C 
ENDROOT
BRANCH   1   2
ATOM      2  N   UNL A   1      35.782  31.516  28.032  1.00  0.00    -0.349 N 
ATOM      3  C   UNL A   1      35.285  30.258  27.770  1.00  0.00     0.286 C 
ATOM      4  O   UNL A   1      36.064  29.330  28.000  1.00  0.00    -0.266 OA
ATOM      5  H   UNL A   1      36.701  31.520  28.386  1.00  0.00     0.163 HD
BRANCH   3   6
ATOM      6  C   UNL A   1      33.948  30.052  27.240  1.00  0.00     0.191 A 
ATOM      7  C   UNL A   1      32.363  28.770  26.369  1.00  0.00     0.124 A 
ATOM      8  C   UNL A   1      31.858  30.047  26.394  1.00  0.00     0.048 A 
ATOM      9  O   UNL A   1      33.639  28.767  26.844  1.00  0.00    -0.454 OA
ATOM     10  C   UNL A   1      32.832  30.844  27.032  1.00  0.00     0.056 A 
BRANCH   7  11
ATOM     11  C   UNL A   1      31.773  27.480  25.945  1.00  0.00     0.191 C 
BRANCH  11  12
ATOM     12  N   UNL A   1      31.869  27.335  24.505  1.00  0.00    -0.348 N 
ATOM     13  C   UNL A   1      31.107  27.756  23.467  1.00  0.00     0.229 C 
ATOM     14  O   UNL A   1      31.481  27.406  22.339  1.00  0.00    -0.275 OA
ATOM     15  H   UNL A   1      32.657  26.819  24.220  1.00  0.00     0.163 HD
BRANCH  13  16
ATOM     16  C   UNL A   1      29.816  28.564  23.586  1.00  0.00     0.136 C 
ATOM     17  C   UNL A   1      29.801  29.923  22.869  1.00  0.00     0.193 C 
ATOM     18  C   UNL A   1      28.333  30.202  22.534  1.00  0.00     0.066 C 
ATOM     19  C   UNL A   1      27.531  28.942  22.831  1.00  0.00     0.007 C 
ATOM     20  C   UNL A   1      28.495  27.865  23.302  1.00  0.00     0.020 C 
BRANCH  17  21
ATOM     21  N   UNL A   1      30.594  30.055  21.659  1.00  0.00    -0.354 N 
ATOM     22  H   UNL A   1      30.012  29.850  20.847  1.00  0.00     0.344 HD
ATOM     23  H   UNL A   1      31.376  29.402  21.691  1.00  0.00     0.344 HD
ATOM     24  H   UNL A   1      30.951  31.009  21.589  1.00  0.00     0.344 HD
ENDBRANCH  17  21
ENDBRANCH  13  16
ENDBRANCH  11  12
ENDBRANCH   7  11
ENDBRANCH   3   6
ENDBRANCH   1   2
BRANCH   1  25
ATOM     25  C   UNL A   1      34.472  33.259  29.158  1.00  0.00     0.023 C 
BRANCH  25  26
ATOM     26  C   UNL A   1      33.317  34.236  28.905  1.00  0.00     0.023 C 
BRANCH  26  27
ATOM     27  C   UNL A   1      33.544  35.650  29.437  1.00  0.00     0.116 C 
BRANCH  27  28
ATOM     28  N   UNL A   1      32.593  36.044  30.464  1.00  0.00    -0.352 N 
ATOM     29  C   UNL A   1      32.650  35.800  31.816  1.00  0.00     0.251 C 
ATOM     30  H   UNL A   1      31.809  36.551  30.151  1.00  0.00     0.163 HD
ATOM     31  O   UNL A   1      31.721  36.114  32.547  1.00  0.00    -0.269 OA
BRANCH  29  32
ATOM     32  C   UNL A   1      33.832  35.110  32.369  1.00  0.00     0.039 A 
ATOM     33  C   UNL A   1      33.677  33.818  32.878  1.00  0.00     0.014 A 
ATOM     34  C   UNL A   1      35.090  35.716  32.344  1.00  0.00     0.014 A 
ATOM     35  C   UNL A   1      34.801  33.105  33.298  1.00  0.00     0.010 A 
ATOM     36  C   UNL A   1      36.216  34.981  32.702  1.00  0.00     0.010 A 
ATOM     37  C   UNL A   1      36.082  33.667  33.178  1.00  0.00    -0.014 A 
BRANCH  37  38
ATOM     38  C   UNL A   1      37.297  32.893  33.534  1.00  0.00     0.031 A 
ATOM     39  C   UNL A   1      38.031  33.193  34.811  1.00  0.00     0.074 A 
ATOM     40  C   UNL A   1      37.775  31.974  32.676  1.00  0.00     0.049 A 
ATOM     41  N   UNL A   1      39.153  32.688  35.258  1.00  0.00    -0.248 NA
ATOM     42  C   UNL A   1      37.439  34.213  35.690  1.00  0.00     0.031 C 
ATOM     43  C   UNL A   1      37.179  31.630  31.384  1.00  0.00     0.029 A 
ATOM     44  N   UNL A   1      38.884  31.167  32.753  1.00  0.00    -0.354 N 
ATOM     45  C   UNL A   1      39.405  33.337  36.458  1.00  0.00     0.074 A 
ATOM     46  C   UNL A   1      38.350  34.308  36.647  1.00  0.00     0.031 C 
ATOM     47  C   UNL A   1      37.918  30.673  30.798  1.00  0.00     0.029 A 
ATOM     48  C   UNL A   1      39.056  30.360  31.656  1.00  0.00     0.049 A 
ATOM     49  H   UNL A   1      39.497  31.168  33.524  1.00  0.00     0.167 HD
ATOM     50  C   UNL A   1      40.414  33.125  37.336  1.00  0.00     0.037 A 
ATOM     51  C   UNL A   1      40.030  29.473  31.372  1.00  0.00     0.037 A 
ATOM     52  C   UNL A   1      41.447  32.139  37.160  1.00  0.00     0.049 A 
ATOM     53  C   UNL A   1      41.138  29.256  32.368  1.00  0.00     0.074 A 
ATOM     54  C   UNL A   1      42.484  31.812  38.016  1.00  0.00     0.029 A 
ATOM     55  N   UNL A   1      41.571  31.317  36.050  1.00  0.00    -0.354 N 
ATOM     56  N   UNL A   1      41.330  29.831  33.529  1.00  0.00    -0.248 NA
ATOM     57  C   UNL A   1      42.158  28.259  32.015  1.00  0.00     0.031 C 
ATOM     58  C   UNL A   1      43.257  30.817  37.409  1.00  0.00     0.029 A 
ATOM     59  C   UNL A   1      42.675  30.492  36.194  1.00  0.00     0.049 A 
ATOM     60  H   UNL A   1      40.964  31.319  35.274  1.00  0.00     0.167 HD
ATOM     61  C   UNL A   1      42.473  29.248  34.058  1.00  0.00     0.074 A 
ATOM     62  C   UNL A   1      42.923  28.262  33.097  1.00  0.00     0.031 C 
ATOM     63  C   UNL A   1      43.096  29.505  35.234  1.00  0.00     0.037 A 
BRANCH  50  64
ATOM     64  C   UNL A   1      40.443  33.966  38.578  1.00  0.00     0.064 A 
ATOM     65  C   UNL A   1      41.162  35.169  38.631  1.00  0.00     0.173 A 
ATOM     66  C   UNL A   1      39.708  33.591  39.712  1.00  0.00     0.173 A 
ATOM     67  F   UNL A   1      41.891  35.566  37.577  1.00  0.00    -0.203 F 
ATOM     68  C   UNL A   1      41.161  35.955  39.780  1.00  0.00     0.198 A 
ATOM     69  C   UNL A   1      39.686  34.392  40.849  1.00  0.00     0.198 A 
ATOM     70  F   UNL A   1      39.000  32.450  39.712  1.00  0.00    -0.203 F 
ATOM     71  F   UNL A   1      41.888  37.080  39.821  1.00  0.00    -0.200 F 
ATOM     72  C   UNL A   1      40.417  35.570  40.885  1.00  0.00     0.200 A 
ATOM     73  F   UNL A   1      38.957  34.026  41.913  1.00  0.00    -0.200 F 
ATOM     74  F   UNL A   1      40.408  36.333  41.987  1.00  0.00    -0.200 F 
ENDBRANCH  50  64
BRANCH  51  75
ATOM     75  C   UNL A   1      39.993  28.705  30.100  1.00  0.00     0.064 A 
ATOM     76  C   UNL A   1      39.388  27.442  30.039  1.00  0.00     0.173 A 
ATOM     77  C   UNL A   1      40.579  29.205  28.928  1.00  0.00     0.173 A 
ATOM     78  F   UNL A   1      38.833  26.914  31.139  1.00  0.00    -0.203 F 
ATOM     79  C   UNL A   1      39.394  26.696  28.863  1.00  0.00     0.198 A 
ATOM     80  C   UNL A   1      40.559  28.470  27.744  1.00  0.00     0.198 A 
ATOM     81  F   UNL A   1      41.167  30.411  28.931  1.00  0.00    -0.203 F 
ATOM     82  F   UNL A   1      38.854  25.470  28.847  1.00  0.00    -0.200 F 
ATOM     83  C   UNL A   1      39.976  27.213  27.715  1.00  0.00     0.200 A 
ATOM     84  F   UNL A   1      41.111  28.978  26.633  1.00  0.00    -0.200 F 
ATOM     85  F   UNL A   1      39.983  26.493  26.584  1.00  0.00    -0.200 F 
ENDBRANCH  51  75
BRANCH  63  86
ATOM     86  C   UNL A   1      44.306  28.681  35.567  1.00  0.00     0.064 A 
ATOM     87  C   UNL A   1      45.595  29.080  35.185  1.00  0.00     0.173 A 
ATOM     88  C   UNL A   1      44.174  27.501  36.313  1.00  0.00     0.173 A 
ATOM     89  F   UNL A   1      45.770  30.194  34.458  1.00  0.00    -0.203 F 
ATOM     90  C   UNL A   1      46.708  28.313  35.519  1.00  0.00     0.198 A 
ATOM     91  C   UNL A   1      45.291  26.751  36.669  1.00  0.00     0.198 A 
ATOM     92  F   UNL A   1      42.962  27.081  36.707  1.00  0.00    -0.203 F 
ATOM     93  F   UNL A   1      47.926  28.688  35.106  1.00  0.00    -0.200 F 
ATOM     94  C   UNL A   1      46.555  27.154  36.266  1.00  0.00     0.200 A 
ATOM     95  F   UNL A   1      45.145  25.639  37.402  1.00  0.00    -0.200 F 
ATOM     96  F   UNL A   1      47.629  26.421  36.592  1.00  0.00    -0.200 F 
ENDBRANCH  63  86
ENDBRANCH  37  38
ENDBRANCH  29  32
ENDBRANCH  27  28
ENDBRANCH  26  27
ENDBRANCH  25  26
ENDBRANCH   1  25
TORSDOF 15
ENDMDL
MODEL 3
REMARK VINA RESULT:     -12.1      4.464      7.890
REMARK SMILES [NH3+][C@H]1CCC[C@H]1C(=O)NCc1ccc(C(=O)NCCCCNC(=O)c2ccc(-c3c4nc(c(-c5c(F)c(F)c(F)c(F)c5F)c5ccc([nH]5)c(-c5c(F)c(F)c(F)c(F)c5F)c5nc(c(-c6c(F)c(F)c(F)c(F)c6F)c6ccc3[nH]6)C=C5)C=C4)cc2)o1
REMARK SMILES IDX 18 1 17 2 15 3 16 4 14 6 11 7 12 8 88 9 13 10 10 11 9 12
REMARK SMILES IDX 7 13 8 14 6 16 2 17 3 18 4 19 5 20 1 21 19 25 20 26 21 27
REMARK SMILES IDX 22 28 23 29 24 31 25 32 26 33 87 34 27 35 86 36 28 37 29 38
REMARK SMILES IDX 30 39 80 40 31 41 85 42 79 43 81 44 32 45 84 46 78 47 77 48
REMARK SMILES IDX 33 50 65 51 45 52 64 53 46 54 49 55 63 56 82 57 47 58 48 59
REMARK SMILES IDX 62 61 83 62 50 63 34 64 35 65 43 66 36 67 37 68 41 69 44 70
REMARK SMILES IDX 38 71 39 72 42 73 40 74 66 75 67 76 75 77 68 78 69 79 73 80
REMARK SMILES IDX 76 81 70 82 71 83 74 84 72 85 51 86 52 87 60 88 53 89 54 90
REMARK SMILES IDX 58 91 61 92 55 93 56 94 59 95 57 96
REMARK H PARENT 17 5 9 15 1 22 1 23 1 24 22 30 81 49 49 60
REMARK Flexibility Score: inf
ROOT
ATOM      1  C   UNL A   1      33.574  35.890  29.396  1.00  0.00     0.116 C 
ENDROOT
BRANCH   1   2
ATOM      2  N   UNL A   1      32.501  36.202  30.314  1.00  0.00    -0.349 N 
ATOM      3  C   UNL A   1      32.394  36.061  31.680  1.00  0.00     0.286 C 
ATOM      4  O   UNL A   1      31.326  36.446  32.162  1.00  0.00    -0.266 OA
ATOM      5  H   UNL A   1      31.702  36.583  29.885  1.00  0.00     0.163 HD
BRANCH   3   6
ATOM      6  C   UNL A   1      33.474  35.520  32.487  1.00  0.00     0.191 A 
ATOM      7  C   UNL A   1      34.742  33.843  33.190  1.00  0.00     0.124 A 
ATOM      8  C   UNL A   1      35.134  34.950  33.903  1.00  0.00     0.048 A 
ATOM      9  O   UNL A   1      33.715  34.167  32.359  1.00  0.00    -0.454 OA
ATOM     10  C   UNL A   1      34.391  36.033  33.389  1.00  0.00     0.056 A 
BRANCH   7  11
ATOM     11  C   UNL A   1      35.235  32.447  33.179  1.00  0.00     0.191 C 
BRANCH  11  12
ATOM     12  N   UNL A   1      36.662  32.418  33.439  1.00  0.00    -0.348 N 
ATOM     13  C   UNL A   1      37.747  32.875  32.769  1.00  0.00     0.229 C 
ATOM     14  O   UNL A   1      38.847  32.633  33.283  1.00  0.00    -0.275 OA
ATOM     15  H   UNL A   1      36.892  31.968  34.283  1.00  0.00     0.163 HD
BRANCH  13  16
ATOM     16  C   UNL A   1      37.717  33.601  31.425  1.00  0.00     0.136 C 
ATOM     17  C   UNL A   1      38.769  34.704  31.229  1.00  0.00     0.193 C 
ATOM     18  C   UNL A   1      39.013  34.785  29.720  1.00  0.00     0.066 C 
ATOM     19  C   UNL A   1      38.304  33.609  29.060  1.00  0.00     0.007 C 
ATOM     20  C   UNL A   1      37.662  32.769  30.153  1.00  0.00     0.020 C 
BRANCH  17  21
ATOM     21  N   UNL A   1      40.046  34.545  31.904  1.00  0.00    -0.354 N 
ATOM     22  H   UNL A   1      40.746  35.130  31.450  1.00  0.00     0.344 HD
ATOM     23  H   UNL A   1      40.337  33.569  31.858  1.00  0.00     0.344 HD
ATOM     24  H   UNL A   1      39.951  34.824  32.881  1.00  0.00     0.344 HD
ENDBRANCH  17  21
ENDBRANCH  13  16
ENDBRANCH  11  12
ENDBRANCH   7  11
ENDBRANCH   3   6
ENDBRANCH   1   2
BRANCH   1  25
ATOM     25  C   UNL A   1      33.317  34.566  28.676  1.00  0.00     0.023 C 
BRANCH  25  26
ATOM     26  C   UNL A   1      34.134  33.396  29.237  1.00  0.00     0.023 C 
BRANCH  26  27
ATOM     27  C   UNL A   1      34.813  32.523  28.183  1.00  0.00     0.116 C 
BRANCH  27  28
ATOM     28  N   UNL A   1      34.130  31.262  27.945  1.00  0.00    -0.352 N 
ATOM     29  C   UNL A   1      34.656  29.992  27.965  1.00  0.00     0.251 C 
ATOM     30  H   UNL A   1      33.169  31.325  27.746  1.00  0.00     0.163 HD
ATOM     31  O   UNL A   1      33.973  29.027  27.649  1.00  0.00    -0.269 OA
BRANCH  29  32
ATOM     32  C   UNL A   1      36.076  29.810  28.329  1.00  0.00     0.039 A 
ATOM     33  C   UNL A   1      36.387  29.350  29.610  1.00  0.00     0.014 A 
ATOM     34  C   UNL A   1      37.088  30.050  27.396  1.00  0.00     0.014 A 
ATOM     35  C   UNL A   1      37.713  29.061  29.935  1.00  0.00     0.010 A 
ATOM     36  C   UNL A   1      38.401  29.702  27.700  1.00  0.00     0.010 A 
ATOM     37  C   UNL A   1      38.724  29.199  28.970  1.00  0.00    -0.014 A 
BRANCH  37  38
ATOM     38  C   UNL A   1      40.126  28.813  29.267  1.00  0.00     0.031 A 
ATOM     39  C   UNL A   1      41.019  29.752  30.028  1.00  0.00     0.074 A 
ATOM     40  C   UNL A   1      40.611  27.652  28.789  1.00  0.00     0.049 A 
ATOM     41  N   UNL A   1      42.291  29.635  30.313  1.00  0.00    -0.248 NA
ATOM     42  C   UNL A   1      40.407  31.000  30.512  1.00  0.00     0.031 C 
ATOM     43  C   UNL A   1      39.857  26.682  27.994  1.00  0.00     0.029 A 
ATOM     44  N   UNL A   1      41.862  27.096  28.889  1.00  0.00    -0.354 N 
ATOM     45  C   UNL A   1      42.632  30.795  30.994  1.00  0.00     0.074 A 
ATOM     46  C   UNL A   1      41.449  31.626  31.037  1.00  0.00     0.031 C 
ATOM     47  C   UNL A   1      40.654  25.643  27.694  1.00  0.00     0.029 A 
ATOM     48  C   UNL A   1      41.983  25.889  28.244  1.00  0.00     0.049 A 
ATOM     49  H   UNL A   1      42.604  27.522  29.379  1.00  0.00     0.167 HD
ATOM     50  C   UNL A   1      43.819  31.126  31.555  1.00  0.00     0.037 A 
ATOM     51  C   UNL A   1      43.049  25.078  28.106  1.00  0.00     0.037 A 
ATOM     52  C   UNL A   1      44.986  30.284  31.536  1.00  0.00     0.049 A 
ATOM     53  C   UNL A   1      44.356  25.470  28.743  1.00  0.00     0.074 A 
ATOM     54  C   UNL A   1      46.221  30.507  32.120  1.00  0.00     0.029 A 
ATOM     55  N   UNL A   1      45.061  29.054  30.901  1.00  0.00    -0.354 N 
ATOM     56  N   UNL A   1      44.648  26.541  29.440  1.00  0.00    -0.248 NA
ATOM     57  C   UNL A   1      45.478  24.535  28.581  1.00  0.00     0.031 C 
ATOM     58  C   UNL A   1      47.055  29.429  31.808  1.00  0.00     0.029 A 
ATOM     59  C   UNL A   1      46.325  28.512  31.067  1.00  0.00     0.049 A 
ATOM     60  H   UNL A   1      44.324  28.628  30.404  1.00  0.00     0.167 HD
ATOM     61  C   UNL A   1      45.974  26.396  29.823  1.00  0.00     0.074 A 
ATOM     62  C   UNL A   1      46.427  25.126  29.294  1.00  0.00     0.031 C 
ATOM     63  C   UNL A   1      46.750  27.238  30.548  1.00  0.00     0.037 A 
BRANCH  50  64
ATOM     64  C   UNL A   1      43.913  32.451  32.254  1.00  0.00     0.064 A 
ATOM     65  C   UNL A   1      44.250  33.622  31.559  1.00  0.00     0.173 A 
ATOM     66  C   UNL A   1      43.618  32.560  33.621  1.00  0.00     0.173 A 
ATOM     67  F   UNL A   1      44.553  33.568  30.253  1.00  0.00    -0.203 F 
ATOM     68  C   UNL A   1      44.308  34.850  32.211  1.00  0.00     0.198 A 
ATOM     69  C   UNL A   1      43.650  33.793  34.264  1.00  0.00     0.198 A 
ATOM     70  F   UNL A   1      43.287  31.470  34.330  1.00  0.00    -0.203 F 
ATOM     71  F   UNL A   1      44.673  35.949  31.536  1.00  0.00    -0.200 F 
ATOM     72  C   UNL A   1      44.001  34.936  33.561  1.00  0.00     0.200 A 
ATOM     73  F   UNL A   1      43.341  33.878  35.566  1.00  0.00    -0.200 F 
ATOM     74  F   UNL A   1      44.047  36.121  34.186  1.00  0.00    -0.200 F 
ENDBRANCH  50  64
BRANCH  51  75
ATOM     75  C   UNL A   1      42.926  23.803  27.354  1.00  0.00     0.064 A 
ATOM     76  C   UNL A   1      42.456  22.640  27.980  1.00  0.00     0.173 A 
ATOM     77  C   UNL A   1      43.295  23.713  26.004  1.00  0.00     0.173 A 
ATOM     78  F   UNL A   1      42.111  22.672  29.276  1.00  0.00    -0.203 F 
ATOM     79  C   UNL A   1      42.385  21.430  27.294  1.00  0.00     0.198 A 
ATOM     80  C   UNL A   1      43.196  22.509  25.310  1.00  0.00     0.198 A 
ATOM     81  F   UNL A   1      43.746  24.798  25.356  1.00  0.00    -0.203 F 
ATOM     82  F   UNL A   1      41.982  20.323  27.932  1.00  0.00    -0.200 F 
ATOM     83  C   UNL A   1      42.751  21.366  25.958  1.00  0.00     0.200 A 
ATOM     84  F   UNL A   1      43.539  22.454  24.015  1.00  0.00    -0.200 F 
ATOM     85  F   UNL A   1      42.685  20.202  25.299  1.00  0.00    -0.200 F 
ENDBRANCH  51  75
BRANCH  63  86
ATOM     86  C   UNL A   1      48.153  26.797  30.846  1.00  0.00     0.064 A 
ATOM     87  C   UNL A   1      48.450  25.989  31.953  1.00  0.00     0.173 A 
ATOM     88  C   UNL A   1      49.205  27.154  29.989  1.00  0.00     0.173 A 
ATOM     89  F   UNL A   1      47.480  25.635  32.810  1.00  0.00    -0.203 F 
ATOM     90  C   UNL A   1      49.755  25.574  32.205  1.00  0.00     0.198 A 
ATOM     91  C   UNL A   1      50.503  26.713  30.228  1.00  0.00     0.198 A 
ATOM     92  F   UNL A   1      48.971  27.920  28.913  1.00  0.00    -0.203 F 
ATOM     93  F   UNL A   1      50.024  24.839  33.293  1.00  0.00    -0.200 F 
ATOM     94  C   UNL A   1      50.778  25.930  31.338  1.00  0.00     0.200 A 
ATOM     95  F   UNL A   1      51.489  27.046  29.383  1.00  0.00    -0.200 F 
ATOM     96  F   UNL A   1      52.032  25.523  31.578  1.00  0.00    -0.200 F 
ENDBRANCH  63  86
ENDBRANCH  37  38
ENDBRANCH  29  32
ENDBRANCH  27  28
ENDBRANCH  26  27
ENDBRANCH  25  26
ENDBRANCH   1  25
TORSDOF 15
ENDMDL
