MODEL 1
REMARK VINA RESULT:     -12.8      0.000      0.000
REMARK SMILES Cc1nsc(NC(=O)N2CCC[C@@H](C)C2)c1C(=O)NCCCCNC(=O)c1ccc(-c2c3nc(c(-c4c(F)c(F)c(F)c(F)c4F)c4ccc([nH]4)c(-c4c(F)c(F)c(F)c(F)c4F)c4nc(c(-c5c(F)c(F)c(F)c(F)c5F)c5ccc2[nH]5)C=C4)C=C3)cc1
REMARK SMILES IDX 21 1 20 2 19 3 17 4 18 5 16 7 1 8 2 9 3 10 4 11 5 12 6 13
REMARK SMILES IDX 7 14 8 16 9 17 10 18 15 19 11 20 13 21 12 22 14 23 22 24
REMARK SMILES IDX 23 25 24 26 25 27 26 29 27 30 28 31 89 32 29 33 88 34 30 35
REMARK SMILES IDX 31 36 32 37 82 38 33 39 87 40 81 41 83 42 34 43 86 44 80 45
REMARK SMILES IDX 79 46 35 48 67 49 47 50 66 51 48 52 51 53 65 54 84 55 49 56
REMARK SMILES IDX 50 57 64 59 85 60 52 61 36 62 37 63 45 64 38 65 39 66 43 67
REMARK SMILES IDX 46 68 40 69 41 70 44 71 42 72 68 73 69 74 77 75 70 76 71 77
REMARK SMILES IDX 75 78 78 79 72 80 73 81 76 82 74 83 53 84 54 85 62 86 55 87
REMARK SMILES IDX 56 88 60 89 63 90 57 91 58 92 61 93 59 94
REMARK H PARENT 19 6 6 15 24 28 83 47 51 58
REMARK Flexibility Score: inf
ROOT
ATOM      1  C   UNL A   1      34.739  30.400  27.188  1.00  0.00     0.023 C 
ENDROOT
BRANCH   1   2
ATOM      2  C   UNL A   1      34.252  28.952  27.123  1.00  0.00     0.116 C 
BRANCH   2   3
ATOM      3  N   UNL A   1      32.937  28.746  27.671  1.00  0.00    -0.352 N 
ATOM      4  C   UNL A   1      31.856  27.992  27.302  1.00  0.00     0.256 C 
ATOM      5  O   UNL A   1      31.016  27.867  28.203  1.00  0.00    -0.269 OA
ATOM      6  H   UNL A   1      32.781  29.260  28.496  1.00  0.00     0.163 HD
BRANCH   4   7
ATOM      7  C   UNL A   1      31.575  27.474  25.956  1.00  0.00     0.097 A 
ATOM      8  C   UNL A   1      32.356  29.161  24.006  1.00  0.00     0.069 C 
ATOM      9  C   UNL A   1      31.648  27.994  24.591  1.00  0.00     0.066 A 
ATOM     10  N   UNL A   1      30.964  27.303  23.674  1.00  0.00    -0.195 NA
ATOM     11  S   UNL A   1      30.275  26.008  24.390  1.00  0.00    -0.017 S 
ATOM     12  C   UNL A   1      31.141  26.143  25.838  1.00  0.00     0.130 A 
BRANCH  12  13
ATOM     13  N   UNL A   1      31.169  25.118  26.772  1.00  0.00    -0.297 N 
ATOM     14  C   UNL A   1      31.763  23.891  26.720  1.00  0.00     0.322 C 
ATOM     15  H   UNL A   1      30.681  25.306  27.606  1.00  0.00     0.172 HD
ATOM     16  O   UNL A   1      31.264  22.971  27.374  1.00  0.00    -0.248 OA
BRANCH  14  17
ATOM     17  N   UNL A   1      32.881  23.697  25.946  1.00  0.00    -0.324 N 
ATOM     18  C   UNL A   1      34.251  23.734  26.460  1.00  0.00     0.121 C 
ATOM     19  C   UNL A   1      32.727  23.024  24.667  1.00  0.00     0.124 C 
ATOM     20  C   UNL A   1      35.257  24.283  25.441  1.00  0.00     0.022 C 
ATOM     21  C   UNL A   1      33.509  23.818  23.621  1.00  0.00     0.005 C 
ATOM     22  C   UNL A   1      35.001  23.838  23.993  1.00  0.00     0.007 C 
ATOM     23  C   UNL A   1      33.284  23.268  22.219  1.00  0.00     0.009 C 
ENDBRANCH  14  17
ENDBRANCH  12  13
ENDBRANCH   4   7
ENDBRANCH   2   3
ENDBRANCH   1   2
BRANCH   1  24
ATOM     24  C   UNL A   1      33.713  31.411  27.715  1.00  0.00     0.023 C 
BRANCH  24  25
ATOM     25  C   UNL A   1      34.302  32.750  28.155  1.00  0.00     0.116 C 
BRANCH  25  26
ATOM     26  N   UNL A   1      34.180  32.997  29.592  1.00  0.00    -0.352 N 
ATOM     27  C   UNL A   1      34.870  32.358  30.609  1.00  0.00     0.251 C 
ATOM     28  H   UNL A   1      33.536  33.690  29.865  1.00  0.00     0.163 HD
ATOM     29  O   UNL A   1      34.441  32.300  31.745  1.00  0.00    -0.269 OA
BRANCH  27  30
ATOM     30  C   UNL A   1      36.183  31.782  30.277  1.00  0.00     0.039 A 
ATOM     31  C   UNL A   1      37.303  32.584  30.050  1.00  0.00     0.014 A 
ATOM     32  C   UNL A   1      36.269  30.391  30.269  1.00  0.00     0.014 A 
ATOM     33  C   UNL A   1      38.545  31.971  29.902  1.00  0.00     0.010 A 
ATOM     34  C   UNL A   1      37.503  29.796  30.242  1.00  0.00     0.010 A 
ATOM     35  C   UNL A   1      38.639  30.575  30.020  1.00  0.00    -0.014 A 
BRANCH  35  36
ATOM     36  C   UNL A   1      39.940  29.912  30.107  1.00  0.00     0.031 A 
ATOM     37  C   UNL A   1      40.451  29.769  31.504  1.00  0.00     0.074 A 
ATOM     38  C   UNL A   1      40.461  29.250  29.046  1.00  0.00     0.049 A 
ATOM     39  N   UNL A   1      41.553  30.230  31.999  1.00  0.00    -0.248 NA
ATOM     40  C   UNL A   1      39.569  29.159  32.517  1.00  0.00     0.031 C 
ATOM     41  C   UNL A   1      39.856  29.094  27.715  1.00  0.00     0.029 A 
ATOM     42  N   UNL A   1      41.572  28.465  28.955  1.00  0.00    -0.354 N 
ATOM     43  C   UNL A   1      41.601  29.784  33.321  1.00  0.00     0.074 A 
ATOM     44  C   UNL A   1      40.285  29.304  33.634  1.00  0.00     0.031 C 
ATOM     45  C   UNL A   1      40.461  28.084  27.052  1.00  0.00     0.029 A 
ATOM     46  C   UNL A   1      41.598  27.639  27.830  1.00  0.00     0.049 A 
ATOM     47  H   UNL A   1      42.292  28.479  29.624  1.00  0.00     0.167 HD
ATOM     48  C   UNL A   1      42.798  29.580  33.940  1.00  0.00     0.037 A 
ATOM     49  C   UNL A   1      42.480  26.641  27.571  1.00  0.00     0.037 A 
ATOM     50  C   UNL A   1      43.854  30.229  33.205  1.00  0.00     0.049 A 
ATOM     51  C   UNL A   1      43.661  26.883  28.427  1.00  0.00     0.074 A 
ATOM     52  C   UNL A   1      44.236  31.525  32.939  1.00  0.00     0.029 A 
ATOM     53  N   UNL A   1      44.463  29.430  32.275  1.00  0.00    -0.354 N 
ATOM     54  N   UNL A   1      44.459  27.904  28.283  1.00  0.00    -0.248 NA
ATOM     55  C   UNL A   1      43.734  26.205  29.712  1.00  0.00     0.031 C 
ATOM     56  C   UNL A   1      44.828  31.489  31.640  1.00  0.00     0.029 A 
ATOM     57  C   UNL A   1      44.847  30.167  31.192  1.00  0.00     0.049 A 
ATOM     58  H   UNL A   1      44.605  28.462  32.373  1.00  0.00     0.167 HD
ATOM     59  C   UNL A   1      44.795  28.264  29.576  1.00  0.00     0.074 A 
ATOM     60  C   UNL A   1      44.456  27.100  30.391  1.00  0.00     0.031 C 
ATOM     61  C   UNL A   1      45.019  29.575  29.883  1.00  0.00     0.037 A 
BRANCH  48  62
ATOM     62  C   UNL A   1      43.111  28.411  34.862  1.00  0.00     0.064 A 
ATOM     63  C   UNL A   1      43.649  28.680  36.142  1.00  0.00     0.173 A 
ATOM     64  C   UNL A   1      43.234  27.070  34.434  1.00  0.00     0.173 A 
ATOM     65  F   UNL A   1      43.606  29.920  36.652  1.00  0.00    -0.203 F 
ATOM     66  C   UNL A   1      44.337  27.711  36.880  1.00  0.00     0.198 A 
ATOM     67  C   UNL A   1      43.877  26.094  35.197  1.00  0.00     0.198 A 
ATOM     68  F   UNL A   1      42.848  26.666  33.220  1.00  0.00    -0.203 F 
ATOM     69  F   UNL A   1      44.946  28.052  38.025  1.00  0.00    -0.200 F 
ATOM     70  C   UNL A   1      44.458  26.421  36.404  1.00  0.00     0.200 A 
ATOM     71  F   UNL A   1      44.004  24.854  34.704  1.00  0.00    -0.200 F 
ATOM     72  F   UNL A   1      45.172  25.508  37.074  1.00  0.00    -0.200 F 
ENDBRANCH  48  62
BRANCH  49  73
ATOM     73  C   UNL A   1      42.268  25.355  26.862  1.00  0.00     0.064 A 
ATOM     74  C   UNL A   1      43.014  25.018  25.719  1.00  0.00     0.173 A 
ATOM     75  C   UNL A   1      41.544  24.307  27.464  1.00  0.00     0.173 A 
ATOM     76  F   UNL A   1      43.768  25.945  25.111  1.00  0.00    -0.203 F 
ATOM     77  C   UNL A   1      43.058  23.708  25.227  1.00  0.00     0.198 A 
ATOM     78  C   UNL A   1      41.586  23.001  26.970  1.00  0.00     0.198 A 
ATOM     79  F   UNL A   1      40.861  24.511  28.600  1.00  0.00    -0.203 F 
ATOM     80  F   UNL A   1      43.834  23.413  24.174  1.00  0.00    -0.200 F 
ATOM     81  C   UNL A   1      42.354  22.698  25.862  1.00  0.00     0.200 A 
ATOM     82  F   UNL A   1      40.930  22.026  27.617  1.00  0.00    -0.200 F 
ATOM     83  F   UNL A   1      42.449  21.431  25.433  1.00  0.00    -0.200 F 
ENDBRANCH  49  73
BRANCH  61  84
ATOM     84  C   UNL A   1      45.301  30.512  28.743  1.00  0.00     0.064 A 
ATOM     85  C   UNL A   1      44.331  31.288  28.085  1.00  0.00     0.173 A 
ATOM     86  C   UNL A   1      46.639  30.708  28.381  1.00  0.00     0.173 A 
ATOM     87  F   UNL A   1      43.041  31.223  28.432  1.00  0.00    -0.203 F 
ATOM     88  C   UNL A   1      44.688  32.190  27.083  1.00  0.00     0.198 A 
ATOM     89  C   UNL A   1      46.996  31.636  27.407  1.00  0.00     0.198 A 
ATOM     90  F   UNL A   1      47.611  30.028  29.009  1.00  0.00    -0.203 F 
ATOM     91  F   UNL A   1      43.744  32.908  26.458  1.00  0.00    -0.200 F 
ATOM     92  C   UNL A   1      46.021  32.368  26.752  1.00  0.00     0.200 A 
ATOM     93  F   UNL A   1      48.290  31.837  27.126  1.00  0.00    -0.200 F 
ATOM     94  F   UNL A   1      46.368  33.263  25.817  1.00  0.00    -0.200 F 
ENDBRANCH  61  84
ENDBRANCH  35  36
ENDBRANCH  27  30
ENDBRANCH  25  26
ENDBRANCH  24  25
ENDBRANCH   1  24
TORSDOF 13
ENDMDL
MODEL 2
REMARK VINA RESULT:     -12.6      3.153      8.615
REMARK SMILES Cc1nsc(NC(=O)N2CCC[C@@H](C)C2)c1C(=O)NCCCCNC(=O)c1ccc(-c2c3nc(c(-c4c(F)c(F)c(F)c(F)c4F)c4ccc([nH]4)c(-c4c(F)c(F)c(F)c(F)c4F)c4nc(c(-c5c(F)c(F)c(F)c(F)c5F)c5ccc2[nH]5)C=C4)C=C3)cc1
REMARK SMILES IDX 21 1 20 2 19 3 17 4 18 5 16 7 1 8 2 9 3 10 4 11 5 12 6 13
REMARK SMILES IDX 7 14 8 16 9 17 10 18 15 19 11 20 13 21 12 22 14 23 22 24
REMARK SMILES IDX 23 25 24 26 25 27 26 29 27 30 28 31 89 32 29 33 88 34 30 35
REMARK SMILES IDX 31 36 32 37 82 38 33 39 87 40 81 41 83 42 34 43 86 44 80 45
REMARK SMILES IDX 79 46 35 48 67 49 47 50 66 51 48 52 51 53 65 54 84 55 49 56
REMARK SMILES IDX 50 57 64 59 85 60 52 61 36 62 37 63 45 64 38 65 39 66 43 67
REMARK SMILES IDX 46 68 40 69 41 70 44 71 42 72 68 73 69 74 77 75 70 76 71 77
REMARK SMILES IDX 75 78 78 79 72 80 73 81 76 82 74 83 53 84 54 85 62 86 55 87
REMARK SMILES IDX 56 88 60 89 63 90 57 91 58 92 61 93 59 94
REMARK H PARENT 19 6 6 15 24 28 83 47 51 58
REMARK Flexibility Score: inf
ROOT
ATOM      1  C   UNL A   1      38.414  22.757  26.632  1.00  0.00     0.023 C 
ENDROOT
BRANCH   1   2
ATOM      2  C   UNL A   1      37.604  23.719  25.763  1.00  0.00     0.116 C 
BRANCH   2   3
ATOM      3  N   UNL A   1      37.421  23.277  24.405  1.00  0.00    -0.352 N 
ATOM      4  C   UNL A   1      36.330  23.098  23.598  1.00  0.00     0.256 C 
ATOM      5  O   UNL A   1      36.622  22.981  22.400  1.00  0.00    -0.269 OA
ATOM      6  H   UNL A   1      38.268  23.055  23.957  1.00  0.00     0.163 HD
BRANCH   4   7
ATOM      7  C   UNL A   1      34.942  22.907  24.040  1.00  0.00     0.097 A 
ATOM      8  C   UNL A   1      34.759  21.447  26.297  1.00  0.00     0.069 C 
ATOM      9  C   UNL A   1      34.264  22.119  25.069  1.00  0.00     0.066 A 
ATOM     10  N   UNL A   1      32.947  21.966  24.903  1.00  0.00    -0.195 NA
ATOM     11  S   UNL A   1      32.481  22.789  23.572  1.00  0.00    -0.017 S 
ATOM     12  C   UNL A   1      33.934  23.636  23.388  1.00  0.00     0.130 A 
BRANCH  12  13
ATOM     13  N   UNL A   1      34.042  24.727  22.539  1.00  0.00    -0.297 N 
ATOM     14  C   UNL A   1      33.353  25.905  22.522  1.00  0.00     0.322 C 
ATOM     15  H   UNL A   1      34.725  24.638  21.836  1.00  0.00     0.172 HD
ATOM     16  O   UNL A   1      33.220  26.491  21.444  1.00  0.00    -0.248 OA
BRANCH  14  17
ATOM     17  N   UNL A   1      32.817  26.409  23.683  1.00  0.00    -0.324 N 
ATOM     18  C   UNL A   1      31.408  26.286  24.056  1.00  0.00     0.121 C 
ATOM     19  C   UNL A   1      33.717  26.711  24.783  1.00  0.00     0.124 C 
ATOM     20  C   UNL A   1      30.894  27.491  24.854  1.00  0.00     0.022 C 
ATOM     21  C   UNL A   1      33.342  28.088  25.332  1.00  0.00     0.005 C 
ATOM     22  C   UNL A   1      31.900  28.060  25.864  1.00  0.00     0.007 C 
ATOM     23  C   UNL A   1      34.328  28.553  26.396  1.00  0.00     0.009 C 
ENDBRANCH  14  17
ENDBRANCH  12  13
ENDBRANCH   4   7
ENDBRANCH   2   3
ENDBRANCH   1   2
BRANCH   1  24
ATOM     24  C   UNL A   1      39.222  21.704  25.863  1.00  0.00     0.023 C 
BRANCH  24  25
ATOM     25  C   UNL A   1      40.468  21.199  26.588  1.00  0.00     0.116 C 
BRANCH  25  26
ATOM     26  N   UNL A   1      41.705  21.415  25.838  1.00  0.00    -0.352 N 
ATOM     27  C   UNL A   1      42.322  22.628  25.578  1.00  0.00     0.251 C 
ATOM     28  H   UNL A   1      42.146  20.611  25.478  1.00  0.00     0.163 HD
ATOM     29  O   UNL A   1      43.074  22.783  24.635  1.00  0.00    -0.269 OA
BRANCH  27  30
ATOM     30  C   UNL A   1      42.071  23.729  26.521  1.00  0.00     0.039 A 
ATOM     31  C   UNL A   1      42.647  23.755  27.794  1.00  0.00     0.014 A 
ATOM     32  C   UNL A   1      41.286  24.782  26.055  1.00  0.00     0.014 A 
ATOM     33  C   UNL A   1      42.499  24.901  28.571  1.00  0.00     0.010 A 
ATOM     34  C   UNL A   1      41.241  25.951  26.769  1.00  0.00     0.010 A 
ATOM     35  C   UNL A   1      41.812  26.004  28.041  1.00  0.00    -0.014 A 
BRANCH  35  36
ATOM     36  C   UNL A   1      41.832  27.301  28.718  1.00  0.00     0.031 A 
ATOM     37  C   UNL A   1      42.981  28.170  28.319  1.00  0.00     0.074 A 
ATOM     38  C   UNL A   1      40.755  27.750  29.404  1.00  0.00     0.049 A 
ATOM     39  N   UNL A   1      43.906  28.663  29.076  1.00  0.00    -0.248 NA
ATOM     40  C   UNL A   1      43.215  28.410  26.882  1.00  0.00     0.031 C 
ATOM     41  C   UNL A   1      39.466  27.064  29.580  1.00  0.00     0.029 A 
ATOM     42  N   UNL A   1      40.519  28.963  29.982  1.00  0.00    -0.354 N 
ATOM     43  C   UNL A   1      44.710  29.447  28.246  1.00  0.00     0.074 A 
ATOM     44  C   UNL A   1      44.357  29.102  26.898  1.00  0.00     0.031 C 
ATOM     45  C   UNL A   1      38.527  27.946  29.985  1.00  0.00     0.029 A 
ATOM     46  C   UNL A   1      39.175  29.212  30.262  1.00  0.00     0.049 A 
ATOM     47  H   UNL A   1      41.235  29.607  30.183  1.00  0.00     0.167 HD
ATOM     48  C   UNL A   1      45.383  30.521  28.748  1.00  0.00     0.037 A 
ATOM     49  C   UNL A   1      38.630  30.385  30.671  1.00  0.00     0.037 A 
ATOM     50  C   UNL A   1      45.433  30.449  30.186  1.00  0.00     0.049 A 
ATOM     51  C   UNL A   1      39.737  31.203  31.213  1.00  0.00     0.074 A 
ATOM     52  C   UNL A   1      46.047  29.651  31.125  1.00  0.00     0.029 A 
ATOM     53  N   UNL A   1      44.402  31.093  30.817  1.00  0.00    -0.354 N 
ATOM     54  N   UNL A   1      40.397  30.897  32.294  1.00  0.00    -0.248 NA
ATOM     55  C   UNL A   1      40.387  32.160  30.330  1.00  0.00     0.031 C 
ATOM     56  C   UNL A   1      45.151  29.611  32.237  1.00  0.00     0.029 A 
ATOM     57  C   UNL A   1      44.059  30.436  31.963  1.00  0.00     0.049 A 
ATOM     58  H   UNL A   1      43.971  31.915  30.490  1.00  0.00     0.167 HD
ATOM     59  C   UNL A   1      41.703  31.260  32.015  1.00  0.00     0.074 A 
ATOM     60  C   UNL A   1      41.605  32.167  30.875  1.00  0.00     0.031 C 
ATOM     61  C   UNL A   1      42.738  30.544  32.542  1.00  0.00     0.037 A 
BRANCH  48  62
ATOM     62  C   UNL A   1      45.530  31.861  28.041  1.00  0.00     0.064 A 
ATOM     63  C   UNL A   1      44.363  32.530  27.605  1.00  0.00     0.173 A 
ATOM     64  C   UNL A   1      46.735  32.337  27.479  1.00  0.00     0.173 A 
ATOM     65  F   UNL A   1      43.155  32.160  28.056  1.00  0.00    -0.203 F 
ATOM     66  C   UNL A   1      44.397  33.520  26.617  1.00  0.00     0.198 A 
ATOM     67  C   UNL A   1      46.769  33.360  26.530  1.00  0.00     0.198 A 
ATOM     68  F   UNL A   1      47.917  31.764  27.726  1.00  0.00    -0.203 F 
ATOM     69  F   UNL A   1      43.251  34.026  26.140  1.00  0.00    -0.200 F 
ATOM     70  C   UNL A   1      45.599  33.928  26.073  1.00  0.00     0.200 A 
ATOM     71  F   UNL A   1      47.945  33.724  25.999  1.00  0.00    -0.200 F 
ATOM     72  F   UNL A   1      45.633  34.826  25.080  1.00  0.00    -0.200 F 
ENDBRANCH  48  62
BRANCH  49  73
ATOM     73  C   UNL A   1      37.296  30.961  30.372  1.00  0.00     0.064 A 
ATOM     74  C   UNL A   1      36.402  31.307  31.401  1.00  0.00     0.173 A 
ATOM     75  C   UNL A   1      36.991  31.457  29.090  1.00  0.00     0.173 A 
ATOM     76  F   UNL A   1      36.641  30.915  32.661  1.00  0.00    -0.203 F 
ATOM     77  C   UNL A   1      35.290  32.126  31.168  1.00  0.00     0.198 A 
ATOM     78  C   UNL A   1      35.879  32.271  28.857  1.00  0.00     0.198 A 
ATOM     79  F   UNL A   1      37.820  31.242  28.058  1.00  0.00    -0.203 F 
ATOM     80  F   UNL A   1      34.499  32.489  32.187  1.00  0.00    -0.200 F 
ATOM     81  C   UNL A   1      35.038  32.617  29.898  1.00  0.00     0.200 A 
ATOM     82  F   UNL A   1      35.668  32.770  27.631  1.00  0.00    -0.200 F 
ATOM     83  F   UNL A   1      34.013  33.455  29.685  1.00  0.00    -0.200 F 
ENDBRANCH  49  73
BRANCH  61  84
ATOM     84  C   UNL A   1      42.437  29.662  33.720  1.00  0.00     0.064 A 
ATOM     85  C   UNL A   1      42.060  28.311  33.634  1.00  0.00     0.173 A 
ATOM     86  C   UNL A   1      42.652  30.191  34.998  1.00  0.00     0.173 A 
ATOM     87  F   UNL A   1      41.918  27.706  32.449  1.00  0.00    -0.203 F 
ATOM     88  C   UNL A   1      41.870  27.540  34.781  1.00  0.00     0.198 A 
ATOM     89  C   UNL A   1      42.499  29.410  36.139  1.00  0.00     0.198 A 
ATOM     90  F   UNL A   1      43.060  31.462  35.138  1.00  0.00    -0.203 F 
ATOM     91  F   UNL A   1      41.494  26.257  34.674  1.00  0.00    -0.200 F 
ATOM     92  C   UNL A   1      42.098  28.089  36.031  1.00  0.00     0.200 A 
ATOM     93  F   UNL A   1      42.768  29.933  37.342  1.00  0.00    -0.200 F 
ATOM     94  F   UNL A   1      41.955  27.339  37.132  1.00  0.00    -0.200 F 
ENDBRANCH  61  84
ENDBRANCH  35  36
ENDBRANCH  27  30
ENDBRANCH  25  26
ENDBRANCH  24  25
ENDBRANCH   1  24
TORSDOF 13
ENDMDL
MODEL 3
REMARK VINA RESULT:     -12.5      2.948      8.498
REMARK SMILES Cc1nsc(NC(=O)N2CCC[C@@H](C)C2)c1C(=O)NCCCCNC(=O)c1ccc(-c2c3nc(c(-c4c(F)c(F)c(F)c(F)c4F)c4ccc([nH]4)c(-c4c(F)c(F)c(F)c(F)c4F)c4nc(c(-c5c(F)c(F)c(F)c(F)c5F)c5ccc2[nH]5)C=C4)C=C3)cc1
REMARK SMILES IDX 21 1 20 2 19 3 17 4 18 5 16 7 1 8 2 9 3 10 4 11 5 12 6 13
REMARK SMILES IDX 7 14 8 16 9 17 10 18 15 19 11 20 13 21 12 22 14 23 22 24
REMARK SMILES IDX 23 25 24 26 25 27 26 29 27 30 28 31 89 32 29 33 88 34 30 35
REMARK SMILES IDX 31 36 32 37 82 38 33 39 87 40 81 41 83 42 34 43 86 44 80 45
REMARK SMILES IDX 79 46 35 48 67 49 47 50 66 51 48 52 51 53 65 54 84 55 49 56
REMARK SMILES IDX 50 57 64 59 85 60 52 61 36 62 37 63 45 64 38 65 39 66 43 67
REMARK SMILES IDX 46 68 40 69 41 70 44 71 42 72 68 73 69 74 77 75 70 76 71 77
REMARK SMILES IDX 75 78 78 79 72 80 73 81 76 82 74 83 53 84 54 85 62 86 55 87
REMARK SMILES IDX 56 88 60 89 63 90 57 91 58 92 61 93 59 94
REMARK H PARENT 19 6 6 15 24 28 83 47 51 58
REMARK Flexibility Score: inf
ROOT
ATOM      1  C   UNL A   1      37.866  20.774  25.009  1.00  0.00     0.023 C 
ENDROOT
BRANCH   1   2
ATOM      2  C   UNL A   1      36.409  20.665  25.460  1.00  0.00     0.116 C 
BRANCH   2   3
ATOM      3  N   UNL A   1      35.945  21.786  26.235  1.00  0.00    -0.352 N 
ATOM      4  C   UNL A   1      35.038  22.788  26.017  1.00  0.00     0.256 C 
ATOM      5  O   UNL A   1      34.715  23.389  27.051  1.00  0.00    -0.269 OA
ATOM      6  H   UNL A   1      36.374  21.844  27.118  1.00  0.00     0.163 HD
BRANCH   4   7
ATOM      7  C   UNL A   1      34.559  23.260  24.711  1.00  0.00     0.097 A 
ATOM      8  C   UNL A   1      36.404  22.991  22.766  1.00  0.00     0.069 C 
ATOM      9  C   UNL A   1      35.148  23.479  23.390  1.00  0.00     0.066 A 
ATOM     10  N   UNL A   1      34.439  24.254  22.564  1.00  0.00    -0.195 NA
ATOM     11  S   UNL A   1      33.051  24.688  23.306  1.00  0.00    -0.017 S 
ATOM     12  C   UNL A   1      33.200  23.591  24.585  1.00  0.00     0.130 A 
BRANCH  12  13
ATOM     13  N   UNL A   1      32.140  23.307  25.433  1.00  0.00    -0.297 N 
ATOM     14  C   UNL A   1      31.457  24.116  26.295  1.00  0.00     0.322 C 
ATOM     15  H   UNL A   1      31.831  22.373  25.411  1.00  0.00     0.172 HD
ATOM     16  O   UNL A   1      30.938  23.606  27.291  1.00  0.00    -0.248 OA
BRANCH  14  17
ATOM     17  N   UNL A   1      31.367  25.465  26.051  1.00  0.00    -0.324 N 
ATOM     18  C   UNL A   1      30.217  26.109  25.416  1.00  0.00     0.121 C 
ATOM     19  C   UNL A   1      32.230  26.361  26.803  1.00  0.00     0.124 C 
ATOM     20  C   UNL A   1      30.608  27.321  24.560  1.00  0.00     0.022 C 
ATOM     21  C   UNL A   1      32.843  27.359  25.819  1.00  0.00     0.005 C 
ATOM     22  C   UNL A   1      31.728  28.185  25.157  1.00  0.00     0.007 C 
ATOM     23  C   UNL A   1      33.878  28.247  26.496  1.00  0.00     0.009 C 
ENDBRANCH  14  17
ENDBRANCH  12  13
ENDBRANCH   4   7
ENDBRANCH   2   3
ENDBRANCH   1   2
BRANCH   1  24
ATOM     24  C   UNL A   1      38.687  21.865  25.708  1.00  0.00     0.023 C 
BRANCH  24  25
ATOM     25  C   UNL A   1      39.832  21.346  26.576  1.00  0.00     0.116 C 
BRANCH  25  26
ATOM     26  N   UNL A   1      41.137  21.414  25.919  1.00  0.00    -0.352 N 
ATOM     27  C   UNL A   1      41.918  22.542  25.731  1.00  0.00     0.251 C 
ATOM     28  H   UNL A   1      41.498  20.566  25.573  1.00  0.00     0.163 HD
ATOM     29  O   UNL A   1      42.750  22.613  24.846  1.00  0.00    -0.269 OA
BRANCH  27  30
ATOM     30  C   UNL A   1      41.741  23.653  26.679  1.00  0.00     0.039 A 
ATOM     31  C   UNL A   1      42.427  23.700  27.895  1.00  0.00     0.014 A 
ATOM     32  C   UNL A   1      40.907  24.692  26.273  1.00  0.00     0.014 A 
ATOM     33  C   UNL A   1      42.337  24.855  28.669  1.00  0.00     0.010 A 
ATOM     34  C   UNL A   1      40.913  25.870  26.974  1.00  0.00     0.010 A 
ATOM     35  C   UNL A   1      41.593  25.945  28.189  1.00  0.00    -0.014 A 
BRANCH  35  36
ATOM     36  C   UNL A   1      41.660  27.251  28.846  1.00  0.00     0.031 A 
ATOM     37  C   UNL A   1      42.828  28.080  28.419  1.00  0.00     0.074 A 
ATOM     38  C   UNL A   1      40.605  27.741  29.539  1.00  0.00     0.049 A 
ATOM     39  N   UNL A   1      43.777  28.557  29.156  1.00  0.00    -0.248 NA
ATOM     40  C   UNL A   1      43.049  28.292  26.975  1.00  0.00     0.031 C 
ATOM     41  C   UNL A   1      39.300  27.095  29.742  1.00  0.00     0.029 A 
ATOM     42  N   UNL A   1      40.412  28.968  30.101  1.00  0.00    -0.354 N 
ATOM     43  C   UNL A   1      44.591  29.306  28.304  1.00  0.00     0.074 A 
ATOM     44  C   UNL A   1      44.210  28.951  26.966  1.00  0.00     0.031 C 
ATOM     45  C   UNL A   1      38.392  28.010  30.146  1.00  0.00     0.029 A 
ATOM     46  C   UNL A   1      39.080  29.260  30.395  1.00  0.00     0.049 A 
ATOM     47  H   UNL A   1      41.149  29.594  30.283  1.00  0.00     0.167 HD
ATOM     48  C   UNL A   1      45.301  30.367  28.780  1.00  0.00     0.037 A 
ATOM     49  C   UNL A   1      38.575  30.455  30.793  1.00  0.00     0.037 A 
ATOM     50  C   UNL A   1      45.368  30.314  30.218  1.00  0.00     0.049 A 
ATOM     51  C   UNL A   1      39.711  31.248  31.308  1.00  0.00     0.074 A 
ATOM     52  C   UNL A   1      45.972  29.513  31.161  1.00  0.00     0.029 A 
ATOM     53  N   UNL A   1      44.366  30.998  30.853  1.00  0.00    -0.354 N 
ATOM     54  N   UNL A   1      40.377  30.939  32.385  1.00  0.00    -0.248 NA
ATOM     55  C   UNL A   1      40.376  32.172  30.402  1.00  0.00     0.031 C 
ATOM     56  C   UNL A   1      45.091  29.516  32.285  1.00  0.00     0.029 A 
ATOM     57  C   UNL A   1      44.020  30.368  32.013  1.00  0.00     0.049 A 
ATOM     58  H   UNL A   1      43.953  31.827  30.519  1.00  0.00     0.167 HD
ATOM     59  C   UNL A   1      41.689  31.261  32.084  1.00  0.00     0.074 A 
ATOM     60  C   UNL A   1      41.602  32.153  30.931  1.00  0.00     0.031 C 
ATOM     61  C   UNL A   1      42.710  30.522  32.608  1.00  0.00     0.037 A 
BRANCH  48  62
ATOM     62  C   UNL A   1      45.477  31.692  28.051  1.00  0.00     0.064 A 
ATOM     63  C   UNL A   1      44.327  32.366  27.583  1.00  0.00     0.173 A 
ATOM     64  C   UNL A   1      46.698  32.142  27.501  1.00  0.00     0.173 A 
ATOM     65  F   UNL A   1      43.107  32.020  28.021  1.00  0.00    -0.203 F 
ATOM     66  C   UNL A   1      44.390  33.337  26.577  1.00  0.00     0.198 A 
ATOM     67  C   UNL A   1      46.760  33.146  26.534  1.00  0.00     0.198 A 
ATOM     68  F   UNL A   1      47.868  31.559  27.779  1.00  0.00    -0.203 F 
ATOM     69  F   UNL A   1      43.258  33.848  26.072  1.00  0.00    -0.200 F 
ATOM     70  C   UNL A   1      45.606  33.720  26.047  1.00  0.00     0.200 A 
ATOM     71  F   UNL A   1      47.950  33.485  26.016  1.00  0.00    -0.200 F 
ATOM     72  F   UNL A   1      45.667  34.599  25.038  1.00  0.00    -0.200 F 
ENDBRANCH  48  62
BRANCH  49  73
ATOM     73  C   UNL A   1      37.253  31.064  30.503  1.00  0.00     0.064 A 
ATOM     74  C   UNL A   1      36.349  31.377  31.535  1.00  0.00     0.173 A 
ATOM     75  C   UNL A   1      36.973  31.622  29.241  1.00  0.00     0.173 A 
ATOM     76  F   UNL A   1      36.565  30.924  32.778  1.00  0.00    -0.203 F 
ATOM     77  C   UNL A   1      35.254  32.222  31.324  1.00  0.00     0.198 A 
ATOM     78  C   UNL A   1      35.878  32.464  29.031  1.00  0.00     0.198 A 
ATOM     79  F   UNL A   1      37.814  31.443  28.212  1.00  0.00    -0.203 F 
ATOM     80  F   UNL A   1      34.454  32.550  32.348  1.00  0.00    -0.200 F 
ATOM     81  C   UNL A   1      35.027  32.775  30.075  1.00  0.00     0.200 A 
ATOM     82  F   UNL A   1      35.692  33.022  27.826  1.00  0.00    -0.200 F 
ATOM     83  F   UNL A   1      34.018  33.638  29.887  1.00  0.00    -0.200 F 
ENDBRANCH  49  73
BRANCH  61  84
ATOM     84  C   UNL A   1      42.400  29.667  33.803  1.00  0.00     0.064 A 
ATOM     85  C   UNL A   1      41.962  28.333  33.741  1.00  0.00     0.173 A 
ATOM     86  C   UNL A   1      42.669  30.199  35.069  1.00  0.00     0.173 A 
ATOM     87  F   UNL A   1      41.764  27.723  32.567  1.00  0.00    -0.203 F 
ATOM     88  C   UNL A   1      41.766  27.584  34.902  1.00  0.00     0.198 A 
ATOM     89  C   UNL A   1      42.510  29.438  36.223  1.00  0.00     0.198 A 
ATOM     90  F   UNL A   1      43.135  31.453  35.184  1.00  0.00    -0.203 F 
ATOM     91  F   UNL A   1      41.332  26.317  34.819  1.00  0.00    -0.200 F 
ATOM     92  C   UNL A   1      42.049  28.135  36.140  1.00  0.00     0.200 A 
ATOM     93  F   UNL A   1      42.831  29.962  37.413  1.00  0.00    -0.200 F 
ATOM     94  F   UNL A   1      41.900  27.403  37.253  1.00  0.00    -0.200 F 
ENDBRANCH  61  84
ENDBRANCH  35  36
ENDBRANCH  27  30
ENDBRANCH  25  26
ENDBRANCH  24  25
ENDBRANCH   1  24
TORSDOF 13
ENDMDL
