MODEL 1
REMARK VINA RESULT:     -13.9      0.000      0.000
REMARK SMILES Cc1cccc(C(=O)Nc2ccc(-c3nnc(S[C@H](C(=O)NCCCCNC(=O)c4ccc(-c5c6nc(c(-c7c(F)c(F)c(F)c(F)c7F)c7ccc([nH]7)c(-c7c(F)c(F)c(F)c(F)c7F)c7nc(c(-c8c(F)c(F)c(F)c(F)c8F)c8ccc5[nH]8)C=C7)C=C6)cc4)C(C)C)n3C)cc2)c1
REMARK SMILES IDX 23 1 22 2 20 3 21 4 19 6 18 7 17 8 14 9 15 10 96 11 16 12
REMARK SMILES IDX 97 13 13 14 10 15 11 16 99 17 12 18 98 19 9 20 7 21 8 22
REMARK SMILES IDX 6 24 1 25 2 26 3 27 100 28 4 29 5 30 93 31 94 32 95 33 24 34
REMARK SMILES IDX 25 35 26 36 27 37 28 38 29 40 30 41 31 42 92 43 32 44 91 45
REMARK SMILES IDX 33 46 34 47 35 48 85 49 36 50 90 51 84 52 86 53 37 54 89 55
REMARK SMILES IDX 83 56 82 57 38 59 70 60 50 61 69 62 51 63 54 64 68 65 87 66
REMARK SMILES IDX 52 67 53 68 67 70 88 71 55 72 39 73 40 74 48 75 41 76 42 77
REMARK SMILES IDX 46 78 49 79 43 80 44 81 47 82 45 83 71 84 72 85 80 86 73 87
REMARK SMILES IDX 74 88 78 89 81 90 75 91 76 92 79 93 77 94 56 95 57 96 65 97
REMARK SMILES IDX 58 98 59 99 63 100 66 101 60 102 61 103 64 104 62 105
REMARK H PARENT 22 5 9 23 27 39 86 58 54 69
REMARK Flexibility Score: inf
ROOT
ATOM      1  C   UNL A   1      31.619  30.044  25.531  1.00  0.00     0.116 C 
ENDROOT
BRANCH   1   2
ATOM      2  N   UNL A   1      32.104  29.178  24.469  1.00  0.00    -0.355 N 
ATOM      3  C   UNL A   1      31.559  28.745  23.295  1.00  0.00     0.233 C 
ATOM      4  O   UNL A   1      32.368  28.560  22.373  1.00  0.00    -0.274 OA
ATOM      5  H   UNL A   1      33.013  28.834  24.628  1.00  0.00     0.163 HD
BRANCH   3   6
ATOM      6  C   UNL A   1      30.069  28.448  23.044  1.00  0.00     0.146 C 
BRANCH   6   7
ATOM      7  S   UNL A   1      29.390  27.102  24.084  1.00  0.00    -0.072 SA
BRANCH   7   8
ATOM      8  C   UNL A   1      30.559  26.456  25.161  1.00  0.00     0.192 A 
ATOM      9  C   UNL A   1      32.280  25.265  25.845  1.00  0.00     0.164 A 
ATOM     10  N   UNL A   1      31.774  25.917  26.876  1.00  0.00    -0.129 NA
ATOM     11  N   UNL A   1      31.489  25.532  24.746  1.00  0.00    -0.305 N 
ATOM     12  N   UNL A   1      30.699  26.659  26.446  1.00  0.00    -0.123 NA
ATOM     13  C   UNL A   1      31.573  24.870  23.468  1.00  0.00     0.154 C 
BRANCH   9  14
ATOM     14  C   UNL A   1      33.455  24.391  25.898  1.00  0.00     0.019 A 
ATOM     15  C   UNL A   1      35.569  22.546  25.682  1.00  0.00     0.041 A 
ATOM     16  C   UNL A   1      35.561  23.694  24.891  1.00  0.00     0.027 A 
ATOM     17  C   UNL A   1      34.607  22.394  26.682  1.00  0.00     0.027 A 
ATOM     18  C   UNL A   1      34.494  24.594  24.981  1.00  0.00     0.014 A 
ATOM     19  C   UNL A   1      33.544  23.301  26.775  1.00  0.00     0.014 A 
BRANCH  15  20
ATOM     20  N   UNL A   1      36.509  21.556  25.366  1.00  0.00    -0.322 N 
ATOM     21  C   UNL A   1      36.352  20.222  25.036  1.00  0.00     0.255 C 
ATOM     22  O   UNL A   1      37.358  19.512  24.999  1.00  0.00    -0.269 OA
ATOM     23  H   UNL A   1      37.445  21.863  25.381  1.00  0.00     0.170 HD
BRANCH  21  24
ATOM     24  C   UNL A   1      35.041  19.628  24.627  1.00  0.00     0.040 A 
ATOM     25  C   UNL A   1      33.415  16.258  23.913  1.00  0.00     0.044 C 
ATOM     26  C   UNL A   1      33.587  17.738  24.103  1.00  0.00    -0.050 A 
ATOM     27  C   UNL A   1      32.568  18.625  23.749  1.00  0.00     0.003 A 
ATOM     28  C   UNL A   1      34.783  18.250  24.625  1.00  0.00     0.017 A 
ATOM     29  C   UNL A   1      32.763  20.000  23.866  1.00  0.00     0.001 A 
ATOM     30  C   UNL A   1      34.001  20.500  24.281  1.00  0.00     0.014 A 
ENDBRANCH  21  24
ENDBRANCH  15  20
ENDBRANCH   9  14
ENDBRANCH   7   8
ENDBRANCH   6   7
BRANCH   6  31
ATOM     31  C   UNL A   1      29.070  29.632  22.958  1.00  0.00     0.006 C 
ATOM     32  C   UNL A   1      29.337  30.477  21.700  1.00  0.00     0.009 C 
ATOM     33  C   UNL A   1      27.580  29.238  22.920  1.00  0.00     0.009 C 
ENDBRANCH   6  31
ENDBRANCH   3   6
ENDBRANCH   1   2
BRANCH   1  34
ATOM     34  C   UNL A   1      32.334  29.882  26.874  1.00  0.00     0.023 C 
BRANCH  34  35
ATOM     35  C   UNL A   1      33.860  29.784  26.799  1.00  0.00     0.023 C 
BRANCH  35  36
ATOM     36  C   UNL A   1      34.619  30.816  27.631  1.00  0.00     0.116 C 
BRANCH  36  37
ATOM     37  N   UNL A   1      33.877  32.008  28.020  1.00  0.00    -0.352 N 
ATOM     38  C   UNL A   1      34.163  32.929  29.026  1.00  0.00     0.251 C 
ATOM     39  H   UNL A   1      33.060  32.188  27.500  1.00  0.00     0.163 HD
ATOM     40  O   UNL A   1      33.376  33.818  29.289  1.00  0.00    -0.269 OA
BRANCH  38  41
ATOM     41  C   UNL A   1      35.501  32.901  29.681  1.00  0.00     0.039 A 
ATOM     42  C   UNL A   1      36.524  33.679  29.126  1.00  0.00     0.014 A 
ATOM     43  C   UNL A   1      35.802  31.969  30.668  1.00  0.00     0.014 A 
ATOM     44  C   UNL A   1      37.855  33.326  29.355  1.00  0.00     0.010 A 
ATOM     45  C   UNL A   1      37.110  31.545  30.810  1.00  0.00     0.010 A 
ATOM     46  C   UNL A   1      38.131  32.177  30.096  1.00  0.00    -0.014 A 
BRANCH  46  47
ATOM     47  C   UNL A   1      39.426  31.503  30.084  1.00  0.00     0.031 A 
ATOM     48  C   UNL A   1      39.594  30.177  29.459  1.00  0.00     0.074 A 
ATOM     49  C   UNL A   1      40.522  32.122  30.581  1.00  0.00     0.049 A 
ATOM     50  N   UNL A   1      40.498  29.330  29.824  1.00  0.00    -0.248 NA
ATOM     51  C   UNL A   1      38.747  29.694  28.376  1.00  0.00     0.031 C 
ATOM     52  C   UNL A   1      41.915  31.709  30.417  1.00  0.00     0.029 A 
ATOM     53  N   UNL A   1      40.583  33.171  31.512  1.00  0.00    -0.354 N 
ATOM     54  C   UNL A   1      40.539  28.339  28.877  1.00  0.00     0.074 A 
ATOM     55  C   UNL A   1      39.388  28.572  28.031  1.00  0.00     0.031 C 
ATOM     56  C   UNL A   1      42.643  32.235  31.412  1.00  0.00     0.029 A 
ATOM     57  C   UNL A   1      41.727  32.909  32.310  1.00  0.00     0.049 A 
ATOM     58  H   UNL A   1      39.961  33.929  31.594  1.00  0.00     0.167 HD
ATOM     59  C   UNL A   1      41.607  27.494  28.818  1.00  0.00     0.037 A 
ATOM     60  C   UNL A   1      41.619  32.694  33.653  1.00  0.00     0.037 A 
ATOM     61  C   UNL A   1      42.616  27.793  29.829  1.00  0.00     0.049 A 
ATOM     62  C   UNL A   1      42.080  31.328  34.114  1.00  0.00     0.074 A 
ATOM     63  C   UNL A   1      43.831  28.459  29.815  1.00  0.00     0.029 A 
ATOM     64  N   UNL A   1      42.293  27.631  31.164  1.00  0.00    -0.354 N 
ATOM     65  N   UNL A   1      42.559  30.409  33.324  1.00  0.00    -0.248 NA
ATOM     66  C   UNL A   1      41.928  30.852  35.490  1.00  0.00     0.031 C 
ATOM     67  C   UNL A   1      44.249  28.663  31.159  1.00  0.00     0.029 A 
ATOM     68  C   UNL A   1      43.284  28.128  31.989  1.00  0.00     0.049 A 
ATOM     69  H   UNL A   1      41.463  27.212  31.486  1.00  0.00     0.167 HD
ATOM     70  C   UNL A   1      42.703  29.239  34.022  1.00  0.00     0.074 A 
ATOM     71  C   UNL A   1      42.301  29.566  35.376  1.00  0.00     0.031 C 
ATOM     72  C   UNL A   1      43.092  28.074  33.428  1.00  0.00     0.037 A 
BRANCH  59  73
ATOM     73  C   UNL A   1      41.819  26.547  27.668  1.00  0.00     0.064 A 
ATOM     74  C   UNL A   1      41.100  25.340  27.568  1.00  0.00     0.173 A 
ATOM     75  C   UNL A   1      42.756  26.776  26.643  1.00  0.00     0.173 A 
ATOM     76  F   UNL A   1      40.114  25.038  28.421  1.00  0.00    -0.203 F 
ATOM     77  C   UNL A   1      41.383  24.384  26.590  1.00  0.00     0.198 A 
ATOM     78  C   UNL A   1      43.080  25.797  25.700  1.00  0.00     0.198 A 
ATOM     79  F   UNL A   1      43.367  27.963  26.520  1.00  0.00    -0.203 F 
ATOM     80  F   UNL A   1      40.674  23.247  26.547  1.00  0.00    -0.200 F 
ATOM     81  C   UNL A   1      42.400  24.595  25.681  1.00  0.00     0.200 A 
ATOM     82  F   UNL A   1      44.061  26.022  24.816  1.00  0.00    -0.200 F 
ATOM     83  F   UNL A   1      42.712  23.652  24.783  1.00  0.00    -0.200 F 
ENDBRANCH  59  73
BRANCH  60  84
ATOM     84  C   UNL A   1      40.506  33.479  34.247  1.00  0.00     0.064 A 
ATOM     85  C   UNL A   1      39.292  32.802  34.488  1.00  0.00     0.173 A 
ATOM     86  C   UNL A   1      40.752  34.653  34.967  1.00  0.00     0.173 A 
ATOM     87  F   UNL A   1      39.006  31.675  33.814  1.00  0.00    -0.203 F 
ATOM     88  C   UNL A   1      38.457  33.180  35.535  1.00  0.00     0.198 A 
ATOM     89  C   UNL A   1      39.890  35.048  35.989  1.00  0.00     0.198 A 
ATOM     90  F   UNL A   1      41.889  35.339  34.780  1.00  0.00    -0.203 F 
ATOM     91  F   UNL A   1      37.403  32.415  35.856  1.00  0.00    -0.200 F 
ATOM     92  C   UNL A   1      38.777  34.282  36.306  1.00  0.00     0.200 A 
ATOM     93  F   UNL A   1      40.201  36.114  36.741  1.00  0.00    -0.200 F 
ATOM     94  F   UNL A   1      38.041  34.578  37.387  1.00  0.00    -0.200 F 
ENDBRANCH  60  84
BRANCH  72  95
ATOM     95  C   UNL A   1      43.312  26.782  34.164  1.00  0.00     0.064 A 
ATOM     96  C   UNL A   1      42.260  26.062  34.752  1.00  0.00     0.173 A 
ATOM     97  C   UNL A   1      44.611  26.287  34.411  1.00  0.00     0.173 A 
ATOM     98  F   UNL A   1      40.993  26.493  34.658  1.00  0.00    -0.203 F 
ATOM     99  C   UNL A   1      42.488  24.891  35.480  1.00  0.00     0.198 A 
ATOM    100  C   UNL A   1      44.839  25.149  35.181  1.00  0.00     0.198 A 
ATOM    101  F   UNL A   1      45.698  26.879  33.895  1.00  0.00    -0.203 F 
ATOM    102  F   UNL A   1      41.448  24.205  35.976  1.00  0.00    -0.200 F 
ATOM    103  C   UNL A   1      43.776  24.440  35.703  1.00  0.00     0.200 A 
ATOM    104  F   UNL A   1      46.096  24.743  35.411  1.00  0.00    -0.200 F 
ATOM    105  F   UNL A   1      43.993  23.328  36.418  1.00  0.00    -0.200 F 
ENDBRANCH  72  95
ENDBRANCH  46  47
ENDBRANCH  38  41
ENDBRANCH  36  37
ENDBRANCH  35  36
ENDBRANCH  34  35
ENDBRANCH   1  34
TORSDOF 17
ENDMDL
MODEL 2
REMARK VINA RESULT:     -13.0      0.939      2.038
REMARK SMILES Cc1cccc(C(=O)Nc2ccc(-c3nnc(S[C@H](C(=O)NCCCCNC(=O)c4ccc(-c5c6nc(c(-c7c(F)c(F)c(F)c(F)c7F)c7ccc([nH]7)c(-c7c(F)c(F)c(F)c(F)c7F)c7nc(c(-c8c(F)c(F)c(F)c(F)c8F)c8ccc5[nH]8)C=C7)C=C6)cc4)C(C)C)n3C)cc2)c1
REMARK SMILES IDX 23 1 22 2 20 3 21 4 19 6 18 7 17 8 14 9 15 10 96 11 16 12
REMARK SMILES IDX 97 13 13 14 10 15 11 16 99 17 12 18 98 19 9 20 7 21 8 22
REMARK SMILES IDX 6 24 1 25 2 26 3 27 100 28 4 29 5 30 93 31 94 32 95 33 24 34
REMARK SMILES IDX 25 35 26 36 27 37 28 38 29 40 30 41 31 42 92 43 32 44 91 45
REMARK SMILES IDX 33 46 34 47 35 48 85 49 36 50 90 51 84 52 86 53 37 54 89 55
REMARK SMILES IDX 83 56 82 57 38 59 70 60 50 61 69 62 51 63 54 64 68 65 87 66
REMARK SMILES IDX 52 67 53 68 67 70 88 71 55 72 39 73 40 74 48 75 41 76 42 77
REMARK SMILES IDX 46 78 49 79 43 80 44 81 47 82 45 83 71 84 72 85 80 86 73 87
REMARK SMILES IDX 74 88 78 89 81 90 75 91 76 92 79 93 77 94 56 95 57 96 65 97
REMARK SMILES IDX 58 98 59 99 63 100 66 101 60 102 61 103 64 104 62 105
REMARK H PARENT 22 5 9 23 27 39 86 58 54 69
REMARK Flexibility Score: inf
ROOT
ATOM      1  C   UNL A   1      31.878  29.317  25.735  1.00  0.00     0.116 C 
ENDROOT
BRANCH   1   2
ATOM      2  N   UNL A   1      32.313  28.514  24.605  1.00  0.00    -0.355 N 
ATOM      3  C   UNL A   1      31.836  28.351  23.337  1.00  0.00     0.233 C 
ATOM      4  O   UNL A   1      32.697  28.126  22.473  1.00  0.00    -0.274 OA
ATOM      5  H   UNL A   1      33.117  27.977  24.792  1.00  0.00     0.163 HD
BRANCH   3   6
ATOM      6  C   UNL A   1      30.356  28.394  22.913  1.00  0.00     0.146 C 
BRANCH   6   7
ATOM      7  S   UNL A   1      29.257  27.340  23.931  1.00  0.00    -0.072 SA
BRANCH   7   8
ATOM      8  C   UNL A   1      30.135  26.262  24.938  1.00  0.00     0.192 A 
ATOM      9  C   UNL A   1      31.378  24.533  25.498  1.00  0.00     0.164 A 
ATOM     10  N   UNL A   1      31.071  25.212  26.590  1.00  0.00    -0.129 NA
ATOM     11  N   UNL A   1      30.742  25.137  24.433  1.00  0.00    -0.305 N 
ATOM     12  N   UNL A   1      30.294  26.290  26.237  1.00  0.00    -0.123 NA
ATOM     13  C   UNL A   1      30.653  24.604  23.096  1.00  0.00     0.154 C 
BRANCH   9  14
ATOM     14  C   UNL A   1      32.220  23.335  25.464  1.00  0.00     0.019 A 
ATOM     15  C   UNL A   1      33.536  20.858  25.230  1.00  0.00     0.041 A 
ATOM     16  C   UNL A   1      33.450  21.710  24.129  1.00  0.00     0.027 A 
ATOM     17  C   UNL A   1      33.100  21.303  26.478  1.00  0.00     0.027 A 
ATOM     18  C   UNL A   1      32.771  22.927  24.242  1.00  0.00     0.014 A 
ATOM     19  C   UNL A   1      32.426  22.527  26.591  1.00  0.00     0.014 A 
BRANCH  15  20
ATOM     20  N   UNL A   1      33.985  19.551  24.995  1.00  0.00    -0.322 N 
ATOM     21  C   UNL A   1      35.254  19.051  24.768  1.00  0.00     0.255 C 
ATOM     22  O   UNL A   1      35.357  17.883  24.386  1.00  0.00    -0.269 OA
ATOM     23  H   UNL A   1      33.273  18.871  24.990  1.00  0.00     0.170 HD
BRANCH  21  24
ATOM     24  C   UNL A   1      36.503  19.822  25.057  1.00  0.00     0.040 A 
ATOM     25  C   UNL A   1      37.702  23.379  25.704  1.00  0.00     0.044 C 
ATOM     26  C   UNL A   1      37.714  21.887  25.536  1.00  0.00    -0.050 A 
ATOM     27  C   UNL A   1      38.921  21.186  25.487  1.00  0.00     0.003 A 
ATOM     28  C   UNL A   1      36.512  21.178  25.410  1.00  0.00     0.017 A 
ATOM     29  C   UNL A   1      38.925  19.810  25.264  1.00  0.00     0.001 A 
ATOM     30  C   UNL A   1      37.724  19.135  25.027  1.00  0.00     0.014 A 
ENDBRANCH  21  24
ENDBRANCH  15  20
ENDBRANCH   9  14
ENDBRANCH   7   8
ENDBRANCH   6   7
BRANCH   6  31
ATOM     31  C   UNL A   1      29.693  29.768  22.633  1.00  0.00     0.006 C 
ATOM     32  C   UNL A   1      28.324  29.583  21.955  1.00  0.00     0.009 C 
ATOM     33  C   UNL A   1      29.458  30.653  23.873  1.00  0.00     0.009 C 
ENDBRANCH   6  31
ENDBRANCH   3   6
ENDBRANCH   1   2
BRANCH   1  34
ATOM     34  C   UNL A   1      32.880  30.376  26.200  1.00  0.00     0.023 C 
BRANCH  34  35
ATOM     35  C   UNL A   1      34.129  29.836  26.903  1.00  0.00     0.023 C 
BRANCH  35  36
ATOM     36  C   UNL A   1      34.838  30.828  27.822  1.00  0.00     0.116 C 
BRANCH  36  37
ATOM     37  N   UNL A   1      34.060  31.983  28.251  1.00  0.00    -0.352 N 
ATOM     38  C   UNL A   1      34.356  32.921  29.238  1.00  0.00     0.251 C 
ATOM     39  H   UNL A   1      33.207  32.120  27.778  1.00  0.00     0.163 HD
ATOM     40  O   UNL A   1      33.543  33.771  29.546  1.00  0.00    -0.269 OA
BRANCH  38  41
ATOM     41  C   UNL A   1      35.729  32.962  29.817  1.00  0.00     0.039 A 
ATOM     42  C   UNL A   1      36.721  33.655  29.113  1.00  0.00     0.014 A 
ATOM     43  C   UNL A   1      36.082  32.157  30.894  1.00  0.00     0.014 A 
ATOM     44  C   UNL A   1      38.062  33.320  29.310  1.00  0.00     0.010 A 
ATOM     45  C   UNL A   1      37.395  31.742  31.015  1.00  0.00     0.010 A 
ATOM     46  C   UNL A   1      38.377  32.270  30.172  1.00  0.00    -0.014 A 
BRANCH  46  47
ATOM     47  C   UNL A   1      39.667  31.587  30.173  1.00  0.00     0.031 A 
ATOM     48  C   UNL A   1      39.841  30.277  29.516  1.00  0.00     0.074 A 
ATOM     49  C   UNL A   1      40.755  32.184  30.712  1.00  0.00     0.049 A 
ATOM     50  N   UNL A   1      40.731  29.414  29.879  1.00  0.00    -0.248 NA
ATOM     51  C   UNL A   1      39.017  29.830  28.400  1.00  0.00     0.031 C 
ATOM     52  C   UNL A   1      42.149  31.766  30.570  1.00  0.00     0.029 A 
ATOM     53  N   UNL A   1      40.801  33.207  31.672  1.00  0.00    -0.354 N 
ATOM     54  C   UNL A   1      40.788  28.449  28.906  1.00  0.00     0.074 A 
ATOM     55  C   UNL A   1      39.659  28.713  28.041  1.00  0.00     0.031 C 
ATOM     56  C   UNL A   1      42.856  32.259  31.596  1.00  0.00     0.029 A 
ATOM     57  C   UNL A   1      41.924  32.916  32.490  1.00  0.00     0.049 A 
ATOM     58  H   UNL A   1      40.182  33.968  31.761  1.00  0.00     0.167 HD
ATOM     59  C   UNL A   1      41.851  27.599  28.850  1.00  0.00     0.037 A 
ATOM     60  C   UNL A   1      41.782  32.666  33.823  1.00  0.00     0.037 A 
ATOM     61  C   UNL A   1      42.838  27.862  29.892  1.00  0.00     0.049 A 
ATOM     62  C   UNL A   1      42.223  31.284  34.258  1.00  0.00     0.074 A 
ATOM     63  C   UNL A   1      44.057  28.520  29.925  1.00  0.00     0.029 A 
ATOM     64  N   UNL A   1      42.483  27.666  31.214  1.00  0.00    -0.354 N 
ATOM     65  N   UNL A   1      42.714  30.384  33.454  1.00  0.00    -0.248 NA
ATOM     66  C   UNL A   1      42.035  30.772  35.616  1.00  0.00     0.031 C 
ATOM     67  C   UNL A   1      44.444  28.685  31.284  1.00  0.00     0.029 A 
ATOM     68  C   UNL A   1      43.456  28.134  32.076  1.00  0.00     0.049 A 
ATOM     69  H   UNL A   1      41.642  27.245  31.505  1.00  0.00     0.167 HD
ATOM     70  C   UNL A   1      42.834  29.194  34.124  1.00  0.00     0.074 A 
ATOM     71  C   UNL A   1      42.402  29.487  35.477  1.00  0.00     0.031 C 
ATOM     72  C   UNL A   1      43.230  28.043  33.508  1.00  0.00     0.037 A 
BRANCH  59  73
ATOM     73  C   UNL A   1      42.085  26.681  27.679  1.00  0.00     0.064 A 
ATOM     74  C   UNL A   1      41.377  25.471  27.542  1.00  0.00     0.173 A 
ATOM     75  C   UNL A   1      43.032  26.942  26.672  1.00  0.00     0.173 A 
ATOM     76  F   UNL A   1      40.382  25.142  28.375  1.00  0.00    -0.203 F 
ATOM     77  C   UNL A   1      41.678  24.542  26.544  1.00  0.00     0.198 A 
ATOM     78  C   UNL A   1      43.375  25.989  25.709  1.00  0.00     0.198 A 
ATOM     79  F   UNL A   1      43.635  28.137  26.586  1.00  0.00    -0.203 F 
ATOM     80  F   UNL A   1      40.979  23.401  26.465  1.00  0.00    -0.200 F 
ATOM     81  C   UNL A   1      42.705  24.783  25.653  1.00  0.00     0.200 A 
ATOM     82  F   UNL A   1      44.365  26.243  24.843  1.00  0.00    -0.200 F 
ATOM     83  F   UNL A   1      43.035  23.864  24.736  1.00  0.00    -0.200 F 
ENDBRANCH  59  73
BRANCH  60  84
ATOM     84  C   UNL A   1      40.660  33.442  34.412  1.00  0.00     0.064 A 
ATOM     85  C   UNL A   1      39.437  32.767  34.606  1.00  0.00     0.173 A 
ATOM     86  C   UNL A   1      40.897  34.594  35.169  1.00  0.00     0.173 A 
ATOM     87  F   UNL A   1      39.159  31.661  33.895  1.00  0.00    -0.203 F 
ATOM     88  C   UNL A   1      38.579  33.122  35.643  1.00  0.00     0.198 A 
ATOM     89  C   UNL A   1      40.013  34.968  36.181  1.00  0.00     0.198 A 
ATOM     90  F   UNL A   1      42.042  35.277  35.029  1.00  0.00    -0.203 F 
ATOM     91  F   UNL A   1      37.513  32.357  35.917  1.00  0.00    -0.200 F 
ATOM     92  C   UNL A   1      38.887  34.201  36.451  1.00  0.00     0.200 A 
ATOM     93  F   UNL A   1      40.313  36.010  36.969  1.00  0.00    -0.200 F 
ATOM     94  F   UNL A   1      38.129  34.473  37.522  1.00  0.00    -0.200 F 
ENDBRANCH  60  84
BRANCH  72  95
ATOM     95  C   UNL A   1      43.424  26.730  34.213  1.00  0.00     0.064 A 
ATOM     96  C   UNL A   1      44.677  26.102  34.302  1.00  0.00     0.173 A 
ATOM     97  C   UNL A   1      42.329  25.996  34.719  1.00  0.00     0.173 A 
ATOM     98  F   UNL A   1      45.771  26.669  33.773  1.00  0.00    -0.203 F 
ATOM     99  C   UNL A   1      44.832  24.855  34.914  1.00  0.00     0.198 A 
ATOM    100  C   UNL A   1      42.479  24.730  35.281  1.00  0.00     0.198 A 
ATOM    101  F   UNL A   1      41.085  26.491  34.703  1.00  0.00    -0.203 F 
ATOM    102  F   UNL A   1      46.055  24.318  35.027  1.00  0.00    -0.200 F 
ATOM    103  C   UNL A   1      43.734  24.165  35.394  1.00  0.00     0.200 A 
ATOM    104  F   UNL A   1      41.400  24.063  35.715  1.00  0.00    -0.200 F 
ATOM    105  F   UNL A   1      43.882  22.961  35.963  1.00  0.00    -0.200 F 
ENDBRANCH  72  95
ENDBRANCH  46  47
ENDBRANCH  38  41
ENDBRANCH  36  37
ENDBRANCH  35  36
ENDBRANCH  34  35
ENDBRANCH   1  34
TORSDOF 17
ENDMDL
MODEL 3
REMARK VINA RESULT:     -12.6      4.124      9.404
REMARK SMILES Cc1cccc(C(=O)Nc2ccc(-c3nnc(S[C@H](C(=O)NCCCCNC(=O)c4ccc(-c5c6nc(c(-c7c(F)c(F)c(F)c(F)c7F)c7ccc([nH]7)c(-c7c(F)c(F)c(F)c(F)c7F)c7nc(c(-c8c(F)c(F)c(F)c(F)c8F)c8ccc5[nH]8)C=C7)C=C6)cc4)C(C)C)n3C)cc2)c1
REMARK SMILES IDX 23 1 22 2 20 3 21 4 19 6 18 7 17 8 14 9 15 10 96 11 16 12
REMARK SMILES IDX 97 13 13 14 10 15 11 16 99 17 12 18 98 19 9 20 7 21 8 22
REMARK SMILES IDX 6 24 1 25 2 26 3 27 100 28 4 29 5 30 93 31 94 32 95 33 24 34
REMARK SMILES IDX 25 35 26 36 27 37 28 38 29 40 30 41 31 42 92 43 32 44 91 45
REMARK SMILES IDX 33 46 34 47 35 48 85 49 36 50 90 51 84 52 86 53 37 54 89 55
REMARK SMILES IDX 83 56 82 57 38 59 70 60 50 61 69 62 51 63 54 64 68 65 87 66
REMARK SMILES IDX 52 67 53 68 67 70 88 71 55 72 39 73 40 74 48 75 41 76 42 77
REMARK SMILES IDX 46 78 49 79 43 80 44 81 47 82 45 83 71 84 72 85 80 86 73 87
REMARK SMILES IDX 74 88 78 89 81 90 75 91 76 92 79 93 77 94 56 95 57 96 65 97
REMARK SMILES IDX 58 98 59 99 63 100 66 101 60 102 61 103 64 104 62 105
REMARK H PARENT 22 5 9 23 27 39 86 58 54 69
REMARK Flexibility Score: inf
ROOT
ATOM      1  C   UNL A   1      44.755  23.141  27.372  1.00  0.00     0.116 C 
ENDROOT
BRANCH   1   2
ATOM      2  N   UNL A   1      44.035  22.897  26.133  1.00  0.00    -0.355 N 
ATOM      3  C   UNL A   1      43.001  22.071  25.802  1.00  0.00     0.233 C 
ATOM      4  O   UNL A   1      42.240  22.502  24.922  1.00  0.00    -0.274 OA
ATOM      5  H   UNL A   1      44.359  23.439  25.378  1.00  0.00     0.163 HD
BRANCH   3   6
ATOM      6  C   UNL A   1      42.731  20.675  26.394  1.00  0.00     0.146 C 
BRANCH   6   7
ATOM      7  S   UNL A   1      41.171  20.556  27.346  1.00  0.00    -0.072 SA
BRANCH   7   8
ATOM      8  C   UNL A   1      40.025  21.744  26.874  1.00  0.00     0.192 A 
ATOM      9  C   UNL A   1      38.227  22.598  25.932  1.00  0.00     0.164 A 
ATOM     10  N   UNL A   1      38.905  23.568  26.521  1.00  0.00    -0.129 NA
ATOM     11  N   UNL A   1      38.947  21.430  26.080  1.00  0.00    -0.305 N 
ATOM     12  N   UNL A   1      40.027  23.032  27.107  1.00  0.00    -0.123 NA
ATOM     13  C   UNL A   1      38.664  20.179  25.423  1.00  0.00     0.154 C 
BRANCH   9  14
ATOM     14  C   UNL A   1      36.956  22.771  25.225  1.00  0.00     0.019 A 
ATOM     15  C   UNL A   1      34.490  22.718  23.871  1.00  0.00     0.041 A 
ATOM     16  C   UNL A   1      34.529  22.563  25.256  1.00  0.00     0.027 A 
ATOM     17  C   UNL A   1      35.659  23.047  23.183  1.00  0.00     0.027 A 
ATOM     18  C   UNL A   1      35.759  22.562  25.922  1.00  0.00     0.014 A 
ATOM     19  C   UNL A   1      36.889  23.052  23.854  1.00  0.00     0.014 A 
BRANCH  15  20
ATOM     20  N   UNL A   1      33.274  22.445  23.229  1.00  0.00    -0.322 N 
ATOM     21  C   UNL A   1      32.569  21.265  23.075  1.00  0.00     0.255 C 
ATOM     22  O   UNL A   1      31.620  21.256  22.289  1.00  0.00    -0.269 OA
ATOM     23  H   UNL A   1      32.847  23.230  22.816  1.00  0.00     0.170 HD
BRANCH  21  24
ATOM     24  C   UNL A   1      32.841  20.036  23.885  1.00  0.00     0.040 A 
ATOM     25  C   UNL A   1      34.045  16.444  23.497  1.00  0.00     0.044 C 
ATOM     26  C   UNL A   1      33.570  17.719  24.130  1.00  0.00    -0.050 A 
ATOM     27  C   UNL A   1      33.212  17.754  25.480  1.00  0.00     0.003 A 
ATOM     28  C   UNL A   1      33.464  18.892  23.369  1.00  0.00     0.017 A 
ATOM     29  C   UNL A   1      32.709  18.926  26.042  1.00  0.00     0.001 A 
ATOM     30  C   UNL A   1      32.502  20.055  25.243  1.00  0.00     0.014 A 
ENDBRANCH  21  24
ENDBRANCH  15  20
ENDBRANCH   9  14
ENDBRANCH   7   8
ENDBRANCH   6   7
BRANCH   6  31
ATOM     31  C   UNL A   1      42.920  19.426  25.493  1.00  0.00     0.006 C 
ATOM     32  C   UNL A   1      44.352  19.372  24.933  1.00  0.00     0.009 C 
ATOM     33  C   UNL A   1      42.660  18.071  26.180  1.00  0.00     0.009 C 
ENDBRANCH   6  31
ENDBRANCH   3   6
ENDBRANCH   1   2
BRANCH   1  34
ATOM     34  C   UNL A   1      44.436  24.473  28.054  1.00  0.00     0.023 C 
BRANCH  34  35
ATOM     35  C   UNL A   1      43.000  24.624  28.563  1.00  0.00     0.023 C 
BRANCH  35  36
ATOM     36  C   UNL A   1      42.222  25.800  27.975  1.00  0.00     0.116 C 
BRANCH  36  37
ATOM     37  N   UNL A   1      42.586  26.207  26.624  1.00  0.00    -0.352 N 
ATOM     38  C   UNL A   1      42.189  27.337  25.913  1.00  0.00     0.251 C 
ATOM     39  H   UNL A   1      43.195  25.598  26.147  1.00  0.00     0.163 HD
ATOM     40  O   UNL A   1      42.504  27.474  24.746  1.00  0.00    -0.269 OA
BRANCH  38  41
ATOM     41  C   UNL A   1      41.495  28.444  26.630  1.00  0.00     0.039 A 
ATOM     42  C   UNL A   1      42.264  29.288  27.441  1.00  0.00     0.014 A 
ATOM     43  C   UNL A   1      40.108  28.511  26.685  1.00  0.00     0.014 A 
ATOM     44  C   UNL A   1      41.650  29.979  28.488  1.00  0.00     0.010 A 
ATOM     45  C   UNL A   1      39.511  29.100  27.784  1.00  0.00     0.010 A 
ATOM     46  C   UNL A   1      40.291  29.774  28.727  1.00  0.00    -0.014 A 
BRANCH  46  47
ATOM     47  C   UNL A   1      39.633  30.123  29.982  1.00  0.00     0.031 A 
ATOM     48  C   UNL A   1      38.795  31.332  30.097  1.00  0.00     0.074 A 
ATOM     49  C   UNL A   1      39.716  29.296  31.050  1.00  0.00     0.049 A 
ATOM     50  N   UNL A   1      38.610  31.964  31.208  1.00  0.00    -0.248 NA
ATOM     51  C   UNL A   1      38.105  31.934  28.963  1.00  0.00     0.031 C 
ATOM     52  C   UNL A   1      38.921  29.360  32.276  1.00  0.00     0.029 A 
ATOM     53  N   UNL A   1      40.688  28.321  31.323  1.00  0.00    -0.354 N 
ATOM     54  C   UNL A   1      37.589  32.859  31.007  1.00  0.00     0.074 A 
ATOM     55  C   UNL A   1      37.352  32.851  29.580  1.00  0.00     0.031 C 
ATOM     56  C   UNL A   1      39.589  28.740  33.258  1.00  0.00     0.029 A 
ATOM     57  C   UNL A   1      40.881  28.355  32.728  1.00  0.00     0.049 A 
ATOM     58  H   UNL A   1      41.141  27.736  30.674  1.00  0.00     0.167 HD
ATOM     59  C   UNL A   1      36.957  33.424  32.074  1.00  0.00     0.037 A 
ATOM     60  C   UNL A   1      42.094  28.670  33.268  1.00  0.00     0.037 A 
ATOM     61  C   UNL A   1      37.486  32.959  33.352  1.00  0.00     0.049 A 
ATOM     62  C   UNL A   1      42.099  29.915  34.128  1.00  0.00     0.074 A 
ATOM     63  C   UNL A   1      37.069  32.027  34.289  1.00  0.00     0.029 A 
ATOM     64  N   UNL A   1      38.790  33.273  33.690  1.00  0.00    -0.354 N 
ATOM     65  N   UNL A   1      41.047  30.647  34.368  1.00  0.00    -0.248 NA
ATOM     66  C   UNL A   1      43.318  30.497  34.692  1.00  0.00     0.031 C 
ATOM     67  C   UNL A   1      38.129  31.813  35.213  1.00  0.00     0.029 A 
ATOM     68  C   UNL A   1      39.191  32.609  34.833  1.00  0.00     0.049 A 
ATOM     69  H   UNL A   1      39.359  33.894  33.182  1.00  0.00     0.167 HD
ATOM     70  C   UNL A   1      41.428  31.791  35.019  1.00  0.00     0.074 A 
ATOM     71  C   UNL A   1      42.858  31.650  35.206  1.00  0.00     0.031 C 
ATOM     72  C   UNL A   1      40.550  32.794  35.312  1.00  0.00     0.037 A 
BRANCH  59  73
ATOM     73  C   UNL A   1      35.690  34.223  31.924  1.00  0.00     0.064 A 
ATOM     74  C   UNL A   1      34.806  34.005  30.850  1.00  0.00     0.173 A 
ATOM     75  C   UNL A   1      35.318  35.251  32.811  1.00  0.00     0.173 A 
ATOM     76  F   UNL A   1      34.988  33.000  29.985  1.00  0.00    -0.203 F 
ATOM     77  C   UNL A   1      33.703  34.829  30.614  1.00  0.00     0.198 A 
ATOM     78  C   UNL A   1      34.249  36.111  32.545  1.00  0.00     0.198 A 
ATOM     79  F   UNL A   1      35.971  35.434  33.968  1.00  0.00    -0.203 F 
ATOM     80  F   UNL A   1      32.900  34.581  29.571  1.00  0.00    -0.200 F 
ATOM     81  C   UNL A   1      33.448  35.906  31.439  1.00  0.00     0.200 A 
ATOM     82  F   UNL A   1      34.007  37.145  33.362  1.00  0.00    -0.200 F 
ATOM     83  F   UNL A   1      32.427  36.732  31.177  1.00  0.00    -0.200 F 
ENDBRANCH  59  73
BRANCH  60  84
ATOM     84  C   UNL A   1      43.215  28.206  32.410  1.00  0.00     0.064 A 
ATOM     85  C   UNL A   1      43.849  29.168  31.596  1.00  0.00     0.173 A 
ATOM     86  C   UNL A   1      43.924  27.040  32.715  1.00  0.00     0.173 A 
ATOM     87  F   UNL A   1      43.205  30.300  31.267  1.00  0.00    -0.203 F 
ATOM     88  C   UNL A   1      45.195  29.050  31.264  1.00  0.00     0.198 A 
ATOM     89  C   UNL A   1      45.263  26.910  32.346  1.00  0.00     0.198 A 
ATOM     90  F   UNL A   1      43.373  26.091  33.485  1.00  0.00    -0.203 F 
ATOM     91  F   UNL A   1      45.819  30.061  30.642  1.00  0.00    -0.200 F 
ATOM     92  C   UNL A   1      45.909  27.937  31.670  1.00  0.00     0.200 A 
ATOM     93  F   UNL A   1      45.957  25.835  32.743  1.00  0.00    -0.200 F 
ATOM     94  F   UNL A   1      47.231  27.876  31.457  1.00  0.00    -0.200 F 
ENDBRANCH  60  84
BRANCH  72  95
ATOM     95  C   UNL A   1      40.913  34.040  36.070  1.00  0.00     0.064 A 
ATOM     96  C   UNL A   1      41.525  35.144  35.454  1.00  0.00     0.173 A 
ATOM     97  C   UNL A   1      40.770  34.118  37.472  1.00  0.00     0.173 A 
ATOM     98  F   UNL A   1      41.791  35.139  34.139  1.00  0.00    -0.203 F 
ATOM     99  C   UNL A   1      41.906  36.274  36.182  1.00  0.00     0.198 A 
ATOM    100  C   UNL A   1      41.199  35.223  38.203  1.00  0.00     0.198 A 
ATOM    101  F   UNL A   1      40.191  33.134  38.174  1.00  0.00    -0.203 F 
ATOM    102  F   UNL A   1      42.435  37.328  35.545  1.00  0.00    -0.200 F 
ATOM    103  C   UNL A   1      41.752  36.310  37.557  1.00  0.00     0.200 A 
ATOM    104  F   UNL A   1      41.069  35.229  39.537  1.00  0.00    -0.200 F 
ATOM    105  F   UNL A   1      42.136  37.386  38.255  1.00  0.00    -0.200 F 
ENDBRANCH  72  95
ENDBRANCH  46  47
ENDBRANCH  38  41
ENDBRANCH  36  37
ENDBRANCH  35  36
ENDBRANCH  34  35
ENDBRANCH   1  34
TORSDOF 17
ENDMDL
