MODEL 1
REMARK VINA RESULT:     -12.9      0.000      0.000
REMARK SMILES Cc1nn(CC(=O)NC(C)(C)C)c(C)c1S(=O)(=O)N1CCC[C@@H](C(=O)NCCCCNC(=O)c2ccc(-c3c4nc(c(-c5c(F)c(F)c(F)c(F)c5F)c5ccc([nH]5)c(-c5c(F)c(F)c(F)c(F)c5F)c5nc(c(-c6c(F)c(F)c(F)c(F)c6F)c6ccc3[nH]6)C=C5)C=C4)cc2)C1
REMARK SMILES IDX 27 1 26 2 24 3 25 4 23 6 19 7 20 8 97 9 21 10 22 11 16 12
REMARK SMILES IDX 17 13 18 14 15 15 1 16 2 17 3 18 4 19 13 20 14 21 5 22 6 23
REMARK SMILES IDX 7 24 8 25 9 27 10 28 11 29 12 30 28 31 29 32 30 33 31 34
REMARK SMILES IDX 32 35 33 37 34 38 35 39 96 40 36 41 95 42 37 43 38 44 39 45
REMARK SMILES IDX 89 46 40 47 94 48 88 49 90 50 41 51 93 52 87 53 86 54 42 56
REMARK SMILES IDX 74 57 54 58 73 59 55 60 58 61 72 62 91 63 56 64 57 65 71 67
REMARK SMILES IDX 92 68 59 69 43 70 44 71 52 72 45 73 46 74 50 75 53 76 47 77
REMARK SMILES IDX 48 78 51 79 49 80 75 81 76 82 84 83 77 84 78 85 82 86 85 87
REMARK SMILES IDX 79 88 80 89 83 90 81 91 60 92 61 93 69 94 62 95 63 96 67 97
REMARK SMILES IDX 70 98 64 99 65 100 68 101 66 102
REMARK H PARENT 26 5 8 26 31 36 90 55 58 66
REMARK Flexibility Score: inf
ROOT
ATOM      1  C   UNL A   1      34.742  29.249  27.376  1.00  0.00     0.116 C 
ENDROOT
BRANCH   1   2
ATOM      2  N   UNL A   1      33.436  28.968  27.934  1.00  0.00    -0.356 N 
ATOM      3  C   UNL A   1      32.288  28.516  27.358  1.00  0.00     0.224 C 
ATOM      4  O   UNL A   1      31.327  28.362  28.116  1.00  0.00    -0.275 OA
ATOM      5  H   UNL A   1      33.365  29.133  28.903  1.00  0.00     0.163 HD
BRANCH   3   6
ATOM      6  C   UNL A   1      32.211  28.160  25.865  1.00  0.00     0.093 C 
ATOM      7  N   UNL A   1      31.455  26.151  24.445  1.00  0.00    -0.197 NA
ATOM      8  C   UNL A   1      30.611  27.017  23.613  1.00  0.00     0.102 C 
ATOM      9  C   UNL A   1      32.054  26.628  25.723  1.00  0.00     0.116 C 
ATOM     10  C   UNL A   1      31.047  28.455  23.677  1.00  0.00     0.018 C 
ATOM     11  C   UNL A   1      31.113  28.911  25.118  1.00  0.00     0.016 C 
BRANCH   7  12
ATOM     12  S   UNL A   1      31.045  24.508  24.350  1.00  0.00     0.246 S 
ATOM     13  O   UNL A   1      30.448  24.264  23.039  1.00  0.00    -0.207 OA
ATOM     14  O   UNL A   1      30.346  24.179  25.558  1.00  0.00    -0.207 OA
BRANCH  12  15
ATOM     15  C   UNL A   1      32.401  23.428  24.355  1.00  0.00     0.126 A 
ATOM     16  C   UNL A   1      33.203  23.065  21.834  1.00  0.00     0.070 C 
ATOM     17  C   UNL A   1      33.141  22.839  23.296  1.00  0.00     0.080 A 
ATOM     18  N   UNL A   1      33.980  21.905  23.767  1.00  0.00    -0.176 NA
ATOM     19  N   UNL A   1      33.716  21.838  25.080  1.00  0.00    -0.259 N 
ATOM     20  C   UNL A   1      32.974  22.907  25.517  1.00  0.00     0.056 A 
ATOM     21  C   UNL A   1      32.787  23.258  26.952  1.00  0.00     0.068 C 
BRANCH  19  22
ATOM     22  C   UNL A   1      34.237  20.731  25.858  1.00  0.00     0.244 C 
BRANCH  22  23
ATOM     23  C   UNL A   1      35.174  19.815  25.104  1.00  0.00     0.242 C 
ATOM     24  O   UNL A   1      36.386  20.075  25.066  1.00  0.00    -0.273 OA
ATOM     25  N   UNL A   1      34.822  18.609  24.584  1.00  0.00    -0.350 N 
ATOM     26  H   UNL A   1      35.618  18.050  24.432  1.00  0.00     0.164 HD
BRANCH  25  27
ATOM     27  C   UNL A   1      33.592  17.890  24.180  1.00  0.00     0.032 C 
ATOM     28  C   UNL A   1      34.009  16.659  23.357  1.00  0.00     0.034 C 
ATOM     29  C   UNL A   1      32.889  17.422  25.468  1.00  0.00     0.034 C 
ATOM     30  C   UNL A   1      32.563  18.682  23.383  1.00  0.00     0.034 C 
ENDBRANCH  25  27
ENDBRANCH  22  23
ENDBRANCH  19  22
ENDBRANCH  12  15
ENDBRANCH   7  12
ENDBRANCH   3   6
ENDBRANCH   1   2
BRANCH   1  31
ATOM     31  C   UNL A   1      35.043  30.754  27.337  1.00  0.00     0.023 C 
BRANCH  31  32
ATOM     32  C   UNL A   1      34.070  31.651  28.112  1.00  0.00     0.023 C 
BRANCH  32  33
ATOM     33  C   UNL A   1      34.685  32.921  28.689  1.00  0.00     0.116 C 
BRANCH  33  34
ATOM     34  N   UNL A   1      34.569  32.995  30.142  1.00  0.00    -0.352 N 
ATOM     35  C   UNL A   1      35.247  32.262  31.094  1.00  0.00     0.251 C 
ATOM     36  H   UNL A   1      33.923  33.651  30.488  1.00  0.00     0.163 HD
ATOM     37  O   UNL A   1      34.837  32.179  32.245  1.00  0.00    -0.269 OA
BRANCH  35  38
ATOM     38  C   UNL A   1      36.483  31.568  30.698  1.00  0.00     0.039 A 
ATOM     39  C   UNL A   1      37.654  32.282  30.444  1.00  0.00     0.014 A 
ATOM     40  C   UNL A   1      36.470  30.177  30.649  1.00  0.00     0.014 A 
ATOM     41  C   UNL A   1      38.842  31.581  30.240  1.00  0.00     0.010 A 
ATOM     42  C   UNL A   1      37.660  29.489  30.565  1.00  0.00     0.010 A 
ATOM     43  C   UNL A   1      38.852  30.180  30.332  1.00  0.00    -0.014 A 
BRANCH  43  44
ATOM     44  C   UNL A   1      40.123  29.449  30.280  1.00  0.00     0.031 A 
ATOM     45  C   UNL A   1      40.824  29.204  31.580  1.00  0.00     0.074 A 
ATOM     46  C   UNL A   1      40.557  28.804  29.175  1.00  0.00     0.049 A 
ATOM     47  N   UNL A   1      42.047  29.489  31.902  1.00  0.00    -0.248 NA
ATOM     48  C   UNL A   1      40.058  28.578  32.669  1.00  0.00     0.031 C 
ATOM     49  C   UNL A   1      39.874  28.639  27.886  1.00  0.00     0.029 A 
ATOM     50  N   UNL A   1      41.676  28.040  29.025  1.00  0.00    -0.354 N 
ATOM     51  C   UNL A   1      42.256  28.963  33.178  1.00  0.00     0.074 A 
ATOM     52  C   UNL A   1      40.974  28.495  33.637  1.00  0.00     0.031 C 
ATOM     53  C   UNL A   1      40.466  27.647  27.189  1.00  0.00     0.029 A 
ATOM     54  C   UNL A   1      41.665  27.239  27.895  1.00  0.00     0.049 A 
ATOM     55  H   UNL A   1      42.425  28.057  29.663  1.00  0.00     0.167 HD
ATOM     56  C   UNL A   1      43.505  28.805  33.704  1.00  0.00     0.037 A 
ATOM     57  C   UNL A   1      42.560  26.279  27.568  1.00  0.00     0.037 A 
ATOM     58  C   UNL A   1      44.478  29.609  33.017  1.00  0.00     0.049 A 
ATOM     59  C   UNL A   1      43.804  26.546  28.326  1.00  0.00     0.074 A 
ATOM     60  C   UNL A   1      44.643  30.963  32.799  1.00  0.00     0.029 A 
ATOM     61  N   UNL A   1      45.342  28.999  32.144  1.00  0.00    -0.354 N 
ATOM     62  N   UNL A   1      44.583  27.570  28.118  1.00  0.00    -0.248 NA
ATOM     63  C   UNL A   1      43.990  25.867  29.598  1.00  0.00     0.031 C 
ATOM     64  C   UNL A   1      45.186  31.062  31.483  1.00  0.00     0.029 A 
ATOM     65  C   UNL A   1      45.350  29.762  31.005  1.00  0.00     0.049 A 
ATOM     66  H   UNL A   1      45.857  28.175  32.305  1.00  0.00     0.167 HD
ATOM     67  C   UNL A   1      45.048  27.918  29.376  1.00  0.00     0.074 A 
ATOM     68  C   UNL A   1      44.752  26.768  30.221  1.00  0.00     0.031 C 
ATOM     69  C   UNL A   1      45.377  29.209  29.673  1.00  0.00     0.037 A 
BRANCH  56  70
ATOM     70  C   UNL A   1      43.913  27.706  34.659  1.00  0.00     0.064 A 
ATOM     71  C   UNL A   1      43.811  26.356  34.257  1.00  0.00     0.173 A 
ATOM     72  C   UNL A   1      44.114  27.912  36.040  1.00  0.00     0.173 A 
ATOM     73  F   UNL A   1      43.597  26.038  32.971  1.00  0.00    -0.203 F 
ATOM     74  C   UNL A   1      43.835  25.304  35.178  1.00  0.00     0.198 A 
ATOM     75  C   UNL A   1      44.190  26.857  36.949  1.00  0.00     0.198 A 
ATOM     76  F   UNL A   1      44.132  29.139  36.574  1.00  0.00    -0.203 F 
ATOM     77  F   UNL A   1      43.610  24.050  34.762  1.00  0.00    -0.200 F 
ATOM     78  C   UNL A   1      44.020  25.556  36.524  1.00  0.00     0.200 A 
ATOM     79  F   UNL A   1      44.352  27.121  38.254  1.00  0.00    -0.200 F 
ATOM     80  F   UNL A   1      43.983  24.556  37.415  1.00  0.00    -0.200 F 
ENDBRANCH  56  70
BRANCH  57  81
ATOM     81  C   UNL A   1      42.321  25.025  26.824  1.00  0.00     0.064 A 
ATOM     82  C   UNL A   1      43.106  24.677  25.715  1.00  0.00     0.173 A 
ATOM     83  C   UNL A   1      41.485  24.019  27.346  1.00  0.00     0.173 A 
ATOM     84  F   UNL A   1      43.958  25.567  25.188  1.00  0.00    -0.203 F 
ATOM     85  C   UNL A   1      43.073  23.389  25.174  1.00  0.00     0.198 A 
ATOM     86  C   UNL A   1      41.445  22.737  26.798  1.00  0.00     0.198 A 
ATOM     87  F   UNL A   1      40.757  24.233  28.452  1.00  0.00    -0.203 F 
ATOM     88  F   UNL A   1      43.883  23.074  24.153  1.00  0.00    -0.200 F 
ATOM     89  C   UNL A   1      42.250  22.418  25.721  1.00  0.00     0.200 A 
ATOM     90  F   UNL A   1      40.668  21.799  27.359  1.00  0.00    -0.200 F 
ATOM     91  F   UNL A   1      42.263  21.168  25.239  1.00  0.00    -0.200 F 
ENDBRANCH  57  81
BRANCH  69  92
ATOM     92  C   UNL A   1      45.496  30.185  28.537  1.00  0.00     0.064 A 
ATOM     93  C   UNL A   1      44.408  30.891  27.994  1.00  0.00     0.173 A 
ATOM     94  C   UNL A   1      46.776  30.525  28.077  1.00  0.00     0.173 A 
ATOM     95  F   UNL A   1      43.167  30.706  28.455  1.00  0.00    -0.203 F 
ATOM     96  C   UNL A   1      44.590  31.851  27.000  1.00  0.00     0.198 A 
ATOM     97  C   UNL A   1      46.958  31.512  27.112  1.00  0.00     0.198 A 
ATOM     98  F   UNL A   1      47.858  29.931  28.603  1.00  0.00    -0.203 F 
ATOM     99  F   UNL A   1      43.532  32.497  26.489  1.00  0.00    -0.200 F 
ATOM    100  C   UNL A   1      45.865  32.165  26.564  1.00  0.00     0.200 A 
ATOM    101  F   UNL A   1      48.198  31.850  26.730  1.00  0.00    -0.200 F 
ATOM    102  F   UNL A   1      46.045  33.117  25.639  1.00  0.00    -0.200 F 
ENDBRANCH  69  92
ENDBRANCH  43  44
ENDBRANCH  35  38
ENDBRANCH  33  34
ENDBRANCH  32  33
ENDBRANCH  31  32
ENDBRANCH   1  31
TORSDOF 16
ENDMDL
MODEL 2
REMARK VINA RESULT:     -12.5      1.484      2.355
REMARK SMILES Cc1nn(CC(=O)NC(C)(C)C)c(C)c1S(=O)(=O)N1CCC[C@@H](C(=O)NCCCCNC(=O)c2ccc(-c3c4nc(c(-c5c(F)c(F)c(F)c(F)c5F)c5ccc([nH]5)c(-c5c(F)c(F)c(F)c(F)c5F)c5nc(c(-c6c(F)c(F)c(F)c(F)c6F)c6ccc3[nH]6)C=C5)C=C4)cc2)C1
REMARK SMILES IDX 27 1 26 2 24 3 25 4 23 6 19 7 20 8 97 9 21 10 22 11 16 12
REMARK SMILES IDX 17 13 18 14 15 15 1 16 2 17 3 18 4 19 13 20 14 21 5 22 6 23
REMARK SMILES IDX 7 24 8 25 9 27 10 28 11 29 12 30 28 31 29 32 30 33 31 34
REMARK SMILES IDX 32 35 33 37 34 38 35 39 96 40 36 41 95 42 37 43 38 44 39 45
REMARK SMILES IDX 89 46 40 47 94 48 88 49 90 50 41 51 93 52 87 53 86 54 42 56
REMARK SMILES IDX 74 57 54 58 73 59 55 60 58 61 72 62 91 63 56 64 57 65 71 67
REMARK SMILES IDX 92 68 59 69 43 70 44 71 52 72 45 73 46 74 50 75 53 76 47 77
REMARK SMILES IDX 48 78 51 79 49 80 75 81 76 82 84 83 77 84 78 85 82 86 85 87
REMARK SMILES IDX 79 88 80 89 83 90 81 91 60 92 61 93 69 94 62 95 63 96 67 97
REMARK SMILES IDX 70 98 64 99 65 100 68 101 66 102
REMARK H PARENT 26 5 8 26 31 36 90 55 58 66
REMARK Flexibility Score: inf
ROOT
ATOM      1  C   UNL A   1      34.350  30.403  27.487  1.00  0.00     0.116 C 
ENDROOT
BRANCH   1   2
ATOM      2  N   UNL A   1      33.705  29.123  27.692  1.00  0.00    -0.356 N 
ATOM      3  C   UNL A   1      32.925  28.366  26.872  1.00  0.00     0.224 C 
ATOM      4  O   UNL A   1      32.528  27.296  27.341  1.00  0.00    -0.275 OA
ATOM      5  H   UNL A   1      33.859  28.730  28.582  1.00  0.00     0.163 HD
BRANCH   3   6
ATOM      6  C   UNL A   1      32.609  28.788  25.429  1.00  0.00     0.093 C 
ATOM      7  N   UNL A   1      32.238  27.624  23.164  1.00  0.00    -0.197 NA
ATOM      8  C   UNL A   1      30.979  28.351  22.961  1.00  0.00     0.102 C 
ATOM      9  C   UNL A   1      32.937  27.613  24.479  1.00  0.00     0.116 C 
ATOM     10  C   UNL A   1      30.916  29.606  23.787  1.00  0.00     0.018 C 
ATOM     11  C   UNL A   1      31.177  29.281  25.242  1.00  0.00     0.016 C 
BRANCH   7  12
ATOM     12  S   UNL A   1      32.384  26.236  22.200  1.00  0.00     0.246 S 
ATOM     13  O   UNL A   1      33.776  26.125  21.772  1.00  0.00    -0.207 OA
ATOM     14  O   UNL A   1      31.313  26.272  21.247  1.00  0.00    -0.207 OA
BRANCH  12  15
ATOM     15  C   UNL A   1      32.129  24.744  23.047  1.00  0.00     0.126 A 
ATOM     16  C   UNL A   1      30.453  25.199  25.076  1.00  0.00     0.070 C 
ATOM     17  C   UNL A   1      31.412  24.446  24.236  1.00  0.00     0.080 A 
ATOM     18  N   UNL A   1      31.655  23.189  24.631  1.00  0.00    -0.176 NA
ATOM     19  N   UNL A   1      32.572  22.729  23.769  1.00  0.00    -0.259 N 
ATOM     20  C   UNL A   1      32.687  23.526  22.657  1.00  0.00     0.056 A 
ATOM     21  C   UNL A   1      33.391  23.117  21.410  1.00  0.00     0.068 C 
BRANCH  19  22
ATOM     22  C   UNL A   1      33.279  21.498  24.066  1.00  0.00     0.244 C 
BRANCH  22  23
ATOM     23  C   UNL A   1      33.984  21.481  25.402  1.00  0.00     0.242 C 
ATOM     24  O   UNL A   1      33.559  20.753  26.310  1.00  0.00    -0.273 OA
ATOM     25  N   UNL A   1      35.174  22.089  25.655  1.00  0.00    -0.350 N 
ATOM     26  H   UNL A   1      35.602  21.699  26.450  1.00  0.00     0.164 HD
BRANCH  25  27
ATOM     27  C   UNL A   1      36.015  23.167  25.082  1.00  0.00     0.032 C 
ATOM     28  C   UNL A   1      36.309  22.811  23.615  1.00  0.00     0.034 C 
ATOM     29  C   UNL A   1      35.191  24.467  25.132  1.00  0.00     0.034 C 
ATOM     30  C   UNL A   1      37.334  23.457  25.787  1.00  0.00     0.034 C 
ENDBRANCH  25  27
ENDBRANCH  22  23
ENDBRANCH  19  22
ENDBRANCH  12  15
ENDBRANCH   7  12
ENDBRANCH   3   6
ENDBRANCH   1   2
BRANCH   1  31
ATOM     31  C   UNL A   1      33.347  31.565  27.502  1.00  0.00     0.023 C 
BRANCH  31  32
ATOM     32  C   UNL A   1      33.854  32.879  28.107  1.00  0.00     0.023 C 
BRANCH  32  33
ATOM     33  C   UNL A   1      35.191  32.781  28.831  1.00  0.00     0.116 C 
BRANCH  33  34
ATOM     34  N   UNL A   1      35.055  32.866  30.283  1.00  0.00    -0.352 N 
ATOM     35  C   UNL A   1      35.682  32.106  31.248  1.00  0.00     0.251 C 
ATOM     36  H   UNL A   1      34.435  33.554  30.616  1.00  0.00     0.163 HD
ATOM     37  O   UNL A   1      35.248  32.047  32.392  1.00  0.00    -0.269 OA
BRANCH  35  38
ATOM     38  C   UNL A   1      36.889  31.353  30.874  1.00  0.00     0.039 A 
ATOM     39  C   UNL A   1      38.134  31.980  30.818  1.00  0.00     0.014 A 
ATOM     40  C   UNL A   1      36.768  29.985  30.645  1.00  0.00     0.014 A 
ATOM     41  C   UNL A   1      39.275  31.201  30.630  1.00  0.00     0.010 A 
ATOM     42  C   UNL A   1      37.901  29.205  30.577  1.00  0.00     0.010 A 
ATOM     43  C   UNL A   1      39.162  29.805  30.541  1.00  0.00    -0.014 A 
BRANCH  43  44
ATOM     44  C   UNL A   1      40.368  28.970  30.505  1.00  0.00     0.031 A 
ATOM     45  C   UNL A   1      41.027  28.665  31.815  1.00  0.00     0.074 A 
ATOM     46  C   UNL A   1      40.763  28.292  29.405  1.00  0.00     0.049 A 
ATOM     47  N   UNL A   1      42.264  28.847  32.156  1.00  0.00    -0.248 NA
ATOM     48  C   UNL A   1      40.194  28.105  32.891  1.00  0.00     0.031 C 
ATOM     49  C   UNL A   1      40.088  28.187  28.106  1.00  0.00     0.029 A 
ATOM     50  N   UNL A   1      41.817  27.438  29.270  1.00  0.00    -0.354 N 
ATOM     51  C   UNL A   1      42.410  28.304  33.434  1.00  0.00     0.074 A 
ATOM     52  C   UNL A   1      41.085  27.944  33.872  1.00  0.00     0.031 C 
ATOM     53  C   UNL A   1      40.606  27.150  27.415  1.00  0.00     0.029 A 
ATOM     54  C   UNL A   1      41.756  26.642  28.138  1.00  0.00     0.049 A 
ATOM     55  H   UNL A   1      42.555  27.391  29.919  1.00  0.00     0.167 HD
ATOM     56  C   UNL A   1      43.633  28.041  33.977  1.00  0.00     0.037 A 
ATOM     57  C   UNL A   1      42.572  25.612  27.822  1.00  0.00     0.037 A 
ATOM     58  C   UNL A   1      44.680  28.762  33.307  1.00  0.00     0.049 A 
ATOM     59  C   UNL A   1      43.822  25.772  28.598  1.00  0.00     0.074 A 
ATOM     60  C   UNL A   1      44.960  30.098  33.095  1.00  0.00     0.029 A 
ATOM     61  N   UNL A   1      45.502  28.083  32.445  1.00  0.00    -0.354 N 
ATOM     62  N   UNL A   1      44.688  26.728  28.404  1.00  0.00    -0.248 NA
ATOM     63  C   UNL A   1      43.932  25.078  29.871  1.00  0.00     0.031 C 
ATOM     64  C   UNL A   1      45.529  30.153  31.787  1.00  0.00     0.029 A 
ATOM     65  C   UNL A   1      45.591  28.844  31.309  1.00  0.00     0.049 A 
ATOM     66  H   UNL A   1      45.944  27.219  32.612  1.00  0.00     0.167 HD
ATOM     67  C   UNL A   1      45.161  27.035  29.670  1.00  0.00     0.074 A 
ATOM     68  C   UNL A   1      44.757  25.912  30.508  1.00  0.00     0.031 C 
ATOM     69  C   UNL A   1      45.592  28.293  29.976  1.00  0.00     0.037 A 
BRANCH  56  70
ATOM     70  C   UNL A   1      43.933  26.910  34.935  1.00  0.00     0.064 A 
ATOM     71  C   UNL A   1      44.473  27.197  36.208  1.00  0.00     0.173 A 
ATOM     72  C   UNL A   1      43.991  25.556  34.545  1.00  0.00     0.173 A 
ATOM     73  F   UNL A   1      44.494  28.454  36.677  1.00  0.00    -0.203 F 
ATOM     74  C   UNL A   1      45.086  26.215  36.992  1.00  0.00     0.198 A 
ATOM     75  C   UNL A   1      44.556  24.570  35.353  1.00  0.00     0.198 A 
ATOM     76  F   UNL A   1      43.605  25.156  33.327  1.00  0.00    -0.203 F 
ATOM     77  F   UNL A   1      45.694  26.559  38.136  1.00  0.00    -0.200 F 
ATOM     78  C   UNL A   1      45.132  24.902  36.561  1.00  0.00     0.200 A 
ATOM     79  F   UNL A   1      44.608  23.304  34.910  1.00  0.00    -0.200 F 
ATOM     80  F   UNL A   1      45.772  23.971  37.281  1.00  0.00    -0.200 F 
ENDBRANCH  56  70
BRANCH  57  81
ATOM     81  C   UNL A   1      42.241  24.382  27.071  1.00  0.00     0.064 A 
ATOM     82  C   UNL A   1      43.072  23.912  26.044  1.00  0.00     0.173 A 
ATOM     83  C   UNL A   1      41.236  23.505  27.522  1.00  0.00     0.173 A 
ATOM     84  F   UNL A   1      44.078  24.673  25.590  1.00  0.00    -0.203 F 
ATOM     85  C   UNL A   1      42.920  22.628  25.514  1.00  0.00     0.198 A 
ATOM     86  C   UNL A   1      41.079  22.227  26.985  1.00  0.00     0.198 A 
ATOM     87  F   UNL A   1      40.444  23.835  28.553  1.00  0.00    -0.203 F 
ATOM     88  F   UNL A   1      43.772  22.188  24.576  1.00  0.00    -0.200 F 
ATOM     89  C   UNL A   1      41.931  21.783  25.991  1.00  0.00     0.200 A 
ATOM     90  F   UNL A   1      40.139  21.409  27.480  1.00  0.00    -0.200 F 
ATOM     91  F   UNL A   1      41.824  20.531  25.525  1.00  0.00    -0.200 F 
ENDBRANCH  57  81
BRANCH  69  92
ATOM     92  C   UNL A   1      45.809  29.257  28.844  1.00  0.00     0.064 A 
ATOM     93  C   UNL A   1      44.800  30.077  28.309  1.00  0.00     0.173 A 
ATOM     94  C   UNL A   1      47.116  29.462  28.381  1.00  0.00     0.173 A 
ATOM     95  F   UNL A   1      43.548  30.021  28.776  1.00  0.00    -0.203 F 
ATOM     96  C   UNL A   1      45.078  31.018  27.320  1.00  0.00     0.198 A 
ATOM     97  C   UNL A   1      47.398  30.430  27.419  1.00  0.00     0.198 A 
ATOM     98  F   UNL A   1      48.132  28.754  28.899  1.00  0.00    -0.203 F 
ATOM     99  F   UNL A   1      44.093  31.775  26.817  1.00  0.00    -0.200 F 
ATOM    100  C   UNL A   1      46.378  31.197  26.880  1.00  0.00     0.200 A 
ATOM    101  F   UNL A   1      48.665  30.637  27.034  1.00  0.00    -0.200 F 
ATOM    102  F   UNL A   1      46.654  32.131  25.958  1.00  0.00    -0.200 F 
ENDBRANCH  69  92
ENDBRANCH  43  44
ENDBRANCH  35  38
ENDBRANCH  33  34
ENDBRANCH  32  33
ENDBRANCH  31  32
ENDBRANCH   1  31
TORSDOF 16
ENDMDL
MODEL 3
REMARK VINA RESULT:     -12.3      5.456     10.319
REMARK SMILES Cc1nn(CC(=O)NC(C)(C)C)c(C)c1S(=O)(=O)N1CCC[C@@H](C(=O)NCCCCNC(=O)c2ccc(-c3c4nc(c(-c5c(F)c(F)c(F)c(F)c5F)c5ccc([nH]5)c(-c5c(F)c(F)c(F)c(F)c5F)c5nc(c(-c6c(F)c(F)c(F)c(F)c6F)c6ccc3[nH]6)C=C5)C=C4)cc2)C1
REMARK SMILES IDX 27 1 26 2 24 3 25 4 23 6 19 7 20 8 97 9 21 10 22 11 16 12
REMARK SMILES IDX 17 13 18 14 15 15 1 16 2 17 3 18 4 19 13 20 14 21 5 22 6 23
REMARK SMILES IDX 7 24 8 25 9 27 10 28 11 29 12 30 28 31 29 32 30 33 31 34
REMARK SMILES IDX 32 35 33 37 34 38 35 39 96 40 36 41 95 42 37 43 38 44 39 45
REMARK SMILES IDX 89 46 40 47 94 48 88 49 90 50 41 51 93 52 87 53 86 54 42 56
REMARK SMILES IDX 74 57 54 58 73 59 55 60 58 61 72 62 91 63 56 64 57 65 71 67
REMARK SMILES IDX 92 68 59 69 43 70 44 71 52 72 45 73 46 74 50 75 53 76 47 77
REMARK SMILES IDX 48 78 51 79 49 80 75 81 76 82 84 83 77 84 78 85 82 86 85 87
REMARK SMILES IDX 79 88 80 89 83 90 81 91 60 92 61 93 69 94 62 95 63 96 67 97
REMARK SMILES IDX 70 98 64 99 65 100 68 101 66 102
REMARK H PARENT 26 5 8 26 31 36 90 55 58 66
REMARK Flexibility Score: inf
ROOT
ATOM      1  C   UNL A   1      42.177  28.424  35.752  1.00  0.00     0.116 C 
ENDROOT
BRANCH   1   2
ATOM      2  N   UNL A   1      40.932  29.028  36.177  1.00  0.00    -0.356 N 
ATOM      3  C   UNL A   1      40.189  30.034  35.638  1.00  0.00     0.224 C 
ATOM      4  O   UNL A   1      39.150  30.319  36.238  1.00  0.00    -0.275 OA
ATOM      5  H   UNL A   1      40.555  28.643  37.002  1.00  0.00     0.163 HD
BRANCH   3   6
ATOM      6  C   UNL A   1      40.588  30.730  34.328  1.00  0.00     0.093 C 
ATOM      7  N   UNL A   1      39.557  31.094  31.997  1.00  0.00    -0.197 NA
ATOM      8  C   UNL A   1      39.805  32.538  32.079  1.00  0.00     0.102 C 
ATOM      9  C   UNL A   1      39.688  30.205  33.186  1.00  0.00     0.116 C 
ATOM     10  C   UNL A   1      40.884  32.868  33.073  1.00  0.00     0.018 C 
ATOM     11  C   UNL A   1      40.555  32.253  34.416  1.00  0.00     0.016 C 
BRANCH   7  12
ATOM     12  S   UNL A   1      38.396  30.668  30.838  1.00  0.00     0.246 S 
ATOM     13  O   UNL A   1      38.132  29.237  30.964  1.00  0.00    -0.207 OA
ATOM     14  O   UNL A   1      38.815  31.240  29.592  1.00  0.00    -0.207 OA
BRANCH  12  15
ATOM     15  C   UNL A   1      36.830  31.365  31.101  1.00  0.00     0.126 A 
ATOM     16  C   UNL A   1      35.541  31.457  28.764  1.00  0.00     0.070 C 
ATOM     17  C   UNL A   1      35.793  31.722  30.199  1.00  0.00     0.080 A 
ATOM     18  N   UNL A   1      34.838  32.419  30.829  1.00  0.00    -0.176 NA
ATOM     19  N   UNL A   1      35.296  32.579  32.078  1.00  0.00    -0.259 N 
ATOM     20  C   UNL A   1      36.351  31.746  32.356  1.00  0.00     0.056 A 
ATOM     21  C   UNL A   1      36.865  31.485  33.729  1.00  0.00     0.068 C 
BRANCH  19  22
ATOM     22  C   UNL A   1      34.651  33.533  32.959  1.00  0.00     0.244 C 
BRANCH  22  23
ATOM     23  C   UNL A   1      35.192  34.941  32.873  1.00  0.00     0.242 C 
ATOM     24  O   UNL A   1      36.315  35.195  33.331  1.00  0.00    -0.273 OA
ATOM     25  N   UNL A   1      34.609  35.951  32.173  1.00  0.00    -0.350 N 
ATOM     26  H   UNL A   1      35.262  36.662  31.980  1.00  0.00     0.164 HD
BRANCH  25  27
ATOM     27  C   UNL A   1      33.280  36.293  31.615  1.00  0.00     0.032 C 
ATOM     28  C   UNL A   1      33.242  37.812  31.374  1.00  0.00     0.034 C 
ATOM     29  C   UNL A   1      33.148  35.564  30.264  1.00  0.00     0.034 C 
ATOM     30  C   UNL A   1      32.064  35.901  32.445  1.00  0.00     0.034 C 
ENDBRANCH  25  27
ENDBRANCH  22  23
ENDBRANCH  19  22
ENDBRANCH  12  15
ENDBRANCH   7  12
ENDBRANCH   3   6
ENDBRANCH   1   2
BRANCH   1  31
ATOM     31  C   UNL A   1      41.977  26.995  35.228  1.00  0.00     0.023 C 
BRANCH  31  32
ATOM     32  C   UNL A   1      41.465  25.973  36.249  1.00  0.00     0.023 C 
BRANCH  32  33
ATOM     33  C   UNL A   1      42.153  24.614  36.203  1.00  0.00     0.116 C 
BRANCH  33  34
ATOM     34  N   UNL A   1      43.349  24.559  37.040  1.00  0.00    -0.352 N 
ATOM     35  C   UNL A   1      44.656  24.349  36.653  1.00  0.00     0.251 C 
ATOM     36  H   UNL A   1      43.203  24.687  38.004  1.00  0.00     0.163 HD
ATOM     37  O   UNL A   1      45.509  24.000  37.459  1.00  0.00    -0.269 OA
BRANCH  35  38
ATOM     38  C   UNL A   1      45.010  24.544  35.238  1.00  0.00     0.039 A 
ATOM     39  C   UNL A   1      45.027  23.468  34.351  1.00  0.00     0.014 A 
ATOM     40  C   UNL A   1      45.262  25.839  34.794  1.00  0.00     0.014 A 
ATOM     41  C   UNL A   1      45.198  23.718  32.989  1.00  0.00     0.010 A 
ATOM     42  C   UNL A   1      45.312  26.096  33.442  1.00  0.00     0.010 A 
ATOM     43  C   UNL A   1      45.309  25.039  32.529  1.00  0.00    -0.014 A 
BRANCH  43  44
ATOM     44  C   UNL A   1      45.327  25.317  31.088  1.00  0.00     0.031 A 
ATOM     45  C   UNL A   1      46.430  26.190  30.575  1.00  0.00     0.074 A 
ATOM     46  C   UNL A   1      44.557  24.651  30.200  1.00  0.00     0.049 A 
ATOM     47  N   UNL A   1      46.337  27.266  29.859  1.00  0.00    -0.248 NA
ATOM     48  C   UNL A   1      47.814  25.828  30.921  1.00  0.00     0.031 C 
ATOM     49  C   UNL A   1      43.641  23.531  30.445  1.00  0.00     0.029 A 
ATOM     50  N   UNL A   1      44.535  24.771  28.842  1.00  0.00    -0.354 N 
ATOM     51  C   UNL A   1      47.643  27.649  29.544  1.00  0.00     0.074 A 
ATOM     52  C   UNL A   1      48.511  26.782  30.298  1.00  0.00     0.031 C 
ATOM     53  C   UNL A   1      43.347  22.928  29.273  1.00  0.00     0.029 A 
ATOM     54  C   UNL A   1      43.901  23.723  28.194  1.00  0.00     0.049 A 
ATOM     55  H   UNL A   1      44.933  25.533  28.365  1.00  0.00     0.167 HD
ATOM     56  C   UNL A   1      47.918  28.551  28.558  1.00  0.00     0.037 A 
ATOM     57  C   UNL A   1      43.856  23.498  26.862  1.00  0.00     0.037 A 
ATOM     58  C   UNL A   1      46.766  29.340  28.221  1.00  0.00     0.049 A 
ATOM     59  C   UNL A   1      44.149  24.778  26.178  1.00  0.00     0.074 A 
ATOM     60  C   UNL A   1      45.945  30.211  28.913  1.00  0.00     0.029 A 
ATOM     61  N   UNL A   1      46.096  29.067  27.056  1.00  0.00    -0.354 N 
ATOM     62  N   UNL A   1      43.357  25.814  26.192  1.00  0.00    -0.248 NA
ATOM     63  C   UNL A   1      45.523  25.046  25.784  1.00  0.00     0.031 C 
ATOM     64  C   UNL A   1      44.640  29.992  28.377  1.00  0.00     0.029 A 
ATOM     65  C   UNL A   1      44.762  29.033  27.372  1.00  0.00     0.049 A 
ATOM     66  H   UNL A   1      46.494  28.925  26.167  1.00  0.00     0.167 HD
ATOM     67  C   UNL A   1      44.210  26.906  26.226  1.00  0.00     0.074 A 
ATOM     68  C   UNL A   1      45.516  26.378  25.849  1.00  0.00     0.031 C 
ATOM     69  C   UNL A   1      43.835  28.074  26.823  1.00  0.00     0.037 A 
BRANCH  56  70
ATOM     70  C   UNL A   1      49.154  28.536  27.688  1.00  0.00     0.064 A 
ATOM     71  C   UNL A   1      49.947  29.700  27.579  1.00  0.00     0.173 A 
ATOM     72  C   UNL A   1      49.421  27.531  26.735  1.00  0.00     0.173 A 
ATOM     73  F   UNL A   1      49.768  30.732  28.416  1.00  0.00    -0.203 F 
ATOM     74  C   UNL A   1      50.880  29.868  26.550  1.00  0.00     0.198 A 
ATOM     75  C   UNL A   1      50.390  27.681  25.743  1.00  0.00     0.198 A 
ATOM     76  F   UNL A   1      48.683  26.417  26.659  1.00  0.00    -0.203 F 
ATOM     77  F   UNL A   1      51.518  31.039  26.415  1.00  0.00    -0.200 F 
ATOM     78  C   UNL A   1      51.097  28.860  25.630  1.00  0.00     0.200 A 
ATOM     79  F   UNL A   1      50.574  26.700  24.847  1.00  0.00    -0.200 F 
ATOM     80  F   UNL A   1      51.945  29.041  24.609  1.00  0.00    -0.200 F 
ENDBRANCH  56  70
BRANCH  57  81
ATOM     81  C   UNL A   1      43.807  22.199  26.157  1.00  0.00     0.064 A 
ATOM     82  C   UNL A   1      44.979  21.564  25.723  1.00  0.00     0.173 A 
ATOM     83  C   UNL A   1      42.625  21.434  26.126  1.00  0.00     0.173 A 
ATOM     84  F   UNL A   1      46.151  22.212  25.761  1.00  0.00    -0.203 F 
ATOM     85  C   UNL A   1      44.972  20.230  25.303  1.00  0.00     0.198 A 
ATOM     86  C   UNL A   1      42.618  20.107  25.697  1.00  0.00     0.198 A 
ATOM     87  F   UNL A   1      41.471  21.930  26.597  1.00  0.00    -0.203 F 
ATOM     88  F   UNL A   1      46.122  19.635  24.953  1.00  0.00    -0.200 F 
ATOM     89  C   UNL A   1      43.795  19.500  25.300  1.00  0.00     0.200 A 
ATOM     90  F   UNL A   1      41.477  19.404  25.731  1.00  0.00    -0.200 F 
ATOM     91  F   UNL A   1      43.799  18.206  24.954  1.00  0.00    -0.200 F 
ENDBRANCH  57  81
BRANCH  69  92
ATOM     92  C   UNL A   1      42.387  28.246  27.187  1.00  0.00     0.064 A 
ATOM     93  C   UNL A   1      41.434  28.844  26.344  1.00  0.00     0.173 A 
ATOM     94  C   UNL A   1      41.919  27.656  28.369  1.00  0.00     0.173 A 
ATOM     95  F   UNL A   1      41.781  29.331  25.147  1.00  0.00    -0.203 F 
ATOM     96  C   UNL A   1      40.086  28.896  26.694  1.00  0.00     0.198 A 
ATOM     97  C   UNL A   1      40.566  27.676  28.699  1.00  0.00     0.198 A 
ATOM     98  F   UNL A   1      42.771  27.015  29.183  1.00  0.00    -0.203 F 
ATOM     99  F   UNL A   1      39.203  29.487  25.878  1.00  0.00    -0.200 F 
ATOM    100  C   UNL A   1      39.653  28.307  27.869  1.00  0.00     0.200 A 
ATOM    101  F   UNL A   1      40.143  27.059  29.811  1.00  0.00    -0.200 F 
ATOM    102  F   UNL A   1      38.351  28.320  28.188  1.00  0.00    -0.200 F 
ENDBRANCH  69  92
ENDBRANCH  43  44
ENDBRANCH  35  38
ENDBRANCH  33  34
ENDBRANCH  32  33
ENDBRANCH  31  32
ENDBRANCH   1  31
TORSDOF 16
ENDMDL
