MODEL 1
REMARK VINA RESULT:     -12.8      0.000      0.000
REMARK SMILES COc1ccc([N+](=O)[O-])cc1C(=O)N[C@@H](Cc1c[nH]c2ccccc12)C(=O)NCCCCNC(=O)c1ccc(-c2c3nc(c(-c4c(F)c(F)c(F)c(F)c4F)c4ccc([nH]4)c(-c4c(F)c(F)c(F)c(F)c4F)c4nc(c(-c5c(F)c(F)c(F)c(F)c5F)c5ccc2[nH]5)C=C4)C=C3)cc1
REMARK SMILES IDX 30 1 29 2 28 3 26 4 27 5 15 7 14 8 12 9 13 10 11 12 3 13
REMARK SMILES IDX 4 14 5 15 10 16 6 17 2 18 1 19 7 20 8 21 9 22 16 23 17 24
REMARK SMILES IDX 18 25 25 26 19 27 20 28 24 29 21 31 23 32 22 33 31 34 32 35
REMARK SMILES IDX 33 36 34 37 35 39 36 40 37 41 98 42 38 43 97 44 39 45 40 46
REMARK SMILES IDX 41 47 91 48 42 49 96 50 90 51 92 52 43 53 95 54 89 55 88 56
REMARK SMILES IDX 44 58 76 59 56 60 75 61 57 62 60 63 74 64 93 65 58 66 59 67
REMARK SMILES IDX 73 69 94 70 61 71 45 72 46 73 54 74 47 75 48 76 52 77 55 78
REMARK SMILES IDX 49 79 50 80 53 81 51 82 77 83 78 84 86 85 79 86 80 87 84 88
REMARK SMILES IDX 87 89 81 90 82 91 85 92 83 93 62 94 63 95 71 96 64 97 65 98
REMARK SMILES IDX 69 99 72 100 66 101 67 102 70 103 68 104
REMARK H PARENT 28 6 14 11 19 30 33 38 92 57 60 68
REMARK Flexibility Score: inf
ROOT
ATOM      1  C   UNL A   1      32.011  26.978  26.599  1.00  0.00     0.023 C 
ENDROOT
BRANCH   1   2
ATOM      2  C   UNL A   1      31.062  26.413  25.536  1.00  0.00     0.116 C 
BRANCH   2   3
ATOM      3  N   UNL A   1      30.221  25.342  26.024  1.00  0.00    -0.354 N 
ATOM      4  C   UNL A   1      30.466  24.076  26.462  1.00  0.00     0.242 C 
ATOM      5  O   UNL A   1      29.624  23.696  27.292  1.00  0.00    -0.273 OA
ATOM      6  H   UNL A   1      29.266  25.580  26.044  1.00  0.00     0.163 HD
BRANCH   4   7
ATOM      7  C   UNL A   1      31.540  23.058  25.924  1.00  0.00     0.176 C 
BRANCH   7   8
ATOM      8  N   UNL A   1      32.633  22.995  26.913  1.00  0.00    -0.340 N 
ATOM      9  C   UNL A   1      33.986  22.808  26.897  1.00  0.00     0.255 C 
ATOM     10  O   UNL A   1      34.535  22.762  28.005  1.00  0.00    -0.269 OA
ATOM     11  H   UNL A   1      32.297  23.124  27.830  1.00  0.00     0.164 HD
BRANCH   9  12
ATOM     12  C   UNL A   1      34.875  22.649  25.712  1.00  0.00     0.088 A 
ATOM     13  C   UNL A   1      34.927  23.504  24.606  1.00  0.00     0.132 A 
ATOM     14  C   UNL A   1      35.926  23.368  23.625  1.00  0.00     0.054 A 
ATOM     15  C   UNL A   1      36.957  22.445  23.784  1.00  0.00     0.089 A 
ATOM     16  C   UNL A   1      35.914  21.699  25.852  1.00  0.00     0.103 A 
ATOM     17  C   UNL A   1      36.956  21.622  24.911  1.00  0.00     0.270 A 
BRANCH  13  18
ATOM     18  O   UNL A   1      34.038  24.522  24.424  1.00  0.00    -0.496 OA
ATOM     19  C   UNL A   1      33.840  24.781  23.033  1.00  0.00     0.278 C 
ENDBRANCH  13  18
BRANCH  17  20
ATOM     20  N   UNL A   1      38.091  20.718  25.141  1.00  0.00     0.062 N 
ATOM     21  O   UNL A   1      39.050  21.157  25.793  1.00  0.00    -0.258 OA
ATOM     22  O   UNL A   1      38.022  19.572  24.681  1.00  0.00    -0.258 OA
ENDBRANCH  17  20
ENDBRANCH   9  12
ENDBRANCH   7   8
BRANCH   7  23
ATOM     23  C   UNL A   1      31.089  21.665  25.343  1.00  0.00     0.072 C 
BRANCH  23  24
ATOM     24  C   UNL A   1      32.006  21.061  24.314  1.00  0.00    -0.020 A 
ATOM     25  C   UNL A   1      32.198  21.496  23.028  1.00  0.00     0.087 A 
ATOM     26  C   UNL A   1      32.713  19.826  24.214  1.00  0.00     0.003 A 
ATOM     27  N   UNL A   1      31.819  20.408  22.285  1.00  0.00    -0.361 N 
ATOM     28  C   UNL A   1      32.346  19.336  22.956  1.00  0.00     0.046 A 
ATOM     29  C   UNL A   1      33.652  19.082  24.944  1.00  0.00     0.010 A 
ATOM     30  H   UNL A   1      31.289  20.398  21.456  1.00  0.00     0.166 HD
ATOM     31  C   UNL A   1      32.625  18.067  22.477  1.00  0.00     0.026 A 
ATOM     32  C   UNL A   1      34.145  17.898  24.360  1.00  0.00     0.001 A 
ATOM     33  C   UNL A   1      33.593  17.372  23.186  1.00  0.00     0.002 A 
ENDBRANCH  23  24
ENDBRANCH   7  23
ENDBRANCH   4   7
ENDBRANCH   2   3
ENDBRANCH   1   2
BRANCH   1  34
ATOM     34  C   UNL A   1      32.239  28.480  26.622  1.00  0.00     0.023 C 
BRANCH  34  35
ATOM     35  C   UNL A   1      33.569  28.916  27.218  1.00  0.00     0.116 C 
BRANCH  35  36
ATOM     36  N   UNL A   1      33.612  30.255  27.803  1.00  0.00    -0.352 N 
ATOM     37  C   UNL A   1      34.709  30.867  28.372  1.00  0.00     0.251 C 
ATOM     38  H   UNL A   1      32.773  30.771  27.790  1.00  0.00     0.163 HD
ATOM     39  O   UNL A   1      34.653  32.000  28.840  1.00  0.00    -0.269 OA
BRANCH  37  40
ATOM     40  C   UNL A   1      35.949  30.077  28.449  1.00  0.00     0.039 A 
ATOM     41  C   UNL A   1      36.889  30.195  27.424  1.00  0.00     0.014 A 
ATOM     42  C   UNL A   1      36.255  29.427  29.645  1.00  0.00     0.014 A 
ATOM     43  C   UNL A   1      38.190  29.748  27.647  1.00  0.00     0.010 A 
ATOM     44  C   UNL A   1      37.571  29.083  29.900  1.00  0.00     0.010 A 
ATOM     45  C   UNL A   1      38.552  29.245  28.907  1.00  0.00    -0.014 A 
BRANCH  45  46
ATOM     46  C   UNL A   1      39.944  28.849  29.223  1.00  0.00     0.031 A 
ATOM     47  C   UNL A   1      40.818  29.818  29.965  1.00  0.00     0.074 A 
ATOM     48  C   UNL A   1      40.445  27.689  28.757  1.00  0.00     0.049 A 
ATOM     49  N   UNL A   1      42.103  29.768  30.197  1.00  0.00    -0.248 NA
ATOM     50  C   UNL A   1      40.160  31.033  30.475  1.00  0.00     0.031 C 
ATOM     51  C   UNL A   1      39.705  26.690  27.983  1.00  0.00     0.029 A 
ATOM     52  N   UNL A   1      41.708  27.161  28.856  1.00  0.00    -0.354 N 
ATOM     53  C   UNL A   1      42.409  30.956  30.846  1.00  0.00     0.074 A 
ATOM     54  C   UNL A   1      41.193  31.733  30.915  1.00  0.00     0.031 C 
ATOM     55  C   UNL A   1      40.521  25.661  27.698  1.00  0.00     0.029 A 
ATOM     56  C   UNL A   1      41.850  25.944  28.230  1.00  0.00     0.049 A 
ATOM     57  H   UNL A   1      42.444  27.610  29.330  1.00  0.00     0.167 HD
ATOM     58  C   UNL A   1      43.593  31.348  31.369  1.00  0.00     0.037 A 
ATOM     59  C   UNL A   1      42.936  25.158  28.100  1.00  0.00     0.037 A 
ATOM     60  C   UNL A   1      44.784  30.546  31.341  1.00  0.00     0.049 A 
ATOM     61  C   UNL A   1      44.239  25.611  28.703  1.00  0.00     0.074 A 
ATOM     62  C   UNL A   1      46.024  30.821  31.887  1.00  0.00     0.029 A 
ATOM     63  N   UNL A   1      44.875  29.298  30.741  1.00  0.00    -0.354 N 
ATOM     64  N   UNL A   1      44.508  26.715  29.358  1.00  0.00    -0.248 NA
ATOM     65  C   UNL A   1      45.389  24.710  28.550  1.00  0.00     0.031 C 
ATOM     66  C   UNL A   1      46.874  29.752  31.594  1.00  0.00     0.029 A 
ATOM     67  C   UNL A   1      46.153  28.793  30.900  1.00  0.00     0.049 A 
ATOM     68  H   UNL A   1      44.140  28.841  30.272  1.00  0.00     0.167 HD
ATOM     69  C   UNL A   1      45.843  26.626  29.725  1.00  0.00     0.074 A 
ATOM     70  C   UNL A   1      46.330  25.356  29.224  1.00  0.00     0.031 C 
ATOM     71  C   UNL A   1      46.601  27.513  30.415  1.00  0.00     0.037 A 
BRANCH  58  72
ATOM     72  C   UNL A   1      43.644  32.696  32.024  1.00  0.00     0.064 A 
ATOM     73  C   UNL A   1      43.363  32.857  33.390  1.00  0.00     0.173 A 
ATOM     74  C   UNL A   1      43.980  33.838  31.282  1.00  0.00     0.173 A 
ATOM     75  F   UNL A   1      43.016  31.799  34.137  1.00  0.00    -0.203 F 
ATOM     76  C   UNL A   1      43.385  34.117  33.982  1.00  0.00     0.198 A 
ATOM     77  C   UNL A   1      44.032  35.091  31.885  1.00  0.00     0.198 A 
ATOM     78  F   UNL A   1      44.256  33.738  29.974  1.00  0.00    -0.203 F 
ATOM     79  F   UNL A   1      43.054  34.254  35.273  1.00  0.00    -0.200 F 
ATOM     80  C   UNL A   1      43.726  35.232  33.231  1.00  0.00     0.200 A 
ATOM     81  F   UNL A   1      44.371  36.167  31.160  1.00  0.00    -0.200 F 
ATOM     82  F   UNL A   1      43.749  36.444  33.802  1.00  0.00    -0.200 F 
ENDBRANCH  58  72
BRANCH  59  83
ATOM     83  C   UNL A   1      42.835  23.852  27.398  1.00  0.00     0.064 A 
ATOM     84  C   UNL A   1      43.238  23.726  26.061  1.00  0.00     0.173 A 
ATOM     85  C   UNL A   1      42.326  22.712  28.035  1.00  0.00     0.173 A 
ATOM     86  F   UNL A   1      43.713  24.793  25.402  1.00  0.00    -0.203 F 
ATOM     87  C   UNL A   1      43.114  22.516  25.381  1.00  0.00     0.198 A 
ATOM     88  C   UNL A   1      42.226  21.495  27.362  1.00  0.00     0.198 A 
ATOM     89  F   UNL A   1      41.932  22.776  29.315  1.00  0.00    -0.203 F 
ATOM     90  F   UNL A   1      43.463  22.437  24.089  1.00  0.00    -0.200 F 
ATOM     91  C   UNL A   1      42.611  21.400  26.032  1.00  0.00     0.200 A 
ATOM     92  F   UNL A   1      41.751  20.416  27.999  1.00  0.00    -0.200 F 
ATOM     93  F   UNL A   1      42.492  20.237  25.379  1.00  0.00    -0.200 F 
ENDBRANCH  59  83
BRANCH  71  94
ATOM     94  C   UNL A   1      48.017  27.124  30.717  1.00  0.00     0.064 A 
ATOM     95  C   UNL A   1      48.337  26.312  31.813  1.00  0.00     0.173 A 
ATOM     96  C   UNL A   1      49.052  27.511  29.855  1.00  0.00     0.173 A 
ATOM     97  F   UNL A   1      47.380  25.929  32.672  1.00  0.00    -0.203 F 
ATOM     98  C   UNL A   1      49.649  25.910  32.042  1.00  0.00     0.198 A 
ATOM     99  C   UNL A   1      50.359  27.087  30.071  1.00  0.00     0.198 A 
ATOM    100  F   UNL A   1      48.792  28.283  28.788  1.00  0.00    -0.203 F 
ATOM    101  F   UNL A   1      49.942  25.159  33.112  1.00  0.00    -0.200 F 
ATOM    102  C   UNL A   1      50.657  26.290  31.166  1.00  0.00     0.200 A 
ATOM    103  F   UNL A   1      51.328  27.442  29.217  1.00  0.00    -0.200 F 
ATOM    104  F   UNL A   1      51.918  25.889  31.380  1.00  0.00    -0.200 F 
ENDBRANCH  71  94
ENDBRANCH  45  46
ENDBRANCH  37  40
ENDBRANCH  35  36
ENDBRANCH  34  35
ENDBRANCH   1  34
TORSDOF 17
ENDMDL
MODEL 2
REMARK VINA RESULT:     -12.7      2.845      7.461
REMARK SMILES COc1ccc([N+](=O)[O-])cc1C(=O)N[C@@H](Cc1c[nH]c2ccccc12)C(=O)NCCCCNC(=O)c1ccc(-c2c3nc(c(-c4c(F)c(F)c(F)c(F)c4F)c4ccc([nH]4)c(-c4c(F)c(F)c(F)c(F)c4F)c4nc(c(-c5c(F)c(F)c(F)c(F)c5F)c5ccc2[nH]5)C=C4)C=C3)cc1
REMARK SMILES IDX 30 1 29 2 28 3 26 4 27 5 15 7 14 8 12 9 13 10 11 12 3 13
REMARK SMILES IDX 4 14 5 15 10 16 6 17 2 18 1 19 7 20 8 21 9 22 16 23 17 24
REMARK SMILES IDX 18 25 25 26 19 27 20 28 24 29 21 31 23 32 22 33 31 34 32 35
REMARK SMILES IDX 33 36 34 37 35 39 36 40 37 41 98 42 38 43 97 44 39 45 40 46
REMARK SMILES IDX 41 47 91 48 42 49 96 50 90 51 92 52 43 53 95 54 89 55 88 56
REMARK SMILES IDX 44 58 76 59 56 60 75 61 57 62 60 63 74 64 93 65 58 66 59 67
REMARK SMILES IDX 73 69 94 70 61 71 45 72 46 73 54 74 47 75 48 76 52 77 55 78
REMARK SMILES IDX 49 79 50 80 53 81 51 82 77 83 78 84 86 85 79 86 80 87 84 88
REMARK SMILES IDX 87 89 81 90 82 91 85 92 83 93 62 94 63 95 71 96 64 97 65 98
REMARK SMILES IDX 69 99 72 100 66 101 67 102 70 103 68 104
REMARK H PARENT 28 6 14 11 19 30 33 38 92 57 60 68
REMARK Flexibility Score: inf
ROOT
ATOM      1  C   UNL A   1      31.501  27.120  26.119  1.00  0.00     0.023 C 
ENDROOT
BRANCH   1   2
ATOM      2  C   UNL A   1      30.629  26.265  25.193  1.00  0.00     0.116 C 
BRANCH   2   3
ATOM      3  N   UNL A   1      29.937  25.194  25.877  1.00  0.00    -0.354 N 
ATOM      4  C   UNL A   1      30.337  24.016  26.430  1.00  0.00     0.242 C 
ATOM      5  O   UNL A   1      29.608  23.671  27.374  1.00  0.00    -0.273 OA
ATOM      6  H   UNL A   1      28.969  25.351  25.960  1.00  0.00     0.163 HD
BRANCH   4   7
ATOM      7  C   UNL A   1      31.454  23.034  25.912  1.00  0.00     0.176 C 
BRANCH   7   8
ATOM      8  N   UNL A   1      32.545  23.033  26.904  1.00  0.00    -0.340 N 
ATOM      9  C   UNL A   1      33.904  22.890  26.897  1.00  0.00     0.255 C 
ATOM     10  O   UNL A   1      34.450  22.890  28.007  1.00  0.00    -0.269 OA
ATOM     11  H   UNL A   1      32.202  23.173  27.817  1.00  0.00     0.164 HD
BRANCH   9  12
ATOM     12  C   UNL A   1      34.801  22.730  25.718  1.00  0.00     0.088 A 
ATOM     13  C   UNL A   1      34.912  23.623  24.646  1.00  0.00     0.132 A 
ATOM     14  C   UNL A   1      35.918  23.473  23.674  1.00  0.00     0.054 A 
ATOM     15  C   UNL A   1      36.898  22.494  23.811  1.00  0.00     0.089 A 
ATOM     16  C   UNL A   1      35.789  21.725  25.835  1.00  0.00     0.103 A 
ATOM     17  C   UNL A   1      36.839  21.630  24.906  1.00  0.00     0.270 A 
BRANCH  13  18
ATOM     18  O   UNL A   1      34.078  24.690  24.492  1.00  0.00    -0.496 OA
ATOM     19  C   UNL A   1      33.726  24.866  23.118  1.00  0.00     0.278 C 
ENDBRANCH  13  18
BRANCH  17  20
ATOM     20  N   UNL A   1      37.924  20.662  25.116  1.00  0.00     0.062 N 
ATOM     21  O   UNL A   1      38.978  21.081  25.618  1.00  0.00    -0.258 OA
ATOM     22  O   UNL A   1      37.722  19.485  24.789  1.00  0.00    -0.258 OA
ENDBRANCH  17  20
ENDBRANCH   9  12
ENDBRANCH   7   8
BRANCH   7  23
ATOM     23  C   UNL A   1      31.061  21.615  25.353  1.00  0.00     0.072 C 
BRANCH  23  24
ATOM     24  C   UNL A   1      31.996  21.041  24.321  1.00  0.00    -0.020 A 
ATOM     25  C   UNL A   1      32.231  21.532  23.063  1.00  0.00     0.087 A 
ATOM     26  C   UNL A   1      32.681  19.798  24.182  1.00  0.00     0.003 A 
ATOM     27  N   UNL A   1      31.852  20.487  22.259  1.00  0.00    -0.361 N 
ATOM     28  C   UNL A   1      32.339  19.375  22.892  1.00  0.00     0.046 A 
ATOM     29  C   UNL A   1      33.585  19.001  24.901  1.00  0.00     0.010 A 
ATOM     30  H   UNL A   1      31.345  20.527  21.417  1.00  0.00     0.166 HD
ATOM     31  C   UNL A   1      32.608  18.125  22.361  1.00  0.00     0.026 A 
ATOM     32  C   UNL A   1      34.071  17.836  24.275  1.00  0.00     0.001 A 
ATOM     33  C   UNL A   1      33.541  17.377  23.063  1.00  0.00     0.002 A 
ENDBRANCH  23  24
ENDBRANCH   7  23
ENDBRANCH   4   7
ENDBRANCH   2   3
ENDBRANCH   1   2
BRANCH   1  34
ATOM     34  C   UNL A   1      31.784  28.553  25.705  1.00  0.00     0.023 C 
BRANCH  34  35
ATOM     35  C   UNL A   1      32.692  29.325  26.651  1.00  0.00     0.116 C 
BRANCH  35  36
ATOM     36  N   UNL A   1      32.354  30.729  26.876  1.00  0.00    -0.352 N 
ATOM     37  C   UNL A   1      33.202  31.714  27.340  1.00  0.00     0.251 C 
ATOM     38  H   UNL A   1      31.428  31.000  26.678  1.00  0.00     0.163 HD
ATOM     39  O   UNL A   1      32.830  32.872  27.499  1.00  0.00    -0.269 OA
BRANCH  37  40
ATOM     40  C   UNL A   1      34.570  31.302  27.696  1.00  0.00     0.039 A 
ATOM     41  C   UNL A   1      35.565  32.276  27.789  1.00  0.00     0.014 A 
ATOM     42  C   UNL A   1      34.778  30.003  28.162  1.00  0.00     0.014 A 
ATOM     43  C   UNL A   1      36.749  31.970  28.458  1.00  0.00     0.010 A 
ATOM     44  C   UNL A   1      35.908  29.738  28.916  1.00  0.00     0.010 A 
ATOM     45  C   UNL A   1      36.901  30.718  29.077  1.00  0.00    -0.014 A 
BRANCH  45  46
ATOM     46  C   UNL A   1      38.098  30.382  29.881  1.00  0.00     0.031 A 
ATOM     47  C   UNL A   1      39.097  29.415  29.316  1.00  0.00     0.074 A 
ATOM     48  C   UNL A   1      38.229  30.851  31.137  1.00  0.00     0.049 A 
ATOM     49  N   UNL A   1      40.118  28.841  29.896  1.00  0.00    -0.248 NA
ATOM     50  C   UNL A   1      38.889  29.004  27.917  1.00  0.00     0.031 C 
ATOM     51  C   UNL A   1      37.298  31.757  31.811  1.00  0.00     0.029 A 
ATOM     52  N   UNL A   1      39.198  30.612  32.080  1.00  0.00    -0.354 N 
ATOM     53  C   UNL A   1      40.648  27.980  28.946  1.00  0.00     0.074 A 
ATOM     54  C   UNL A   1      39.803  28.057  27.776  1.00  0.00     0.031 C 
ATOM     55  C   UNL A   1      37.752  32.017  33.049  1.00  0.00     0.029 A 
ATOM     56  C   UNL A   1      38.982  31.263  33.272  1.00  0.00     0.049 A 
ATOM     57  H   UNL A   1      39.974  30.029  31.919  1.00  0.00     0.167 HD
ATOM     58  C   UNL A   1      41.761  27.216  29.031  1.00  0.00     0.037 A 
ATOM     59  C   UNL A   1      39.697  31.241  34.413  1.00  0.00     0.037 A 
ATOM     60  C   UNL A   1      42.624  27.186  30.178  1.00  0.00     0.049 A 
ATOM     61  C   UNL A   1      40.941  30.395  34.477  1.00  0.00     0.074 A 
ATOM     62  C   UNL A   1      43.807  26.491  30.351  1.00  0.00     0.029 A 
ATOM     63  N   UNL A   1      42.398  27.897  31.348  1.00  0.00    -0.354 N 
ATOM     64  N   UNL A   1      41.462  29.620  33.556  1.00  0.00    -0.248 NA
ATOM     65  C   UNL A   1      41.697  30.420  35.736  1.00  0.00     0.031 C 
ATOM     66  C   UNL A   1      44.283  26.759  31.637  1.00  0.00     0.029 A 
ATOM     67  C   UNL A   1      43.418  27.652  32.250  1.00  0.00     0.049 A 
ATOM     68  H   UNL A   1      41.627  28.487  31.512  1.00  0.00     0.167 HD
ATOM     69  C   UNL A   1      42.621  29.095  34.109  1.00  0.00     0.074 A 
ATOM     70  C   UNL A   1      42.731  29.643  35.446  1.00  0.00     0.031 C 
ATOM     71  C   UNL A   1      43.516  28.236  33.563  1.00  0.00     0.037 A 
BRANCH  58  72
ATOM     72  C   UNL A   1      42.108  26.371  27.842  1.00  0.00     0.064 A 
ATOM     73  C   UNL A   1      41.517  25.114  27.639  1.00  0.00     0.173 A 
ATOM     74  C   UNL A   1      43.037  26.822  26.892  1.00  0.00     0.173 A 
ATOM     75  F   UNL A   1      40.638  24.630  28.529  1.00  0.00    -0.203 F 
ATOM     76  C   UNL A   1      41.867  24.326  26.546  1.00  0.00     0.198 A 
ATOM     77  C   UNL A   1      43.360  26.044  25.784  1.00  0.00     0.198 A 
ATOM     78  F   UNL A   1      43.631  28.015  27.040  1.00  0.00    -0.203 F 
ATOM     79  F   UNL A   1      41.334  23.104  26.406  1.00  0.00    -0.200 F 
ATOM     80  C   UNL A   1      42.783  24.794  25.616  1.00  0.00     0.200 A 
ATOM     81  F   UNL A   1      44.240  26.501  24.882  1.00  0.00    -0.200 F 
ATOM     82  F   UNL A   1      43.118  24.035  24.564  1.00  0.00    -0.200 F 
ENDBRANCH  58  72
BRANCH  59  83
ATOM     83  C   UNL A   1      39.278  32.066  35.576  1.00  0.00     0.064 A 
ATOM     84  C   UNL A   1      38.446  31.531  36.569  1.00  0.00     0.173 A 
ATOM     85  C   UNL A   1      39.683  33.401  35.716  1.00  0.00     0.173 A 
ATOM     86  F   UNL A   1      38.015  30.265  36.470  1.00  0.00    -0.203 F 
ATOM     87  C   UNL A   1      38.015  32.305  37.645  1.00  0.00     0.198 A 
ATOM     88  C   UNL A   1      39.272  34.168  36.805  1.00  0.00     0.198 A 
ATOM     89  F   UNL A   1      40.483  33.960  34.797  1.00  0.00    -0.203 F 
ATOM     90  F   UNL A   1      37.182  31.781  38.555  1.00  0.00    -0.200 F 
ATOM     91  C   UNL A   1      38.432  33.622  37.764  1.00  0.00     0.200 A 
ATOM     92  F   UNL A   1      39.687  35.437  36.924  1.00  0.00    -0.200 F 
ATOM     93  F   UNL A   1      38.018  34.367  38.798  1.00  0.00    -0.200 F 
ENDBRANCH  59  83
BRANCH  71  94
ATOM     94  C   UNL A   1      44.718  27.876  34.384  1.00  0.00     0.064 A 
ATOM     95  C   UNL A   1      45.879  28.661  34.368  1.00  0.00     0.173 A 
ATOM     96  C   UNL A   1      44.676  26.774  35.249  1.00  0.00     0.173 A 
ATOM     97  F   UNL A   1      45.969  29.718  33.546  1.00  0.00    -0.203 F 
ATOM     98  C   UNL A   1      46.962  28.347  35.184  1.00  0.00     0.198 A 
ATOM     99  C   UNL A   1      45.750  26.477  36.081  1.00  0.00     0.198 A 
ATOM    100  F   UNL A   1      43.582  25.998  35.304  1.00  0.00    -0.203 F 
ATOM    101  F   UNL A   1      48.075  29.091  35.133  1.00  0.00    -0.200 F 
ATOM    102  C   UNL A   1      46.893  27.261  36.046  1.00  0.00     0.200 A 
ATOM    103  F   UNL A   1      45.677  25.438  36.924  1.00  0.00    -0.200 F 
ATOM    104  F   UNL A   1      47.931  26.970  36.841  1.00  0.00    -0.200 F 
ENDBRANCH  71  94
ENDBRANCH  45  46
ENDBRANCH  37  40
ENDBRANCH  35  36
ENDBRANCH  34  35
ENDBRANCH   1  34
TORSDOF 17
ENDMDL
MODEL 3
REMARK VINA RESULT:     -12.6      3.448      5.426
REMARK SMILES COc1ccc([N+](=O)[O-])cc1C(=O)N[C@@H](Cc1c[nH]c2ccccc12)C(=O)NCCCCNC(=O)c1ccc(-c2c3nc(c(-c4c(F)c(F)c(F)c(F)c4F)c4ccc([nH]4)c(-c4c(F)c(F)c(F)c(F)c4F)c4nc(c(-c5c(F)c(F)c(F)c(F)c5F)c5ccc2[nH]5)C=C4)C=C3)cc1
REMARK SMILES IDX 30 1 29 2 28 3 26 4 27 5 15 7 14 8 12 9 13 10 11 12 3 13
REMARK SMILES IDX 4 14 5 15 10 16 6 17 2 18 1 19 7 20 8 21 9 22 16 23 17 24
REMARK SMILES IDX 18 25 25 26 19 27 20 28 24 29 21 31 23 32 22 33 31 34 32 35
REMARK SMILES IDX 33 36 34 37 35 39 36 40 37 41 98 42 38 43 97 44 39 45 40 46
REMARK SMILES IDX 41 47 91 48 42 49 96 50 90 51 92 52 43 53 95 54 89 55 88 56
REMARK SMILES IDX 44 58 76 59 56 60 75 61 57 62 60 63 74 64 93 65 58 66 59 67
REMARK SMILES IDX 73 69 94 70 61 71 45 72 46 73 54 74 47 75 48 76 52 77 55 78
REMARK SMILES IDX 49 79 50 80 53 81 51 82 77 83 78 84 86 85 79 86 80 87 84 88
REMARK SMILES IDX 87 89 81 90 82 91 85 92 83 93 62 94 63 95 71 96 64 97 65 98
REMARK SMILES IDX 69 99 72 100 66 101 67 102 70 103 68 104
REMARK H PARENT 28 6 14 11 19 30 33 38 92 57 60 68
REMARK Flexibility Score: inf
ROOT
ATOM      1  C   UNL A   1      31.658  29.664  25.636  1.00  0.00     0.023 C 
ENDROOT
BRANCH   1   2
ATOM      2  C   UNL A   1      31.853  28.474  26.583  1.00  0.00     0.116 C 
BRANCH   2   3
ATOM      3  N   UNL A   1      32.875  27.549  26.145  1.00  0.00    -0.354 N 
ATOM      4  C   UNL A   1      32.865  26.435  25.362  1.00  0.00     0.242 C 
ATOM      5  O   UNL A   1      33.947  26.265  24.777  1.00  0.00    -0.273 OA
ATOM      6  H   UNL A   1      33.770  27.773  26.487  1.00  0.00     0.163 HD
BRANCH   4   7
ATOM      7  C   UNL A   1      31.749  25.328  25.269  1.00  0.00     0.176 C 
BRANCH   7   8
ATOM      8  N   UNL A   1      31.837  24.500  26.487  1.00  0.00    -0.340 N 
ATOM      9  C   UNL A   1      32.374  23.294  26.840  1.00  0.00     0.255 C 
ATOM     10  O   UNL A   1      32.154  22.928  28.002  1.00  0.00    -0.269 OA
ATOM     11  H   UNL A   1      31.389  24.932  27.250  1.00  0.00     0.164 HD
BRANCH   9  12
ATOM     12  C   UNL A   1      33.184  22.371  25.997  1.00  0.00     0.088 A 
ATOM     13  C   UNL A   1      34.580  22.370  25.891  1.00  0.00     0.132 A 
ATOM     14  C   UNL A   1      35.258  21.342  25.210  1.00  0.00     0.054 A 
ATOM     15  C   UNL A   1      34.566  20.239  24.716  1.00  0.00     0.089 A 
ATOM     16  C   UNL A   1      32.489  21.257  25.472  1.00  0.00     0.103 A 
ATOM     17  C   UNL A   1      33.179  20.193  24.865  1.00  0.00     0.270 A 
BRANCH  13  18
ATOM     18  O   UNL A   1      35.358  23.339  26.451  1.00  0.00    -0.496 OA
ATOM     19  C   UNL A   1      36.471  23.647  25.608  1.00  0.00     0.278 C 
ENDBRANCH  13  18
BRANCH  17  20
ATOM     20  N   UNL A   1      32.451  18.989  24.441  1.00  0.00     0.062 N 
ATOM     21  O   UNL A   1      32.182  18.876  23.236  1.00  0.00    -0.258 OA
ATOM     22  O   UNL A   1      32.158  18.155  25.307  1.00  0.00    -0.258 OA
ENDBRANCH  17  20
ENDBRANCH   9  12
ENDBRANCH   7   8
BRANCH   7  23
ATOM     23  C   UNL A   1      30.286  25.714  24.832  1.00  0.00     0.072 C 
BRANCH  23  24
ATOM     24  C   UNL A   1      30.172  26.456  23.527  1.00  0.00    -0.020 A 
ATOM     25  C   UNL A   1      30.922  26.251  22.397  1.00  0.00     0.087 A 
ATOM     26  C   UNL A   1      29.525  27.660  23.121  1.00  0.00     0.003 A 
ATOM     27  N   UNL A   1      31.524  27.469  22.213  1.00  0.00    -0.361 N 
ATOM     28  C   UNL A   1      30.539  28.381  22.481  1.00  0.00     0.046 A 
ATOM     29  C   UNL A   1      28.239  28.224  23.125  1.00  0.00     0.010 A 
ATOM     30  H   UNL A   1      32.454  27.648  21.948  1.00  0.00     0.166 HD
ATOM     31  C   UNL A   1      30.451  29.703  22.079  1.00  0.00     0.026 A 
ATOM     32  C   UNL A   1      28.071  29.473  22.494  1.00  0.00     0.001 A 
ATOM     33  C   UNL A   1      29.165  30.222  22.044  1.00  0.00     0.002 A 
ENDBRANCH  23  24
ENDBRANCH   7  23
ENDBRANCH   4   7
ENDBRANCH   2   3
ENDBRANCH   1   2
BRANCH   1  34
ATOM     34  C   UNL A   1      31.478  31.040  26.252  1.00  0.00     0.023 C 
BRANCH  34  35
ATOM     35  C   UNL A   1      32.607  31.484  27.169  1.00  0.00     0.116 C 
BRANCH  35  36
ATOM     36  N   UNL A   1      32.706  32.919  27.434  1.00  0.00    -0.352 N 
ATOM     37  C   UNL A   1      33.827  33.600  27.860  1.00  0.00     0.251 C 
ATOM     38  H   UNL A   1      31.889  33.452  27.294  1.00  0.00     0.163 HD
ATOM     39  O   UNL A   1      33.818  34.811  28.056  1.00  0.00    -0.269 OA
BRANCH  37  40
ATOM     40  C   UNL A   1      35.033  32.799  28.128  1.00  0.00     0.039 A 
ATOM     41  C   UNL A   1      36.247  33.455  28.331  1.00  0.00     0.014 A 
ATOM     42  C   UNL A   1      34.884  31.440  28.410  1.00  0.00     0.014 A 
ATOM     43  C   UNL A   1      37.298  32.760  28.928  1.00  0.00     0.010 A 
ATOM     44  C   UNL A   1      35.892  30.786  29.098  1.00  0.00     0.010 A 
ATOM     45  C   UNL A   1      37.105  31.440  29.369  1.00  0.00    -0.014 A 
BRANCH  45  46
ATOM     46  C   UNL A   1      38.158  30.695  30.095  1.00  0.00     0.031 A 
ATOM     47  C   UNL A   1      38.402  31.016  31.541  1.00  0.00     0.074 A 
ATOM     48  C   UNL A   1      38.952  29.824  29.441  1.00  0.00     0.049 A 
ATOM     49  N   UNL A   1      39.372  30.628  32.327  1.00  0.00    -0.248 NA
ATOM     50  C   UNL A   1      37.447  31.941  32.175  1.00  0.00     0.031 C 
ATOM     51  C   UNL A   1      38.843  29.468  28.025  1.00  0.00     0.029 A 
ATOM     52  N   UNL A   1      40.025  29.092  29.884  1.00  0.00    -0.354 N 
ATOM     53  C   UNL A   1      39.160  31.286  33.530  1.00  0.00     0.074 A 
ATOM     54  C   UNL A   1      38.012  32.145  33.353  1.00  0.00     0.031 C 
ATOM     55  C   UNL A   1      39.793  28.568  27.722  1.00  0.00     0.029 A 
ATOM     56  C   UNL A   1      40.605  28.315  28.908  1.00  0.00     0.049 A 
ATOM     57  H   UNL A   1      40.350  29.119  30.812  1.00  0.00     0.167 HD
ATOM     58  C   UNL A   1      39.844  31.159  34.690  1.00  0.00     0.037 A 
ATOM     59  C   UNL A   1      41.677  27.502  28.972  1.00  0.00     0.037 A 
ATOM     60  C   UNL A   1      40.952  30.262  34.870  1.00  0.00     0.049 A 
ATOM     61  C   UNL A   1      42.412  27.366  30.279  1.00  0.00     0.074 A 
ATOM     62  C   UNL A   1      41.682  30.013  36.017  1.00  0.00     0.029 A 
ATOM     63  N   UNL A   1      41.479  29.456  33.872  1.00  0.00    -0.354 N 
ATOM     64  N   UNL A   1      42.176  27.956  31.425  1.00  0.00    -0.248 NA
ATOM     65  C   UNL A   1      43.562  26.452  30.302  1.00  0.00     0.031 C 
ATOM     66  C   UNL A   1      42.671  29.076  35.706  1.00  0.00     0.029 A 
ATOM     67  C   UNL A   1      42.531  28.712  34.376  1.00  0.00     0.049 A 
ATOM     68  H   UNL A   1      41.154  29.420  32.943  1.00  0.00     0.167 HD
ATOM     69  C   UNL A   1      43.120  27.460  32.313  1.00  0.00     0.074 A 
ATOM     70  C   UNL A   1      43.933  26.516  31.572  1.00  0.00     0.031 C 
ATOM     71  C   UNL A   1      43.302  27.758  33.622  1.00  0.00     0.037 A 
BRANCH  58  72
ATOM     72  C   UNL A   1      39.396  31.999  35.848  1.00  0.00     0.064 A 
ATOM     73  C   UNL A   1      38.385  31.565  36.720  1.00  0.00     0.173 A 
ATOM     74  C   UNL A   1      39.986  33.247  36.094  1.00  0.00     0.173 A 
ATOM     75  F   UNL A   1      37.776  30.387  36.515  1.00  0.00    -0.203 F 
ATOM     76  C   UNL A   1      37.958  32.365  37.776  1.00  0.00     0.198 A 
ATOM     77  C   UNL A   1      39.577  34.030  37.170  1.00  0.00     0.198 A 
ATOM     78  F   UNL A   1      40.955  33.708  35.291  1.00  0.00    -0.203 F 
ATOM     79  F   UNL A   1      36.949  31.956  38.558  1.00  0.00    -0.200 F 
ATOM     80  C   UNL A   1      38.558  33.594  38.004  1.00  0.00     0.200 A 
ATOM     81  F   UNL A   1      40.164  35.215  37.395  1.00  0.00    -0.200 F 
ATOM     82  F   UNL A   1      38.147  34.363  39.022  1.00  0.00    -0.200 F 
ENDBRANCH  58  72
BRANCH  59  83
ATOM     83  C   UNL A   1      42.102  26.728  27.776  1.00  0.00     0.064 A 
ATOM     84  C   UNL A   1      41.566  25.458  27.518  1.00  0.00     0.173 A 
ATOM     85  C   UNL A   1      43.056  27.226  26.878  1.00  0.00     0.173 A 
ATOM     86  F   UNL A   1      40.666  24.930  28.359  1.00  0.00    -0.203 F 
ATOM     87  C   UNL A   1      41.985  24.707  26.421  1.00  0.00     0.198 A 
ATOM     88  C   UNL A   1      43.456  26.485  25.767  1.00  0.00     0.198 A 
ATOM     89  F   UNL A   1      43.596  28.438  27.075  1.00  0.00    -0.203 F 
ATOM     90  F   UNL A   1      41.489  23.477  26.226  1.00  0.00    -0.200 F 
ATOM     91  C   UNL A   1      42.927  25.223  25.544  1.00  0.00     0.200 A 
ATOM     92  F   UNL A   1      44.358  26.992  24.914  1.00  0.00    -0.200 F 
ATOM     93  F   UNL A   1      43.329  24.501  24.490  1.00  0.00    -0.200 F 
ENDBRANCH  59  83
BRANCH  71  94
ATOM     94  C   UNL A   1      44.382  27.020  34.355  1.00  0.00     0.064 A 
ATOM     95  C   UNL A   1      45.673  27.549  34.486  1.00  0.00     0.173 A 
ATOM     96  C   UNL A   1      44.096  25.805  34.993  1.00  0.00     0.173 A 
ATOM     97  F   UNL A   1      45.996  28.703  33.882  1.00  0.00    -0.203 F 
ATOM     98  C   UNL A   1      46.645  26.879  35.223  1.00  0.00     0.198 A 
ATOM     99  C   UNL A   1      45.062  25.150  35.750  1.00  0.00     0.198 A 
ATOM    100  F   UNL A   1      42.872  25.264  34.901  1.00  0.00    -0.203 F 
ATOM    101  F   UNL A   1      47.883  27.385  35.312  1.00  0.00    -0.200 F 
ATOM    102  C   UNL A   1      46.337  25.686  35.861  1.00  0.00     0.200 A 
ATOM    103  F   UNL A   1      44.759  24.006  36.378  1.00  0.00    -0.200 F 
ATOM    104  F   UNL A   1      47.270  25.050  36.583  1.00  0.00    -0.200 F 
ENDBRANCH  71  94
ENDBRANCH  45  46
ENDBRANCH  37  40
ENDBRANCH  35  36
ENDBRANCH  34  35
ENDBRANCH   1  34
TORSDOF 17
ENDMDL
