MODEL 1
REMARK VINA RESULT:     -11.8      0.000      0.000
REMARK SMILES Cc1ccc(CNC(=O)NC[C@@H](CC(C)C)C(=O)NCCCCNC(=O)c2ccc(-c3c4nc(c(-c5c(F)c(F)c(F)c(F)c5F)c5ccc([nH]5)c(-c5c(F)c(F)c(F)c(F)c5F)c5nc(c(-c6c(F)c(F)c(F)c(F)c6F)c6ccc3[nH]6)C=C5)C=C4)cc2)s1
REMARK SMILES IDX 20 1 19 2 17 3 18 4 12 6 11 7 10 8 7 9 8 10 9 12 6 14 5 15
REMARK SMILES IDX 1 16 2 17 3 18 90 19 4 20 13 21 14 22 15 23 16 24 21 25
REMARK SMILES IDX 22 26 23 27 24 28 25 29 26 31 27 32 28 33 89 34 29 35 88 36
REMARK SMILES IDX 30 37 31 38 32 39 82 40 33 41 87 42 81 43 83 44 34 45 86 46
REMARK SMILES IDX 80 47 79 48 35 50 67 51 47 52 66 53 48 54 51 55 65 56 84 57
REMARK SMILES IDX 49 58 50 59 64 61 85 62 52 63 36 64 37 65 45 66 38 67 39 68
REMARK SMILES IDX 43 69 46 70 40 71 41 72 44 73 42 74 68 75 69 76 77 77 70 78
REMARK SMILES IDX 71 79 75 80 78 81 72 82 73 83 76 84 74 85 53 86 54 87 62 88
REMARK SMILES IDX 55 89 56 90 60 91 63 92 57 93 58 94 61 95 59 96
REMARK H PARENT 19 5 7 11 10 13 24 30 83 49 51 60
REMARK Flexibility Score: inf
ROOT
ATOM      1  C   UNL A   1      35.669  22.000  24.564  1.00  0.00     0.116 C 
ENDROOT
BRANCH   1   2
ATOM      2  N   UNL A   1      35.172  21.895  25.922  1.00  0.00    -0.356 N 
ATOM      3  C   UNL A   1      34.070  21.291  26.436  1.00  0.00     0.224 C 
ATOM      4  O   UNL A   1      34.005  21.223  27.668  1.00  0.00    -0.275 OA
ATOM      5  H   UNL A   1      35.736  22.341  26.594  1.00  0.00     0.163 HD
BRANCH   3   6
ATOM      6  C   UNL A   1      32.954  20.687  25.587  1.00  0.00     0.098 C 
BRANCH   6   7
ATOM      7  C   UNL A   1      31.795  21.647  25.296  1.00  0.00     0.131 C 
BRANCH   7   8
ATOM      8  N   UNL A   1      31.218  22.214  26.503  1.00  0.00    -0.337 N 
ATOM      9  N   UNL A   1      29.995  24.081  25.740  1.00  0.00    -0.333 N 
ATOM     10  C   UNL A   1      30.270  23.152  26.664  1.00  0.00     0.315 C 
ATOM     11  H   UNL A   1      29.087  24.457  25.809  1.00  0.00     0.165 HD
ATOM     12  O   UNL A   1      29.619  23.148  27.711  1.00  0.00    -0.249 OA
ATOM     13  H   UNL A   1      31.583  21.851  27.342  1.00  0.00     0.165 HD
BRANCH   9  14
ATOM     14  C   UNL A   1      30.781  24.636  24.660  1.00  0.00     0.164 C 
BRANCH  14  15
ATOM     15  C   UNL A   1      31.888  25.495  25.199  1.00  0.00     0.024 A 
ATOM     16  C   UNL A   1      33.652  28.493  27.031  1.00  0.00     0.056 C 
ATOM     17  C   UNL A   1      33.231  27.276  26.282  1.00  0.00     0.002 A 
ATOM     18  C   UNL A   1      34.018  26.258  25.789  1.00  0.00     0.015 A 
ATOM     19  S   UNL A   1      31.577  27.014  25.938  1.00  0.00    -0.144 S 
ATOM     20  C   UNL A   1      33.246  25.235  25.165  1.00  0.00     0.017 A 
ENDBRANCH  14  15
ENDBRANCH   9  14
ENDBRANCH   7   8
ENDBRANCH   6   7
BRANCH   6  21
ATOM     21  C   UNL A   1      33.440  19.887  24.354  1.00  0.00     0.018 C 
BRANCH  21  22
ATOM     22  C   UNL A   1      33.560  18.356  24.497  1.00  0.00    -0.017 C 
ATOM     23  C   UNL A   1      32.755  17.831  25.691  1.00  0.00     0.007 C 
ATOM     24  C   UNL A   1      33.067  17.646  23.233  1.00  0.00     0.007 C 
ENDBRANCH  21  22
ENDBRANCH   6  21
ENDBRANCH   3   6
ENDBRANCH   1   2
BRANCH   1  25
ATOM     25  C   UNL A   1      37.190  21.970  24.483  1.00  0.00     0.023 C 
BRANCH  25  26
ATOM     26  C   UNL A   1      37.831  20.664  24.951  1.00  0.00     0.023 C 
BRANCH  26  27
ATOM     27  C   UNL A   1      39.097  20.815  25.791  1.00  0.00     0.116 C 
BRANCH  27  28
ATOM     28  N   UNL A   1      39.946  19.630  25.774  1.00  0.00    -0.352 N 
ATOM     29  C   UNL A   1      41.289  19.505  26.041  1.00  0.00     0.251 C 
ATOM     30  H   UNL A   1      39.489  18.792  25.534  1.00  0.00     0.163 HD
ATOM     31  O   UNL A   1      41.864  18.438  25.865  1.00  0.00    -0.269 OA
BRANCH  29  32
ATOM     32  C   UNL A   1      42.045  20.686  26.500  1.00  0.00     0.039 A 
ATOM     33  C   UNL A   1      42.612  21.534  25.547  1.00  0.00     0.014 A 
ATOM     34  C   UNL A   1      42.133  20.986  27.861  1.00  0.00     0.014 A 
ATOM     35  C   UNL A   1      43.170  22.747  25.954  1.00  0.00     0.010 A 
ATOM     36  C   UNL A   1      42.624  22.226  28.257  1.00  0.00     0.010 A 
ATOM     37  C   UNL A   1      43.123  23.128  27.304  1.00  0.00    -0.014 A 
BRANCH  37  38
ATOM     38  C   UNL A   1      43.544  24.481  27.745  1.00  0.00     0.031 A 
ATOM     39  C   UNL A   1      42.512  25.526  28.054  1.00  0.00     0.074 A 
ATOM     40  C   UNL A   1      44.855  24.792  27.772  1.00  0.00     0.049 A 
ATOM     41  N   UNL A   1      42.675  26.801  28.304  1.00  0.00    -0.248 NA
ATOM     42  C   UNL A   1      41.109  25.085  28.059  1.00  0.00     0.031 C 
ATOM     43  C   UNL A   1      45.952  23.874  27.460  1.00  0.00     0.029 A 
ATOM     44  N   UNL A   1      45.488  25.977  28.058  1.00  0.00    -0.354 N 
ATOM     45  C   UNL A   1      41.398  27.314  28.489  1.00  0.00     0.074 A 
ATOM     46  C   UNL A   1      40.468  26.225  28.274  1.00  0.00     0.031 C 
ATOM     47  C   UNL A   1      47.121  24.525  27.582  1.00  0.00     0.029 A 
ATOM     48  C   UNL A   1      46.856  25.916  27.935  1.00  0.00     0.049 A 
ATOM     49  H   UNL A   1      45.008  26.793  28.326  1.00  0.00     0.167 HD
ATOM     50  C   UNL A   1      41.037  28.573  28.830  1.00  0.00     0.037 A 
ATOM     51  C   UNL A   1      47.788  26.879  28.068  1.00  0.00     0.037 A 
ATOM     52  C   UNL A   1      41.964  29.650  29.058  1.00  0.00     0.049 A 
ATOM     53  C   UNL A   1      47.352  28.278  28.410  1.00  0.00     0.074 A 
ATOM     54  C   UNL A   1      41.695  30.955  29.432  1.00  0.00     0.029 A 
ATOM     55  N   UNL A   1      43.341  29.544  28.939  1.00  0.00    -0.354 N 
ATOM     56  N   UNL A   1      46.144  28.742  28.618  1.00  0.00    -0.248 NA
ATOM     57  C   UNL A   1      48.412  29.290  28.531  1.00  0.00     0.031 C 
ATOM     58  C   UNL A   1      42.907  31.647  29.511  1.00  0.00     0.029 A 
ATOM     59  C   UNL A   1      43.934  30.763  29.222  1.00  0.00     0.049 A 
ATOM     60  H   UNL A   1      43.825  28.724  28.690  1.00  0.00     0.167 HD
ATOM     61  C   UNL A   1      46.300  30.087  28.921  1.00  0.00     0.074 A 
ATOM     62  C   UNL A   1      47.720  30.364  28.886  1.00  0.00     0.031 C 
ATOM     63  C   UNL A   1      45.351  31.014  29.198  1.00  0.00     0.037 A 
BRANCH  50  64
ATOM     64  C   UNL A   1      39.574  28.853  28.996  1.00  0.00     0.064 A 
ATOM     65  C   UNL A   1      38.949  28.726  30.245  1.00  0.00     0.173 A 
ATOM     66  C   UNL A   1      38.804  29.306  27.916  1.00  0.00     0.173 A 
ATOM     67  F   UNL A   1      39.641  28.284  31.306  1.00  0.00    -0.203 F 
ATOM     68  C   UNL A   1      37.599  29.028  30.403  1.00  0.00     0.198 A 
ATOM     69  C   UNL A   1      37.460  29.630  28.084  1.00  0.00     0.198 A 
ATOM     70  F   UNL A   1      39.357  29.447  26.702  1.00  0.00    -0.203 F 
ATOM     71  F   UNL A   1      37.013  28.866  31.598  1.00  0.00    -0.200 F 
ATOM     72  C   UNL A   1      36.858  29.487  29.325  1.00  0.00     0.200 A 
ATOM     73  F   UNL A   1      36.747  30.084  27.044  1.00  0.00    -0.200 F 
ATOM     74  F   UNL A   1      35.562  29.790  29.481  1.00  0.00    -0.200 F 
ENDBRANCH  50  64
BRANCH  51  75
ATOM     75  C   UNL A   1      49.228  26.565  27.878  1.00  0.00     0.064 A 
ATOM     76  C   UNL A   1      50.062  26.330  28.980  1.00  0.00     0.173 A 
ATOM     77  C   UNL A   1      49.808  26.534  26.602  1.00  0.00     0.173 A 
ATOM     78  F   UNL A   1      49.558  26.372  30.222  1.00  0.00    -0.203 F 
ATOM     79  C   UNL A   1      51.428  26.107  28.815  1.00  0.00     0.198 A 
ATOM     80  C   UNL A   1      51.169  26.282  26.436  1.00  0.00     0.198 A 
ATOM     81  F   UNL A   1      49.053  26.749  25.515  1.00  0.00    -0.203 F 
ATOM     82  F   UNL A   1      52.212  25.944  29.889  1.00  0.00    -0.200 F 
ATOM     83  C   UNL A   1      51.980  26.081  27.543  1.00  0.00     0.200 A 
ATOM     84  F   UNL A   1      51.695  26.246  25.205  1.00  0.00    -0.200 F 
ATOM     85  F   UNL A   1      53.294  25.873  27.385  1.00  0.00    -0.200 F 
ENDBRANCH  51  75
BRANCH  63  86
ATOM     86  C   UNL A   1      45.822  32.400  29.521  1.00  0.00     0.064 A 
ATOM     87  C   UNL A   1      45.961  33.378  28.526  1.00  0.00     0.173 A 
ATOM     88  C   UNL A   1      46.100  32.765  30.847  1.00  0.00     0.173 A 
ATOM     89  F   UNL A   1      45.723  33.071  27.241  1.00  0.00    -0.203 F 
ATOM     90  C   UNL A   1      46.384  34.665  28.843  1.00  0.00     0.198 A 
ATOM     91  C   UNL A   1      46.497  34.060  31.165  1.00  0.00     0.198 A 
ATOM     92  F   UNL A   1      45.978  31.865  31.835  1.00  0.00    -0.203 F 
ATOM     93  F   UNL A   1      46.553  35.572  27.871  1.00  0.00    -0.200 F 
ATOM     94  C   UNL A   1      46.644  35.007  30.162  1.00  0.00     0.200 A 
ATOM     95  F   UNL A   1      46.739  34.391  32.440  1.00  0.00    -0.200 F 
ATOM     96  F   UNL A   1      47.047  36.249  30.467  1.00  0.00    -0.200 F 
ENDBRANCH  63  86
ENDBRANCH  37  38
ENDBRANCH  29  32
ENDBRANCH  27  28
ENDBRANCH  26  27
ENDBRANCH  25  26
ENDBRANCH   1  25
TORSDOF 17
ENDMDL
MODEL 2
REMARK VINA RESULT:     -11.6      4.772      9.991
REMARK SMILES Cc1ccc(CNC(=O)NC[C@@H](CC(C)C)C(=O)NCCCCNC(=O)c2ccc(-c3c4nc(c(-c5c(F)c(F)c(F)c(F)c5F)c5ccc([nH]5)c(-c5c(F)c(F)c(F)c(F)c5F)c5nc(c(-c6c(F)c(F)c(F)c(F)c6F)c6ccc3[nH]6)C=C5)C=C4)cc2)s1
REMARK SMILES IDX 20 1 19 2 17 3 18 4 12 6 11 7 10 8 7 9 8 10 9 12 6 14 5 15
REMARK SMILES IDX 1 16 2 17 3 18 90 19 4 20 13 21 14 22 15 23 16 24 21 25
REMARK SMILES IDX 22 26 23 27 24 28 25 29 26 31 27 32 28 33 89 34 29 35 88 36
REMARK SMILES IDX 30 37 31 38 32 39 82 40 33 41 87 42 81 43 83 44 34 45 86 46
REMARK SMILES IDX 80 47 79 48 35 50 67 51 47 52 66 53 48 54 51 55 65 56 84 57
REMARK SMILES IDX 49 58 50 59 64 61 85 62 52 63 36 64 37 65 45 66 38 67 39 68
REMARK SMILES IDX 43 69 46 70 40 71 41 72 44 73 42 74 68 75 69 76 77 77 70 78
REMARK SMILES IDX 71 79 75 80 78 81 72 82 73 83 76 84 74 85 53 86 54 87 62 88
REMARK SMILES IDX 55 89 56 90 60 91 63 92 57 93 58 94 61 95 59 96
REMARK H PARENT 19 5 7 11 10 13 24 30 83 49 51 60
REMARK Flexibility Score: inf
ROOT
ATOM      1  C   UNL A   1      31.992  26.688  26.035  1.00  0.00     0.116 C 
ENDROOT
BRANCH   1   2
ATOM      2  N   UNL A   1      31.097  25.722  26.642  1.00  0.00    -0.356 N 
ATOM      3  C   UNL A   1      30.854  24.415  26.361  1.00  0.00     0.224 C 
ATOM      4  O   UNL A   1      30.155  23.800  27.173  1.00  0.00    -0.275 OA
ATOM      5  H   UNL A   1      30.569  26.076  27.393  1.00  0.00     0.163 HD
BRANCH   3   6
ATOM      6  C   UNL A   1      31.411  23.688  25.140  1.00  0.00     0.098 C 
BRANCH   6   7
ATOM      7  C   UNL A   1      31.409  22.160  25.262  1.00  0.00     0.131 C 
BRANCH   7   8
ATOM      8  N   UNL A   1      32.146  21.688  26.423  1.00  0.00    -0.337 N 
ATOM      9  N   UNL A   1      34.064  20.660  25.515  1.00  0.00    -0.333 N 
ATOM     10  C   UNL A   1      33.399  21.219  26.534  1.00  0.00     0.315 C 
ATOM     11  H   UNL A   1      35.044  20.690  25.612  1.00  0.00     0.165 HD
ATOM     12  O   UNL A   1      33.963  21.315  27.626  1.00  0.00    -0.249 OA
ATOM     13  H   UNL A   1      31.642  21.718  27.269  1.00  0.00     0.165 HD
BRANCH   9  14
ATOM     14  C   UNL A   1      33.614  20.020  24.298  1.00  0.00     0.164 C 
BRANCH  14  15
ATOM     15  C   UNL A   1      33.604  18.527  24.458  1.00  0.00     0.024 A 
ATOM     16  C   UNL A   1      32.502  14.977  25.737  1.00  0.00     0.056 C 
ATOM     17  C   UNL A   1      33.110  16.190  25.122  1.00  0.00     0.002 A 
ATOM     18  C   UNL A   1      34.111  16.262  24.178  1.00  0.00     0.015 A 
ATOM     19  S   UNL A   1      32.565  17.744  25.579  1.00  0.00    -0.144 S 
ATOM     20  C   UNL A   1      34.397  17.606  23.797  1.00  0.00     0.017 A 
ENDBRANCH  14  15
ENDBRANCH   9  14
ENDBRANCH   7   8
ENDBRANCH   6   7
BRANCH   6  21
ATOM     21  C   UNL A   1      30.892  24.215  23.780  1.00  0.00     0.018 C 
BRANCH  21  22
ATOM     22  C   UNL A   1      31.939  24.587  22.711  1.00  0.00    -0.017 C 
ATOM     23  C   UNL A   1      31.627  25.936  22.053  1.00  0.00     0.007 C 
ATOM     24  C   UNL A   1      33.343  24.660  23.320  1.00  0.00     0.007 C 
ENDBRANCH  21  22
ENDBRANCH   6  21
ENDBRANCH   3   6
ENDBRANCH   1   2
BRANCH   1  25
ATOM     25  C   UNL A   1      31.256  27.774  25.260  1.00  0.00     0.023 C 
BRANCH  25  26
ATOM     26  C   UNL A   1      32.006  29.101  25.147  1.00  0.00     0.023 C 
BRANCH  26  27
ATOM     27  C   UNL A   1      32.669  29.595  26.430  1.00  0.00     0.116 C 
BRANCH  27  28
ATOM     28  N   UNL A   1      32.453  31.015  26.681  1.00  0.00    -0.352 N 
ATOM     29  C   UNL A   1      33.253  31.927  27.329  1.00  0.00     0.251 C 
ATOM     30  H   UNL A   1      31.605  31.376  26.335  1.00  0.00     0.163 HD
ATOM     31  O   UNL A   1      32.854  33.063  27.548  1.00  0.00    -0.269 OA
BRANCH  29  32
ATOM     32  C   UNL A   1      34.586  31.506  27.803  1.00  0.00     0.039 A 
ATOM     33  C   UNL A   1      35.554  32.483  28.044  1.00  0.00     0.014 A 
ATOM     34  C   UNL A   1      34.851  30.161  28.071  1.00  0.00     0.014 A 
ATOM     35  C   UNL A   1      36.752  32.124  28.664  1.00  0.00     0.010 A 
ATOM     36  C   UNL A   1      36.013  29.817  28.751  1.00  0.00     0.010 A 
ATOM     37  C   UNL A   1      36.962  30.798  29.077  1.00  0.00    -0.014 A 
BRANCH  37  38
ATOM     38  C   UNL A   1      38.142  30.418  29.893  1.00  0.00     0.031 A 
ATOM     39  C   UNL A   1      39.132  29.422  29.364  1.00  0.00     0.074 A 
ATOM     40  C   UNL A   1      38.265  30.899  31.147  1.00  0.00     0.049 A 
ATOM     41  N   UNL A   1      40.137  28.849  29.977  1.00  0.00    -0.248 NA
ATOM     42  C   UNL A   1      38.956  28.998  27.967  1.00  0.00     0.031 C 
ATOM     43  C   UNL A   1      37.350  31.846  31.787  1.00  0.00     0.029 A 
ATOM     44  N   UNL A   1      39.203  30.640  32.116  1.00  0.00    -0.354 N 
ATOM     45  C   UNL A   1      40.707  27.993  29.045  1.00  0.00     0.074 A 
ATOM     46  C   UNL A   1      39.908  28.083  27.841  1.00  0.00     0.031 C 
ATOM     47  C   UNL A   1      37.776  32.096  33.036  1.00  0.00     0.029 A 
ATOM     48  C   UNL A   1      38.966  31.295  33.301  1.00  0.00     0.049 A 
ATOM     49  H   UNL A   1      39.972  30.042  31.976  1.00  0.00     0.167 HD
ATOM     50  C   UNL A   1      41.810  27.220  29.176  1.00  0.00     0.037 A 
ATOM     51  C   UNL A   1      39.622  31.236  34.476  1.00  0.00     0.037 A 
ATOM     52  C   UNL A   1      42.612  27.142  30.368  1.00  0.00     0.049 A 
ATOM     53  C   UNL A   1      40.822  30.337  34.601  1.00  0.00     0.074 A 
ATOM     54  C   UNL A   1      43.763  26.405  30.588  1.00  0.00     0.029 A 
ATOM     55  N   UNL A   1      42.349  27.832  31.541  1.00  0.00    -0.354 N 
ATOM     56  N   UNL A   1      41.373  29.559  33.702  1.00  0.00    -0.248 NA
ATOM     57  C   UNL A   1      41.491  30.305  35.911  1.00  0.00     0.031 C 
ATOM     58  C   UNL A   1      44.180  26.627  31.904  1.00  0.00     0.029 A 
ATOM     59  C   UNL A   1      43.310  27.530  32.492  1.00  0.00     0.049 A 
ATOM     60  H   UNL A   1      41.591  28.446  31.678  1.00  0.00     0.167 HD
ATOM     61  C   UNL A   1      42.463  28.970  34.324  1.00  0.00     0.074 A 
ATOM     62  C   UNL A   1      42.509  29.490  35.674  1.00  0.00     0.031 C 
ATOM     63  C   UNL A   1      43.347  28.071  33.825  1.00  0.00     0.037 A 
BRANCH  50  64
ATOM     64  C   UNL A   1      42.228  26.405  27.989  1.00  0.00     0.064 A 
ATOM     65  C   UNL A   1      41.709  25.121  27.771  1.00  0.00     0.173 A 
ATOM     66  C   UNL A   1      43.110  26.930  27.033  1.00  0.00     0.173 A 
ATOM     67  F   UNL A   1      40.872  24.570  28.664  1.00  0.00    -0.203 F 
ATOM     68  C   UNL A   1      42.068  24.384  26.646  1.00  0.00     0.198 A 
ATOM     69  C   UNL A   1      43.448  26.200  25.897  1.00  0.00     0.198 A 
ATOM     70  F   UNL A   1      43.631  28.155  27.195  1.00  0.00    -0.203 F 
ATOM     71  F   UNL A   1      41.586  23.145  26.476  1.00  0.00    -0.200 F 
ATOM     72  C   UNL A   1      42.930  24.928  25.706  1.00  0.00     0.200 A 
ATOM     73  F   UNL A   1      44.273  26.730  24.983  1.00  0.00    -0.200 F 
ATOM     74  F   UNL A   1      43.267  24.223  24.616  1.00  0.00    -0.200 F 
ENDBRANCH  50  64
BRANCH  51  75
ATOM     75  C   UNL A   1      39.165  32.047  35.635  1.00  0.00     0.064 A 
ATOM     76  C   UNL A   1      39.639  33.352  35.828  1.00  0.00     0.173 A 
ATOM     77  C   UNL A   1      38.283  31.524  36.591  1.00  0.00     0.173 A 
ATOM     78  F   UNL A   1      40.503  33.887  34.953  1.00  0.00    -0.203 F 
ATOM     79  C   UNL A   1      39.273  34.092  36.950  1.00  0.00     0.198 A 
ATOM     80  C   UNL A   1      37.894  32.276  37.699  1.00  0.00     0.198 A 
ATOM     81  F   UNL A   1      37.798  30.282  36.451  1.00  0.00    -0.203 F 
ATOM     82  F   UNL A   1      39.787  35.315  37.141  1.00  0.00    -0.200 F 
ATOM     83  C   UNL A   1      38.399  33.555  37.884  1.00  0.00     0.200 A 
ATOM     84  F   UNL A   1      37.041  31.758  38.591  1.00  0.00    -0.200 F 
ATOM     85  F   UNL A   1      38.052  34.264  38.966  1.00  0.00    -0.200 F 
ENDBRANCH  51  75
BRANCH  63  86
ATOM     86  C   UNL A   1      44.456  27.626  34.730  1.00  0.00     0.064 A 
ATOM     87  C   UNL A   1      44.335  26.480  35.528  1.00  0.00     0.173 A 
ATOM     88  C   UNL A   1      45.667  28.333  34.771  1.00  0.00     0.173 A 
ATOM     89  F   UNL A   1      43.190  25.781  35.536  1.00  0.00    -0.203 F 
ATOM     90  C   UNL A   1      45.380  26.070  36.352  1.00  0.00     0.198 A 
ATOM     91  C   UNL A   1      46.719  27.906  35.575  1.00  0.00     0.198 A 
ATOM     92  F   UNL A   1      45.832  29.434  34.022  1.00  0.00    -0.203 F 
ATOM     93  F   UNL A   1      45.227  24.996  37.140  1.00  0.00    -0.200 F 
ATOM     94  C   UNL A   1      46.572  26.778  36.369  1.00  0.00     0.200 A 
ATOM     95  F   UNL A   1      47.873  28.585  35.583  1.00  0.00    -0.200 F 
ATOM     96  F   UNL A   1      47.579  26.379  37.159  1.00  0.00    -0.200 F 
ENDBRANCH  63  86
ENDBRANCH  37  38
ENDBRANCH  29  32
ENDBRANCH  27  28
ENDBRANCH  26  27
ENDBRANCH  25  26
ENDBRANCH   1  25
TORSDOF 17
ENDMDL
MODEL 3
REMARK VINA RESULT:     -11.6      0.969      2.268
REMARK SMILES Cc1ccc(CNC(=O)NC[C@@H](CC(C)C)C(=O)NCCCCNC(=O)c2ccc(-c3c4nc(c(-c5c(F)c(F)c(F)c(F)c5F)c5ccc([nH]5)c(-c5c(F)c(F)c(F)c(F)c5F)c5nc(c(-c6c(F)c(F)c(F)c(F)c6F)c6ccc3[nH]6)C=C5)C=C4)cc2)s1
REMARK SMILES IDX 20 1 19 2 17 3 18 4 12 6 11 7 10 8 7 9 8 10 9 12 6 14 5 15
REMARK SMILES IDX 1 16 2 17 3 18 90 19 4 20 13 21 14 22 15 23 16 24 21 25
REMARK SMILES IDX 22 26 23 27 24 28 25 29 26 31 27 32 28 33 89 34 29 35 88 36
REMARK SMILES IDX 30 37 31 38 32 39 82 40 33 41 87 42 81 43 83 44 34 45 86 46
REMARK SMILES IDX 80 47 79 48 35 50 67 51 47 52 66 53 48 54 51 55 65 56 84 57
REMARK SMILES IDX 49 58 50 59 64 61 85 62 52 63 36 64 37 65 45 66 38 67 39 68
REMARK SMILES IDX 43 69 46 70 40 71 41 72 44 73 42 74 68 75 69 76 77 77 70 78
REMARK SMILES IDX 71 79 75 80 78 81 72 82 73 83 76 84 74 85 53 86 54 87 62 88
REMARK SMILES IDX 55 89 56 90 60 91 63 92 57 93 58 94 61 95 59 96
REMARK H PARENT 19 5 7 11 10 13 24 30 83 49 51 60
REMARK Flexibility Score: inf
ROOT
ATOM      1  C   UNL A   1      35.729  22.130  24.641  1.00  0.00     0.116 C 
ENDROOT
BRANCH   1   2
ATOM      2  N   UNL A   1      35.225  22.088  26.000  1.00  0.00    -0.356 N 
ATOM      3  C   UNL A   1      34.177  21.425  26.554  1.00  0.00     0.224 C 
ATOM      4  O   UNL A   1      34.101  21.451  27.787  1.00  0.00    -0.275 OA
ATOM      5  H   UNL A   1      35.735  22.639  26.637  1.00  0.00     0.163 HD
BRANCH   3   6
ATOM      6  C   UNL A   1      33.135  20.652  25.750  1.00  0.00     0.098 C 
BRANCH   6   7
ATOM      7  C   UNL A   1      31.903  21.476  25.357  1.00  0.00     0.131 C 
BRANCH   7   8
ATOM      8  N   UNL A   1      31.233  22.065  26.504  1.00  0.00    -0.337 N 
ATOM      9  N   UNL A   1      30.263  24.042  25.657  1.00  0.00    -0.333 N 
ATOM     10  C   UNL A   1      30.350  23.075  26.579  1.00  0.00     0.315 C 
ATOM     11  H   UNL A   1      29.387  24.491  25.629  1.00  0.00     0.165 HD
ATOM     12  O   UNL A   1      29.579  23.105  27.541  1.00  0.00    -0.249 OA
ATOM     13  H   UNL A   1      31.464  21.657  27.370  1.00  0.00     0.165 HD
BRANCH   9  14
ATOM     14  C   UNL A   1      31.216  24.551  24.695  1.00  0.00     0.164 C 
BRANCH  14  15
ATOM     15  C   UNL A   1      31.703  25.911  25.102  1.00  0.00     0.024 A 
ATOM     16  C   UNL A   1      34.164  28.705  26.365  1.00  0.00     0.056 C 
ATOM     17  C   UNL A   1      33.050  27.841  25.883  1.00  0.00     0.002 A 
ATOM     18  C   UNL A   1      31.780  28.214  25.500  1.00  0.00     0.015 A 
ATOM     19  S   UNL A   1      33.275  26.152  25.752  1.00  0.00    -0.144 S 
ATOM     20  C   UNL A   1      31.005  27.104  25.053  1.00  0.00     0.017 A 
ENDBRANCH  14  15
ENDBRANCH   9  14
ENDBRANCH   7   8
ENDBRANCH   6   7
BRANCH   6  21
ATOM     21  C   UNL A   1      33.713  19.790  24.602  1.00  0.00     0.018 C 
BRANCH  21  22
ATOM     22  C   UNL A   1      33.049  18.425  24.328  1.00  0.00    -0.017 C 
ATOM     23  C   UNL A   1      34.022  17.440  23.670  1.00  0.00     0.007 C 
ATOM     24  C   UNL A   1      32.529  17.798  25.626  1.00  0.00     0.007 C 
ENDBRANCH  21  22
ENDBRANCH   6  21
ENDBRANCH   3   6
ENDBRANCH   1   2
BRANCH   1  25
ATOM     25  C   UNL A   1      37.250  22.093  24.569  1.00  0.00     0.023 C 
BRANCH  25  26
ATOM     26  C   UNL A   1      37.880  20.769  25.000  1.00  0.00     0.023 C 
BRANCH  26  27
ATOM     27  C   UNL A   1      39.090  20.884  25.924  1.00  0.00     0.116 C 
BRANCH  27  28
ATOM     28  N   UNL A   1      39.931  19.694  25.925  1.00  0.00    -0.352 N 
ATOM     29  C   UNL A   1      41.291  19.576  26.101  1.00  0.00     0.251 C 
ATOM     30  H   UNL A   1      39.455  18.846  25.776  1.00  0.00     0.163 HD
ATOM     31  O   UNL A   1      41.847  18.496  25.955  1.00  0.00    -0.269 OA
BRANCH  29  32
ATOM     32  C   UNL A   1      42.082  20.779  26.423  1.00  0.00     0.039 A 
ATOM     33  C   UNL A   1      42.549  21.577  25.376  1.00  0.00     0.014 A 
ATOM     34  C   UNL A   1      42.301  21.149  27.752  1.00  0.00     0.014 A 
ATOM     35  C   UNL A   1      43.138  22.809  25.664  1.00  0.00     0.010 A 
ATOM     36  C   UNL A   1      42.822  22.407  28.033  1.00  0.00     0.010 A 
ATOM     37  C   UNL A   1      43.221  23.259  26.992  1.00  0.00    -0.014 A 
BRANCH  37  38
ATOM     38  C   UNL A   1      43.677  24.633  27.319  1.00  0.00     0.031 A 
ATOM     39  C   UNL A   1      42.698  25.647  27.834  1.00  0.00     0.074 A 
ATOM     40  C   UNL A   1      44.951  24.989  27.060  1.00  0.00     0.049 A 
ATOM     41  N   UNL A   1      42.863  26.930  28.031  1.00  0.00    -0.248 NA
ATOM     42  C   UNL A   1      41.346  25.158  28.146  1.00  0.00     0.031 C 
ATOM     43  C   UNL A   1      45.988  24.104  26.527  1.00  0.00     0.029 A 
ATOM     44  N   UNL A   1      45.586  26.199  27.192  1.00  0.00    -0.354 N 
ATOM     45  C   UNL A   1      41.638  27.402  28.483  1.00  0.00     0.074 A 
ATOM     46  C   UNL A   1      40.725  26.279  28.483  1.00  0.00     0.031 C 
ATOM     47  C   UNL A   1      47.132  24.796  26.389  1.00  0.00     0.029 A 
ATOM     48  C   UNL A   1      46.897  26.183  26.778  1.00  0.00     0.049 A 
ATOM     49  H   UNL A   1      45.145  27.003  27.550  1.00  0.00     0.167 HD
ATOM     50  C   UNL A   1      41.313  28.654  28.883  1.00  0.00     0.037 A 
ATOM     51  C   UNL A   1      47.799  27.179  26.699  1.00  0.00     0.037 A 
ATOM     52  C   UNL A   1      42.226  29.766  28.896  1.00  0.00     0.049 A 
ATOM     53  C   UNL A   1      47.396  28.568  27.114  1.00  0.00     0.074 A 
ATOM     54  C   UNL A   1      41.996  31.067  29.308  1.00  0.00     0.029 A 
ATOM     55  N   UNL A   1      43.549  29.705  28.484  1.00  0.00    -0.354 N 
ATOM     56  N   UNL A   1      46.245  28.994  27.573  1.00  0.00    -0.248 NA
ATOM     57  C   UNL A   1      48.419  29.618  26.995  1.00  0.00     0.031 C 
ATOM     58  C   UNL A   1      43.170  31.801  29.118  1.00  0.00     0.029 A 
ATOM     59  C   UNL A   1      44.143  30.949  28.622  1.00  0.00     0.049 A 
ATOM     60  H   UNL A   1      43.998  28.898  28.144  1.00  0.00     0.167 HD
ATOM     61  C   UNL A   1      46.412  30.348  27.824  1.00  0.00     0.074 A 
ATOM     62  C   UNL A   1      47.781  30.673  27.481  1.00  0.00     0.031 C 
ATOM     63  C   UNL A   1      45.511  31.247  28.290  1.00  0.00     0.037 A 
BRANCH  50  64
ATOM     64  C   UNL A   1      39.911  28.886  29.358  1.00  0.00     0.064 A 
ATOM     65  C   UNL A   1      38.913  29.339  28.482  1.00  0.00     0.173 A 
ATOM     66  C   UNL A   1      39.545  28.601  30.682  1.00  0.00     0.173 A 
ATOM     67  F   UNL A   1      39.216  29.638  27.210  1.00  0.00    -0.203 F 
ATOM     68  C   UNL A   1      37.603  29.513  28.918  1.00  0.00     0.198 A 
ATOM     69  C   UNL A   1      38.229  28.753  31.107  1.00  0.00     0.198 A 
ATOM     70  F   UNL A   1      40.462  28.163  31.557  1.00  0.00    -0.203 F 
ATOM     71  F   UNL A   1      36.673  29.980  28.072  1.00  0.00    -0.200 F 
ATOM     72  C   UNL A   1      37.260  29.213  30.227  1.00  0.00     0.200 A 
ATOM     73  F   UNL A   1      37.895  28.453  32.370  1.00  0.00    -0.200 F 
ATOM     74  F   UNL A   1      35.995  29.369  30.643  1.00  0.00    -0.200 F 
ENDBRANCH  50  64
BRANCH  51  75
ATOM     75  C   UNL A   1      49.176  26.912  26.205  1.00  0.00     0.064 A 
ATOM     76  C   UNL A   1      49.482  27.023  24.842  1.00  0.00     0.173 A 
ATOM     77  C   UNL A   1      50.197  26.501  27.072  1.00  0.00     0.173 A 
ATOM     78  F   UNL A   1      48.532  27.390  23.969  1.00  0.00    -0.203 F 
ATOM     79  C   UNL A   1      50.750  26.704  24.360  1.00  0.00     0.198 A 
ATOM     80  C   UNL A   1      51.474  26.210  26.594  1.00  0.00     0.198 A 
ATOM     81  F   UNL A   1      49.957  26.381  28.386  1.00  0.00    -0.203 F 
ATOM     82  F   UNL A   1      51.000  26.763  23.045  1.00  0.00    -0.200 F 
ATOM     83  C   UNL A   1      51.746  26.300  25.237  1.00  0.00     0.200 A 
ATOM     84  F   UNL A   1      52.435  25.831  27.446  1.00  0.00    -0.200 F 
ATOM     85  F   UNL A   1      52.963  25.987  24.773  1.00  0.00    -0.200 F 
ENDBRANCH  51  75
BRANCH  63  86
ATOM     86  C   UNL A   1      45.989  32.654  28.492  1.00  0.00     0.064 A 
ATOM     87  C   UNL A   1      46.580  33.060  29.697  1.00  0.00     0.173 A 
ATOM     88  C   UNL A   1      45.890  33.594  27.456  1.00  0.00     0.173 A 
ATOM     89  F   UNL A   1      46.681  32.201  30.723  1.00  0.00    -0.203 F 
ATOM     90  C   UNL A   1      47.034  34.366  29.865  1.00  0.00     0.198 A 
ATOM     91  C   UNL A   1      46.368  34.890  27.617  1.00  0.00     0.198 A 
ATOM     92  F   UNL A   1      45.336  33.251  26.283  1.00  0.00    -0.203 F 
ATOM     93  F   UNL A   1      47.555  34.746  31.040  1.00  0.00    -0.200 F 
ATOM     94  C   UNL A   1      46.934  35.276  28.823  1.00  0.00     0.200 A 
ATOM     95  F   UNL A   1      46.281  35.766  26.608  1.00  0.00    -0.200 F 
ATOM     96  F   UNL A   1      47.377  36.532  28.985  1.00  0.00    -0.200 F 
ENDBRANCH  63  86
ENDBRANCH  37  38
ENDBRANCH  29  32
ENDBRANCH  27  28
ENDBRANCH  26  27
ENDBRANCH  25  26
ENDBRANCH   1  25
TORSDOF 17
ENDMDL
