MODEL 1
REMARK VINA RESULT:     -13.2      0.000      0.000
REMARK SMILES CC1(C)Cc2c(-c3ccccc3)c(-c3ccc(Cl)cc3)c(CC(=O)NCCCCNC(=O)c3ccc(-c4c5nc(c(-c6c(F)c(F)c(F)c(F)c6F)c6ccc([nH]6)c(-c6c(F)c(F)c(F)c(F)c6F)c6nc(c(-c7c(F)c(F)c(F)c(F)c7F)c7ccc4[nH]7)C=C6)C=C5)cc3)n2C1
REMARK SMILES IDX 27 1 26 2 25 3 23 4 24 5 22 7 21 8 1 9 2 10 3 11 4 12 97 13
REMARK SMILES IDX 5 14 96 15 6 16 13 17 7 18 8 19 12 20 9 21 11 22 10 23 14 24
REMARK SMILES IDX 15 25 20 26 16 27 19 28 17 29 18 30 28 31 29 32 30 33 31 34
REMARK SMILES IDX 32 36 33 37 34 38 95 39 35 40 94 41 36 42 37 43 38 44 88 45
REMARK SMILES IDX 39 46 93 47 87 48 89 49 40 50 92 51 86 52 85 53 41 55 73 56
REMARK SMILES IDX 53 57 72 58 54 59 57 60 71 61 90 62 55 63 56 64 70 66 91 67
REMARK SMILES IDX 58 68 42 69 43 70 51 71 44 72 45 73 49 74 52 75 46 76 47 77
REMARK SMILES IDX 50 78 48 79 74 80 75 81 83 82 76 83 77 84 81 85 84 86 78 87
REMARK SMILES IDX 79 88 82 89 80 90 59 91 60 92 68 93 61 94 62 95 66 96 69 97
REMARK SMILES IDX 63 98 64 99 67 100 65 101
REMARK H PARENT 25 6 30 35 89 54 57 65
REMARK Flexibility Score: inf
ROOT
ATOM      1  C   UNL A   1      33.497  30.624  27.413  1.00  0.00     0.023 C 
ENDROOT
BRANCH   1   2
ATOM      2  C   UNL A   1      32.713  29.654  26.525  1.00  0.00     0.116 C 
BRANCH   2   3
ATOM      3  N   UNL A   1      33.327  29.409  25.240  1.00  0.00    -0.356 N 
ATOM      4  C   UNL A   1      33.912  28.268  24.763  1.00  0.00     0.225 C 
ATOM      5  O   UNL A   1      34.280  28.276  23.585  1.00  0.00    -0.275 OA
ATOM      6  H   UNL A   1      33.325  30.173  24.618  1.00  0.00     0.163 HD
BRANCH   4   7
ATOM      7  C   UNL A   1      34.036  27.011  25.617  1.00  0.00     0.154 C 
BRANCH   7   8
ATOM      8  C   UNL A   1      33.317  25.816  25.062  1.00  0.00     0.036 A 
ATOM      9  C   UNL A   1      28.619  26.749  23.662  1.00  0.00     0.013 C 
ATOM     10  C   UNL A   1      29.646  26.042  24.547  1.00  0.00    -0.012 C 
ATOM     11  C   UNL A   1      28.999  25.790  25.920  1.00  0.00     0.013 C 
ATOM     12  C   UNL A   1      30.111  24.688  23.921  1.00  0.00     0.063 C 
ATOM     13  C   UNL A   1      30.955  26.879  24.678  1.00  0.00     0.129 C 
ATOM     14  C   UNL A   1      31.556  24.658  24.247  1.00  0.00     0.027 A 
ATOM     15  N   UNL A   1      32.004  25.867  24.685  1.00  0.00    -0.346 N 
ATOM     16  C   UNL A   1      32.607  23.780  24.258  1.00  0.00     0.011 A 
ATOM     17  C   UNL A   1      33.743  24.512  24.762  1.00  0.00     0.011 A 
BRANCH  16  18
ATOM     18  C   UNL A   1      32.486  22.386  23.875  1.00  0.00    -0.016 A 
ATOM     19  C   UNL A   1      32.658  21.373  24.825  1.00  0.00     0.009 A 
ATOM     20  C   UNL A   1      32.190  22.046  22.550  1.00  0.00     0.009 A 
ATOM     21  C   UNL A   1      32.545  20.034  24.449  1.00  0.00     0.001 A 
ATOM     22  C   UNL A   1      32.075  20.707  22.177  1.00  0.00     0.001 A 
ATOM     23  C   UNL A   1      32.256  19.702  23.126  1.00  0.00     0.000 A 
ENDBRANCH  16  18
BRANCH  17  24
ATOM     24  C   UNL A   1      35.093  23.983  24.940  1.00  0.00    -0.016 A 
ATOM     25  C   UNL A   1      35.740  23.369  23.857  1.00  0.00     0.010 A 
ATOM     26  C   UNL A   1      35.693  23.926  26.202  1.00  0.00     0.010 A 
ATOM     27  C   UNL A   1      36.959  22.707  24.037  1.00  0.00     0.021 A 
ATOM     28  C   UNL A   1      36.925  23.288  26.380  1.00  0.00     0.021 A 
ATOM     29  C   UNL A   1      37.547  22.671  25.297  1.00  0.00     0.041 A 
ATOM     30  Cl  UNL A   1      39.030  21.830  25.530  1.00  0.00    -0.084 Cl
ENDBRANCH  17  24
ENDBRANCH   7   8
ENDBRANCH   4   7
ENDBRANCH   2   3
ENDBRANCH   1   2
BRANCH   1  31
ATOM     31  C   UNL A   1      35.013  30.445  27.494  1.00  0.00     0.023 C 
BRANCH  31  32
ATOM     32  C   UNL A   1      35.776  31.703  27.877  1.00  0.00     0.116 C 
BRANCH  32  33
ATOM     33  N   UNL A   1      35.348  32.307  29.149  1.00  0.00    -0.352 N 
ATOM     34  C   UNL A   1      35.601  31.851  30.441  1.00  0.00     0.251 C 
ATOM     35  H   UNL A   1      34.821  33.136  29.078  1.00  0.00     0.163 HD
ATOM     36  O   UNL A   1      34.925  32.192  31.393  1.00  0.00    -0.269 OA
BRANCH  34  37
ATOM     37  C   UNL A   1      36.758  30.958  30.625  1.00  0.00     0.039 A 
ATOM     38  C   UNL A   1      36.678  29.562  30.639  1.00  0.00     0.014 A 
ATOM     39  C   UNL A   1      37.983  31.600  30.690  1.00  0.00     0.014 A 
ATOM     40  C   UNL A   1      37.869  28.834  30.652  1.00  0.00     0.010 A 
ATOM     41  C   UNL A   1      39.105  30.903  30.378  1.00  0.00     0.010 A 
ATOM     42  C   UNL A   1      39.080  29.527  30.514  1.00  0.00    -0.014 A 
BRANCH  42  43
ATOM     43  C   UNL A   1      40.382  28.885  30.443  1.00  0.00     0.031 A 
ATOM     44  C   UNL A   1      41.044  28.702  31.757  1.00  0.00     0.074 A 
ATOM     45  C   UNL A   1      40.778  28.252  29.313  1.00  0.00     0.049 A 
ATOM     46  N   UNL A   1      42.135  29.253  32.172  1.00  0.00    -0.248 NA
ATOM     47  C   UNL A   1      40.335  27.935  32.796  1.00  0.00     0.031 C 
ATOM     48  C   UNL A   1      40.044  28.070  28.050  1.00  0.00     0.029 A 
ATOM     49  N   UNL A   1      41.905  27.526  29.093  1.00  0.00    -0.354 N 
ATOM     50  C   UNL A   1      42.363  28.741  33.446  1.00  0.00     0.074 A 
ATOM     51  C   UNL A   1      41.134  28.114  33.849  1.00  0.00     0.031 C 
ATOM     52  C   UNL A   1      40.634  27.109  27.305  1.00  0.00     0.029 A 
ATOM     53  C   UNL A   1      41.878  26.737  27.945  1.00  0.00     0.049 A 
ATOM     54  H   UNL A   1      42.681  27.555  29.698  1.00  0.00     0.167 HD
ATOM     55  C   UNL A   1      43.629  28.655  33.943  1.00  0.00     0.037 A 
ATOM     56  C   UNL A   1      42.814  25.825  27.582  1.00  0.00     0.037 A 
ATOM     57  C   UNL A   1      44.533  29.466  33.164  1.00  0.00     0.049 A 
ATOM     58  C   UNL A   1      44.047  26.153  28.345  1.00  0.00     0.074 A 
ATOM     59  C   UNL A   1      44.621  30.815  32.879  1.00  0.00     0.029 A 
ATOM     60  N   UNL A   1      45.294  28.833  32.209  1.00  0.00    -0.354 N 
ATOM     61  N   UNL A   1      44.728  27.254  28.169  1.00  0.00    -0.248 NA
ATOM     62  C   UNL A   1      44.214  25.512  29.642  1.00  0.00     0.031 C 
ATOM     63  C   UNL A   1      44.999  30.873  31.504  1.00  0.00     0.029 A 
ATOM     64  C   UNL A   1      45.208  29.568  31.056  1.00  0.00     0.049 A 
ATOM     65  H   UNL A   1      45.807  28.002  32.333  1.00  0.00     0.167 HD
ATOM     66  C   UNL A   1      45.068  27.668  29.449  1.00  0.00     0.074 A 
ATOM     67  C   UNL A   1      44.773  26.524  30.313  1.00  0.00     0.031 C 
ATOM     68  C   UNL A   1      45.265  28.989  29.733  1.00  0.00     0.037 A 
BRANCH  55  69
ATOM     69  C   UNL A   1      44.135  27.559  34.856  1.00  0.00     0.064 A 
ATOM     70  C   UNL A   1      43.984  26.218  34.444  1.00  0.00     0.173 A 
ATOM     71  C   UNL A   1      44.464  27.737  36.216  1.00  0.00     0.173 A 
ATOM     72  F   UNL A   1      43.679  25.923  33.170  1.00  0.00    -0.203 F 
ATOM     73  C   UNL A   1      44.040  25.154  35.347  1.00  0.00     0.198 A 
ATOM     74  C   UNL A   1      44.570  26.668  37.105  1.00  0.00     0.198 A 
ATOM     75  F   UNL A   1      44.590  28.945  36.776  1.00  0.00    -0.203 F 
ATOM     76  F   UNL A   1      43.746  23.914  34.932  1.00  0.00    -0.200 F 
ATOM     77  C   UNL A   1      44.320  25.381  36.680  1.00  0.00     0.200 A 
ATOM     78  F   UNL A   1      44.835  26.912  38.396  1.00  0.00    -0.200 F 
ATOM     79  F   UNL A   1      44.302  24.375  37.563  1.00  0.00    -0.200 F 
ENDBRANCH  55  69
BRANCH  56  80
ATOM     80  C   UNL A   1      42.612  24.514  26.915  1.00  0.00     0.064 A 
ATOM     81  C   UNL A   1      43.123  24.259  25.631  1.00  0.00     0.173 A 
ATOM     82  C   UNL A   1      42.162  23.392  27.639  1.00  0.00     0.173 A 
ATOM     83  F   UNL A   1      43.616  25.265  24.893  1.00  0.00    -0.203 F 
ATOM     84  C   UNL A   1      43.199  22.960  25.112  1.00  0.00     0.198 A 
ATOM     85  C   UNL A   1      42.236  22.097  27.122  1.00  0.00     0.198 A 
ATOM     86  F   UNL A   1      41.728  23.522  28.902  1.00  0.00    -0.203 F 
ATOM     87  F   UNL A   1      43.744  22.751  23.907  1.00  0.00    -0.200 F 
ATOM     88  C   UNL A   1      42.767  21.879  25.864  1.00  0.00     0.200 A 
ATOM     89  F   UNL A   1      41.852  21.057  27.874  1.00  0.00    -0.200 F 
ATOM     90  F   UNL A   1      42.897  20.630  25.395  1.00  0.00    -0.200 F 
ENDBRANCH  56  80
BRANCH  68  91
ATOM     91  C   UNL A   1      45.327  29.962  28.587  1.00  0.00     0.064 A 
ATOM     92  C   UNL A   1      44.229  30.710  28.127  1.00  0.00     0.173 A 
ATOM     93  C   UNL A   1      46.587  30.286  28.070  1.00  0.00     0.173 A 
ATOM     94  F   UNL A   1      43.006  30.525  28.634  1.00  0.00    -0.203 F 
ATOM     95  C   UNL A   1      44.387  31.722  27.180  1.00  0.00     0.198 A 
ATOM     96  C   UNL A   1      46.747  31.319  27.151  1.00  0.00     0.198 A 
ATOM     97  F   UNL A   1      47.678  29.641  28.512  1.00  0.00    -0.203 F 
ATOM     98  F   UNL A   1      43.323  32.427  26.765  1.00  0.00    -0.200 F 
ATOM     99  C   UNL A   1      45.648  32.033  26.703  1.00  0.00     0.200 A 
ATOM    100  F   UNL A   1      47.977  31.648  26.730  1.00  0.00    -0.200 F 
ATOM    101  F   UNL A   1      45.810  33.041  25.833  1.00  0.00    -0.200 F 
ENDBRANCH  68  91
ENDBRANCH  42  43
ENDBRANCH  34  37
ENDBRANCH  32  33
ENDBRANCH  31  32
ENDBRANCH   1  31
TORSDOF 14
ENDMDL
MODEL 2
REMARK VINA RESULT:     -13.2      3.380      8.725
REMARK SMILES CC1(C)Cc2c(-c3ccccc3)c(-c3ccc(Cl)cc3)c(CC(=O)NCCCCNC(=O)c3ccc(-c4c5nc(c(-c6c(F)c(F)c(F)c(F)c6F)c6ccc([nH]6)c(-c6c(F)c(F)c(F)c(F)c6F)c6nc(c(-c7c(F)c(F)c(F)c(F)c7F)c7ccc4[nH]7)C=C6)C=C5)cc3)n2C1
REMARK SMILES IDX 27 1 26 2 25 3 23 4 24 5 22 7 21 8 1 9 2 10 3 11 4 12 97 13
REMARK SMILES IDX 5 14 96 15 6 16 13 17 7 18 8 19 12 20 9 21 11 22 10 23 14 24
REMARK SMILES IDX 15 25 20 26 16 27 19 28 17 29 18 30 28 31 29 32 30 33 31 34
REMARK SMILES IDX 32 36 33 37 34 38 95 39 35 40 94 41 36 42 37 43 38 44 88 45
REMARK SMILES IDX 39 46 93 47 87 48 89 49 40 50 92 51 86 52 85 53 41 55 73 56
REMARK SMILES IDX 53 57 72 58 54 59 57 60 71 61 90 62 55 63 56 64 70 66 91 67
REMARK SMILES IDX 58 68 42 69 43 70 51 71 44 72 45 73 49 74 52 75 46 76 47 77
REMARK SMILES IDX 50 78 48 79 74 80 75 81 83 82 76 83 77 84 81 85 84 86 78 87
REMARK SMILES IDX 79 88 82 89 80 90 59 91 60 92 68 93 61 94 62 95 66 96 69 97
REMARK SMILES IDX 63 98 64 99 67 100 65 101
REMARK H PARENT 25 6 30 35 89 54 57 65
REMARK Flexibility Score: inf
ROOT
ATOM      1  C   UNL A   1      38.303  22.149  25.716  1.00  0.00     0.023 C 
ENDROOT
BRANCH   1   2
ATOM      2  C   UNL A   1      36.857  22.097  25.214  1.00  0.00     0.116 C 
BRANCH   2   3
ATOM      3  N   UNL A   1      35.868  22.183  26.263  1.00  0.00    -0.356 N 
ATOM      4  C   UNL A   1      35.008  23.205  26.561  1.00  0.00     0.225 C 
ATOM      5  O   UNL A   1      34.180  23.000  27.453  1.00  0.00    -0.275 OA
ATOM      6  H   UNL A   1      35.803  21.394  26.849  1.00  0.00     0.163 HD
BRANCH   4   7
ATOM      7  C   UNL A   1      35.013  24.514  25.778  1.00  0.00     0.154 C 
BRANCH   7   8
ATOM      8  C   UNL A   1      33.718  24.822  25.085  1.00  0.00     0.036 A 
ATOM      9  C   UNL A   1      31.863  21.001  22.467  1.00  0.00     0.013 C 
ATOM     10  C   UNL A   1      32.443  22.412  22.564  1.00  0.00    -0.012 C 
ATOM     11  C   UNL A   1      33.207  22.704  21.260  1.00  0.00     0.013 C 
ATOM     12  C   UNL A   1      31.325  23.482  22.777  1.00  0.00     0.063 C 
ATOM     13  C   UNL A   1      33.366  22.561  23.812  1.00  0.00     0.129 C 
ATOM     14  C   UNL A   1      31.957  24.428  23.727  1.00  0.00     0.027 A 
ATOM     15  N   UNL A   1      33.094  23.917  24.273  1.00  0.00    -0.346 N 
ATOM     16  C   UNL A   1      31.761  25.685  24.234  1.00  0.00     0.011 A 
ATOM     17  C   UNL A   1      32.873  25.942  25.117  1.00  0.00     0.011 A 
BRANCH  16  18
ATOM     18  C   UNL A   1      30.653  26.538  23.850  1.00  0.00    -0.016 A 
ATOM     19  C   UNL A   1      29.344  26.209  24.218  1.00  0.00     0.009 A 
ATOM     20  C   UNL A   1      30.890  27.703  23.112  1.00  0.00     0.009 A 
ATOM     21  C   UNL A   1      28.283  27.032  23.841  1.00  0.00     0.001 A 
ATOM     22  C   UNL A   1      29.828  28.527  22.738  1.00  0.00     0.001 A 
ATOM     23  C   UNL A   1      28.524  28.188  23.100  1.00  0.00     0.000 A 
ENDBRANCH  16  18
BRANCH  17  24
ATOM     24  C   UNL A   1      33.085  27.161  25.895  1.00  0.00    -0.016 A 
ATOM     25  C   UNL A   1      32.072  27.616  26.752  1.00  0.00     0.010 A 
ATOM     26  C   UNL A   1      34.203  27.976  25.683  1.00  0.00     0.010 A 
ATOM     27  C   UNL A   1      32.174  28.861  27.380  1.00  0.00     0.021 A 
ATOM     28  C   UNL A   1      34.321  29.210  26.331  1.00  0.00     0.021 A 
ATOM     29  C   UNL A   1      33.300  29.652  27.169  1.00  0.00     0.041 A 
ATOM     30  Cl  UNL A   1      33.416  31.199  27.912  1.00  0.00    -0.084 Cl
ENDBRANCH  17  24
ENDBRANCH   7   8
ENDBRANCH   4   7
ENDBRANCH   2   3
ENDBRANCH   1   2
BRANCH   1  31
ATOM     31  C   UNL A   1      38.740  23.395  26.488  1.00  0.00     0.023 C 
BRANCH  31  32
ATOM     32  C   UNL A   1      39.937  23.180  27.402  1.00  0.00     0.116 C 
BRANCH  32  33
ATOM     33  N   UNL A   1      41.194  22.888  26.696  1.00  0.00    -0.352 N 
ATOM     34  C   UNL A   1      42.055  23.790  26.073  1.00  0.00     0.251 C 
ATOM     35  H   UNL A   1      41.460  21.941  26.660  1.00  0.00     0.163 HD
ATOM     36  O   UNL A   1      42.854  23.442  25.225  1.00  0.00    -0.269 OA
BRANCH  34  37
ATOM     37  C   UNL A   1      41.990  25.195  26.512  1.00  0.00     0.039 A 
ATOM     38  C   UNL A   1      41.181  26.167  25.917  1.00  0.00     0.014 A 
ATOM     39  C   UNL A   1      42.733  25.483  27.645  1.00  0.00     0.014 A 
ATOM     40  C   UNL A   1      41.087  27.415  26.535  1.00  0.00     0.010 A 
ATOM     41  C   UNL A   1      42.387  26.559  28.397  1.00  0.00     0.010 A 
ATOM     42  C   UNL A   1      41.696  27.591  27.787  1.00  0.00    -0.014 A 
BRANCH  42  43
ATOM     43  C   UNL A   1      41.617  28.814  28.566  1.00  0.00     0.031 A 
ATOM     44  C   UNL A   1      42.681  29.801  28.262  1.00  0.00     0.074 A 
ATOM     45  C   UNL A   1      40.495  29.117  29.262  1.00  0.00     0.049 A 
ATOM     46  N   UNL A   1      43.621  30.210  29.045  1.00  0.00    -0.248 NA
ATOM     47  C   UNL A   1      42.813  30.281  26.875  1.00  0.00     0.031 C 
ATOM     48  C   UNL A   1      39.232  28.365  29.352  1.00  0.00     0.029 A 
ATOM     49  N   UNL A   1      40.206  30.243  29.964  1.00  0.00    -0.354 N 
ATOM     50  C   UNL A   1      44.341  31.157  28.320  1.00  0.00     0.074 A 
ATOM     51  C   UNL A   1      43.934  31.001  26.950  1.00  0.00     0.031 C 
ATOM     52  C   UNL A   1      38.259  29.153  29.860  1.00  0.00     0.029 A 
ATOM     53  C   UNL A   1      38.861  30.394  30.297  1.00  0.00     0.049 A 
ATOM     54  H   UNL A   1      40.892  30.901  30.217  1.00  0.00     0.167 HD
ATOM     55  C   UNL A   1      45.011  32.157  28.958  1.00  0.00     0.037 A 
ATOM     56  C   UNL A   1      38.299  31.490  30.869  1.00  0.00     0.037 A 
ATOM     57  C   UNL A   1      45.154  31.854  30.361  1.00  0.00     0.049 A 
ATOM     58  C   UNL A   1      39.409  32.265  31.484  1.00  0.00     0.074 A 
ATOM     59  C   UNL A   1      45.767  30.842  31.075  1.00  0.00     0.029 A 
ATOM     60  N   UNL A   1      44.264  32.438  31.233  1.00  0.00    -0.354 N 
ATOM     61  N   UNL A   1      40.119  31.828  32.489  1.00  0.00    -0.248 NA
ATOM     62  C   UNL A   1      40.051  33.275  30.654  1.00  0.00     0.031 C 
ATOM     63  C   UNL A   1      44.867  30.553  32.144  1.00  0.00     0.029 A 
ATOM     64  C   UNL A   1      43.809  31.460  32.078  1.00  0.00     0.049 A 
ATOM     65  H   UNL A   1      44.004  33.387  31.246  1.00  0.00     0.167 HD
ATOM     66  C   UNL A   1      41.425  32.181  32.180  1.00  0.00     0.074 A 
ATOM     67  C   UNL A   1      41.314  33.120  31.064  1.00  0.00     0.031 C 
ATOM     68  C   UNL A   1      42.481  31.452  32.648  1.00  0.00     0.037 A 
BRANCH  55  69
ATOM     69  C   UNL A   1      45.185  33.565  28.431  1.00  0.00     0.064 A 
ATOM     70  C   UNL A   1      46.486  34.106  28.374  1.00  0.00     0.173 A 
ATOM     71  C   UNL A   1      44.138  34.499  28.280  1.00  0.00     0.173 A 
ATOM     72  F   UNL A   1      47.563  33.314  28.495  1.00  0.00    -0.203 F 
ATOM     73  C   UNL A   1      46.715  35.482  28.293  1.00  0.00     0.198 A 
ATOM     74  C   UNL A   1      44.371  35.867  28.148  1.00  0.00     0.198 A 
ATOM     75  F   UNL A   1      42.848  34.157  28.363  1.00  0.00    -0.203 F 
ATOM     76  F   UNL A   1      47.965  35.954  28.389  1.00  0.00    -0.200 F 
ATOM     77  C   UNL A   1      45.656  36.363  28.194  1.00  0.00     0.200 A 
ATOM     78  F   UNL A   1      43.329  36.706  28.062  1.00  0.00    -0.200 F 
ATOM     79  F   UNL A   1      45.866  37.685  28.191  1.00  0.00    -0.200 F 
ENDBRANCH  55  69
BRANCH  56  80
ATOM     80  C   UNL A   1      36.960  32.075  30.615  1.00  0.00     0.064 A 
ATOM     81  C   UNL A   1      35.976  32.116  31.618  1.00  0.00     0.173 A 
ATOM     82  C   UNL A   1      36.716  32.864  29.472  1.00  0.00     0.173 A 
ATOM     83  F   UNL A   1      36.151  31.432  32.758  1.00  0.00    -0.203 F 
ATOM     84  C   UNL A   1      34.830  32.913  31.494  1.00  0.00     0.198 A 
ATOM     85  C   UNL A   1      35.573  33.657  29.349  1.00  0.00     0.198 A 
ATOM     86  F   UNL A   1      37.630  32.952  28.495  1.00  0.00    -0.203 F 
ATOM     87  F   UNL A   1      33.942  32.969  32.496  1.00  0.00    -0.200 F 
ATOM     88  C   UNL A   1      34.636  33.692  30.365  1.00  0.00     0.200 A 
ATOM     89  F   UNL A   1      35.417  34.436  28.270  1.00  0.00    -0.200 F 
ATOM     90  F   UNL A   1      33.573  34.503  30.274  1.00  0.00    -0.200 F 
ENDBRANCH  56  80
BRANCH  68  91
ATOM     91  C   UNL A   1      42.212  30.395  33.685  1.00  0.00     0.064 A 
ATOM     92  C   UNL A   1      41.901  29.057  33.386  1.00  0.00     0.173 A 
ATOM     93  C   UNL A   1      42.474  30.710  35.023  1.00  0.00     0.173 A 
ATOM     94  F   UNL A   1      41.725  28.654  32.124  1.00  0.00    -0.203 F 
ATOM     95  C   UNL A   1      41.837  28.087  34.386  1.00  0.00     0.198 A 
ATOM     96  C   UNL A   1      42.443  29.734  36.015  1.00  0.00     0.198 A 
ATOM     97  F   UNL A   1      42.829  31.960  35.360  1.00  0.00    -0.203 F 
ATOM     98  F   UNL A   1      41.546  26.815  34.072  1.00  0.00    -0.200 F 
ATOM     99  C   UNL A   1      42.120  28.425  35.698  1.00  0.00     0.200 A 
ATOM    100  F   UNL A   1      42.767  30.057  37.275  1.00  0.00    -0.200 F 
ATOM    101  F   UNL A   1      42.112  27.483  36.653  1.00  0.00    -0.200 F 
ENDBRANCH  68  91
ENDBRANCH  42  43
ENDBRANCH  34  37
ENDBRANCH  32  33
ENDBRANCH  31  32
ENDBRANCH   1  31
TORSDOF 14
ENDMDL
MODEL 3
REMARK VINA RESULT:     -12.5      9.108     15.121
REMARK SMILES CC1(C)Cc2c(-c3ccccc3)c(-c3ccc(Cl)cc3)c(CC(=O)NCCCCNC(=O)c3ccc(-c4c5nc(c(-c6c(F)c(F)c(F)c(F)c6F)c6ccc([nH]6)c(-c6c(F)c(F)c(F)c(F)c6F)c6nc(c(-c7c(F)c(F)c(F)c(F)c7F)c7ccc4[nH]7)C=C6)C=C5)cc3)n2C1
REMARK SMILES IDX 27 1 26 2 25 3 23 4 24 5 22 7 21 8 1 9 2 10 3 11 4 12 97 13
REMARK SMILES IDX 5 14 96 15 6 16 13 17 7 18 8 19 12 20 9 21 11 22 10 23 14 24
REMARK SMILES IDX 15 25 20 26 16 27 19 28 17 29 18 30 28 31 29 32 30 33 31 34
REMARK SMILES IDX 32 36 33 37 34 38 95 39 35 40 94 41 36 42 37 43 38 44 88 45
REMARK SMILES IDX 39 46 93 47 87 48 89 49 40 50 92 51 86 52 85 53 41 55 73 56
REMARK SMILES IDX 53 57 72 58 54 59 57 60 71 61 90 62 55 63 56 64 70 66 91 67
REMARK SMILES IDX 58 68 42 69 43 70 51 71 44 72 45 73 49 74 52 75 46 76 47 77
REMARK SMILES IDX 50 78 48 79 74 80 75 81 83 82 76 83 77 84 81 85 84 86 78 87
REMARK SMILES IDX 79 88 82 89 80 90 59 91 60 92 68 93 61 94 62 95 66 96 69 97
REMARK SMILES IDX 63 98 64 99 67 100 65 101
REMARK H PARENT 25 6 30 35 89 54 57 65
REMARK Flexibility Score: inf
ROOT
ATOM      1  C   UNL A   1      42.832  40.975  26.213  1.00  0.00     0.023 C 
ENDROOT
BRANCH   1   2
ATOM      2  C   UNL A   1      43.195  41.684  24.905  1.00  0.00     0.116 C 
BRANCH   2   3
ATOM      3  N   UNL A   1      42.065  42.275  24.226  1.00  0.00    -0.356 N 
ATOM      4  C   UNL A   1      41.879  42.499  22.889  1.00  0.00     0.225 C 
ATOM      5  O   UNL A   1      40.776  42.930  22.540  1.00  0.00    -0.275 OA
ATOM      6  H   UNL A   1      41.323  42.559  24.807  1.00  0.00     0.163 HD
BRANCH   4   7
ATOM      7  C   UNL A   1      42.952  42.158  21.860  1.00  0.00     0.154 C 
BRANCH   7   8
ATOM      8  C   UNL A   1      43.617  43.355  21.244  1.00  0.00     0.036 A 
ATOM      9  C   UNL A   1      41.441  44.945  17.045  1.00  0.00     0.013 C 
ATOM     10  C   UNL A   1      42.629  44.356  17.808  1.00  0.00    -0.012 C 
ATOM     11  C   UNL A   1      43.403  43.435  16.848  1.00  0.00     0.013 C 
ATOM     12  C   UNL A   1      43.575  45.473  18.353  1.00  0.00     0.063 C 
ATOM     13  C   UNL A   1      42.160  43.588  19.081  1.00  0.00     0.129 C 
ATOM     14  C   UNL A   1      43.971  44.945  19.679  1.00  0.00     0.027 A 
ATOM     15  N   UNL A   1      43.198  43.892  20.059  1.00  0.00    -0.346 N 
ATOM     16  C   UNL A   1      44.895  45.179  20.663  1.00  0.00     0.011 A 
ATOM     17  C   UNL A   1      44.668  44.178  21.678  1.00  0.00     0.011 A 
BRANCH  16  18
ATOM     18  C   UNL A   1      45.904  46.218  20.581  1.00  0.00    -0.016 A 
ATOM     19  C   UNL A   1      47.260  45.884  20.497  1.00  0.00     0.009 A 
ATOM     20  C   UNL A   1      45.524  47.564  20.579  1.00  0.00     0.009 A 
ATOM     21  C   UNL A   1      48.225  46.888  20.424  1.00  0.00     0.001 A 
ATOM     22  C   UNL A   1      46.490  48.567  20.502  1.00  0.00     0.001 A 
ATOM     23  C   UNL A   1      47.840  48.228  20.428  1.00  0.00     0.000 A 
ENDBRANCH  16  18
BRANCH  17  24
ATOM     24  C   UNL A   1      45.413  44.041  22.927  1.00  0.00    -0.016 A 
ATOM     25  C   UNL A   1      46.398  43.048  23.037  1.00  0.00     0.010 A 
ATOM     26  C   UNL A   1      45.057  44.764  24.071  1.00  0.00     0.010 A 
ATOM     27  C   UNL A   1      47.010  42.782  24.266  1.00  0.00     0.021 A 
ATOM     28  C   UNL A   1      45.686  44.519  25.296  1.00  0.00     0.021 A 
ATOM     29  C   UNL A   1      46.652  43.520  25.391  1.00  0.00     0.041 A 
ATOM     30  Cl  UNL A   1      47.377  43.174  26.912  1.00  0.00    -0.084 Cl
ENDBRANCH  17  24
ENDBRANCH   7   8
ENDBRANCH   4   7
ENDBRANCH   2   3
ENDBRANCH   1   2
BRANCH   1  31
ATOM     31  C   UNL A   1      41.873  39.787  26.133  1.00  0.00     0.023 C 
BRANCH  31  32
ATOM     32  C   UNL A   1      42.314  38.567  26.927  1.00  0.00     0.116 C 
BRANCH  32  33
ATOM     33  N   UNL A   1      43.673  38.099  26.613  1.00  0.00    -0.352 N 
ATOM     34  C   UNL A   1      44.514  37.320  27.405  1.00  0.00     0.251 C 
ATOM     35  H   UNL A   1      44.031  38.368  25.736  1.00  0.00     0.163 HD
ATOM     36  O   UNL A   1      45.717  37.285  27.233  1.00  0.00    -0.269 OA
BRANCH  34  37
ATOM     37  C   UNL A   1      43.881  36.494  28.448  1.00  0.00     0.039 A 
ATOM     38  C   UNL A   1      43.812  36.852  29.798  1.00  0.00     0.014 A 
ATOM     39  C   UNL A   1      43.255  35.350  27.983  1.00  0.00     0.014 A 
ATOM     40  C   UNL A   1      43.039  36.062  30.650  1.00  0.00     0.010 A 
ATOM     41  C   UNL A   1      42.268  34.794  28.730  1.00  0.00     0.010 A 
ATOM     42  C   UNL A   1      42.264  35.034  30.093  1.00  0.00    -0.014 A 
BRANCH  42  43
ATOM     43  C   UNL A   1      41.366  34.186  30.857  1.00  0.00     0.031 A 
ATOM     44  C   UNL A   1      41.856  33.845  32.215  1.00  0.00     0.074 A 
ATOM     45  C   UNL A   1      40.084  34.002  30.458  1.00  0.00     0.049 A 
ATOM     46  N   UNL A   1      42.184  32.681  32.663  1.00  0.00    -0.248 NA
ATOM     47  C   UNL A   1      42.164  34.947  33.142  1.00  0.00     0.031 C 
ATOM     48  C   UNL A   1      39.385  34.582  29.299  1.00  0.00     0.029 A 
ATOM     49  N   UNL A   1      39.085  33.328  31.084  1.00  0.00    -0.354 N 
ATOM     50  C   UNL A   1      42.542  32.870  33.996  1.00  0.00     0.074 A 
ATOM     51  C   UNL A   1      42.711  34.288  34.165  1.00  0.00     0.031 C 
ATOM     52  C   UNL A   1      38.050  34.427  29.438  1.00  0.00     0.029 A 
ATOM     53  C   UNL A   1      37.808  33.586  30.592  1.00  0.00     0.049 A 
ATOM     54  H   UNL A   1      39.250  32.705  31.828  1.00  0.00     0.167 HD
ATOM     55  C   UNL A   1      42.409  31.860  34.900  1.00  0.00     0.037 A 
ATOM     56  C   UNL A   1      36.641  33.149  31.131  1.00  0.00     0.037 A 
ATOM     57  C   UNL A   1      42.235  30.596  34.224  1.00  0.00     0.049 A 
ATOM     58  C   UNL A   1      36.984  32.005  32.016  1.00  0.00     0.074 A 
ATOM     59  C   UNL A   1      43.002  29.855  33.346  1.00  0.00     0.029 A 
ATOM     60  N   UNL A   1      40.954  30.114  34.097  1.00  0.00    -0.354 N 
ATOM     61  N   UNL A   1      37.463  30.873  31.573  1.00  0.00    -0.248 NA
ATOM     62  C   UNL A   1      37.281  32.311  33.409  1.00  0.00     0.031 C 
ATOM     63  C   UNL A   1      42.072  29.336  32.397  1.00  0.00     0.029 A 
ATOM     64  C   UNL A   1      40.789  29.710  32.798  1.00  0.00     0.049 A 
ATOM     65  H   UNL A   1      40.278  30.067  34.812  1.00  0.00     0.167 HD
ATOM     66  C   UNL A   1      38.458  30.532  32.478  1.00  0.00     0.074 A 
ATOM     67  C   UNL A   1      38.262  31.427  33.619  1.00  0.00     0.031 C 
ATOM     68  C   UNL A   1      39.528  29.775  32.095  1.00  0.00     0.037 A 
BRANCH  55  69
ATOM     69  C   UNL A   1      42.037  32.036  36.356  1.00  0.00     0.064 A 
ATOM     70  C   UNL A   1      40.867  32.759  36.669  1.00  0.00     0.173 A 
ATOM     71  C   UNL A   1      42.912  31.810  37.440  1.00  0.00     0.173 A 
ATOM     72  F   UNL A   1      39.954  33.028  35.721  1.00  0.00    -0.203 F 
ATOM     73  C   UNL A   1      40.652  33.312  37.933  1.00  0.00     0.198 A 
ATOM     74  C   UNL A   1      42.668  32.320  38.714  1.00  0.00     0.198 A 
ATOM     75  F   UNL A   1      44.087  31.188  37.301  1.00  0.00    -0.203 F 
ATOM     76  F   UNL A   1      39.597  34.113  38.138  1.00  0.00    -0.200 F 
ATOM     77  C   UNL A   1      41.560  33.103  38.952  1.00  0.00     0.200 A 
ATOM     78  F   UNL A   1      43.568  32.113  39.687  1.00  0.00    -0.200 F 
ATOM     79  F   UNL A   1      41.397  33.691  40.143  1.00  0.00    -0.200 F 
ENDBRANCH  55  69
BRANCH  56  80
ATOM     80  C   UNL A   1      35.341  33.861  31.211  1.00  0.00     0.064 A 
ATOM     81  C   UNL A   1      35.074  34.784  32.236  1.00  0.00     0.173 A 
ATOM     82  C   UNL A   1      34.446  33.864  30.122  1.00  0.00     0.173 A 
ATOM     83  F   UNL A   1      35.902  34.880  33.286  1.00  0.00    -0.203 F 
ATOM     84  C   UNL A   1      33.990  35.669  32.166  1.00  0.00     0.198 A 
ATOM     85  C   UNL A   1      33.365  34.745  30.053  1.00  0.00     0.198 A 
ATOM     86  F   UNL A   1      34.659  33.073  29.060  1.00  0.00    -0.203 F 
ATOM     87  F   UNL A   1      33.800  36.573  33.137  1.00  0.00    -0.200 F 
ATOM     88  C   UNL A   1      33.144  35.657  31.069  1.00  0.00     0.200 A 
ATOM     89  F   UNL A   1      32.578  34.750  28.969  1.00  0.00    -0.200 F 
ATOM     90  F   UNL A   1      32.146  36.546  30.971  1.00  0.00    -0.200 F 
ENDBRANCH  56  80
BRANCH  68  91
ATOM     91  C   UNL A   1      39.494  29.132  30.735  1.00  0.00     0.064 A 
ATOM     92  C   UNL A   1      40.015  29.722  29.570  1.00  0.00     0.173 A 
ATOM     93  C   UNL A   1      39.097  27.792  30.654  1.00  0.00     0.173 A 
ATOM     94  F   UNL A   1      40.499  30.967  29.584  1.00  0.00    -0.203 F 
ATOM     95  C   UNL A   1      40.114  29.006  28.377  1.00  0.00     0.198 A 
ATOM     96  C   UNL A   1      39.228  27.069  29.472  1.00  0.00     0.198 A 
ATOM     97  F   UNL A   1      38.642  27.161  31.749  1.00  0.00    -0.203 F 
ATOM     98  F   UNL A   1      40.624  29.590  27.282  1.00  0.00    -0.200 F 
ATOM     99  C   UNL A   1      39.732  27.676  28.333  1.00  0.00     0.200 A 
ATOM    100  F   UNL A   1      38.903  25.769  29.449  1.00  0.00    -0.200 F 
ATOM    101  F   UNL A   1      39.877  26.971  27.202  1.00  0.00    -0.200 F 
ENDBRANCH  68  91
ENDBRANCH  42  43
ENDBRANCH  34  37
ENDBRANCH  32  33
ENDBRANCH  31  32
ENDBRANCH   1  31
TORSDOF 14
ENDMDL
