MODEL 1
REMARK VINA RESULT:     -12.6      0.000      0.000
REMARK SMILES Cc1cc(OC(F)(F)F)cc2c1O[C@@H](C(F)(F)F)C(C(=O)NCCCCNC(=O)c1ccc(-c3c4nc(c(-c5c(F)c(F)c(F)c(F)c5F)c5ccc([nH]5)c(-c5c(F)c(F)c(F)c(F)c5F)c5nc(c(-c6c(F)c(F)c(F)c(F)c6F)c6ccc3[nH]6)C=C5)C=C4)cc1)=C2
REMARK SMILES IDX 24 1 23 2 22 3 20 4 21 5 19 7 1 8 2 9 3 10 12 11 4 12 11 13
REMARK SMILES IDX 13 14 10 15 93 16 14 17 5 18 6 19 7 20 8 21 9 22 15 23 16 24
REMARK SMILES IDX 17 25 18 26 25 27 26 28 27 29 28 30 29 32 30 33 31 34 92 35
REMARK SMILES IDX 32 36 91 37 33 38 34 39 35 40 85 41 36 42 90 43 84 44 86 45
REMARK SMILES IDX 37 46 89 47 83 48 82 49 38 51 70 52 50 53 69 54 51 55 54 56
REMARK SMILES IDX 68 57 87 58 52 59 53 60 67 62 88 63 55 64 39 65 40 66 48 67
REMARK SMILES IDX 41 68 42 69 46 70 49 71 43 72 44 73 47 74 45 75 71 76 72 77
REMARK SMILES IDX 80 78 73 79 74 80 78 81 81 82 75 83 76 84 79 85 77 86 56 87
REMARK SMILES IDX 57 88 65 89 58 90 59 91 63 92 66 93 60 94 61 95 64 96 62 97
REMARK H PARENT 22 6 27 31 86 50 54 61
REMARK Flexibility Score: inf
ROOT
ATOM      1  C   UNL A   1      37.384  21.913  24.657  1.00  0.00     0.023 C 
ENDROOT
BRANCH   1   2
ATOM      2  C   UNL A   1      35.862  21.876  24.524  1.00  0.00     0.116 C 
BRANCH   2   3
ATOM      3  N   UNL A   1      35.228  21.592  25.797  1.00  0.00    -0.352 N 
ATOM      4  C   UNL A   1      34.135  22.035  26.460  1.00  0.00     0.251 C 
ATOM      5  O   UNL A   1      33.895  21.453  27.523  1.00  0.00    -0.270 OA
ATOM      6  H   UNL A   1      35.715  20.905  26.306  1.00  0.00     0.163 HD
BRANCH   4   7
ATOM      7  C   UNL A   1      33.240  23.141  26.007  1.00  0.00     0.067 C 
ATOM      8  C   UNL A   1      29.493  26.210  24.292  1.00  0.00     0.048 C 
ATOM      9  C   UNL A   1      30.878  26.414  24.838  1.00  0.00    -0.005 A 
ATOM     10  C   UNL A   1      31.422  27.708  24.917  1.00  0.00     0.054 A 
ATOM     11  C   UNL A   1      31.638  25.328  25.289  1.00  0.00     0.131 A 
ATOM     12  C   UNL A   1      32.702  27.913  25.439  1.00  0.00     0.130 A 
ATOM     13  C   UNL A   1      32.913  25.523  25.824  1.00  0.00     0.021 A 
ATOM     14  O   UNL A   1      31.076  24.081  25.219  1.00  0.00    -0.475 OA
ATOM     15  C   UNL A   1      33.439  26.815  25.894  1.00  0.00     0.058 A 
ATOM     16  C   UNL A   1      33.664  24.378  26.321  1.00  0.00     0.025 C 
ATOM     17  C   UNL A   1      32.015  22.969  25.150  1.00  0.00     0.314 C 
BRANCH  12  18
ATOM     18  O   UNL A   1      33.346  29.111  25.563  1.00  0.00    -0.406 OA
BRANCH  18  19
ATOM     19  C   UNL A   1      32.863  30.026  26.533  1.00  0.00     0.573 C 
ATOM     20  F   UNL A   1      31.885  30.805  26.023  1.00  0.00    -0.132 F 
ATOM     21  F   UNL A   1      32.405  29.381  27.625  1.00  0.00    -0.132 F 
ATOM     22  F   UNL A   1      33.882  30.828  26.915  1.00  0.00    -0.132 F 
ENDBRANCH  18  19
ENDBRANCH  12  18
BRANCH  17  23
ATOM     23  C   UNL A   1      32.325  22.626  23.683  1.00  0.00     0.429 C 
ATOM     24  F   UNL A   1      31.225  22.840  22.914  1.00  0.00    -0.167 F 
ATOM     25  F   UNL A   1      33.326  23.369  23.163  1.00  0.00    -0.167 F 
ATOM     26  F   UNL A   1      32.669  21.329  23.514  1.00  0.00    -0.167 F 
ENDBRANCH  17  23
ENDBRANCH   4   7
ENDBRANCH   2   3
ENDBRANCH   1   2
BRANCH   1  27
ATOM     27  C   UNL A   1      38.017  20.562  25.001  1.00  0.00     0.023 C 
BRANCH  27  28
ATOM     28  C   UNL A   1      39.201  20.637  25.958  1.00  0.00     0.116 C 
BRANCH  28  29
ATOM     29  N   UNL A   1      40.079  19.480  25.885  1.00  0.00    -0.352 N 
ATOM     30  C   UNL A   1      41.435  19.445  26.101  1.00  0.00     0.251 C 
ATOM     31  H   UNL A   1      39.652  18.622  25.655  1.00  0.00     0.163 HD
ATOM     32  O   UNL A   1      42.083  18.416  25.951  1.00  0.00    -0.269 OA
BRANCH  30  33
ATOM     33  C   UNL A   1      42.102  20.701  26.476  1.00  0.00     0.039 A 
ATOM     34  C   UNL A   1      42.510  21.573  25.464  1.00  0.00     0.014 A 
ATOM     35  C   UNL A   1      42.219  21.050  27.824  1.00  0.00     0.014 A 
ATOM     36  C   UNL A   1      42.982  22.838  25.806  1.00  0.00     0.010 A 
ATOM     37  C   UNL A   1      42.646  22.329  28.160  1.00  0.00     0.010 A 
ATOM     38  C   UNL A   1      43.023  23.231  27.153  1.00  0.00    -0.014 A 
BRANCH  38  39
ATOM     39  C   UNL A   1      43.479  24.584  27.540  1.00  0.00     0.031 A 
ATOM     40  C   UNL A   1      42.465  25.630  27.888  1.00  0.00     0.074 A 
ATOM     41  C   UNL A   1      44.792  24.882  27.514  1.00  0.00     0.049 A 
ATOM     42  N   UNL A   1      42.641  26.897  28.155  1.00  0.00    -0.248 NA
ATOM     43  C   UNL A   1      41.058  25.194  27.919  1.00  0.00     0.031 C 
ATOM     44  C   UNL A   1      45.864  23.949  27.167  1.00  0.00     0.029 A 
ATOM     45  N   UNL A   1      45.443  26.059  27.775  1.00  0.00    -0.354 N 
ATOM     46  C   UNL A   1      41.372  27.412  28.374  1.00  0.00     0.074 A 
ATOM     47  C   UNL A   1      40.430  26.332  28.169  1.00  0.00     0.031 C 
ATOM     48  C   UNL A   1      47.043  24.587  27.251  1.00  0.00     0.029 A 
ATOM     49  C   UNL A   1      46.806  25.978  27.630  1.00  0.00     0.049 A 
ATOM     50  H   UNL A   1      44.978  26.885  28.041  1.00  0.00     0.167 HD
ATOM     51  C   UNL A   1      41.027  28.670  28.734  1.00  0.00     0.037 A 
ATOM     52  C   UNL A   1      47.751  26.923  27.783  1.00  0.00     0.037 A 
ATOM     53  C   UNL A   1      41.966  29.734  28.956  1.00  0.00     0.049 A 
ATOM     54  C   UNL A   1      47.340  28.315  28.177  1.00  0.00     0.074 A 
ATOM     55  C   UNL A   1      41.719  31.038  29.343  1.00  0.00     0.029 A 
ATOM     56  N   UNL A   1      43.341  29.609  28.815  1.00  0.00    -0.354 N 
ATOM     57  N   UNL A   1      46.139  28.788  28.404  1.00  0.00    -0.248 NA
ATOM     58  C   UNL A   1      48.416  29.303  28.338  1.00  0.00     0.031 C 
ATOM     59  C   UNL A   1      42.945  31.710  29.418  1.00  0.00     0.029 A 
ATOM     60  C   UNL A   1      43.955  30.815  29.105  1.00  0.00     0.049 A 
ATOM     61  H   UNL A   1      43.809  28.785  28.547  1.00  0.00     0.167 HD
ATOM     62  C   UNL A   1      46.313  30.119  28.752  1.00  0.00     0.074 A 
ATOM     63  C   UNL A   1      47.737  30.379  28.716  1.00  0.00     0.031 C 
ATOM     64  C   UNL A   1      45.377  31.045  29.072  1.00  0.00     0.037 A 
BRANCH  51  65
ATOM     65  C   UNL A   1      39.568  28.952  28.918  1.00  0.00     0.064 A 
ATOM     66  C   UNL A   1      38.958  28.843  30.176  1.00  0.00     0.173 A 
ATOM     67  C   UNL A   1      38.774  29.350  27.832  1.00  0.00     0.173 A 
ATOM     68  F   UNL A   1      39.675  28.447  31.240  1.00  0.00    -0.203 F 
ATOM     69  C   UNL A   1      37.602  29.102  30.338  1.00  0.00     0.198 A 
ATOM     70  C   UNL A   1      37.422  29.630  28.002  1.00  0.00     0.198 A 
ATOM     71  F   UNL A   1      39.311  29.466  26.608  1.00  0.00    -0.203 F 
ATOM     72  F   UNL A   1      37.031  28.951  31.541  1.00  0.00    -0.200 F 
ATOM     73  C   UNL A   1      36.835  29.501  29.252  1.00  0.00     0.200 A 
ATOM     74  F   UNL A   1      36.682  30.019  26.954  1.00  0.00    -0.200 F 
ATOM     75  F   UNL A   1      35.528  29.751  29.410  1.00  0.00    -0.200 F 
ENDBRANCH  51  65
BRANCH  52  76
ATOM     76  C   UNL A   1      49.182  26.574  27.600  1.00  0.00     0.064 A 
ATOM     77  C   UNL A   1      50.010  26.354  28.709  1.00  0.00     0.173 A 
ATOM     78  C   UNL A   1      49.746  26.444  26.324  1.00  0.00     0.173 A 
ATOM     79  F   UNL A   1      49.516  26.487  29.948  1.00  0.00    -0.203 F 
ATOM     80  C   UNL A   1      51.354  26.027  28.548  1.00  0.00     0.198 A 
ATOM     81  C   UNL A   1      51.087  26.100  26.164  1.00  0.00     0.198 A 
ATOM     82  F   UNL A   1      48.992  26.643  25.233  1.00  0.00    -0.203 F 
ATOM     83  F   UNL A   1      52.132  25.850  29.625  1.00  0.00    -0.200 F 
ATOM     84  C   UNL A   1      51.891  25.896  27.276  1.00  0.00     0.200 A 
ATOM     85  F   UNL A   1      51.599  25.964  24.933  1.00  0.00    -0.200 F 
ATOM     86  F   UNL A   1      53.183  25.577  27.122  1.00  0.00    -0.200 F 
ENDBRANCH  52  76
BRANCH  64  87
ATOM     87  C   UNL A   1      45.861  32.414  29.435  1.00  0.00     0.064 A 
ATOM     88  C   UNL A   1      46.230  32.732  30.748  1.00  0.00     0.173 A 
ATOM     89  C   UNL A   1      46.019  33.396  28.445  1.00  0.00     0.173 A 
ATOM     90  F   UNL A   1      46.083  31.828  31.729  1.00  0.00    -0.203 F 
ATOM     91  C   UNL A   1      46.735  33.991  31.061  1.00  0.00     0.198 A 
ATOM     92  C   UNL A   1      46.542  34.647  28.759  1.00  0.00     0.198 A 
ATOM     93  F   UNL A   1      45.683  33.134  27.173  1.00  0.00    -0.203 F 
ATOM     94  F   UNL A   1      47.059  34.285  32.328  1.00  0.00    -0.200 F 
ATOM     95  C   UNL A   1      46.897  34.944  30.065  1.00  0.00     0.200 A 
ATOM     96  F   UNL A   1      46.706  35.563  27.794  1.00  0.00    -0.200 F 
ATOM     97  F   UNL A   1      47.392  36.152  30.367  1.00  0.00    -0.200 F 
ENDBRANCH  64  87
ENDBRANCH  38  39
ENDBRANCH  30  33
ENDBRANCH  28  29
ENDBRANCH  27  28
ENDBRANCH   1  27
TORSDOF 14
ENDMDL
MODEL 2
REMARK VINA RESULT:     -12.6      1.976      2.930
REMARK SMILES Cc1cc(OC(F)(F)F)cc2c1O[C@@H](C(F)(F)F)C(C(=O)NCCCCNC(=O)c1ccc(-c3c4nc(c(-c5c(F)c(F)c(F)c(F)c5F)c5ccc([nH]5)c(-c5c(F)c(F)c(F)c(F)c5F)c5nc(c(-c6c(F)c(F)c(F)c(F)c6F)c6ccc3[nH]6)C=C5)C=C4)cc1)=C2
REMARK SMILES IDX 24 1 23 2 22 3 20 4 21 5 19 7 1 8 2 9 3 10 12 11 4 12 11 13
REMARK SMILES IDX 13 14 10 15 93 16 14 17 5 18 6 19 7 20 8 21 9 22 15 23 16 24
REMARK SMILES IDX 17 25 18 26 25 27 26 28 27 29 28 30 29 32 30 33 31 34 92 35
REMARK SMILES IDX 32 36 91 37 33 38 34 39 35 40 85 41 36 42 90 43 84 44 86 45
REMARK SMILES IDX 37 46 89 47 83 48 82 49 38 51 70 52 50 53 69 54 51 55 54 56
REMARK SMILES IDX 68 57 87 58 52 59 53 60 67 62 88 63 55 64 39 65 40 66 48 67
REMARK SMILES IDX 41 68 42 69 46 70 49 71 43 72 44 73 47 74 45 75 71 76 72 77
REMARK SMILES IDX 80 78 73 79 74 80 78 81 81 82 75 83 76 84 79 85 77 86 56 87
REMARK SMILES IDX 57 88 65 89 58 90 59 91 63 92 66 93 60 94 61 95 64 96 62 97
REMARK H PARENT 22 6 27 31 86 50 54 61
REMARK Flexibility Score: inf
ROOT
ATOM      1  C   UNL A   1      34.052  22.503  26.078  1.00  0.00     0.023 C 
ENDROOT
BRANCH   1   2
ATOM      2  C   UNL A   1      32.730  22.023  25.481  1.00  0.00     0.116 C 
BRANCH   2   3
ATOM      3  N   UNL A   1      31.620  22.292  26.373  1.00  0.00    -0.352 N 
ATOM      4  C   UNL A   1      30.833  23.356  26.655  1.00  0.00     0.251 C 
ATOM      5  O   UNL A   1      29.915  23.132  27.451  1.00  0.00    -0.270 OA
ATOM      6  H   UNL A   1      31.378  21.502  26.908  1.00  0.00     0.163 HD
BRANCH   4   7
ATOM      7  C   UNL A   1      31.000  24.727  26.089  1.00  0.00     0.067 C 
ATOM      8  C   UNL A   1      30.695  29.264  23.698  1.00  0.00     0.048 C 
ATOM      9  C   UNL A   1      31.650  28.627  24.666  1.00  0.00    -0.005 A 
ATOM     10  C   UNL A   1      32.808  29.315  25.071  1.00  0.00     0.054 A 
ATOM     11  C   UNL A   1      31.398  27.353  25.190  1.00  0.00     0.131 A 
ATOM     12  C   UNL A   1      33.696  28.740  25.985  1.00  0.00     0.130 A 
ATOM     13  C   UNL A   1      32.271  26.777  26.114  1.00  0.00     0.021 A 
ATOM     14  O   UNL A   1      30.252  26.715  24.795  1.00  0.00    -0.475 OA
ATOM     15  C   UNL A   1      33.417  27.472  26.505  1.00  0.00     0.058 A 
ATOM     16  C   UNL A   1      31.961  25.467  26.672  1.00  0.00     0.025 C 
ATOM     17  C   UNL A   1      30.280  25.261  24.881  1.00  0.00     0.314 C 
BRANCH  12  18
ATOM     18  O   UNL A   1      34.853  29.296  26.452  1.00  0.00    -0.406 OA
BRANCH  18  19
ATOM     19  C   UNL A   1      34.781  30.095  27.621  1.00  0.00     0.573 C 
ATOM     20  F   UNL A   1      33.500  30.368  27.947  1.00  0.00    -0.132 F 
ATOM     21  F   UNL A   1      35.394  29.491  28.661  1.00  0.00    -0.132 F 
ATOM     22  F   UNL A   1      35.414  31.266  27.384  1.00  0.00    -0.132 F 
ENDBRANCH  18  19
ENDBRANCH  12  18
BRANCH  17  23
ATOM     23  C   UNL A   1      30.765  24.658  23.551  1.00  0.00     0.429 C 
ATOM     24  F   UNL A   1      30.341  25.426  22.513  1.00  0.00    -0.167 F 
ATOM     25  F   UNL A   1      32.110  24.577  23.464  1.00  0.00    -0.167 F 
ATOM     26  F   UNL A   1      30.279  23.414  23.336  1.00  0.00    -0.167 F 
ENDBRANCH  17  23
ENDBRANCH   4   7
ENDBRANCH   2   3
ENDBRANCH   1   2
BRANCH   1  27
ATOM     27  C   UNL A   1      35.280  22.182  25.223  1.00  0.00     0.023 C 
BRANCH  27  28
ATOM     28  C   UNL A   1      36.618  22.473  25.892  1.00  0.00     0.116 C 
BRANCH  28  29
ATOM     29  N   UNL A   1      37.553  21.360  25.826  1.00  0.00    -0.352 N 
ATOM     30  C   UNL A   1      38.893  21.376  26.128  1.00  0.00     0.251 C 
ATOM     31  H   UNL A   1      37.184  20.496  25.531  1.00  0.00     0.163 HD
ATOM     32  O   UNL A   1      39.597  20.385  25.976  1.00  0.00    -0.269 OA
BRANCH  30  33
ATOM     33  C   UNL A   1      39.475  22.642  26.601  1.00  0.00     0.039 A 
ATOM     34  C   UNL A   1      40.434  22.603  27.615  1.00  0.00     0.014 A 
ATOM     35  C   UNL A   1      39.144  23.840  25.961  1.00  0.00     0.014 A 
ATOM     36  C   UNL A   1      41.118  23.769  27.950  1.00  0.00     0.010 A 
ATOM     37  C   UNL A   1      39.860  24.991  26.265  1.00  0.00     0.010 A 
ATOM     38  C   UNL A   1      40.855  24.960  27.255  1.00  0.00    -0.014 A 
BRANCH  38  39
ATOM     39  C   UNL A   1      41.598  26.202  27.561  1.00  0.00     0.031 A 
ATOM     40  C   UNL A   1      40.927  27.284  28.352  1.00  0.00     0.074 A 
ATOM     41  C   UNL A   1      42.841  26.377  27.075  1.00  0.00     0.049 A 
ATOM     42  N   UNL A   1      41.356  28.483  28.643  1.00  0.00    -0.248 NA
ATOM     43  C   UNL A   1      39.580  26.981  28.864  1.00  0.00     0.031 C 
ATOM     44  C   UNL A   1      43.581  25.401  26.274  1.00  0.00     0.029 A 
ATOM     45  N   UNL A   1      43.695  27.444  27.177  1.00  0.00    -0.354 N 
ATOM     46  C   UNL A   1      40.332  29.081  29.363  1.00  0.00     0.074 A 
ATOM     47  C   UNL A   1      39.243  28.130  29.429  1.00  0.00     0.031 C 
ATOM     48  C   UNL A   1      44.787  25.910  25.970  1.00  0.00     0.029 A 
ATOM     49  C   UNL A   1      44.891  27.256  26.529  1.00  0.00     0.049 A 
ATOM     50  H   UNL A   1      43.473  28.268  27.668  1.00  0.00     0.167 HD
ATOM     51  C   UNL A   1      40.312  30.308  29.933  1.00  0.00     0.037 A 
ATOM     52  C   UNL A   1      45.947  28.080  26.403  1.00  0.00     0.037 A 
ATOM     53  C   UNL A   1      41.403  31.241  29.882  1.00  0.00     0.049 A 
ATOM     54  C   UNL A   1      45.896  29.441  27.041  1.00  0.00     0.074 A 
ATOM     55  C   UNL A   1      41.489  32.501  30.446  1.00  0.00     0.029 A 
ATOM     56  N   UNL A   1      42.605  31.008  29.230  1.00  0.00    -0.354 N 
ATOM     57  N   UNL A   1      44.931  29.990  27.738  1.00  0.00    -0.248 NA
ATOM     58  C   UNL A   1      47.081  30.295  26.877  1.00  0.00     0.031 C 
ATOM     59  C   UNL A   1      42.738  33.040  30.118  1.00  0.00     0.029 A 
ATOM     60  C   UNL A   1      43.439  32.103  29.375  1.00  0.00     0.049 A 
ATOM     61  H   UNL A   1      42.830  30.186  28.737  1.00  0.00     0.167 HD
ATOM     62  C   UNL A   1      45.396  31.243  28.112  1.00  0.00     0.074 A 
ATOM     63  C   UNL A   1      46.734  31.370  27.572  1.00  0.00     0.031 C 
ATOM     64  C   UNL A   1      44.771  32.201  28.837  1.00  0.00     0.037 A 
BRANCH  51  65
ATOM     65  C   UNL A   1      39.068  30.698  30.670  1.00  0.00     0.064 A 
ATOM     66  C   UNL A   1      38.932  30.460  32.046  1.00  0.00     0.173 A 
ATOM     67  C   UNL A   1      38.009  31.329  30.001  1.00  0.00     0.173 A 
ATOM     68  F   UNL A   1      39.913  29.842  32.723  1.00  0.00    -0.203 F 
ATOM     69  C   UNL A   1      37.772  30.822  32.723  1.00  0.00     0.198 A 
ATOM     70  C   UNL A   1      36.858  31.709  30.685  1.00  0.00     0.198 A 
ATOM     71  F   UNL A   1      38.091  31.574  28.685  1.00  0.00    -0.203 F 
ATOM     72  F   UNL A   1      37.647  30.547  34.028  1.00  0.00    -0.200 F 
ATOM     73  C   UNL A   1      36.738  31.450  32.044  1.00  0.00     0.200 A 
ATOM     74  F   UNL A   1      35.862  32.320  30.031  1.00  0.00    -0.200 F 
ATOM     75  F   UNL A   1      35.621  31.799  32.696  1.00  0.00    -0.200 F 
ENDBRANCH  51  65
BRANCH  52  76
ATOM     76  C   UNL A   1      47.155  27.626  25.671  1.00  0.00     0.064 A 
ATOM     77  C   UNL A   1      48.209  27.003  26.352  1.00  0.00     0.173 A 
ATOM     78  C   UNL A   1      47.278  27.795  24.285  1.00  0.00     0.173 A 
ATOM     79  F   UNL A   1      48.141  26.840  27.682  1.00  0.00    -0.203 F 
ATOM     80  C   UNL A   1      49.349  26.575  25.676  1.00  0.00     0.198 A 
ATOM     81  C   UNL A   1      48.411  27.350  23.606  1.00  0.00     0.198 A 
ATOM     82  F   UNL A   1      46.294  28.384  23.590  1.00  0.00    -0.203 F 
ATOM     83  F   UNL A   1      50.355  26.008  26.355  1.00  0.00    -0.200 F 
ATOM     84  C   UNL A   1      49.447  26.744  24.303  1.00  0.00     0.200 A 
ATOM     85  F   UNL A   1      48.498  27.506  22.278  1.00  0.00    -0.200 F 
ATOM     86  F   UNL A   1      50.541  26.327  23.652  1.00  0.00    -0.200 F 
ENDBRANCH  52  76
BRANCH  64  87
ATOM     87  C   UNL A   1      45.533  33.460  29.112  1.00  0.00     0.064 A 
ATOM     88  C   UNL A   1      45.443  34.568  28.259  1.00  0.00     0.173 A 
ATOM     89  C   UNL A   1      46.307  33.581  30.276  1.00  0.00     0.173 A 
ATOM     90  F   UNL A   1      44.725  34.492  27.128  1.00  0.00    -0.203 F 
ATOM     91  C   UNL A   1      46.109  35.753  28.558  1.00  0.00     0.198 A 
ATOM     92  C   UNL A   1      46.956  34.774  30.581  1.00  0.00     0.198 A 
ATOM     93  F   UNL A   1      46.417  32.547  31.124  1.00  0.00    -0.203 F 
ATOM     94  F   UNL A   1      46.032  36.793  27.717  1.00  0.00    -0.200 F 
ATOM     95  C   UNL A   1      46.858  35.857  29.722  1.00  0.00     0.200 A 
ATOM     96  F   UNL A   1      47.671  34.875  31.710  1.00  0.00    -0.200 F 
ATOM     97  F   UNL A   1      47.490  37.002  30.012  1.00  0.00    -0.200 F 
ENDBRANCH  64  87
ENDBRANCH  38  39
ENDBRANCH  30  33
ENDBRANCH  28  29
ENDBRANCH  27  28
ENDBRANCH   1  27
TORSDOF 14
ENDMDL
MODEL 3
REMARK VINA RESULT:     -12.6      2.641      8.144
REMARK SMILES Cc1cc(OC(F)(F)F)cc2c1O[C@@H](C(F)(F)F)C(C(=O)NCCCCNC(=O)c1ccc(-c3c4nc(c(-c5c(F)c(F)c(F)c(F)c5F)c5ccc([nH]5)c(-c5c(F)c(F)c(F)c(F)c5F)c5nc(c(-c6c(F)c(F)c(F)c(F)c6F)c6ccc3[nH]6)C=C5)C=C4)cc1)=C2
REMARK SMILES IDX 24 1 23 2 22 3 20 4 21 5 19 7 1 8 2 9 3 10 12 11 4 12 11 13
REMARK SMILES IDX 13 14 10 15 93 16 14 17 5 18 6 19 7 20 8 21 9 22 15 23 16 24
REMARK SMILES IDX 17 25 18 26 25 27 26 28 27 29 28 30 29 32 30 33 31 34 92 35
REMARK SMILES IDX 32 36 91 37 33 38 34 39 35 40 85 41 36 42 90 43 84 44 86 45
REMARK SMILES IDX 37 46 89 47 83 48 82 49 38 51 70 52 50 53 69 54 51 55 54 56
REMARK SMILES IDX 68 57 87 58 52 59 53 60 67 62 88 63 55 64 39 65 40 66 48 67
REMARK SMILES IDX 41 68 42 69 46 70 49 71 43 72 44 73 47 74 45 75 71 76 72 77
REMARK SMILES IDX 80 78 73 79 74 80 78 81 81 82 75 83 76 84 79 85 77 86 56 87
REMARK SMILES IDX 57 88 65 89 58 90 59 91 63 92 66 93 60 94 61 95 64 96 62 97
REMARK H PARENT 22 6 27 31 86 50 54 61
REMARK Flexibility Score: inf
ROOT
ATOM      1  C   UNL A   1      34.286  22.603  26.257  1.00  0.00     0.023 C 
ENDROOT
BRANCH   1   2
ATOM      2  C   UNL A   1      32.996  22.128  25.590  1.00  0.00     0.116 C 
BRANCH   2   3
ATOM      3  N   UNL A   1      31.849  22.337  26.452  1.00  0.00    -0.352 N 
ATOM      4  C   UNL A   1      30.988  23.351  26.697  1.00  0.00     0.251 C 
ATOM      5  O   UNL A   1      30.068  23.080  27.475  1.00  0.00    -0.270 OA
ATOM      6  H   UNL A   1      31.647  21.542  26.995  1.00  0.00     0.163 HD
BRANCH   4   7
ATOM      7  C   UNL A   1      31.079  24.721  26.111  1.00  0.00     0.067 C 
ATOM      8  C   UNL A   1      30.541  29.186  23.625  1.00  0.00     0.048 C 
ATOM      9  C   UNL A   1      31.504  28.633  24.637  1.00  0.00    -0.005 A 
ATOM     10  C   UNL A   1      32.596  29.407  25.067  1.00  0.00     0.054 A 
ATOM     11  C   UNL A   1      31.323  27.354  25.176  1.00  0.00     0.131 A 
ATOM     12  C   UNL A   1      33.490  28.912  26.021  1.00  0.00     0.130 A 
ATOM     13  C   UNL A   1      32.202  26.856  26.140  1.00  0.00     0.021 A 
ATOM     14  O   UNL A   1      30.239  26.630  24.755  1.00  0.00    -0.475 OA
ATOM     15  C   UNL A   1      33.282  27.636  26.555  1.00  0.00     0.058 A 
ATOM     16  C   UNL A   1      31.965  25.537  26.712  1.00  0.00     0.025 C 
ATOM     17  C   UNL A   1      30.365  25.183  24.869  1.00  0.00     0.314 C 
BRANCH  12  18
ATOM     18  O   UNL A   1      34.589  29.555  26.516  1.00  0.00    -0.406 OA
BRANCH  18  19
ATOM     19  C   UNL A   1      34.391  30.515  27.540  1.00  0.00     0.573 C 
ATOM     20  F   UNL A   1      34.999  31.682  27.240  1.00  0.00    -0.132 F 
ATOM     21  F   UNL A   1      33.076  30.733  27.756  1.00  0.00    -0.132 F 
ATOM     22  F   UNL A   1      34.931  30.042  28.686  1.00  0.00    -0.132 F 
ENDBRANCH  18  19
ENDBRANCH  12  18
BRANCH  17  23
ATOM     23  C   UNL A   1      30.937  24.594  23.568  1.00  0.00     0.429 C 
ATOM     24  F   UNL A   1      32.292  24.525  23.647  1.00  0.00    -0.167 F 
ATOM     25  F   UNL A   1      30.488  23.347  23.307  1.00  0.00    -0.167 F 
ATOM     26  F   UNL A   1      30.650  25.351  22.485  1.00  0.00    -0.167 F 
ENDBRANCH  17  23
ENDBRANCH   4   7
ENDBRANCH   2   3
ENDBRANCH   1   2
BRANCH   1  27
ATOM     27  C   UNL A   1      35.484  22.699  25.308  1.00  0.00     0.023 C 
BRANCH  27  28
ATOM     28  C   UNL A   1      36.731  23.329  25.917  1.00  0.00     0.116 C 
BRANCH  28  29
ATOM     29  N   UNL A   1      37.875  22.430  25.955  1.00  0.00    -0.352 N 
ATOM     30  C   UNL A   1      39.153  22.722  26.361  1.00  0.00     0.251 C 
ATOM     31  H   UNL A   1      37.714  21.505  25.656  1.00  0.00     0.163 HD
ATOM     32  O   UNL A   1      40.054  21.895  26.293  1.00  0.00    -0.269 OA
BRANCH  30  33
ATOM     33  C   UNL A   1      39.426  24.086  26.844  1.00  0.00     0.039 A 
ATOM     34  C   UNL A   1      39.213  24.376  28.193  1.00  0.00     0.014 A 
ATOM     35  C   UNL A   1      39.990  25.028  25.980  1.00  0.00     0.014 A 
ATOM     36  C   UNL A   1      39.630  25.605  28.699  1.00  0.00     0.010 A 
ATOM     37  C   UNL A   1      40.447  26.234  26.496  1.00  0.00     0.010 A 
ATOM     38  C   UNL A   1      40.276  26.526  27.859  1.00  0.00    -0.014 A 
BRANCH  38  39
ATOM     39  C   UNL A   1      40.767  27.820  28.380  1.00  0.00     0.031 A 
ATOM     40  C   UNL A   1      42.236  28.012  28.604  1.00  0.00     0.074 A 
ATOM     41  C   UNL A   1      39.889  28.787  28.708  1.00  0.00     0.049 A 
ATOM     42  N   UNL A   1      42.865  29.022  29.144  1.00  0.00    -0.248 NA
ATOM     43  C   UNL A   1      43.113  26.907  28.183  1.00  0.00     0.031 C 
ATOM     44  C   UNL A   1      38.437  28.699  28.555  1.00  0.00     0.029 A 
ATOM     45  N   UNL A   1      40.094  30.029  29.248  1.00  0.00    -0.354 N 
ATOM     46  C   UNL A   1      44.207  28.672  29.137  1.00  0.00     0.074 A 
ATOM     47  C   UNL A   1      44.300  27.340  28.578  1.00  0.00     0.031 C 
ATOM     48  C   UNL A   1      37.882  29.847  28.978  1.00  0.00     0.029 A 
ATOM     49  C   UNL A   1      38.937  30.737  29.457  1.00  0.00     0.049 A 
ATOM     50  H   UNL A   1      40.988  30.382  29.467  1.00  0.00     0.167 HD
ATOM     51  C   UNL A   1      45.268  29.407  29.544  1.00  0.00     0.037 A 
ATOM     52  C   UNL A   1      38.753  31.963  29.979  1.00  0.00     0.037 A 
ATOM     53  C   UNL A   1      45.174  30.736  30.079  1.00  0.00     0.049 A 
ATOM     54  C   UNL A   1      39.949  32.756  30.429  1.00  0.00     0.074 A 
ATOM     55  C   UNL A   1      46.192  31.572  30.501  1.00  0.00     0.029 A 
ATOM     56  N   UNL A   1      43.984  31.427  30.260  1.00  0.00    -0.354 N 
ATOM     57  N   UNL A   1      41.217  32.425  30.400  1.00  0.00    -0.248 NA
ATOM     58  C   UNL A   1      39.689  34.092  30.984  1.00  0.00     0.031 C 
ATOM     59  C   UNL A   1      45.616  32.764  30.956  1.00  0.00     0.029 A 
ATOM     60  C   UNL A   1      44.243  32.678  30.791  1.00  0.00     0.049 A 
ATOM     61  H   UNL A   1      43.090  31.077  30.045  1.00  0.00     0.167 HD
ATOM     62  C   UNL A   1      41.908  33.515  30.911  1.00  0.00     0.074 A 
ATOM     63  C   UNL A   1      40.918  34.521  31.236  1.00  0.00     0.031 C 
ATOM     64  C   UNL A   1      43.241  33.667  31.096  1.00  0.00     0.037 A 
BRANCH  51  65
ATOM     65  C   UNL A   1      46.622  28.781  29.411  1.00  0.00     0.064 A 
ATOM     66  C   UNL A   1      47.175  28.015  30.447  1.00  0.00     0.173 A 
ATOM     67  C   UNL A   1      47.368  28.935  28.233  1.00  0.00     0.173 A 
ATOM     68  F   UNL A   1      46.506  27.857  31.599  1.00  0.00    -0.203 F 
ATOM     69  C   UNL A   1      48.435  27.441  30.318  1.00  0.00     0.198 A 
ATOM     70  C   UNL A   1      48.619  28.341  28.098  1.00  0.00     0.198 A 
ATOM     71  F   UNL A   1      46.883  29.661  27.215  1.00  0.00    -0.203 F 
ATOM     72  F   UNL A   1      48.962  26.747  31.337  1.00  0.00    -0.200 F 
ATOM     73  C   UNL A   1      49.154  27.599  29.142  1.00  0.00     0.200 A 
ATOM     74  F   UNL A   1      49.312  28.490  26.961  1.00  0.00    -0.200 F 
ATOM     75  F   UNL A   1      50.368  27.045  29.018  1.00  0.00    -0.200 F 
ENDBRANCH  51  65
BRANCH  52  76
ATOM     76  C   UNL A   1      37.385  32.531  30.070  1.00  0.00     0.064 A 
ATOM     77  C   UNL A   1      36.936  33.462  29.125  1.00  0.00     0.173 A 
ATOM     78  C   UNL A   1      36.501  32.150  31.089  1.00  0.00     0.173 A 
ATOM     79  F   UNL A   1      37.756  33.869  28.146  1.00  0.00    -0.203 F 
ATOM     80  C   UNL A   1      35.654  34.003  29.202  1.00  0.00     0.198 A 
ATOM     81  C   UNL A   1      35.212  32.678  31.154  1.00  0.00     0.198 A 
ATOM     82  F   UNL A   1      36.885  31.259  32.014  1.00  0.00    -0.203 F 
ATOM     83  F   UNL A   1      35.258  34.914  28.303  1.00  0.00    -0.200 F 
ATOM     84  C   UNL A   1      34.792  33.606  30.213  1.00  0.00     0.200 A 
ATOM     85  F   UNL A   1      34.379  32.285  32.127  1.00  0.00    -0.200 F 
ATOM     86  F   UNL A   1      33.557  34.122  30.284  1.00  0.00    -0.200 F 
ENDBRANCH  52  76
BRANCH  64  87
ATOM     87  C   UNL A   1      43.712  34.976  31.649  1.00  0.00     0.064 A 
ATOM     88  C   UNL A   1      43.937  36.080  30.816  1.00  0.00     0.173 A 
ATOM     89  C   UNL A   1      43.875  35.144  33.032  1.00  0.00     0.173 A 
ATOM     90  F   UNL A   1      43.806  35.961  29.486  1.00  0.00    -0.203 F 
ATOM     91  C   UNL A   1      44.318  37.308  31.349  1.00  0.00     0.198 A 
ATOM     92  C   UNL A   1      44.237  36.379  33.563  1.00  0.00     0.198 A 
ATOM     93  F   UNL A   1      43.666  34.115  33.867  1.00  0.00    -0.203 F 
ATOM     94  F   UNL A   1      44.553  38.346  30.535  1.00  0.00    -0.200 F 
ATOM     95  C   UNL A   1      44.460  37.458  32.722  1.00  0.00     0.200 A 
ATOM     96  F   UNL A   1      44.366  36.524  34.889  1.00  0.00    -0.200 F 
ATOM     97  F   UNL A   1      44.817  38.643  33.233  1.00  0.00    -0.200 F 
ENDBRANCH  64  87
ENDBRANCH  38  39
ENDBRANCH  30  33
ENDBRANCH  28  29
ENDBRANCH  27  28
ENDBRANCH   1  27
TORSDOF 14
ENDMDL
