MODEL 1
REMARK VINA RESULT:     -13.3      0.000      0.000
REMARK SMILES O=C(NCCCCNC(=O)c1ccccc1NC(=S)NC(=O)c1ccc2ccccc2c1)c1ccc(-c2c3nc(c(-c4c(F)c(F)c(F)c(F)c4F)c4ccc([nH]4)c(-c4c(F)c(F)c(F)c(F)c4F)c4nc(c(-c5c(F)c(F)c(F)c(F)c5F)c5ccc2[nH]5)C=C4)C=C3)cc1
REMARK SMILES IDX 6 1 5 2 4 3 3 4 1 5 2 6 33 8 34 9 95 10 35 11 94 12 36 13
REMARK SMILES IDX 37 14 38 15 88 16 39 17 93 18 87 19 89 20 40 21 92 22 86 23
REMARK SMILES IDX 85 24 41 26 73 27 53 28 72 29 54 30 57 31 71 32 90 33 55 34
REMARK SMILES IDX 56 35 70 37 91 38 58 39 42 40 43 41 51 42 44 43 45 44 49 45
REMARK SMILES IDX 52 46 46 47 47 48 50 49 48 50 74 51 75 52 83 53 76 54 77 55
REMARK SMILES IDX 81 56 84 57 78 58 79 59 82 60 80 61 59 62 60 63 68 64 61 65
REMARK SMILES IDX 62 66 66 67 69 68 63 69 64 70 67 71 65 72 7 73 8 74 9 75
REMARK SMILES IDX 10 77 11 78 12 79 16 80 13 81 15 82 14 83 17 84 18 86 19 87
REMARK SMILES IDX 20 88 21 89 22 91 23 92 24 93 32 94 25 95 31 96 26 97 30 98
REMARK SMILES IDX 27 99 29 100 28 101
REMARK H PARENT 3 7 89 25 57 36 8 76 17 85 20 90
REMARK Flexibility Score: inf
ROOT
ATOM      1  C   UNL A   1      31.789  30.800  26.219  1.00  0.00     0.023 C 
ENDROOT
BRANCH   1   2
ATOM      2  C   UNL A   1      31.526  32.264  26.552  1.00  0.00     0.023 C 
BRANCH   2   3
ATOM      3  C   UNL A   1      32.590  32.894  27.438  1.00  0.00     0.116 C 
BRANCH   3   4
ATOM      4  N   UNL A   1      32.362  34.309  27.675  1.00  0.00    -0.352 N 
ATOM      5  O   UNL A   1      32.582  36.267  28.792  1.00  0.00    -0.269 OA
ATOM      6  C   UNL A   1      32.980  35.126  28.593  1.00  0.00     0.251 C 
ATOM      7  H   UNL A   1      31.680  34.736  27.108  1.00  0.00     0.163 HD
BRANCH   6   8
ATOM      8  C   UNL A   1      34.109  34.577  29.370  1.00  0.00     0.039 A 
ATOM      9  C   UNL A   1      35.404  34.641  28.852  1.00  0.00     0.014 A 
ATOM     10  C   UNL A   1      33.858  33.914  30.572  1.00  0.00     0.014 A 
ATOM     11  C   UNL A   1      36.402  33.867  29.421  1.00  0.00     0.010 A 
ATOM     12  C   UNL A   1      34.903  33.251  31.220  1.00  0.00     0.010 A 
ATOM     13  C   UNL A   1      36.175  33.184  30.628  1.00  0.00    -0.014 A 
BRANCH  13  14
ATOM     14  C   UNL A   1      37.308  32.476  31.275  1.00  0.00     0.031 A 
ATOM     15  C   UNL A   1      38.051  31.371  30.579  1.00  0.00     0.074 A 
ATOM     16  C   UNL A   1      37.683  32.873  32.507  1.00  0.00     0.049 A 
ATOM     17  N   UNL A   1      39.076  30.673  31.004  1.00  0.00    -0.248 NA
ATOM     18  C   UNL A   1      37.582  30.988  29.240  1.00  0.00     0.031 C 
ATOM     19  C   UNL A   1      37.035  33.934  33.282  1.00  0.00     0.029 A 
ATOM     20  N   UNL A   1      38.708  32.456  33.315  1.00  0.00    -0.354 N 
ATOM     21  C   UNL A   1      39.360  29.758  29.998  1.00  0.00     0.074 A 
ATOM     22  C   UNL A   1      38.377  29.966  28.956  1.00  0.00     0.031 C 
ATOM     23  C   UNL A   1      37.713  34.129  34.419  1.00  0.00     0.029 A 
ATOM     24  C   UNL A   1      38.787  33.148  34.498  1.00  0.00     0.049 A 
ATOM     25  H   UNL A   1      39.327  31.731  33.070  1.00  0.00     0.167 HD
ATOM     26  C   UNL A   1      40.353  28.836  29.950  1.00  0.00     0.037 A 
ATOM     27  C   UNL A   1      39.613  32.995  35.546  1.00  0.00     0.037 A 
ATOM     28  C   UNL A   1      41.325  28.638  30.999  1.00  0.00     0.049 A 
ATOM     29  C   UNL A   1      40.662  31.923  35.489  1.00  0.00     0.074 A 
ATOM     30  C   UNL A   1      42.392  27.757  31.033  1.00  0.00     0.029 A 
ATOM     31  N   UNL A   1      41.338  29.321  32.208  1.00  0.00    -0.354 N 
ATOM     32  N   UNL A   1      40.950  31.095  34.515  1.00  0.00    -0.248 NA
ATOM     33  C   UNL A   1      41.501  31.765  36.682  1.00  0.00     0.031 C 
ATOM     34  C   UNL A   1      42.997  27.845  32.291  1.00  0.00     0.029 A 
ATOM     35  C   UNL A   1      42.368  28.849  33.010  1.00  0.00     0.049 A 
ATOM     36  H   UNL A   1      40.708  30.034  32.461  1.00  0.00     0.167 HD
ATOM     37  C   UNL A   1      42.026  30.342  34.961  1.00  0.00     0.074 A 
ATOM     38  C   UNL A   1      42.350  30.827  36.287  1.00  0.00     0.031 C 
ATOM     39  C   UNL A   1      42.686  29.340  34.329  1.00  0.00     0.037 A 
BRANCH  26  40
ATOM     40  C   UNL A   1      40.419  27.939  28.743  1.00  0.00     0.064 A 
ATOM     41  C   UNL A   1      39.757  26.702  28.693  1.00  0.00     0.173 A 
ATOM     42  C   UNL A   1      41.134  28.340  27.602  1.00  0.00     0.173 A 
ATOM     43  F   UNL A   1      39.063  26.264  29.754  1.00  0.00    -0.203 F 
ATOM     44  C   UNL A   1      39.846  25.885  27.568  1.00  0.00     0.198 A 
ATOM     45  C   UNL A   1      41.186  27.538  26.464  1.00  0.00     0.198 A 
ATOM     46  F   UNL A   1      41.777  29.517  27.584  1.00  0.00    -0.203 F 
ATOM     47  F   UNL A   1      39.258  24.679  27.570  1.00  0.00    -0.200 F 
ATOM     48  C   UNL A   1      40.553  26.306  26.452  1.00  0.00     0.200 A 
ATOM     49  F   UNL A   1      41.853  27.958  25.381  1.00  0.00    -0.200 F 
ATOM     50  F   UNL A   1      40.633  25.519  25.370  1.00  0.00    -0.200 F 
ENDBRANCH  26  40
BRANCH  27  51
ATOM     51  C   UNL A   1      39.476  33.876  36.735  1.00  0.00     0.064 A 
ATOM     52  C   UNL A   1      40.099  35.131  36.776  1.00  0.00     0.173 A 
ATOM     53  C   UNL A   1      38.728  33.483  37.855  1.00  0.00     0.173 A 
ATOM     54  F   UNL A   1      40.837  35.547  35.737  1.00  0.00    -0.203 F 
ATOM     55  C   UNL A   1      40.004  35.944  37.903  1.00  0.00     0.198 A 
ATOM     56  C   UNL A   1      38.600  34.314  38.964  1.00  0.00     0.198 A 
ATOM     57  F   UNL A   1      38.103  32.296  37.863  1.00  0.00    -0.203 F 
ATOM     58  F   UNL A   1      40.660  37.112  37.939  1.00  0.00    -0.200 F 
ATOM     59  C   UNL A   1      39.249  35.538  38.993  1.00  0.00     0.200 A 
ATOM     60  F   UNL A   1      37.849  33.927  40.004  1.00  0.00    -0.200 F 
ATOM     61  F   UNL A   1      39.155  36.322  40.075  1.00  0.00    -0.200 F 
ENDBRANCH  27  51
BRANCH  39  62
ATOM     62  C   UNL A   1      43.865  28.739  35.043  1.00  0.00     0.064 A 
ATOM     63  C   UNL A   1      45.163  29.256  34.906  1.00  0.00     0.173 A 
ATOM     64  C   UNL A   1      43.690  27.630  35.887  1.00  0.00     0.173 A 
ATOM     65  F   UNL A   1      45.392  30.304  34.101  1.00  0.00    -0.203 F 
ATOM     66  C   UNL A   1      46.244  28.659  35.552  1.00  0.00     0.198 A 
ATOM     67  C   UNL A   1      44.765  27.065  36.565  1.00  0.00     0.198 A 
ATOM     68  F   UNL A   1      42.471  27.098  36.060  1.00  0.00    -0.203 F 
ATOM     69  F   UNL A   1      47.484  29.126  35.347  1.00  0.00    -0.200 F 
ATOM     70  C   UNL A   1      46.043  27.571  36.386  1.00  0.00     0.200 A 
ATOM     71  F   UNL A   1      44.564  26.026  37.387  1.00  0.00    -0.200 F 
ATOM     72  F   UNL A   1      47.083  27.002  37.012  1.00  0.00    -0.200 F 
ENDBRANCH  39  62
ENDBRANCH  13  14
ENDBRANCH   6   8
ENDBRANCH   3   4
ENDBRANCH   2   3
ENDBRANCH   1   2
BRANCH   1  73
ATOM     73  C   UNL A   1      32.772  30.134  27.173  1.00  0.00     0.116 C 
BRANCH  73  74
ATOM     74  N   UNL A   1      32.276  28.854  27.665  1.00  0.00    -0.352 N 
ATOM     75  C   UNL A   1      32.343  27.632  27.100  1.00  0.00     0.253 C 
ATOM     76  H   UNL A   1      31.825  28.886  28.539  1.00  0.00     0.163 HD
ATOM     77  O   UNL A   1      31.812  26.639  27.635  1.00  0.00    -0.269 OA
BRANCH  75  78
ATOM     78  C   UNL A   1      32.662  27.539  25.712  1.00  0.00     0.063 A 
ATOM     79  C   UNL A   1      33.893  26.908  25.710  1.00  0.00     0.016 A 
ATOM     80  C   UNL A   1      31.819  27.571  24.559  1.00  0.00     0.053 A 
ATOM     81  C   UNL A   1      34.127  26.248  24.598  1.00  0.00     0.001 A 
ATOM     82  C   UNL A   1      32.350  27.379  23.338  1.00  0.00     0.027 A 
ATOM     83  C   UNL A   1      33.410  26.566  23.477  1.00  0.00     0.002 A 
BRANCH  80  84
ATOM     84  N   UNL A   1      30.440  27.498  24.600  1.00  0.00    -0.332 N 
ATOM     85  H   UNL A   1      29.968  28.354  24.485  1.00  0.00     0.169 HD
BRANCH  84  86
ATOM     86  C   UNL A   1      29.636  26.408  24.779  1.00  0.00     0.177 C 
ATOM     87  S   UNL A   1      28.183  26.463  23.927  1.00  0.00    -0.040 S 
BRANCH  86  88
ATOM     88  N   UNL A   1      29.925  25.253  25.645  1.00  0.00    -0.299 N 
ATOM     89  C   UNL A   1      30.529  23.929  26.254  1.00  0.00     0.257 C 
ATOM     90  H   UNL A   1      29.271  25.446  26.354  1.00  0.00     0.172 HD
ATOM     91  O   UNL A   1      29.829  23.503  27.190  1.00  0.00    -0.269 OA
BRANCH  89  92
ATOM     92  C   UNL A   1      31.835  23.035  25.848  1.00  0.00     0.040 A 
ATOM     93  C   UNL A   1      31.870  22.233  24.658  1.00  0.00     0.014 A 
ATOM     94  C   UNL A   1      33.142  23.234  26.430  1.00  0.00     0.022 A 
ATOM     95  C   UNL A   1      33.188  21.974  23.977  1.00  0.00     0.009 A 
ATOM     96  C   UNL A   1      34.488  22.930  25.794  1.00  0.00    -0.018 A 
ATOM     97  C   UNL A   1      34.514  22.361  24.491  1.00  0.00    -0.018 A 
ATOM     98  C   UNL A   1      35.763  23.483  26.257  1.00  0.00     0.009 A 
ATOM     99  C   UNL A   1      35.774  22.554  23.693  1.00  0.00     0.009 A 
ATOM    100  C   UNL A   1      36.964  23.595  25.490  1.00  0.00     0.001 A 
ATOM    101  C   UNL A   1      36.964  23.163  24.180  1.00  0.00     0.001 A 
ENDBRANCH  89  92
ENDBRANCH  86  88
ENDBRANCH  84  86
ENDBRANCH  80  84
ENDBRANCH  75  78
ENDBRANCH  73  74
ENDBRANCH   1  73
TORSDOF 15
ENDMDL
MODEL 2
REMARK VINA RESULT:     -13.0      0.440      7.263
REMARK SMILES O=C(NCCCCNC(=O)c1ccccc1NC(=S)NC(=O)c1ccc2ccccc2c1)c1ccc(-c2c3nc(c(-c4c(F)c(F)c(F)c(F)c4F)c4ccc([nH]4)c(-c4c(F)c(F)c(F)c(F)c4F)c4nc(c(-c5c(F)c(F)c(F)c(F)c5F)c5ccc2[nH]5)C=C4)C=C3)cc1
REMARK SMILES IDX 6 1 5 2 4 3 3 4 1 5 2 6 33 8 34 9 95 10 35 11 94 12 36 13
REMARK SMILES IDX 37 14 38 15 88 16 39 17 93 18 87 19 89 20 40 21 92 22 86 23
REMARK SMILES IDX 85 24 41 26 73 27 53 28 72 29 54 30 57 31 71 32 90 33 55 34
REMARK SMILES IDX 56 35 70 37 91 38 58 39 42 40 43 41 51 42 44 43 45 44 49 45
REMARK SMILES IDX 52 46 46 47 47 48 50 49 48 50 74 51 75 52 83 53 76 54 77 55
REMARK SMILES IDX 81 56 84 57 78 58 79 59 82 60 80 61 59 62 60 63 68 64 61 65
REMARK SMILES IDX 62 66 66 67 69 68 63 69 64 70 67 71 65 72 7 73 8 74 9 75
REMARK SMILES IDX 10 77 11 78 12 79 16 80 13 81 15 82 14 83 17 84 18 86 19 87
REMARK SMILES IDX 20 88 21 89 22 91 23 92 24 93 32 94 25 95 31 96 26 97 30 98
REMARK SMILES IDX 27 99 29 100 28 101
REMARK H PARENT 3 7 89 25 57 36 8 76 17 85 20 90
REMARK Flexibility Score: inf
ROOT
ATOM      1  C   UNL A   1      31.407  31.212  25.981  1.00  0.00     0.023 C 
ENDROOT
BRANCH   1   2
ATOM      2  C   UNL A   1      31.470  32.070  27.240  1.00  0.00     0.023 C 
BRANCH   2   3
ATOM      3  C   UNL A   1      32.717  32.937  27.330  1.00  0.00     0.116 C 
BRANCH   3   4
ATOM      4  N   UNL A   1      32.419  34.323  27.645  1.00  0.00    -0.352 N 
ATOM      5  O   UNL A   1      32.534  36.222  28.874  1.00  0.00    -0.269 OA
ATOM      6  C   UNL A   1      32.988  35.114  28.615  1.00  0.00     0.251 C 
ATOM      7  H   UNL A   1      31.721  34.750  27.096  1.00  0.00     0.163 HD
BRANCH   6   8
ATOM      8  C   UNL A   1      34.136  34.577  29.373  1.00  0.00     0.039 A 
ATOM      9  C   UNL A   1      35.429  34.710  28.862  1.00  0.00     0.014 A 
ATOM     10  C   UNL A   1      33.908  33.856  30.546  1.00  0.00     0.014 A 
ATOM     11  C   UNL A   1      36.453  33.951  29.402  1.00  0.00     0.010 A 
ATOM     12  C   UNL A   1      34.975  33.205  31.169  1.00  0.00     0.010 A 
ATOM     13  C   UNL A   1      36.249  33.211  30.579  1.00  0.00    -0.014 A 
BRANCH  13  14
ATOM     14  C   UNL A   1      37.408  32.519  31.200  1.00  0.00     0.031 A 
ATOM     15  C   UNL A   1      37.890  32.869  32.580  1.00  0.00     0.074 A 
ATOM     16  C   UNL A   1      38.006  31.534  30.503  1.00  0.00     0.049 A 
ATOM     17  N   UNL A   1      38.873  32.340  33.267  1.00  0.00    -0.248 NA
ATOM     18  C   UNL A   1      37.192  33.958  33.278  1.00  0.00     0.031 C 
ATOM     19  C   UNL A   1      37.626  31.109  29.154  1.00  0.00     0.029 A 
ATOM     20  N   UNL A   1      39.039  30.697  30.833  1.00  0.00    -0.354 N 
ATOM     21  C   UNL A   1      38.925  33.042  34.464  1.00  0.00     0.074 A 
ATOM     22  C   UNL A   1      37.897  34.059  34.396  1.00  0.00     0.031 C 
ATOM     23  C   UNL A   1      38.367  30.052  28.798  1.00  0.00     0.029 A 
ATOM     24  C   UNL A   1      39.335  29.782  29.852  1.00  0.00     0.049 A 
ATOM     25  H   UNL A   1      39.521  30.745  31.690  1.00  0.00     0.167 HD
ATOM     26  C   UNL A   1      39.752  32.849  35.522  1.00  0.00     0.037 A 
ATOM     27  C   UNL A   1      40.297  28.847  29.791  1.00  0.00     0.037 A 
ATOM     28  C   UNL A   1      40.774  31.832  35.575  1.00  0.00     0.049 A 
ATOM     29  C   UNL A   1      41.237  28.700  30.953  1.00  0.00     0.074 A 
ATOM     30  C   UNL A   1      41.639  31.531  36.612  1.00  0.00     0.029 A 
ATOM     31  N   UNL A   1      41.082  30.961  34.538  1.00  0.00    -0.354 N 
ATOM     32  N   UNL A   1      41.247  29.339  32.097  1.00  0.00    -0.248 NA
ATOM     33  C   UNL A   1      42.301  27.700  30.810  1.00  0.00     0.031 C 
ATOM     34  C   UNL A   1      42.523  30.538  36.175  1.00  0.00     0.029 A 
ATOM     35  C   UNL A   1      42.151  30.153  34.897  1.00  0.00     0.049 A 
ATOM     36  H   UNL A   1      40.612  30.923  33.674  1.00  0.00     0.167 HD
ATOM     37  C   UNL A   1      42.294  28.794  32.827  1.00  0.00     0.074 A 
ATOM     38  C   UNL A   1      42.882  27.760  32.000  1.00  0.00     0.031 C 
ATOM     39  C   UNL A   1      42.729  29.122  34.069  1.00  0.00     0.037 A 
BRANCH  26  40
ATOM     40  C   UNL A   1      39.616  33.781  36.697  1.00  0.00     0.064 A 
ATOM     41  C   UNL A   1      40.242  35.037  36.733  1.00  0.00     0.173 A 
ATOM     42  C   UNL A   1      38.817  33.422  37.796  1.00  0.00     0.173 A 
ATOM     43  F   UNL A   1      41.020  35.432  35.714  1.00  0.00    -0.203 F 
ATOM     44  C   UNL A   1      40.110  35.874  37.838  1.00  0.00     0.198 A 
ATOM     45  C   UNL A   1      38.656  34.280  38.881  1.00  0.00     0.198 A 
ATOM     46  F   UNL A   1      38.183  32.240  37.815  1.00  0.00    -0.203 F 
ATOM     47  F   UNL A   1      40.772  37.040  37.875  1.00  0.00    -0.200 F 
ATOM     48  C   UNL A   1      39.313  35.499  38.908  1.00  0.00     0.200 A 
ATOM     49  F   UNL A   1      37.867  33.923  39.904  1.00  0.00    -0.200 F 
ATOM     50  F   UNL A   1      39.185  36.310  39.968  1.00  0.00    -0.200 F 
ENDBRANCH  26  40
BRANCH  27  51
ATOM     51  C   UNL A   1      40.419  27.983  28.588  1.00  0.00     0.064 A 
ATOM     52  C   UNL A   1      39.795  26.729  28.537  1.00  0.00     0.173 A 
ATOM     53  C   UNL A   1      41.163  28.388  27.469  1.00  0.00     0.173 A 
ATOM     54  F   UNL A   1      39.085  26.291  29.586  1.00  0.00    -0.203 F 
ATOM     55  C   UNL A   1      39.937  25.901  27.426  1.00  0.00     0.198 A 
ATOM     56  C   UNL A   1      41.271  27.576  26.343  1.00  0.00     0.198 A 
ATOM     57  F   UNL A   1      41.771  29.583  27.462  1.00  0.00    -0.203 F 
ATOM     58  F   UNL A   1      39.382  24.682  27.428  1.00  0.00    -0.200 F 
ATOM     59  C   UNL A   1      40.669  26.328  26.328  1.00  0.00     0.200 A 
ATOM     60  F   UNL A   1      41.958  28.004  25.276  1.00  0.00    -0.200 F 
ATOM     61  F   UNL A   1      40.803  25.532  25.259  1.00  0.00    -0.200 F 
ENDBRANCH  27  51
BRANCH  39  62
ATOM     62  C   UNL A   1      43.862  28.311  34.634  1.00  0.00     0.064 A 
ATOM     63  C   UNL A   1      43.647  27.108  35.325  1.00  0.00     0.173 A 
ATOM     64  C   UNL A   1      45.188  28.743  34.473  1.00  0.00     0.173 A 
ATOM     65  F   UNL A   1      42.399  26.655  35.522  1.00  0.00    -0.203 F 
ATOM     66  C   UNL A   1      44.712  26.393  35.869  1.00  0.00     0.198 A 
ATOM     67  C   UNL A   1      46.252  28.003  34.979  1.00  0.00     0.198 A 
ATOM     68  F   UNL A   1      45.454  29.882  33.817  1.00  0.00    -0.203 F 
ATOM     69  F   UNL A   1      44.475  25.286  36.587  1.00  0.00    -0.200 F 
ATOM     70  C   UNL A   1      46.012  26.837  35.688  1.00  0.00     0.200 A 
ATOM     71  F   UNL A   1      47.510  28.423  34.785  1.00  0.00    -0.200 F 
ATOM     72  F   UNL A   1      47.037  26.145  36.207  1.00  0.00    -0.200 F 
ENDBRANCH  39  62
ENDBRANCH  13  14
ENDBRANCH   6   8
ENDBRANCH   3   4
ENDBRANCH   2   3
ENDBRANCH   1   2
BRANCH   1  73
ATOM     73  C   UNL A   1      32.482  30.135  25.934  1.00  0.00     0.116 C 
BRANCH  73  74
ATOM     74  N   UNL A   1      32.111  28.957  26.710  1.00  0.00    -0.352 N 
ATOM     75  C   UNL A   1      32.305  27.651  26.435  1.00  0.00     0.253 C 
ATOM     76  H   UNL A   1      31.650  29.141  27.560  1.00  0.00     0.163 HD
ATOM     77  O   UNL A   1      31.872  26.758  27.189  1.00  0.00    -0.269 OA
BRANCH  75  78
ATOM     78  C   UNL A   1      32.646  27.278  25.101  1.00  0.00     0.063 A 
ATOM     79  C   UNL A   1      33.837  26.591  25.256  1.00  0.00     0.016 A 
ATOM     80  C   UNL A   1      31.830  27.135  23.937  1.00  0.00     0.053 A 
ATOM     81  C   UNL A   1      34.053  25.720  24.297  1.00  0.00     0.001 A 
ATOM     82  C   UNL A   1      32.373  26.686  22.791  1.00  0.00     0.027 A 
ATOM     83  C   UNL A   1      33.379  25.857  23.114  1.00  0.00     0.002 A 
BRANCH  80  84
ATOM     84  N   UNL A   1      30.448  27.148  23.949  1.00  0.00    -0.332 N 
ATOM     85  H   UNL A   1      30.029  27.915  23.497  1.00  0.00     0.169 HD
BRANCH  84  86
ATOM     86  C   UNL A   1      29.580  26.248  24.499  1.00  0.00     0.177 C 
ATOM     87  S   UNL A   1      27.974  26.447  24.028  1.00  0.00    -0.040 S 
BRANCH  86  88
ATOM     88  N   UNL A   1      29.928  25.182  25.452  1.00  0.00    -0.299 N 
ATOM     89  C   UNL A   1      30.574  23.921  26.147  1.00  0.00     0.257 C 
ATOM     90  H   UNL A   1      29.323  25.446  26.182  1.00  0.00     0.172 HD
ATOM     91  O   UNL A   1      29.939  23.591  27.164  1.00  0.00    -0.269 OA
BRANCH  89  92
ATOM     92  C   UNL A   1      31.852  22.985  25.743  1.00  0.00     0.040 A 
ATOM     93  C   UNL A   1      31.911  22.270  24.501  1.00  0.00     0.014 A 
ATOM     94  C   UNL A   1      33.132  23.068  26.406  1.00  0.00     0.022 A 
ATOM     95  C   UNL A   1      33.249  21.986  23.871  1.00  0.00     0.009 A 
ATOM     96  C   UNL A   1      34.494  22.734  25.820  1.00  0.00    -0.018 A 
ATOM     97  C   UNL A   1      34.563  22.259  24.480  1.00  0.00    -0.018 A 
ATOM     98  C   UNL A   1      35.769  23.180  26.388  1.00  0.00     0.009 A 
ATOM     99  C   UNL A   1      35.874  22.437  23.765  1.00  0.00     0.009 A 
ATOM    100  C   UNL A   1      37.015  23.278  25.695  1.00  0.00     0.001 A 
ATOM    101  C   UNL A   1      37.066  22.941  24.358  1.00  0.00     0.001 A 
ENDBRANCH  89  92
ENDBRANCH  86  88
ENDBRANCH  84  86
ENDBRANCH  80  84
ENDBRANCH  75  78
ENDBRANCH  73  74
ENDBRANCH   1  73
TORSDOF 15
ENDMDL
MODEL 3
REMARK VINA RESULT:     -13.0      0.702      7.131
REMARK SMILES O=C(NCCCCNC(=O)c1ccccc1NC(=S)NC(=O)c1ccc2ccccc2c1)c1ccc(-c2c3nc(c(-c4c(F)c(F)c(F)c(F)c4F)c4ccc([nH]4)c(-c4c(F)c(F)c(F)c(F)c4F)c4nc(c(-c5c(F)c(F)c(F)c(F)c5F)c5ccc2[nH]5)C=C4)C=C3)cc1
REMARK SMILES IDX 6 1 5 2 4 3 3 4 1 5 2 6 33 8 34 9 95 10 35 11 94 12 36 13
REMARK SMILES IDX 37 14 38 15 88 16 39 17 93 18 87 19 89 20 40 21 92 22 86 23
REMARK SMILES IDX 85 24 41 26 73 27 53 28 72 29 54 30 57 31 71 32 90 33 55 34
REMARK SMILES IDX 56 35 70 37 91 38 58 39 42 40 43 41 51 42 44 43 45 44 49 45
REMARK SMILES IDX 52 46 46 47 47 48 50 49 48 50 74 51 75 52 83 53 76 54 77 55
REMARK SMILES IDX 81 56 84 57 78 58 79 59 82 60 80 61 59 62 60 63 68 64 61 65
REMARK SMILES IDX 62 66 66 67 69 68 63 69 64 70 67 71 65 72 7 73 8 74 9 75
REMARK SMILES IDX 10 77 11 78 12 79 16 80 13 81 15 82 14 83 17 84 18 86 19 87
REMARK SMILES IDX 20 88 21 89 22 91 23 92 24 93 32 94 25 95 31 96 26 97 30 98
REMARK SMILES IDX 27 99 29 100 28 101
REMARK H PARENT 3 7 89 25 57 36 8 76 17 85 20 90
REMARK Flexibility Score: inf
ROOT
ATOM      1  C   UNL A   1      31.346  31.136  25.887  1.00  0.00     0.023 C 
ENDROOT
BRANCH   1   2
ATOM      2  C   UNL A   1      31.276  32.519  26.524  1.00  0.00     0.023 C 
BRANCH   2   3
ATOM      3  C   UNL A   1      32.576  32.962  27.176  1.00  0.00     0.116 C 
BRANCH   3   4
ATOM      4  N   UNL A   1      32.484  34.279  27.783  1.00  0.00    -0.352 N 
ATOM      5  O   UNL A   1      32.984  35.880  29.304  1.00  0.00    -0.269 OA
ATOM      6  C   UNL A   1      33.270  34.812  28.777  1.00  0.00     0.251 C 
ATOM      7  H   UNL A   1      31.768  34.862  27.440  1.00  0.00     0.163 HD
BRANCH   6   8
ATOM      8  C   UNL A   1      34.445  34.041  29.230  1.00  0.00     0.039 A 
ATOM      9  C   UNL A   1      34.269  32.923  30.047  1.00  0.00     0.014 A 
ATOM     10  C   UNL A   1      35.727  34.495  28.916  1.00  0.00     0.014 A 
ATOM     11  C   UNL A   1      35.359  32.392  30.715  1.00  0.00     0.010 A 
ATOM     12  C   UNL A   1      36.836  33.864  29.484  1.00  0.00     0.010 A 
ATOM     13  C   UNL A   1      36.661  32.835  30.423  1.00  0.00    -0.014 A 
BRANCH  13  14
ATOM     14  C   UNL A   1      37.812  32.148  31.062  1.00  0.00     0.031 A 
ATOM     15  C   UNL A   1      38.244  32.468  32.466  1.00  0.00     0.074 A 
ATOM     16  C   UNL A   1      38.452  31.194  30.358  1.00  0.00     0.049 A 
ATOM     17  N   UNL A   1      39.215  31.939  33.169  1.00  0.00    -0.248 NA
ATOM     18  C   UNL A   1      37.503  33.524  33.170  1.00  0.00     0.031 C 
ATOM     19  C   UNL A   1      38.122  30.799  28.986  1.00  0.00     0.029 A 
ATOM     20  N   UNL A   1      39.489  30.367  30.698  1.00  0.00    -0.354 N 
ATOM     21  C   UNL A   1      39.215  32.608  34.386  1.00  0.00     0.074 A 
ATOM     22  C   UNL A   1      38.170  33.608  34.313  1.00  0.00     0.031 C 
ATOM     23  C   UNL A   1      38.894  29.767  28.626  1.00  0.00     0.029 A 
ATOM     24  C   UNL A   1      39.834  29.486  29.702  1.00  0.00     0.049 A 
ATOM     25  H   UNL A   1      39.944  30.401  31.571  1.00  0.00     0.167 HD
ATOM     26  C   UNL A   1      40.012  32.402  35.464  1.00  0.00     0.037 A 
ATOM     27  C   UNL A   1      40.816  28.571  29.647  1.00  0.00     0.037 A 
ATOM     28  C   UNL A   1      41.052  31.403  35.522  1.00  0.00     0.049 A 
ATOM     29  C   UNL A   1      41.721  28.410  30.834  1.00  0.00     0.074 A 
ATOM     30  C   UNL A   1      41.889  31.089  36.578  1.00  0.00     0.029 A 
ATOM     31  N   UNL A   1      41.409  30.567  34.472  1.00  0.00    -0.354 N 
ATOM     32  N   UNL A   1      41.683  29.016  31.994  1.00  0.00    -0.248 NA
ATOM     33  C   UNL A   1      42.809  27.434  30.698  1.00  0.00     0.031 C 
ATOM     34  C   UNL A   1      42.806  30.126  36.143  1.00  0.00     0.029 A 
ATOM     35  C   UNL A   1      42.482  29.769  34.844  1.00  0.00     0.049 A 
ATOM     36  H   UNL A   1      40.967  30.544  33.593  1.00  0.00     0.167 HD
ATOM     37  C   UNL A   1      42.717  28.471  32.742  1.00  0.00     0.074 A 
ATOM     38  C   UNL A   1      43.351  27.472  31.907  1.00  0.00     0.031 C 
ATOM     39  C   UNL A   1      43.106  28.772  34.006  1.00  0.00     0.037 A 
BRANCH  26  40
ATOM     40  C   UNL A   1      39.820  33.298  36.659  1.00  0.00     0.064 A 
ATOM     41  C   UNL A   1      38.900  33.002  37.677  1.00  0.00     0.173 A 
ATOM     42  C   UNL A   1      40.596  34.460  36.803  1.00  0.00     0.173 A 
ATOM     43  F   UNL A   1      38.128  31.908  37.591  1.00  0.00    -0.203 F 
ATOM     44  C   UNL A   1      38.733  33.855  38.765  1.00  0.00     0.198 A 
ATOM     45  C   UNL A   1      40.455  35.289  37.914  1.00  0.00     0.198 A 
ATOM     46  F   UNL A   1      41.502  34.790  35.870  1.00  0.00    -0.203 F 
ATOM     47  F   UNL A   1      37.800  33.583  39.690  1.00  0.00    -0.200 F 
ATOM     48  C   UNL A   1      39.515  34.993  38.887  1.00  0.00     0.200 A 
ATOM     49  F   UNL A   1      41.228  36.376  38.039  1.00  0.00    -0.200 F 
ATOM     50  F   UNL A   1      39.355  35.809  39.938  1.00  0.00    -0.200 F 
ENDBRANCH  26  40
BRANCH  27  51
ATOM     51  C   UNL A   1      40.992  27.743  28.426  1.00  0.00     0.064 A 
ATOM     52  C   UNL A   1      41.810  28.178  27.374  1.00  0.00     0.173 A 
ATOM     53  C   UNL A   1      40.345  26.506  28.280  1.00  0.00     0.173 A 
ATOM     54  F   UNL A   1      42.438  29.359  27.458  1.00  0.00    -0.203 F 
ATOM     55  C   UNL A   1      41.948  27.423  26.211  1.00  0.00     0.198 A 
ATOM     56  C   UNL A   1      40.517  25.733  27.135  1.00  0.00     0.198 A 
ATOM     57  F   UNL A   1      39.560  26.038  29.262  1.00  0.00    -0.203 F 
ATOM     58  F   UNL A   1      42.687  27.891  25.197  1.00  0.00    -0.200 F 
ATOM     59  C   UNL A   1      41.307  26.198  26.096  1.00  0.00     0.200 A 
ATOM     60  F   UNL A   1      39.916  24.540  27.040  1.00  0.00    -0.200 F 
ATOM     61  F   UNL A   1      41.444  25.471  24.980  1.00  0.00    -0.200 F 
ENDBRANCH  27  51
BRANCH  39  62
ATOM     62  C   UNL A   1      44.236  27.967  34.586  1.00  0.00     0.064 A 
ATOM     63  C   UNL A   1      44.021  26.751  35.253  1.00  0.00     0.173 A 
ATOM     64  C   UNL A   1      45.560  28.419  34.462  1.00  0.00     0.173 A 
ATOM     65  F   UNL A   1      42.775  26.279  35.413  1.00  0.00    -0.203 F 
ATOM     66  C   UNL A   1      45.082  26.042  35.810  1.00  0.00     0.198 A 
ATOM     67  C   UNL A   1      46.621  27.685  34.982  1.00  0.00     0.198 A 
ATOM     68  F   UNL A   1      45.826  29.572  33.830  1.00  0.00    -0.203 F 
ATOM     69  F   UNL A   1      44.844  24.920  36.505  1.00  0.00    -0.200 F 
ATOM     70  C   UNL A   1      46.381  26.505  35.667  1.00  0.00     0.200 A 
ATOM     71  F   UNL A   1      47.877  28.125  34.823  1.00  0.00    -0.200 F 
ATOM     72  F   UNL A   1      47.402  25.818  36.198  1.00  0.00    -0.200 F 
ENDBRANCH  39  62
ENDBRANCH  13  14
ENDBRANCH   6   8
ENDBRANCH   3   4
ENDBRANCH   2   3
ENDBRANCH   1   2
BRANCH   1  73
ATOM     73  C   UNL A   1      32.451  30.263  26.467  1.00  0.00     0.116 C 
BRANCH  73  74
ATOM     74  N   UNL A   1      31.922  29.065  27.108  1.00  0.00    -0.352 N 
ATOM     75  C   UNL A   1      32.048  27.771  26.750  1.00  0.00     0.253 C 
ATOM     76  H   UNL A   1      31.395  29.223  27.924  1.00  0.00     0.163 HD
ATOM     77  O   UNL A   1      31.479  26.863  27.386  1.00  0.00    -0.269 OA
BRANCH  75  78
ATOM     78  C   UNL A   1      32.490  27.470  25.427  1.00  0.00     0.063 A 
ATOM     79  C   UNL A   1      33.711  26.852  25.631  1.00  0.00     0.016 A 
ATOM     80  C   UNL A   1      31.754  27.322  24.211  1.00  0.00     0.053 A 
ATOM     81  C   UNL A   1      34.038  26.033  24.658  1.00  0.00     0.001 A 
ATOM     82  C   UNL A   1      32.392  26.950  23.086  1.00  0.00     0.027 A 
ATOM     83  C   UNL A   1      33.428  26.173  23.442  1.00  0.00     0.002 A 
BRANCH  80  84
ATOM     84  N   UNL A   1      30.376  27.249  24.138  1.00  0.00    -0.332 N 
ATOM     85  H   UNL A   1      29.936  28.010  23.697  1.00  0.00     0.169 HD
BRANCH  84  86
ATOM     86  C   UNL A   1      29.537  26.272  24.593  1.00  0.00     0.177 C 
ATOM     87  S   UNL A   1      27.942  26.419  24.068  1.00  0.00    -0.040 S 
BRANCH  86  88
ATOM     88  N   UNL A   1      29.904  25.165  25.490  1.00  0.00    -0.299 N 
ATOM     89  C   UNL A   1      30.575  23.883  26.120  1.00  0.00     0.257 C 
ATOM     90  H   UNL A   1      29.290  25.376  26.229  1.00  0.00     0.172 HD
ATOM     91  O   UNL A   1      29.943  23.485  27.115  1.00  0.00    -0.269 OA
BRANCH  89  92
ATOM     92  C   UNL A   1      31.876  22.999  25.676  1.00  0.00     0.040 A 
ATOM     93  C   UNL A   1      31.951  22.340  24.403  1.00  0.00     0.014 A 
ATOM     94  C   UNL A   1      33.155  23.086  26.340  1.00  0.00     0.022 A 
ATOM     95  C   UNL A   1      33.294  22.117  23.761  1.00  0.00     0.009 A 
ATOM     96  C   UNL A   1      34.524  22.813  25.738  1.00  0.00    -0.018 A 
ATOM     97  C   UNL A   1      34.602  22.398  24.380  1.00  0.00    -0.018 A 
ATOM     98  C   UNL A   1      35.788  23.267  26.324  1.00  0.00     0.009 A 
ATOM     99  C   UNL A   1      35.907  22.641  23.672  1.00  0.00     0.009 A 
ATOM    100  C   UNL A   1      37.030  23.427  25.635  1.00  0.00     0.001 A 
ATOM    101  C   UNL A   1      37.086  23.149  24.284  1.00  0.00     0.001 A 
ENDBRANCH  89  92
ENDBRANCH  86  88
ENDBRANCH  84  86
ENDBRANCH  80  84
ENDBRANCH  75  78
ENDBRANCH  73  74
ENDBRANCH   1  73
TORSDOF 15
ENDMDL
