MODEL 1
REMARK VINA RESULT:     -14.8      0.000      0.000
REMARK SMILES COc1cc2c(cc1OC)-c1c(c(C(=O)Nc3ccc(C(=O)NCCCCNC(=O)c4ccc(-c5c6nc(c(-c7c(F)c(F)c(F)c(F)c7F)c7ccc([nH]7)c(-c7c(F)c(F)c(F)c(F)c7F)c7nc(c(-c8c(F)c(F)c(F)c(F)c8F)c8ccc5[nH]8)C=C7)C=C6)cc4)cc3)nn1-c1ccc(F)cc1)C2
REMARK SMILES IDX 25 1 24 2 23 3 21 4 22 5 20 7 17 8 18 9 95 10 19 11 94 12
REMARK SMILES IDX 16 13 14 14 15 15 13 17 3 18 4 19 8 20 5 21 7 22 6 23 105 24
REMARK SMILES IDX 11 25 12 26 97 27 96 28 2 29 1 30 9 31 10 32 98 33 99 34
REMARK SMILES IDX 104 35 100 36 103 37 101 38 102 39 26 40 27 41 28 42 29 43
REMARK SMILES IDX 30 45 31 46 32 47 93 48 33 49 92 50 34 51 35 52 36 53 86 54
REMARK SMILES IDX 37 55 91 56 85 57 87 58 38 59 90 60 84 61 83 62 39 64 71 65
REMARK SMILES IDX 51 66 70 67 52 68 55 69 69 70 88 71 53 72 54 73 68 75 89 76
REMARK SMILES IDX 56 77 40 78 41 79 49 80 42 81 43 82 47 83 50 84 44 85 45 86
REMARK SMILES IDX 48 87 46 88 72 89 73 90 81 91 74 92 75 93 79 94 82 95 76 96
REMARK SMILES IDX 77 97 80 98 78 99 57 100 58 101 66 102 59 103 60 104 64 105
REMARK SMILES IDX 67 106 61 107 62 108 65 109 63 110
REMARK H PARENT 23 6 16 16 28 44 87 63 55 74
REMARK Flexibility Score: inf
ROOT
ATOM      1  C   UNL A   1      32.706  28.863  26.578  1.00  0.00     0.023 C 
ENDROOT
BRANCH   1   2
ATOM      2  C   UNL A   1      31.782  29.804  25.814  1.00  0.00     0.116 C 
BRANCH   2   3
ATOM      3  N   UNL A   1      31.953  29.835  24.373  1.00  0.00    -0.352 N 
ATOM      4  C   UNL A   1      31.495  28.985  23.387  1.00  0.00     0.251 C 
ATOM      5  O   UNL A   1      31.676  29.324  22.216  1.00  0.00    -0.269 OA
ATOM      6  H   UNL A   1      32.487  30.593  24.042  1.00  0.00     0.163 HD
BRANCH   4   7
ATOM      7  C   UNL A   1      30.961  27.617  23.673  1.00  0.00     0.039 A 
ATOM      8  C   UNL A   1      30.254  25.432  25.236  1.00  0.00     0.041 A 
ATOM      9  C   UNL A   1      31.551  25.524  24.757  1.00  0.00     0.027 A 
ATOM     10  C   UNL A   1      29.259  26.221  24.657  1.00  0.00     0.027 A 
ATOM     11  C   UNL A   1      31.905  26.619  23.960  1.00  0.00     0.016 A 
ATOM     12  C   UNL A   1      29.616  27.313  23.861  1.00  0.00     0.016 A 
BRANCH   8  13
ATOM     13  N   UNL A   1      29.885  24.576  26.267  1.00  0.00    -0.321 N 
ATOM     14  C   UNL A   1      30.190  23.263  26.564  1.00  0.00     0.276 C 
ATOM     15  O   UNL A   1      29.419  22.748  27.387  1.00  0.00    -0.267 OA
ATOM     16  H   UNL A   1      29.281  24.994  26.922  1.00  0.00     0.170 HD
BRANCH  14  17
ATOM     17  C   UNL A   1      31.422  22.538  26.117  1.00  0.00     0.155 A 
ATOM     18  C   UNL A   1      37.445  22.584  25.752  1.00  0.00     0.161 A 
ATOM     19  C   UNL A   1      36.448  23.354  26.381  1.00  0.00     0.055 A 
ATOM     20  C   UNL A   1      37.128  21.372  25.103  1.00  0.00     0.161 A 
ATOM     21  C   UNL A   1      35.134  22.905  26.339  1.00  0.00    -0.030 A 
ATOM     22  C   UNL A   1      35.793  20.951  25.053  1.00  0.00     0.061 A 
ATOM     23  C   UNL A   1      34.826  21.701  25.686  1.00  0.00     0.008 A 
ATOM     24  C   UNL A   1      33.877  23.657  26.808  1.00  0.00     0.076 C 
ATOM     25  C   UNL A   1      33.405  21.603  25.744  1.00  0.00     0.079 A 
ATOM     26  C   UNL A   1      32.827  22.719  26.293  1.00  0.00     0.016 A 
ATOM     27  N   UNL A   1      32.428  20.759  25.342  1.00  0.00    -0.232 N 
ATOM     28  N   UNL A   1      31.226  21.379  25.417  1.00  0.00    -0.162 NA
BRANCH  18  29
ATOM     29  O   UNL A   1      38.736  23.035  25.834  1.00  0.00    -0.493 OA
ATOM     30  C   UNL A   1      38.936  23.820  27.013  1.00  0.00     0.278 C 
ENDBRANCH  18  29
BRANCH  20  31
ATOM     31  O   UNL A   1      37.957  20.493  24.460  1.00  0.00    -0.493 OA
ATOM     32  C   UNL A   1      38.152  19.198  24.998  1.00  0.00     0.278 C 
ENDBRANCH  20  31
BRANCH  27  33
ATOM     33  C   UNL A   1      32.582  19.430  24.889  1.00  0.00     0.065 A 
ATOM     34  C   UNL A   1      32.565  19.152  23.520  1.00  0.00     0.031 A 
ATOM     35  C   UNL A   1      32.826  18.404  25.820  1.00  0.00     0.031 A 
ATOM     36  C   UNL A   1      32.910  17.869  23.085  1.00  0.00     0.041 A 
ATOM     37  C   UNL A   1      33.149  17.124  25.379  1.00  0.00     0.041 A 
ATOM     38  C   UNL A   1      33.212  16.875  24.014  1.00  0.00     0.123 A 
ATOM     39  F   UNL A   1      33.579  15.659  23.587  1.00  0.00    -0.207 F 
ENDBRANCH  27  33
ENDBRANCH  14  17
ENDBRANCH   8  13
ENDBRANCH   4   7
ENDBRANCH   2   3
ENDBRANCH   1   2
BRANCH   1  40
ATOM     40  C   UNL A   1      33.729  29.460  27.539  1.00  0.00     0.023 C 
BRANCH  40  41
ATOM     41  C   UNL A   1      34.161  30.910  27.312  1.00  0.00     0.116 C 
BRANCH  41  42
ATOM     42  N   UNL A   1      34.276  31.734  28.500  1.00  0.00    -0.352 N 
ATOM     43  C   UNL A   1      35.259  31.998  29.414  1.00  0.00     0.251 C 
ATOM     44  H   UNL A   1      33.444  32.223  28.696  1.00  0.00     0.163 HD
ATOM     45  O   UNL A   1      35.054  32.959  30.160  1.00  0.00    -0.269 OA
BRANCH  43  46
ATOM     46  C   UNL A   1      36.507  31.207  29.608  1.00  0.00     0.039 A 
ATOM     47  C   UNL A   1      37.795  31.688  29.411  1.00  0.00     0.014 A 
ATOM     48  C   UNL A   1      36.355  29.845  29.946  1.00  0.00     0.014 A 
ATOM     49  C   UNL A   1      38.889  30.827  29.466  1.00  0.00     0.010 A 
ATOM     50  C   UNL A   1      37.453  28.982  30.031  1.00  0.00     0.010 A 
ATOM     51  C   UNL A   1      38.726  29.464  29.754  1.00  0.00    -0.014 A 
BRANCH  51  52
ATOM     52  C   UNL A   1      39.949  28.656  29.806  1.00  0.00     0.031 A 
ATOM     53  C   UNL A   1      40.570  28.511  31.152  1.00  0.00     0.074 A 
ATOM     54  C   UNL A   1      40.535  28.011  28.775  1.00  0.00     0.049 A 
ATOM     55  N   UNL A   1      41.726  28.941  31.543  1.00  0.00    -0.248 NA
ATOM     56  C   UNL A   1      39.790  27.835  32.199  1.00  0.00     0.031 C 
ATOM     57  C   UNL A   1      39.964  27.713  27.463  1.00  0.00     0.029 A 
ATOM     58  N   UNL A   1      41.774  27.420  28.725  1.00  0.00    -0.354 N 
ATOM     59  C   UNL A   1      41.900  28.449  32.835  1.00  0.00     0.074 A 
ATOM     60  C   UNL A   1      40.643  27.860  33.225  1.00  0.00     0.031 C 
ATOM     61  C   UNL A   1      40.765  26.832  26.822  1.00  0.00     0.029 A 
ATOM     62  C   UNL A   1      41.977  26.635  27.605  1.00  0.00     0.049 A 
ATOM     63  H   UNL A   1      42.456  27.544  29.424  1.00  0.00     0.167 HD
ATOM     64  C   UNL A   1      43.135  28.366  33.398  1.00  0.00     0.037 A 
ATOM     65  C   UNL A   1      43.045  25.851  27.327  1.00  0.00     0.037 A 
ATOM     66  C   UNL A   1      44.117  29.147  32.701  1.00  0.00     0.049 A 
ATOM     67  C   UNL A   1      44.241  26.352  28.044  1.00  0.00     0.074 A 
ATOM     68  C   UNL A   1      44.629  30.423  32.743  1.00  0.00     0.029 A 
ATOM     69  N   UNL A   1      44.590  28.562  31.565  1.00  0.00    -0.354 N 
ATOM     70  N   UNL A   1      44.825  27.490  27.792  1.00  0.00    -0.248 NA
ATOM     71  C   UNL A   1      44.730  25.646  29.227  1.00  0.00     0.031 C 
ATOM     72  C   UNL A   1      45.373  30.611  31.535  1.00  0.00     0.029 A 
ATOM     73  C   UNL A   1      45.286  29.446  30.786  1.00  0.00     0.049 A 
ATOM     74  H   UNL A   1      44.447  27.615  31.333  1.00  0.00     0.167 HD
ATOM     75  C   UNL A   1      45.454  27.817  28.973  1.00  0.00     0.074 A 
ATOM     76  C   UNL A   1      45.522  26.587  29.745  1.00  0.00     0.031 C 
ATOM     77  C   UNL A   1      45.509  29.108  29.403  1.00  0.00     0.037 A 
BRANCH  64  78
ATOM     78  C   UNL A   1      43.582  27.250  34.314  1.00  0.00     0.064 A 
ATOM     79  C   UNL A   1      43.745  25.948  33.795  1.00  0.00     0.173 A 
ATOM     80  C   UNL A   1      43.526  27.343  35.721  1.00  0.00     0.173 A 
ATOM     81  F   UNL A   1      43.782  25.741  32.470  1.00  0.00    -0.203 F 
ATOM     82  C   UNL A   1      43.793  24.823  34.623  1.00  0.00     0.198 A 
ATOM     83  C   UNL A   1      43.627  26.222  36.546  1.00  0.00     0.198 A 
ATOM     84  F   UNL A   1      43.257  28.500  36.340  1.00  0.00    -0.203 F 
ATOM     85  F   UNL A   1      43.836  23.598  34.080  1.00  0.00    -0.200 F 
ATOM     86  C   UNL A   1      43.732  24.960  35.998  1.00  0.00     0.200 A 
ATOM     87  F   UNL A   1      43.540  26.372  37.875  1.00  0.00    -0.200 F 
ATOM     88  F   UNL A   1      43.728  23.881  36.790  1.00  0.00    -0.200 F 
ENDBRANCH  64  78
BRANCH  65  89
ATOM     89  C   UNL A   1      43.071  24.565  26.590  1.00  0.00     0.064 A 
ATOM     90  C   UNL A   1      43.792  24.430  25.392  1.00  0.00     0.173 A 
ATOM     91  C   UNL A   1      42.624  23.375  27.194  1.00  0.00     0.173 A 
ATOM     92  F   UNL A   1      44.288  25.511  24.774  1.00  0.00    -0.203 F 
ATOM     93  C   UNL A   1      44.084  23.174  24.852  1.00  0.00     0.198 A 
ATOM     94  C   UNL A   1      42.904  22.123  26.646  1.00  0.00     0.198 A 
ATOM     95  F   UNL A   1      41.993  23.399  28.377  1.00  0.00    -0.203 F 
ATOM     96  F   UNL A   1      44.841  23.082  23.751  1.00  0.00    -0.200 F 
ATOM     97  C   UNL A   1      43.649  22.023  25.486  1.00  0.00     0.200 A 
ATOM     98  F   UNL A   1      42.504  21.015  27.286  1.00  0.00    -0.200 F 
ATOM     99  F   UNL A   1      43.983  20.818  25.004  1.00  0.00    -0.200 F 
ENDBRANCH  65  89
BRANCH  77 100
ATOM    100  C   UNL A   1      45.540  30.188  28.377  1.00  0.00     0.064 A 
ATOM    101  C   UNL A   1      44.396  30.738  27.783  1.00  0.00     0.173 A 
ATOM    102  C   UNL A   1      46.787  30.714  28.010  1.00  0.00     0.173 A 
ATOM    103  F   UNL A   1      43.170  30.336  28.146  1.00  0.00    -0.203 F 
ATOM    104  C   UNL A   1      44.504  31.744  26.823  1.00  0.00     0.198 A 
ATOM    105  C   UNL A   1      46.889  31.739  27.076  1.00  0.00     0.198 A 
ATOM    106  F   UNL A   1      47.909  30.247  28.580  1.00  0.00    -0.203 F 
ATOM    107  F   UNL A   1      43.400  32.243  26.246  1.00  0.00    -0.200 F 
ATOM    108  C   UNL A   1      45.749  32.245  26.473  1.00  0.00     0.200 A 
ATOM    109  F   UNL A   1      48.091  32.245  26.769  1.00  0.00    -0.200 F 
ATOM    110  F   UNL A   1      45.848  33.228  25.567  1.00  0.00    -0.200 F 
ENDBRANCH  77 100
ENDBRANCH  51  52
ENDBRANCH  43  46
ENDBRANCH  41  42
ENDBRANCH  40  41
ENDBRANCH   1  40
TORSDOF 16
ENDMDL
MODEL 2
REMARK VINA RESULT:     -14.6      3.593      9.494
REMARK SMILES COc1cc2c(cc1OC)-c1c(c(C(=O)Nc3ccc(C(=O)NCCCCNC(=O)c4ccc(-c5c6nc(c(-c7c(F)c(F)c(F)c(F)c7F)c7ccc([nH]7)c(-c7c(F)c(F)c(F)c(F)c7F)c7nc(c(-c8c(F)c(F)c(F)c(F)c8F)c8ccc5[nH]8)C=C7)C=C6)cc4)cc3)nn1-c1ccc(F)cc1)C2
REMARK SMILES IDX 25 1 24 2 23 3 21 4 22 5 20 7 17 8 18 9 95 10 19 11 94 12
REMARK SMILES IDX 16 13 14 14 15 15 13 17 3 18 4 19 8 20 5 21 7 22 6 23 105 24
REMARK SMILES IDX 11 25 12 26 97 27 96 28 2 29 1 30 9 31 10 32 98 33 99 34
REMARK SMILES IDX 104 35 100 36 103 37 101 38 102 39 26 40 27 41 28 42 29 43
REMARK SMILES IDX 30 45 31 46 32 47 93 48 33 49 92 50 34 51 35 52 36 53 86 54
REMARK SMILES IDX 37 55 91 56 85 57 87 58 38 59 90 60 84 61 83 62 39 64 71 65
REMARK SMILES IDX 51 66 70 67 52 68 55 69 69 70 88 71 53 72 54 73 68 75 89 76
REMARK SMILES IDX 56 77 40 78 41 79 49 80 42 81 43 82 47 83 50 84 44 85 45 86
REMARK SMILES IDX 48 87 46 88 72 89 73 90 81 91 74 92 75 93 79 94 82 95 76 96
REMARK SMILES IDX 77 97 80 98 78 99 57 100 58 101 66 102 59 103 60 104 64 105
REMARK SMILES IDX 67 106 61 107 62 108 65 109 63 110
REMARK H PARENT 23 6 16 16 28 44 87 63 55 74
REMARK Flexibility Score: inf
ROOT
ATOM      1  C   UNL A   1      36.549  22.038  24.329  1.00  0.00     0.023 C 
ENDROOT
BRANCH   1   2
ATOM      2  C   UNL A   1      36.160  20.670  24.876  1.00  0.00     0.116 C 
BRANCH   2   3
ATOM      3  N   UNL A   1      35.225  20.668  25.986  1.00  0.00    -0.352 N 
ATOM      4  C   UNL A   1      33.878  20.963  26.037  1.00  0.00     0.251 C 
ATOM      5  O   UNL A   1      33.290  20.749  27.099  1.00  0.00    -0.269 OA
ATOM      6  H   UNL A   1      35.620  20.412  26.851  1.00  0.00     0.163 HD
BRANCH   4   7
ATOM      7  C   UNL A   1      33.158  21.682  24.940  1.00  0.00     0.039 A 
ATOM      8  C   UNL A   1      32.891  23.326  22.717  1.00  0.00     0.041 A 
ATOM      9  C   UNL A   1      32.859  23.894  23.980  1.00  0.00     0.027 A 
ATOM     10  C   UNL A   1      32.705  21.949  22.587  1.00  0.00     0.027 A 
ATOM     11  C   UNL A   1      32.983  23.065  25.101  1.00  0.00     0.016 A 
ATOM     12  C   UNL A   1      32.828  21.124  23.708  1.00  0.00     0.016 A 
BRANCH   8  13
ATOM     13  N   UNL A   1      33.088  24.066  21.557  1.00  0.00    -0.321 N 
ATOM     14  C   UNL A   1      32.639  25.300  21.132  1.00  0.00     0.276 C 
ATOM     15  O   UNL A   1      32.764  25.482  19.913  1.00  0.00    -0.267 OA
ATOM     16  H   UNL A   1      33.670  23.616  20.903  1.00  0.00     0.170 HD
BRANCH  14  17
ATOM     17  C   UNL A   1      32.209  26.421  22.029  1.00  0.00     0.155 A 
ATOM     18  C   UNL A   1      33.566  29.873  26.788  1.00  0.00     0.161 A 
ATOM     19  C   UNL A   1      34.225  28.921  25.988  1.00  0.00     0.055 A 
ATOM     20  C   UNL A   1      32.286  30.356  26.439  1.00  0.00     0.161 A 
ATOM     21  C   UNL A   1      33.585  28.448  24.849  1.00  0.00    -0.030 A 
ATOM     22  C   UNL A   1      31.650  29.847  25.300  1.00  0.00     0.061 A 
ATOM     23  C   UNL A   1      32.310  28.928  24.513  1.00  0.00     0.008 A 
ATOM     24  C   UNL A   1      34.040  27.301  23.933  1.00  0.00     0.076 C 
ATOM     25  C   UNL A   1      31.917  28.168  23.372  1.00  0.00     0.079 A 
ATOM     26  C   UNL A   1      32.825  27.188  23.063  1.00  0.00     0.016 A 
ATOM     27  N   UNL A   1      30.863  28.067  22.533  1.00  0.00    -0.232 N 
ATOM     28  N   UNL A   1      30.952  26.919  21.819  1.00  0.00    -0.162 NA
BRANCH  18  29
ATOM     29  O   UNL A   1      34.233  30.344  27.888  1.00  0.00    -0.493 OA
ATOM     30  C   UNL A   1      35.605  30.609  27.588  1.00  0.00     0.278 C 
ENDBRANCH  18  29
BRANCH  20  31
ATOM     31  O   UNL A   1      31.508  31.283  27.079  1.00  0.00    -0.493 OA
ATOM     32  C   UNL A   1      31.377  32.581  26.529  1.00  0.00     0.278 C 
ENDBRANCH  20  31
BRANCH  27  33
ATOM     33  C   UNL A   1      29.796  28.982  22.391  1.00  0.00     0.065 A 
ATOM     34  C   UNL A   1      28.589  28.757  23.058  1.00  0.00     0.031 A 
ATOM     35  C   UNL A   1      29.982  30.153  21.635  1.00  0.00     0.031 A 
ATOM     36  C   UNL A   1      27.619  29.763  23.062  1.00  0.00     0.041 A 
ATOM     37  C   UNL A   1      29.001  31.142  21.627  1.00  0.00     0.041 A 
ATOM     38  C   UNL A   1      27.839  30.947  22.361  1.00  0.00     0.123 A 
ATOM     39  F   UNL A   1      26.919  31.921  22.401  1.00  0.00    -0.207 F 
ENDBRANCH  27  33
ENDBRANCH  14  17
ENDBRANCH   8  13
ENDBRANCH   4   7
ENDBRANCH   2   3
ENDBRANCH   1   2
BRANCH   1  40
ATOM     40  C   UNL A   1      37.573  22.869  25.095  1.00  0.00     0.023 C 
BRANCH  40  41
ATOM     41  C   UNL A   1      38.362  22.181  26.211  1.00  0.00     0.116 C 
BRANCH  41  42
ATOM     42  N   UNL A   1      39.801  22.133  26.037  1.00  0.00    -0.352 N 
ATOM     43  C   UNL A   1      40.859  22.901  26.443  1.00  0.00     0.251 C 
ATOM     44  H   UNL A   1      40.086  21.362  25.497  1.00  0.00     0.163 HD
ATOM     45  O   UNL A   1      41.975  22.394  26.300  1.00  0.00    -0.269 OA
BRANCH  43  46
ATOM     46  C   UNL A   1      40.777  24.286  26.987  1.00  0.00     0.039 A 
ATOM     47  C   UNL A   1      40.011  25.310  26.445  1.00  0.00     0.014 A 
ATOM     48  C   UNL A   1      41.598  24.589  28.093  1.00  0.00     0.014 A 
ATOM     49  C   UNL A   1      40.122  26.611  26.932  1.00  0.00     0.010 A 
ATOM     50  C   UNL A   1      41.692  25.887  28.606  1.00  0.00     0.010 A 
ATOM     51  C   UNL A   1      40.978  26.915  28.001  1.00  0.00    -0.014 A 
BRANCH  51  52
ATOM     52  C   UNL A   1      40.999  28.313  28.445  1.00  0.00     0.031 A 
ATOM     53  C   UNL A   1      42.170  29.116  27.993  1.00  0.00     0.074 A 
ATOM     54  C   UNL A   1      40.057  28.941  29.180  1.00  0.00     0.049 A 
ATOM     55  N   UNL A   1      43.097  29.647  28.724  1.00  0.00    -0.248 NA
ATOM     56  C   UNL A   1      42.347  29.320  26.549  1.00  0.00     0.031 C 
ATOM     57  C   UNL A   1      38.691  28.499  29.453  1.00  0.00     0.029 A 
ATOM     58  N   UNL A   1      40.122  30.171  29.790  1.00  0.00    -0.354 N 
ATOM     59  C   UNL A   1      43.886  30.395  27.854  1.00  0.00     0.074 A 
ATOM     60  C   UNL A   1      43.441  30.083  26.519  1.00  0.00     0.031 C 
ATOM     61  C   UNL A   1      37.995  29.524  29.997  1.00  0.00     0.029 A 
ATOM     62  C   UNL A   1      38.905  30.630  30.260  1.00  0.00     0.049 A 
ATOM     63  H   UNL A   1      40.960  30.679  29.884  1.00  0.00     0.167 HD
ATOM     64  C   UNL A   1      44.697  31.387  28.313  1.00  0.00     0.037 A 
ATOM     65  C   UNL A   1      38.632  31.837  30.808  1.00  0.00     0.037 A 
ATOM     66  C   UNL A   1      44.914  31.315  29.731  1.00  0.00     0.049 A 
ATOM     67  C   UNL A   1      39.862  32.413  31.400  1.00  0.00     0.074 A 
ATOM     68  C   UNL A   1      45.808  30.736  30.601  1.00  0.00     0.029 A 
ATOM     69  N   UNL A   1      43.885  31.803  30.477  1.00  0.00    -0.354 N 
ATOM     70  N   UNL A   1      40.480  31.918  32.436  1.00  0.00    -0.248 NA
ATOM     71  C   UNL A   1      40.560  33.500  30.716  1.00  0.00     0.031 C 
ATOM     72  C   UNL A   1      45.232  30.826  31.907  1.00  0.00     0.029 A 
ATOM     73  C   UNL A   1      43.998  31.451  31.795  1.00  0.00     0.049 A 
ATOM     74  H   UNL A   1      43.147  32.344  30.112  1.00  0.00     0.167 HD
ATOM     75  C   UNL A   1      41.780  32.349  32.293  1.00  0.00     0.074 A 
ATOM     76  C   UNL A   1      41.736  33.450  31.345  1.00  0.00     0.031 C 
ATOM     77  C   UNL A   1      42.826  31.544  32.629  1.00  0.00     0.037 A 
BRANCH  64  78
ATOM     78  C   UNL A   1      44.953  32.686  27.584  1.00  0.00     0.064 A 
ATOM     79  C   UNL A   1      46.218  32.919  27.005  1.00  0.00     0.173 A 
ATOM     80  C   UNL A   1      44.129  33.823  27.728  1.00  0.00     0.173 A 
ATOM     81  F   UNL A   1      47.093  31.914  26.847  1.00  0.00    -0.203 F 
ATOM     82  C   UNL A   1      46.643  34.203  26.649  1.00  0.00     0.198 A 
ATOM     83  C   UNL A   1      44.537  35.094  27.324  1.00  0.00     0.198 A 
ATOM     84  F   UNL A   1      42.955  33.763  28.369  1.00  0.00    -0.203 F 
ATOM     85  F   UNL A   1      47.894  34.392  26.206  1.00  0.00    -0.200 F 
ATOM     86  C   UNL A   1      45.803  35.289  26.811  1.00  0.00     0.200 A 
ATOM     87  F   UNL A   1      43.719  36.139  27.512  1.00  0.00    -0.200 F 
ATOM     88  F   UNL A   1      46.225  36.526  26.517  1.00  0.00    -0.200 F 
ENDBRANCH  64  78
BRANCH  65  89
ATOM     89  C   UNL A   1      37.381  32.625  30.712  1.00  0.00     0.064 A 
ATOM     90  C   UNL A   1      37.069  33.353  29.552  1.00  0.00     0.173 A 
ATOM     91  C   UNL A   1      36.339  32.447  31.642  1.00  0.00     0.173 A 
ATOM     92  F   UNL A   1      37.993  33.534  28.597  1.00  0.00    -0.203 F 
ATOM     93  C   UNL A   1      35.780  33.840  29.318  1.00  0.00     0.198 A 
ATOM     94  C   UNL A   1      35.058  32.946  31.414  1.00  0.00     0.198 A 
ATOM     95  F   UNL A   1      36.521  31.702  32.743  1.00  0.00    -0.203 F 
ATOM     96  F   UNL A   1      35.501  34.463  28.165  1.00  0.00    -0.200 F 
ATOM     97  C   UNL A   1      34.774  33.626  30.245  1.00  0.00     0.200 A 
ATOM     98  F   UNL A   1      34.084  32.706  32.304  1.00  0.00    -0.200 F 
ATOM     99  F   UNL A   1      33.524  34.037  29.993  1.00  0.00    -0.200 F 
ENDBRANCH  65  89
BRANCH  77 100
ATOM    100  C   UNL A   1      42.628  30.561  33.731  1.00  0.00     0.064 A 
ATOM    101  C   UNL A   1      42.842  30.849  35.087  1.00  0.00     0.173 A 
ATOM    102  C   UNL A   1      42.162  29.281  33.399  1.00  0.00     0.173 A 
ATOM    103  F   UNL A   1      43.212  32.076  35.480  1.00  0.00    -0.203 F 
ATOM    104  C   UNL A   1      42.643  29.874  36.063  1.00  0.00     0.198 A 
ATOM    105  C   UNL A   1      41.934  28.321  34.378  1.00  0.00     0.198 A 
ATOM    106  F   UNL A   1      41.904  28.970  32.118  1.00  0.00    -0.203 F 
ATOM    107  F   UNL A   1      42.875  30.158  37.354  1.00  0.00    -0.200 F 
ATOM    108  C   UNL A   1      42.186  28.613  35.709  1.00  0.00     0.200 A 
ATOM    109  F   UNL A   1      41.457  27.117  34.034  1.00  0.00    -0.200 F 
ATOM    110  F   UNL A   1      41.972  27.685  36.652  1.00  0.00    -0.200 F 
ENDBRANCH  77 100
ENDBRANCH  51  52
ENDBRANCH  43  46
ENDBRANCH  41  42
ENDBRANCH  40  41
ENDBRANCH   1  40
TORSDOF 16
ENDMDL
MODEL 3
REMARK VINA RESULT:     -13.4      5.252     11.672
REMARK SMILES COc1cc2c(cc1OC)-c1c(c(C(=O)Nc3ccc(C(=O)NCCCCNC(=O)c4ccc(-c5c6nc(c(-c7c(F)c(F)c(F)c(F)c7F)c7ccc([nH]7)c(-c7c(F)c(F)c(F)c(F)c7F)c7nc(c(-c8c(F)c(F)c(F)c(F)c8F)c8ccc5[nH]8)C=C7)C=C6)cc4)cc3)nn1-c1ccc(F)cc1)C2
REMARK SMILES IDX 25 1 24 2 23 3 21 4 22 5 20 7 17 8 18 9 95 10 19 11 94 12
REMARK SMILES IDX 16 13 14 14 15 15 13 17 3 18 4 19 8 20 5 21 7 22 6 23 105 24
REMARK SMILES IDX 11 25 12 26 97 27 96 28 2 29 1 30 9 31 10 32 98 33 99 34
REMARK SMILES IDX 104 35 100 36 103 37 101 38 102 39 26 40 27 41 28 42 29 43
REMARK SMILES IDX 30 45 31 46 32 47 93 48 33 49 92 50 34 51 35 52 36 53 86 54
REMARK SMILES IDX 37 55 91 56 85 57 87 58 38 59 90 60 84 61 83 62 39 64 71 65
REMARK SMILES IDX 51 66 70 67 52 68 55 69 69 70 88 71 53 72 54 73 68 75 89 76
REMARK SMILES IDX 56 77 40 78 41 79 49 80 42 81 43 82 47 83 50 84 44 85 45 86
REMARK SMILES IDX 48 87 46 88 72 89 73 90 81 91 74 92 75 93 79 94 82 95 76 96
REMARK SMILES IDX 77 97 80 98 78 99 57 100 58 101 66 102 59 103 60 104 64 105
REMARK SMILES IDX 67 106 61 107 62 108 65 109 63 110
REMARK H PARENT 23 6 16 16 28 44 87 63 55 74
REMARK Flexibility Score: inf
ROOT
ATOM      1  C   UNL A   1      42.645  19.259  26.769  1.00  0.00     0.023 C 
ENDROOT
BRANCH   1   2
ATOM      2  C   UNL A   1      43.135  18.838  25.388  1.00  0.00     0.116 C 
BRANCH   2   3
ATOM      3  N   UNL A   1      44.529  18.448  25.297  1.00  0.00    -0.352 N 
ATOM      4  C   UNL A   1      45.680  19.206  25.219  1.00  0.00     0.251 C 
ATOM      5  O   UNL A   1      46.758  18.611  25.287  1.00  0.00    -0.269 OA
ATOM      6  H   UNL A   1      44.681  17.475  25.292  1.00  0.00     0.163 HD
BRANCH   4   7
ATOM      7  C   UNL A   1      45.675  20.664  24.882  1.00  0.00     0.039 A 
ATOM      8  C   UNL A   1      44.592  23.202  24.563  1.00  0.00     0.041 A 
ATOM      9  C   UNL A   1      44.520  22.304  23.511  1.00  0.00     0.027 A 
ATOM     10  C   UNL A   1      45.487  22.956  25.605  1.00  0.00     0.027 A 
ATOM     11  C   UNL A   1      45.075  21.028  23.668  1.00  0.00     0.016 A 
ATOM     12  C   UNL A   1      46.040  21.682  25.758  1.00  0.00     0.016 A 
BRANCH   8  13
ATOM     13  N   UNL A   1      43.819  24.355  24.631  1.00  0.00    -0.321 N 
ATOM     14  C   UNL A   1      43.556  25.263  25.638  1.00  0.00     0.276 C 
ATOM     15  O   UNL A   1      42.569  25.979  25.416  1.00  0.00    -0.267 OA
ATOM     16  H   UNL A   1      43.365  24.569  23.784  1.00  0.00     0.170 HD
BRANCH  14  17
ATOM     17  C   UNL A   1      44.445  25.533  26.813  1.00  0.00     0.155 A 
ATOM     18  C   UNL A   1      49.314  28.426  28.893  1.00  0.00     0.161 A 
ATOM     19  C   UNL A   1      48.537  28.435  27.719  1.00  0.00     0.055 A 
ATOM     20  C   UNL A   1      48.906  27.697  30.030  1.00  0.00     0.161 A 
ATOM     21  C   UNL A   1      47.360  27.698  27.693  1.00  0.00    -0.030 A 
ATOM     22  C   UNL A   1      47.730  26.941  29.973  1.00  0.00     0.061 A 
ATOM     23  C   UNL A   1      46.965  26.970  28.826  1.00  0.00     0.008 A 
ATOM     24  C   UNL A   1      46.453  27.433  26.480  1.00  0.00     0.076 C 
ATOM     25  C   UNL A   1      45.795  26.262  28.422  1.00  0.00     0.079 A 
ATOM     26  C   UNL A   1      45.520  26.430  27.089  1.00  0.00     0.016 A 
ATOM     27  N   UNL A   1      44.901  25.395  28.946  1.00  0.00    -0.232 N 
ATOM     28  N   UNL A   1      44.177  24.825  27.953  1.00  0.00    -0.162 NA
BRANCH  18  29
ATOM     29  O   UNL A   1      50.454  29.186  28.900  1.00  0.00    -0.493 OA
ATOM     30  C   UNL A   1      50.182  30.523  29.328  1.00  0.00     0.278 C 
ENDBRANCH  18  29
BRANCH  20  31
ATOM     31  O   UNL A   1      49.518  27.585  31.249  1.00  0.00    -0.493 OA
ATOM     32  C   UNL A   1      49.343  28.608  32.213  1.00  0.00     0.278 C 
ENDBRANCH  20  31
BRANCH  27  33
ATOM     33  C   UNL A   1      44.716  25.082  30.311  1.00  0.00     0.065 A 
ATOM     34  C   UNL A   1      44.689  26.103  31.264  1.00  0.00     0.031 A 
ATOM     35  C   UNL A   1      44.487  23.748  30.692  1.00  0.00     0.031 A 
ATOM     36  C   UNL A   1      44.315  25.796  32.575  1.00  0.00     0.041 A 
ATOM     37  C   UNL A   1      44.135  23.448  32.006  1.00  0.00     0.041 A 
ATOM     38  C   UNL A   1      44.028  24.479  32.929  1.00  0.00     0.123 A 
ATOM     39  F   UNL A   1      43.633  24.200  34.179  1.00  0.00    -0.207 F 
ENDBRANCH  27  33
ENDBRANCH  14  17
ENDBRANCH   8  13
ENDBRANCH   4   7
ENDBRANCH   2   3
ENDBRANCH   1   2
BRANCH   1  40
ATOM     40  C   UNL A   1      42.673  20.739  27.137  1.00  0.00     0.023 C 
BRANCH  40  41
ATOM     41  C   UNL A   1      41.930  21.717  26.224  1.00  0.00     0.116 C 
BRANCH  41  42
ATOM     42  N   UNL A   1      40.483  21.634  26.245  1.00  0.00    -0.352 N 
ATOM     43  C   UNL A   1      39.458  22.517  26.451  1.00  0.00     0.251 C 
ATOM     44  H   UNL A   1      40.159  20.722  26.068  1.00  0.00     0.163 HD
ATOM     45  O   UNL A   1      38.333  22.115  26.142  1.00  0.00    -0.269 OA
BRANCH  43  46
ATOM     46  C   UNL A   1      39.582  23.877  27.050  1.00  0.00     0.039 A 
ATOM     47  C   UNL A   1      38.761  24.957  26.753  1.00  0.00     0.014 A 
ATOM     48  C   UNL A   1      40.665  24.091  27.929  1.00  0.00     0.014 A 
ATOM     49  C   UNL A   1      39.055  26.226  27.246  1.00  0.00     0.010 A 
ATOM     50  C   UNL A   1      40.948  25.358  28.450  1.00  0.00     0.010 A 
ATOM     51  C   UNL A   1      40.161  26.443  28.080  1.00  0.00    -0.014 A 
BRANCH  51  52
ATOM     52  C   UNL A   1      40.363  27.815  28.557  1.00  0.00     0.031 A 
ATOM     53  C   UNL A   1      41.583  28.502  28.050  1.00  0.00     0.074 A 
ATOM     54  C   UNL A   1      39.542  28.516  29.368  1.00  0.00     0.049 A 
ATOM     55  N   UNL A   1      42.606  28.906  28.731  1.00  0.00    -0.248 NA
ATOM     56  C   UNL A   1      41.691  28.732  26.603  1.00  0.00     0.031 C 
ATOM     57  C   UNL A   1      38.156  28.215  29.719  1.00  0.00     0.029 A 
ATOM     58  N   UNL A   1      39.779  29.712  30.003  1.00  0.00    -0.354 N 
ATOM     59  C   UNL A   1      43.417  29.594  27.831  1.00  0.00     0.074 A 
ATOM     60  C   UNL A   1      42.858  29.374  26.521  1.00  0.00     0.031 C 
ATOM     61  C   UNL A   1      37.612  29.290  30.333  1.00  0.00     0.029 A 
ATOM     62  C   UNL A   1      38.652  30.283  30.564  1.00  0.00     0.049 A 
ATOM     63  H   UNL A   1      40.672  30.124  30.055  1.00  0.00     0.167 HD
ATOM     64  C   UNL A   1      44.358  30.477  28.261  1.00  0.00     0.037 A 
ATOM     65  C   UNL A   1      38.547  31.494  31.159  1.00  0.00     0.037 A 
ATOM     66  C   UNL A   1      44.655  30.336  29.659  1.00  0.00     0.049 A 
ATOM     67  C   UNL A   1      39.867  31.916  31.683  1.00  0.00     0.074 A 
ATOM     68  C   UNL A   1      45.533  29.637  30.454  1.00  0.00     0.029 A 
ATOM     69  N   UNL A   1      43.733  30.908  30.483  1.00  0.00    -0.354 N 
ATOM     70  N   UNL A   1      40.491  31.324  32.664  1.00  0.00    -0.248 NA
ATOM     71  C   UNL A   1      40.636  32.943  30.983  1.00  0.00     0.031 C 
ATOM     72  C   UNL A   1      45.053  29.746  31.797  1.00  0.00     0.029 A 
ATOM     73  C   UNL A   1      43.890  30.504  31.782  1.00  0.00     0.049 A 
ATOM     74  H   UNL A   1      43.038  31.536  30.181  1.00  0.00     0.167 HD
ATOM     75  C   UNL A   1      41.819  31.617  32.447  1.00  0.00     0.074 A 
ATOM     76  C   UNL A   1      41.836  32.747  31.532  1.00  0.00     0.031 C 
ATOM     77  C   UNL A   1      42.789  30.694  32.693  1.00  0.00     0.037 A 
BRANCH  64  78
ATOM     78  C   UNL A   1      44.709  31.764  27.550  1.00  0.00     0.064 A 
ATOM     79  C   UNL A   1      45.949  31.876  26.886  1.00  0.00     0.173 A 
ATOM     80  C   UNL A   1      44.031  32.979  27.784  1.00  0.00     0.173 A 
ATOM     81  F   UNL A   1      46.692  30.786  26.639  1.00  0.00    -0.203 F 
ATOM     82  C   UNL A   1      46.490  33.115  26.535  1.00  0.00     0.198 A 
ATOM     83  C   UNL A   1      44.551  34.211  27.384  1.00  0.00     0.198 A 
ATOM     84  F   UNL A   1      42.904  33.029  28.506  1.00  0.00    -0.203 F 
ATOM     85  F   UNL A   1      47.721  33.180  26.007  1.00  0.00    -0.200 F 
ATOM     86  C   UNL A   1      45.792  34.282  26.786  1.00  0.00     0.200 A 
ATOM     87  F   UNL A   1      43.871  35.333  27.659  1.00  0.00    -0.200 F 
ATOM     88  F   UNL A   1      46.330  35.474  26.495  1.00  0.00    -0.200 F 
ENDBRANCH  64  78
BRANCH  65  89
ATOM     89  C   UNL A   1      37.385  32.414  31.166  1.00  0.00     0.064 A 
ATOM     90  C   UNL A   1      37.064  33.186  30.037  1.00  0.00     0.173 A 
ATOM     91  C   UNL A   1      36.408  32.340  32.176  1.00  0.00     0.173 A 
ATOM     92  F   UNL A   1      37.924  33.276  29.011  1.00  0.00    -0.203 F 
ATOM     93  C   UNL A   1      35.822  33.813  29.908  1.00  0.00     0.198 A 
ATOM     94  C   UNL A   1      35.174  32.979  32.053  1.00  0.00     0.198 A 
ATOM     95  F   UNL A   1      36.594  31.568  33.257  1.00  0.00    -0.203 F 
ATOM     96  F   UNL A   1      35.523  34.475  28.783  1.00  0.00    -0.200 F 
ATOM     97  C   UNL A   1      34.875  33.699  30.912  1.00  0.00     0.200 A 
ATOM     98  F   UNL A   1      34.254  32.835  33.017  1.00  0.00    -0.200 F 
ATOM     99  F   UNL A   1      33.661  34.246  30.761  1.00  0.00    -0.200 F 
ENDBRANCH  65  89
BRANCH  77 100
ATOM    100  C   UNL A   1      42.555  29.703  33.780  1.00  0.00     0.064 A 
ATOM    101  C   UNL A   1      41.970  28.444  33.581  1.00  0.00     0.173 A 
ATOM    102  C   UNL A   1      42.978  30.031  35.076  1.00  0.00     0.173 A 
ATOM    103  F   UNL A   1      41.614  28.036  32.355  1.00  0.00    -0.203 F 
ATOM    104  C   UNL A   1      41.775  27.571  34.651  1.00  0.00     0.198 A 
ATOM    105  C   UNL A   1      42.812  29.145  36.134  1.00  0.00     0.198 A 
ATOM    106  F   UNL A   1      43.579  31.209  35.309  1.00  0.00    -0.203 F 
ATOM    107  F   UNL A   1      41.192  26.380  34.448  1.00  0.00    -0.200 F 
ATOM    108  C   UNL A   1      42.198  27.921  35.924  1.00  0.00     0.200 A 
ATOM    109  F   UNL A   1      43.256  29.473  37.355  1.00  0.00    -0.200 F 
ATOM    110  F   UNL A   1      42.032  27.069  36.946  1.00  0.00    -0.200 F 
ENDBRANCH  77 100
ENDBRANCH  51  52
ENDBRANCH  43  46
ENDBRANCH  41  42
ENDBRANCH  40  41
ENDBRANCH   1  40
TORSDOF 16
ENDMDL
