MODEL 1
REMARK VINA RESULT:     -10.9      0.000      0.000
REMARK SMILES COC[C@@H](C)CC(=O)N1[C@@H](C2CC2)SC[C@H]1C(=O)NCCCCNC(=O)c1ccc(-c2c3nc(c(-c4c(F)c(F)c(F)c(F)c4F)c4ccc([nH]4)c(-c4c(F)c(F)c(F)c(F)c4F)c4nc(c(-c5c(F)c(F)c(F)c(F)c5F)c5ccc2[nH]5)C=C4)C=C3)cc1
REMARK SMILES IDX 20 1 19 2 17 3 18 4 16 6 9 7 10 8 14 9 15 10 7 11 8 12 6 13
REMARK SMILES IDX 4 14 5 15 3 16 2 17 1 18 11 19 12 20 13 21 21 22 22 23 23 24
REMARK SMILES IDX 24 25 25 26 26 28 27 29 28 30 89 31 29 32 88 33 30 34 31 35
REMARK SMILES IDX 32 36 82 37 33 38 87 39 81 40 83 41 34 42 86 43 80 44 79 45
REMARK SMILES IDX 35 47 67 48 47 49 66 50 48 51 51 52 65 53 84 54 49 55 50 56
REMARK SMILES IDX 64 58 85 59 52 60 36 61 37 62 45 63 38 64 39 65 43 66 46 67
REMARK SMILES IDX 40 68 41 69 44 70 42 71 68 72 69 73 77 74 70 75 71 76 75 77
REMARK SMILES IDX 78 78 72 79 73 80 76 81 74 82 53 83 54 84 62 85 55 86 56 87
REMARK SMILES IDX 60 88 63 89 57 90 58 91 61 92 59 93
REMARK H PARENT 19 5 24 27 83 46 51 57
REMARK Flexibility Score: inf
ROOT
ATOM      1  C   UNL A   1      31.625  26.526  25.865  1.00  0.00     0.116 C 
ENDROOT
BRANCH   1   2
ATOM      2  N   UNL A   1      31.112  25.384  26.581  1.00  0.00    -0.354 N 
ATOM      3  C   UNL A   1      31.387  24.060  26.412  1.00  0.00     0.243 C 
ATOM      4  O   UNL A   1      31.097  23.310  27.354  1.00  0.00    -0.273 OA
ATOM      5  H   UNL A   1      30.469  25.590  27.296  1.00  0.00     0.163 HD
BRANCH   3   6
ATOM      6  C   UNL A   1      32.216  23.514  25.229  1.00  0.00     0.185 C 
ATOM      7  N   UNL A   1      33.074  22.331  25.423  1.00  0.00    -0.318 N 
ATOM      8  C   UNL A   1      33.018  21.340  24.351  1.00  0.00     0.147 C 
ATOM      9  S   UNL A   1      32.193  22.139  22.970  1.00  0.00    -0.134 SA
ATOM     10  C   UNL A   1      31.295  23.291  24.032  1.00  0.00     0.107 C 
BRANCH   7  11
ATOM     11  C   UNL A   1      34.116  22.484  26.322  1.00  0.00     0.224 C 
ATOM     12  O   UNL A   1      34.111  21.895  27.403  1.00  0.00    -0.275 OA
BRANCH  11  13
ATOM     13  C   UNL A   1      35.174  23.541  26.050  1.00  0.00     0.106 C 
BRANCH  13  14
ATOM     14  C   UNL A   1      36.376  23.075  25.219  1.00  0.00     0.021 C 
ATOM     15  C   UNL A   1      36.084  23.316  23.729  1.00  0.00     0.010 C 
BRANCH  14  16
ATOM     16  C   UNL A   1      36.697  21.596  25.476  1.00  0.00     0.163 C 
BRANCH  16  17
ATOM     17  O   UNL A   1      38.034  21.312  25.075  1.00  0.00    -0.384 OA
ATOM     18  C   UNL A   1      39.012  21.791  25.987  1.00  0.00     0.194 C 
ENDBRANCH  16  17
ENDBRANCH  14  16
ENDBRANCH  13  14
ENDBRANCH  11  13
ENDBRANCH   7  11
BRANCH   8  19
ATOM     19  C   UNL A   1      32.350  20.092  24.876  1.00  0.00     0.022 C 
ATOM     20  C   UNL A   1      32.381  18.718  24.231  1.00  0.00     0.007 C 
ATOM     21  C   UNL A   1      33.146  18.966  25.498  1.00  0.00     0.007 C 
ENDBRANCH   8  19
ENDBRANCH   3   6
ENDBRANCH   1   2
BRANCH   1  22
ATOM     22  C   UNL A   1      31.360  27.854  26.572  1.00  0.00     0.023 C 
BRANCH  22  23
ATOM     23  C   UNL A   1      32.378  28.207  27.655  1.00  0.00     0.023 C 
BRANCH  23  24
ATOM     24  C   UNL A   1      33.563  29.054  27.199  1.00  0.00     0.116 C 
BRANCH  24  25
ATOM     25  N   UNL A   1      33.634  30.385  27.785  1.00  0.00    -0.352 N 
ATOM     26  C   UNL A   1      34.718  30.985  28.391  1.00  0.00     0.251 C 
ATOM     27  H   UNL A   1      32.809  30.922  27.743  1.00  0.00     0.163 HD
ATOM     28  O   UNL A   1      34.629  32.114  28.865  1.00  0.00    -0.269 OA
BRANCH  26  29
ATOM     29  C   UNL A   1      35.977  30.218  28.532  1.00  0.00     0.039 A 
ATOM     30  C   UNL A   1      36.917  30.276  27.500  1.00  0.00     0.014 A 
ATOM     31  C   UNL A   1      36.276  29.546  29.719  1.00  0.00     0.014 A 
ATOM     32  C   UNL A   1      38.201  29.765  27.707  1.00  0.00     0.010 A 
ATOM     33  C   UNL A   1      37.579  29.113  29.954  1.00  0.00     0.010 A 
ATOM     34  C   UNL A   1      38.562  29.241  28.959  1.00  0.00    -0.014 A 
BRANCH  34  35
ATOM     35  C   UNL A   1      39.972  28.880  29.268  1.00  0.00     0.031 A 
ATOM     36  C   UNL A   1      40.863  29.843  30.002  1.00  0.00     0.074 A 
ATOM     37  C   UNL A   1      40.479  27.723  28.796  1.00  0.00     0.049 A 
ATOM     38  N   UNL A   1      42.137  29.737  30.287  1.00  0.00    -0.248 NA
ATOM     39  C   UNL A   1      40.253  31.106  30.446  1.00  0.00     0.031 C 
ATOM     40  C   UNL A   1      39.744  26.738  27.998  1.00  0.00     0.029 A 
ATOM     41  N   UNL A   1      41.738  27.184  28.902  1.00  0.00    -0.354 N 
ATOM     42  C   UNL A   1      42.484  30.925  30.915  1.00  0.00     0.074 A 
ATOM     43  C   UNL A   1      41.300  31.756  30.935  1.00  0.00     0.031 C 
ATOM     44  C   UNL A   1      40.558  25.711  27.704  1.00  0.00     0.029 A 
ATOM     45  C   UNL A   1      41.880  25.975  28.261  1.00  0.00     0.049 A 
ATOM     46  H   UNL A   1      42.472  27.622  29.392  1.00  0.00     0.167 HD
ATOM     47  C   UNL A   1      43.678  31.283  31.445  1.00  0.00     0.037 A 
ATOM     48  C   UNL A   1      42.956  25.175  28.132  1.00  0.00     0.037 A 
ATOM     49  C   UNL A   1      44.841  30.435  31.475  1.00  0.00     0.049 A 
ATOM     50  C   UNL A   1      44.255  25.578  28.775  1.00  0.00     0.074 A 
ATOM     51  C   UNL A   1      46.059  30.667  32.088  1.00  0.00     0.029 A 
ATOM     52  N   UNL A   1      44.929  29.194  30.864  1.00  0.00    -0.354 N 
ATOM     53  N   UNL A   1      44.539  26.659  29.459  1.00  0.00    -0.248 NA
ATOM     54  C   UNL A   1      45.382  24.644  28.635  1.00  0.00     0.031 C 
ATOM     55  C   UNL A   1      46.900  29.583  31.814  1.00  0.00     0.029 A 
ATOM     56  C   UNL A   1      46.191  28.659  31.066  1.00  0.00     0.049 A 
ATOM     57  H   UNL A   1      44.203  28.758  30.361  1.00  0.00     0.167 HD
ATOM     58  C   UNL A   1      45.863  26.523  29.853  1.00  0.00     0.074 A 
ATOM     59  C   UNL A   1      46.324  25.248  29.347  1.00  0.00     0.031 C 
ATOM     60  C   UNL A   1      46.631  27.382  30.567  1.00  0.00     0.037 A 
BRANCH  47  61
ATOM     61  C   UNL A   1      43.793  32.648  32.055  1.00  0.00     0.064 A 
ATOM     62  C   UNL A   1      43.564  32.865  33.421  1.00  0.00     0.173 A 
ATOM     63  C   UNL A   1      44.201  33.740  31.275  1.00  0.00     0.173 A 
ATOM     64  F   UNL A   1      43.162  31.855  34.207  1.00  0.00    -0.203 F 
ATOM     65  C   UNL A   1      43.722  34.130  33.981  1.00  0.00     0.198 A 
ATOM     66  C   UNL A   1      44.384  34.997  31.843  1.00  0.00     0.198 A 
ATOM     67  F   UNL A   1      44.439  33.584  29.964  1.00  0.00    -0.203 F 
ATOM     68  F   UNL A   1      43.463  34.322  35.282  1.00  0.00    -0.200 F 
ATOM     69  C   UNL A   1      44.141  35.193  33.194  1.00  0.00     0.200 A 
ATOM     70  F   UNL A   1      44.801  36.021  31.084  1.00  0.00    -0.200 F 
ATOM     71  F   UNL A   1      44.305  36.407  33.738  1.00  0.00    -0.200 F 
ENDBRANCH  47  61
BRANCH  48  72
ATOM     72  C   UNL A   1      42.853  23.898  27.377  1.00  0.00     0.064 A 
ATOM     73  C   UNL A   1      42.465  22.712  28.018  1.00  0.00     0.173 A 
ATOM     74  C   UNL A   1      43.168  23.829  26.013  1.00  0.00     0.173 A 
ATOM     75  F   UNL A   1      42.176  22.722  29.327  1.00  0.00    -0.203 F 
ATOM     76  C   UNL A   1      42.428  21.501  27.330  1.00  0.00     0.198 A 
ATOM     77  C   UNL A   1      43.103  22.623  25.318  1.00  0.00     0.198 A 
ATOM     78  F   UNL A   1      43.540  24.935  25.353  1.00  0.00    -0.203 F 
ATOM     79  F   UNL A   1      42.111  20.373  27.980  1.00  0.00    -0.200 F 
ATOM     80  C   UNL A   1      42.743  21.457  25.980  1.00  0.00     0.200 A 
ATOM     81  F   UNL A   1      43.397  22.586  24.012  1.00  0.00    -0.200 F 
ATOM     82  F   UNL A   1      42.713  20.292  25.320  1.00  0.00    -0.200 F 
ENDBRANCH  48  72
BRANCH  60  83
ATOM     83  C   UNL A   1      48.036  26.957  30.873  1.00  0.00     0.064 A 
ATOM     84  C   UNL A   1      48.334  26.151  31.981  1.00  0.00     0.173 A 
ATOM     85  C   UNL A   1      49.091  27.328  30.026  1.00  0.00     0.173 A 
ATOM     86  F   UNL A   1      47.363  25.782  32.830  1.00  0.00    -0.203 F 
ATOM     87  C   UNL A   1      49.642  25.751  32.242  1.00  0.00     0.198 A 
ATOM     88  C   UNL A   1      50.392  26.903  30.275  1.00  0.00     0.198 A 
ATOM     89  F   UNL A   1      48.855  28.094  28.950  1.00  0.00    -0.203 F 
ATOM     90  F   UNL A   1      49.911  25.018  33.331  1.00  0.00    -0.200 F 
ATOM     91  C   UNL A   1      50.668  26.120  31.385  1.00  0.00     0.200 A 
ATOM     92  F   UNL A   1      51.381  27.250  29.439  1.00  0.00    -0.200 F 
ATOM     93  F   UNL A   1      51.925  25.728  31.635  1.00  0.00    -0.200 F 
ENDBRANCH  60  83
ENDBRANCH  34  35
ENDBRANCH  26  29
ENDBRANCH  24  25
ENDBRANCH  23  24
ENDBRANCH  22  23
ENDBRANCH   1  22
TORSDOF 17
ENDMDL
MODEL 2
REMARK VINA RESULT:     -10.8      3.543      7.704
REMARK SMILES COC[C@@H](C)CC(=O)N1[C@@H](C2CC2)SC[C@H]1C(=O)NCCCCNC(=O)c1ccc(-c2c3nc(c(-c4c(F)c(F)c(F)c(F)c4F)c4ccc([nH]4)c(-c4c(F)c(F)c(F)c(F)c4F)c4nc(c(-c5c(F)c(F)c(F)c(F)c5F)c5ccc2[nH]5)C=C4)C=C3)cc1
REMARK SMILES IDX 20 1 19 2 17 3 18 4 16 6 9 7 10 8 14 9 15 10 7 11 8 12 6 13
REMARK SMILES IDX 4 14 5 15 3 16 2 17 1 18 11 19 12 20 13 21 21 22 22 23 23 24
REMARK SMILES IDX 24 25 25 26 26 28 27 29 28 30 89 31 29 32 88 33 30 34 31 35
REMARK SMILES IDX 32 36 82 37 33 38 87 39 81 40 83 41 34 42 86 43 80 44 79 45
REMARK SMILES IDX 35 47 67 48 47 49 66 50 48 51 51 52 65 53 84 54 49 55 50 56
REMARK SMILES IDX 64 58 85 59 52 60 36 61 37 62 45 63 38 64 39 65 43 66 46 67
REMARK SMILES IDX 40 68 41 69 44 70 42 71 68 72 69 73 77 74 70 75 71 76 75 77
REMARK SMILES IDX 78 78 72 79 73 80 76 81 74 82 53 83 54 84 62 85 55 86 56 87
REMARK SMILES IDX 60 88 63 89 57 90 58 91 61 92 59 93
REMARK H PARENT 19 5 24 27 83 46 51 57
REMARK Flexibility Score: inf
ROOT
ATOM      1  C   UNL A   1      37.324  23.114  25.412  1.00  0.00     0.116 C 
ENDROOT
BRANCH   1   2
ATOM      2  N   UNL A   1      36.200  23.107  26.316  1.00  0.00    -0.354 N 
ATOM      3  C   UNL A   1      34.979  23.695  26.184  1.00  0.00     0.243 C 
ATOM      4  O   UNL A   1      34.078  23.269  26.919  1.00  0.00    -0.273 OA
ATOM      5  H   UNL A   1      36.336  22.605  27.151  1.00  0.00     0.163 HD
BRANCH   3   6
ATOM      6  C   UNL A   1      34.633  24.680  25.046  1.00  0.00     0.185 C 
ATOM      7  N   UNL A   1      33.609  24.315  24.051  1.00  0.00    -0.318 N 
ATOM      8  C   UNL A   1      32.669  25.379  23.708  1.00  0.00     0.147 C 
ATOM      9  S   UNL A   1      33.371  26.900  24.359  1.00  0.00    -0.134 SA
ATOM     10  C   UNL A   1      34.306  26.045  25.646  1.00  0.00     0.107 C 
BRANCH   7  11
ATOM     11  C   UNL A   1      33.901  23.217  23.261  1.00  0.00     0.224 C 
ATOM     12  O   UNL A   1      34.052  23.333  22.044  1.00  0.00    -0.275 OA
BRANCH  11  13
ATOM     13  C   UNL A   1      33.841  21.828  23.878  1.00  0.00     0.106 C 
BRANCH  13  14
ATOM     14  C   UNL A   1      32.452  21.180  23.911  1.00  0.00     0.021 C 
ATOM     15  C   UNL A   1      31.805  21.442  25.281  1.00  0.00     0.010 C 
BRANCH  14  16
ATOM     16  C   UNL A   1      32.528  19.672  23.628  1.00  0.00     0.163 C 
BRANCH  16  17
ATOM     17  O   UNL A   1      33.618  19.098  24.342  1.00  0.00    -0.384 OA
ATOM     18  C   UNL A   1      33.782  17.707  24.101  1.00  0.00     0.194 C 
ENDBRANCH  16  17
ENDBRANCH  14  16
ENDBRANCH  13  14
ENDBRANCH  11  13
ENDBRANCH   7  11
BRANCH   8  19
ATOM     19  C   UNL A   1      31.303  25.013  24.238  1.00  0.00     0.022 C 
ATOM     20  C   UNL A   1      29.977  25.592  23.779  1.00  0.00     0.007 C 
ATOM     21  C   UNL A   1      30.335  24.177  23.430  1.00  0.00     0.007 C 
ENDBRANCH   8  19
ENDBRANCH   3   6
ENDBRANCH   1   2
BRANCH   1  22
ATOM     22  C   UNL A   1      37.396  21.874  24.523  1.00  0.00     0.023 C 
BRANCH  22  23
ATOM     23  C   UNL A   1      37.865  20.609  25.240  1.00  0.00     0.023 C 
BRANCH  23  24
ATOM     24  C   UNL A   1      39.255  20.681  25.866  1.00  0.00     0.116 C 
BRANCH  24  25
ATOM     25  N   UNL A   1      40.028  19.449  25.800  1.00  0.00    -0.352 N 
ATOM     26  C   UNL A   1      41.373  19.280  26.056  1.00  0.00     0.251 C 
ATOM     27  H   UNL A   1      39.531  18.638  25.542  1.00  0.00     0.163 HD
ATOM     28  O   UNL A   1      41.902  18.179  25.938  1.00  0.00    -0.269 OA
BRANCH  26  29
ATOM     29  C   UNL A   1      42.191  20.465  26.402  1.00  0.00     0.039 A 
ATOM     30  C   UNL A   1      42.811  21.176  25.372  1.00  0.00     0.014 A 
ATOM     31  C   UNL A   1      42.248  20.936  27.716  1.00  0.00     0.014 A 
ATOM     32  C   UNL A   1      43.381  22.423  25.641  1.00  0.00     0.010 A 
ATOM     33  C   UNL A   1      42.744  22.213  27.967  1.00  0.00     0.010 A 
ATOM     34  C   UNL A   1      43.292  22.981  26.927  1.00  0.00    -0.014 A 
BRANCH  34  35
ATOM     35  C   UNL A   1      43.709  24.385  27.190  1.00  0.00     0.031 A 
ATOM     36  C   UNL A   1      42.710  25.400  27.673  1.00  0.00     0.074 A 
ATOM     37  C   UNL A   1      44.968  24.769  26.897  1.00  0.00     0.049 A 
ATOM     38  N   UNL A   1      42.869  26.684  27.877  1.00  0.00    -0.248 NA
ATOM     39  C   UNL A   1      41.344  24.918  27.927  1.00  0.00     0.031 C 
ATOM     40  C   UNL A   1      46.012  23.903  26.344  1.00  0.00     0.029 A 
ATOM     41  N   UNL A   1      45.582  25.994  27.004  1.00  0.00    -0.354 N 
ATOM     42  C   UNL A   1      41.624  27.164  28.255  1.00  0.00     0.074 A 
ATOM     43  C   UNL A   1      40.707  26.045  28.214  1.00  0.00     0.031 C 
ATOM     44  C   UNL A   1      47.138  24.617  26.179  1.00  0.00     0.029 A 
ATOM     45  C   UNL A   1      46.891  25.997  26.581  1.00  0.00     0.049 A 
ATOM     46  H   UNL A   1      45.127  26.795  27.352  1.00  0.00     0.167 HD
ATOM     47  C   UNL A   1      41.279  28.421  28.623  1.00  0.00     0.037 A 
ATOM     48  C   UNL A   1      47.787  27.001  26.518  1.00  0.00     0.037 A 
ATOM     49  C   UNL A   1      42.201  29.522  28.718  1.00  0.00     0.049 A 
ATOM     50  C   UNL A   1      47.387  28.375  26.981  1.00  0.00     0.074 A 
ATOM     51  C   UNL A   1      41.968  30.802  29.188  1.00  0.00     0.029 A 
ATOM     52  N   UNL A   1      43.532  29.472  28.333  1.00  0.00    -0.354 N 
ATOM     53  N   UNL A   1      46.231  28.790  27.438  1.00  0.00    -0.248 NA
ATOM     54  C   UNL A   1      48.420  29.420  26.927  1.00  0.00     0.031 C 
ATOM     55  C   UNL A   1      43.148  31.541  29.051  1.00  0.00     0.029 A 
ATOM     56  C   UNL A   1      44.126  30.708  28.534  1.00  0.00     0.049 A 
ATOM     57  H   UNL A   1      43.988  28.677  27.972  1.00  0.00     0.167 HD
ATOM     58  C   UNL A   1      46.405  30.132  27.750  1.00  0.00     0.074 A 
ATOM     59  C   UNL A   1      47.782  30.459  27.448  1.00  0.00     0.031 C 
ATOM     60  C   UNL A   1      45.501  31.015  28.241  1.00  0.00     0.037 A 
BRANCH  47  61
ATOM     61  C   UNL A   1      39.843  28.681  28.969  1.00  0.00     0.064 A 
ATOM     62  C   UNL A   1      39.357  28.506  30.273  1.00  0.00     0.173 A 
ATOM     63  C   UNL A   1      38.959  29.175  27.998  1.00  0.00     0.173 A 
ATOM     64  F   UNL A   1      40.161  28.027  31.234  1.00  0.00    -0.203 F 
ATOM     65  C   UNL A   1      38.032  28.798  30.588  1.00  0.00     0.198 A 
ATOM     66  C   UNL A   1      37.643  29.491  28.322  1.00  0.00     0.198 A 
ATOM     67  F   UNL A   1      39.376  29.365  26.737  1.00  0.00    -0.203 F 
ATOM     68  F   UNL A   1      37.581  28.589  31.832  1.00  0.00    -0.200 F 
ATOM     69  C   UNL A   1      37.179  29.299  29.615  1.00  0.00     0.200 A 
ATOM     70  F   UNL A   1      36.822  29.986  27.385  1.00  0.00    -0.200 F 
ATOM     71  F   UNL A   1      35.909  29.592  29.924  1.00  0.00    -0.200 F 
ENDBRANCH  47  61
BRANCH  48  72
ATOM     72  C   UNL A   1      49.162  26.746  26.013  1.00  0.00     0.064 A 
ATOM     73  C   UNL A   1      50.171  26.285  26.871  1.00  0.00     0.173 A 
ATOM     74  C   UNL A   1      49.504  26.986  24.675  1.00  0.00     0.173 A 
ATOM     75  F   UNL A   1      49.898  26.063  28.165  1.00  0.00    -0.203 F 
ATOM     76  C   UNL A   1      51.476  26.105  26.418  1.00  0.00     0.198 A 
ATOM     77  C   UNL A   1      50.804  26.778  24.215  1.00  0.00     0.198 A 
ATOM     78  F   UNL A   1      48.576  27.423  23.811  1.00  0.00    -0.203 F 
ATOM     79  F   UNL A   1      52.433  25.720  27.274  1.00  0.00    -0.200 F 
ATOM     80  C   UNL A   1      51.791  26.348  25.090  1.00  0.00     0.200 A 
ATOM     81  F   UNL A   1      51.102  27.003  22.929  1.00  0.00    -0.200 F 
ATOM     82  F   UNL A   1      53.047  26.180  24.655  1.00  0.00    -0.200 F 
ENDBRANCH  48  72
BRANCH  60  83
ATOM     83  C   UNL A   1      45.981  32.409  28.513  1.00  0.00     0.064 A 
ATOM     84  C   UNL A   1      45.891  33.419  27.544  1.00  0.00     0.173 A 
ATOM     85  C   UNL A   1      46.500  32.749  29.772  1.00  0.00     0.173 A 
ATOM     86  F   UNL A   1      45.417  33.141  26.321  1.00  0.00    -0.203 F 
ATOM     87  C   UNL A   1      46.326  34.713  27.818  1.00  0.00     0.198 A 
ATOM     88  C   UNL A   1      46.907  34.050  30.050  1.00  0.00     0.198 A 
ATOM     89  F   UNL A   1      46.601  31.819  30.734  1.00  0.00    -0.203 F 
ATOM     90  F   UNL A   1      46.273  35.652  26.863  1.00  0.00    -0.200 F 
ATOM     91  C   UNL A   1      46.826  35.030  29.072  1.00  0.00     0.200 A 
ATOM     92  F   UNL A   1      47.379  34.357  31.267  1.00  0.00    -0.200 F 
ATOM     93  F   UNL A   1      47.237  36.278  29.337  1.00  0.00    -0.200 F 
ENDBRANCH  60  83
ENDBRANCH  34  35
ENDBRANCH  26  29
ENDBRANCH  24  25
ENDBRANCH  23  24
ENDBRANCH  22  23
ENDBRANCH   1  22
TORSDOF 17
ENDMDL
MODEL 3
REMARK VINA RESULT:     -10.7      3.439      7.646
REMARK SMILES COC[C@@H](C)CC(=O)N1[C@@H](C2CC2)SC[C@H]1C(=O)NCCCCNC(=O)c1ccc(-c2c3nc(c(-c4c(F)c(F)c(F)c(F)c4F)c4ccc([nH]4)c(-c4c(F)c(F)c(F)c(F)c4F)c4nc(c(-c5c(F)c(F)c(F)c(F)c5F)c5ccc2[nH]5)C=C4)C=C3)cc1
REMARK SMILES IDX 20 1 19 2 17 3 18 4 16 6 9 7 10 8 14 9 15 10 7 11 8 12 6 13
REMARK SMILES IDX 4 14 5 15 3 16 2 17 1 18 11 19 12 20 13 21 21 22 22 23 23 24
REMARK SMILES IDX 24 25 25 26 26 28 27 29 28 30 89 31 29 32 88 33 30 34 31 35
REMARK SMILES IDX 32 36 82 37 33 38 87 39 81 40 83 41 34 42 86 43 80 44 79 45
REMARK SMILES IDX 35 47 67 48 47 49 66 50 48 51 51 52 65 53 84 54 49 55 50 56
REMARK SMILES IDX 64 58 85 59 52 60 36 61 37 62 45 63 38 64 39 65 43 66 46 67
REMARK SMILES IDX 40 68 41 69 44 70 42 71 68 72 69 73 77 74 70 75 71 76 75 77
REMARK SMILES IDX 78 78 72 79 73 80 76 81 74 82 53 83 54 84 62 85 55 86 56 87
REMARK SMILES IDX 60 88 63 89 57 90 58 91 61 92 59 93
REMARK H PARENT 19 5 24 27 83 46 51 57
REMARK Flexibility Score: inf
ROOT
ATOM      1  C   UNL A   1      37.364  23.370  25.753  1.00  0.00     0.116 C 
ENDROOT
BRANCH   1   2
ATOM      2  N   UNL A   1      36.170  23.236  26.551  1.00  0.00    -0.354 N 
ATOM      3  C   UNL A   1      34.910  23.692  26.309  1.00  0.00     0.243 C 
ATOM      4  O   UNL A   1      33.997  23.165  26.958  1.00  0.00    -0.273 OA
ATOM      5  H   UNL A   1      36.282  22.741  27.394  1.00  0.00     0.163 HD
BRANCH   3   6
ATOM      6  C   UNL A   1      34.566  24.647  25.145  1.00  0.00     0.185 C 
ATOM      7  N   UNL A   1      33.612  24.219  24.106  1.00  0.00    -0.318 N 
ATOM      8  C   UNL A   1      32.634  25.227  23.708  1.00  0.00     0.147 C 
ATOM      9  S   UNL A   1      33.220  26.789  24.374  1.00  0.00    -0.134 SA
ATOM     10  C   UNL A   1      34.137  25.997  25.713  1.00  0.00     0.107 C 
BRANCH   7  11
ATOM     11  C   UNL A   1      34.001  23.131  23.343  1.00  0.00     0.224 C 
ATOM     12  O   UNL A   1      34.962  23.207  22.576  1.00  0.00    -0.275 OA
BRANCH  11  13
ATOM     13  C   UNL A   1      33.113  21.898  23.310  1.00  0.00     0.106 C 
BRANCH  13  14
ATOM     14  C   UNL A   1      33.148  21.024  24.569  1.00  0.00     0.021 C 
ATOM     15  C   UNL A   1      34.561  20.442  24.742  1.00  0.00     0.010 C 
BRANCH  14  16
ATOM     16  C   UNL A   1      32.104  19.900  24.503  1.00  0.00     0.163 C 
BRANCH  16  17
ATOM     17  O   UNL A   1      32.393  18.909  25.484  1.00  0.00    -0.384 OA
ATOM     18  C   UNL A   1      32.433  17.589  24.961  1.00  0.00     0.194 C 
ENDBRANCH  16  17
ENDBRANCH  14  16
ENDBRANCH  13  14
ENDBRANCH  11  13
ENDBRANCH   7  11
BRANCH   8  19
ATOM     19  C   UNL A   1      31.266  24.791  24.176  1.00  0.00     0.022 C 
ATOM     20  C   UNL A   1      29.947  25.474  23.859  1.00  0.00     0.007 C 
ATOM     21  C   UNL A   1      30.271  24.147  23.236  1.00  0.00     0.007 C 
ENDBRANCH   8  19
ENDBRANCH   3   6
ENDBRANCH   1   2
BRANCH   1  22
ATOM     22  C   UNL A   1      37.466  22.338  24.632  1.00  0.00     0.023 C 
BRANCH  22  23
ATOM     23  C   UNL A   1      37.952  20.962  25.083  1.00  0.00     0.023 C 
BRANCH  23  24
ATOM     24  C   UNL A   1      39.250  20.949  25.885  1.00  0.00     0.116 C 
BRANCH  24  25
ATOM     25  N   UNL A   1      39.994  19.698  25.841  1.00  0.00    -0.352 N 
ATOM     26  C   UNL A   1      41.329  19.498  26.122  1.00  0.00     0.251 C 
ATOM     27  H   UNL A   1      39.482  18.898  25.578  1.00  0.00     0.163 HD
ATOM     28  O   UNL A   1      41.833  18.384  26.020  1.00  0.00    -0.269 OA
BRANCH  26  29
ATOM     29  C   UNL A   1      42.170  20.664  26.475  1.00  0.00     0.039 A 
ATOM     30  C   UNL A   1      42.746  21.412  25.446  1.00  0.00     0.014 A 
ATOM     31  C   UNL A   1      42.291  21.083  27.802  1.00  0.00     0.014 A 
ATOM     32  C   UNL A   1      43.337  22.645  25.736  1.00  0.00     0.010 A 
ATOM     33  C   UNL A   1      42.806  22.348  28.079  1.00  0.00     0.010 A 
ATOM     34  C   UNL A   1      43.311  23.153  27.045  1.00  0.00    -0.014 A 
BRANCH  34  35
ATOM     35  C   UNL A   1      43.748  24.543  27.343  1.00  0.00     0.031 A 
ATOM     36  C   UNL A   1      42.752  25.581  27.778  1.00  0.00     0.074 A 
ATOM     37  C   UNL A   1      45.031  24.896  27.123  1.00  0.00     0.049 A 
ATOM     38  N   UNL A   1      42.932  26.859  28.002  1.00  0.00    -0.248 NA
ATOM     39  C   UNL A   1      41.361  25.133  27.952  1.00  0.00     0.031 C 
ATOM     40  C   UNL A   1      46.082  24.007  26.622  1.00  0.00     0.029 A 
ATOM     41  N   UNL A   1      45.670  26.104  27.275  1.00  0.00    -0.354 N 
ATOM     42  C   UNL A   1      41.680  27.369  28.314  1.00  0.00     0.074 A 
ATOM     43  C   UNL A   1      40.739  26.275  28.213  1.00  0.00     0.031 C 
ATOM     44  C   UNL A   1      47.233  24.692  26.526  1.00  0.00     0.029 A 
ATOM     45  C   UNL A   1      47.000  26.075  26.924  1.00  0.00     0.049 A 
ATOM     46  H   UNL A   1      45.218  26.914  27.604  1.00  0.00     0.167 HD
ATOM     47  C   UNL A   1      41.348  28.632  28.674  1.00  0.00     0.037 A 
ATOM     48  C   UNL A   1      47.924  27.055  26.920  1.00  0.00     0.037 A 
ATOM     49  C   UNL A   1      42.292  29.708  28.829  1.00  0.00     0.049 A 
ATOM     50  C   UNL A   1      47.535  28.437  27.371  1.00  0.00     0.074 A 
ATOM     51  C   UNL A   1      42.067  30.990  29.296  1.00  0.00     0.029 A 
ATOM     52  N   UNL A   1      43.641  29.625  28.518  1.00  0.00    -0.354 N 
ATOM     53  N   UNL A   1      46.366  28.879  27.767  1.00  0.00    -0.248 NA
ATOM     54  C   UNL A   1      48.596  29.454  27.384  1.00  0.00     0.031 C 
ATOM     55  C   UNL A   1      43.271  31.698  29.230  1.00  0.00     0.029 A 
ATOM     56  C   UNL A   1      44.254  30.843  28.762  1.00  0.00     0.049 A 
ATOM     57  H   UNL A   1      44.095  28.821  28.176  1.00  0.00     0.167 HD
ATOM     58  C   UNL A   1      46.558  30.213  28.100  1.00  0.00     0.074 A 
ATOM     59  C   UNL A   1      47.957  30.506  27.877  1.00  0.00     0.031 C 
ATOM     60  C   UNL A   1      45.651  31.116  28.548  1.00  0.00     0.037 A 
BRANCH  47  61
ATOM     61  C   UNL A   1      39.902  28.927  28.941  1.00  0.00     0.064 A 
ATOM     62  C   UNL A   1      39.035  29.339  27.919  1.00  0.00     0.173 A 
ATOM     63  C   UNL A   1      39.365  28.730  30.221  1.00  0.00     0.173 A 
ATOM     64  F   UNL A   1      39.504  29.551  26.681  1.00  0.00    -0.203 F 
ATOM     65  C   UNL A   1      37.684  29.563  28.175  1.00  0.00     0.198 A 
ATOM     66  C   UNL A   1      38.009  28.929  30.467  1.00  0.00     0.198 A 
ATOM     67  F   UNL A   1      40.151  28.331  31.232  1.00  0.00    -0.203 F 
ATOM     68  F   UNL A   1      36.881  29.991  27.191  1.00  0.00    -0.200 F 
ATOM     69  C   UNL A   1      37.171  29.349  29.445  1.00  0.00     0.200 A 
ATOM     70  F   UNL A   1      37.511  28.710  31.693  1.00  0.00    -0.200 F 
ATOM     71  F   UNL A   1      35.868  29.551  29.686  1.00  0.00    -0.200 F 
ENDBRANCH  47  61
BRANCH  48  72
ATOM     72  C   UNL A   1      49.318  26.768  26.490  1.00  0.00     0.064 A 
ATOM     73  C   UNL A   1      50.295  26.384  27.420  1.00  0.00     0.173 A 
ATOM     74  C   UNL A   1      49.711  26.900  25.150  1.00  0.00     0.173 A 
ATOM     75  F   UNL A   1      49.973  26.267  28.717  1.00  0.00    -0.203 F 
ATOM     76  C   UNL A   1      51.616  26.175  27.033  1.00  0.00     0.198 A 
ATOM     77  C   UNL A   1      51.027  26.663  24.758  1.00  0.00     0.198 A 
ATOM     78  F   UNL A   1      48.815  27.260  24.220  1.00  0.00    -0.203 F 
ATOM     79  F   UNL A   1      52.541  25.866  27.953  1.00  0.00    -0.200 F 
ATOM     80  C   UNL A   1      51.981  26.311  25.702  1.00  0.00     0.200 A 
ATOM     81  F   UNL A   1      51.373  26.783  23.470  1.00  0.00    -0.200 F 
ATOM     82  F   UNL A   1      53.254  26.115  25.330  1.00  0.00    -0.200 F 
ENDBRANCH  48  72
BRANCH  60  83
ATOM     83  C   UNL A   1      46.151  32.496  28.858  1.00  0.00     0.064 A 
ATOM     84  C   UNL A   1      46.662  32.824  30.122  1.00  0.00     0.173 A 
ATOM     85  C   UNL A   1      46.156  33.489  27.868  1.00  0.00     0.173 A 
ATOM     86  F   UNL A   1      46.665  31.914  31.107  1.00  0.00    -0.203 F 
ATOM     87  C   UNL A   1      47.138  34.105  30.390  1.00  0.00     0.198 A 
ATOM     88  C   UNL A   1      46.659  34.759  28.131  1.00  0.00     0.198 A 
ATOM     89  F   UNL A   1      45.683  33.222  26.640  1.00  0.00    -0.203 F 
ATOM     90  F   UNL A   1      47.580  34.410  31.617  1.00  0.00    -0.200 F 
ATOM     91  C   UNL A   1      47.143  35.069  29.392  1.00  0.00     0.200 A 
ATOM     92  F   UNL A   1      46.675  35.686  27.162  1.00  0.00    -0.200 F 
ATOM     93  F   UNL A   1      47.608  36.299  29.650  1.00  0.00    -0.200 F 
ENDBRANCH  60  83
ENDBRANCH  34  35
ENDBRANCH  26  29
ENDBRANCH  24  25
ENDBRANCH  23  24
ENDBRANCH  22  23
ENDBRANCH   1  22
TORSDOF 17
ENDMDL
