MODEL 1
REMARK VINA RESULT:     -11.5      0.000      0.000
REMARK SMILES C#CCN(CC(=O)NCCCCNC(=O)c1ccc(-c2c3nc(c(-c4c(F)c(F)c(F)c(F)c4F)c4ccc([nH]4)c(-c4c(F)c(F)c(F)c(F)c4F)c4nc(c(-c5c(F)c(F)c(F)c(F)c5F)c5ccc2[nH]5)C=C4)C=C3)cc1)C(=O)NCc1ccnc(C)n1
REMARK SMILES IDX 9 1 8 2 6 3 7 4 5 6 4 7 3 8 2 9 1 10 79 11 80 12 81 13 82 15
REMARK SMILES IDX 83 16 84 17 89 18 85 19 87 20 86 21 88 22 10 23 11 24 12 25
REMARK SMILES IDX 13 26 14 27 15 29 16 30 17 31 78 32 18 33 77 34 19 35 20 36
REMARK SMILES IDX 21 37 71 38 22 39 76 40 70 41 72 42 23 43 75 44 69 45 68 46
REMARK SMILES IDX 24 48 56 49 36 50 55 51 37 52 40 53 54 54 73 55 38 56 39 57
REMARK SMILES IDX 53 59 74 60 41 61 25 62 26 63 34 64 27 65 28 66 32 67 35 68
REMARK SMILES IDX 29 69 30 70 33 71 31 72 57 73 58 74 66 75 59 76 60 77 64 78
REMARK SMILES IDX 67 79 61 80 62 81 65 82 63 83 42 84 43 85 51 86 44 87 45 88
REMARK SMILES IDX 49 89 52 90 46 91 47 92 50 93 48 94
REMARK H PARENT 8 5 81 14 13 28 72 47 40 58
REMARK Flexibility Score: inf
ROOT
ATOM      1  C   UNL A   1      36.314  21.817  25.629  1.00  0.00     0.116 C 
ENDROOT
BRANCH   1   2
ATOM      2  N   UNL A   1      35.532  21.875  26.842  1.00  0.00    -0.355 N 
ATOM      3  C   UNL A   1      34.293  22.421  27.025  1.00  0.00     0.239 C 
ATOM      4  O   UNL A   1      33.559  21.881  27.861  1.00  0.00    -0.273 OA
ATOM      5  H   UNL A   1      35.943  21.467  27.639  1.00  0.00     0.163 HD
BRANCH   3   6
ATOM      6  C   UNL A   1      33.734  23.523  26.109  1.00  0.00     0.222 C 
BRANCH   6   7
ATOM      7  N   UNL A   1      32.880  23.090  25.006  1.00  0.00    -0.304 N 
BRANCH   7   8
ATOM      8  C   UNL A   1      31.556  23.707  24.941  1.00  0.00     0.211 C 
BRANCH   8   9
ATOM      9  C   UNL A   1      30.650  23.265  26.079  1.00  0.00    -0.085 C 
ATOM     10  C   UNL A   1      29.873  22.886  27.055  1.00  0.00     0.006 C 
ENDBRANCH   8   9
ENDBRANCH   7   8
BRANCH   7  11
ATOM     11  C   UNL A   1      33.188  22.215  24.008  1.00  0.00     0.318 C 
ATOM     12  O   UNL A   1      33.700  22.599  22.949  1.00  0.00    -0.249 OA
ATOM     13  N   UNL A   1      32.982  20.896  24.053  1.00  0.00    -0.332 N 
ATOM     14  H   UNL A   1      33.386  20.461  23.268  1.00  0.00     0.165 HD
BRANCH  13  15
ATOM     15  C   UNL A   1      32.344  19.906  24.908  1.00  0.00     0.174 C 
BRANCH  15  16
ATOM     16  C   UNL A   1      32.830  18.497  24.639  1.00  0.00     0.063 A 
ATOM     17  C   UNL A   1      33.753  18.221  23.648  1.00  0.00     0.046 A 
ATOM     18  N   UNL A   1      32.360  17.527  25.452  1.00  0.00    -0.236 NA
ATOM     19  C   UNL A   1      34.128  16.905  23.509  1.00  0.00     0.115 A 
ATOM     20  C   UNL A   1      32.779  16.267  25.235  1.00  0.00     0.125 A 
ATOM     21  N   UNL A   1      33.652  15.910  24.277  1.00  0.00    -0.242 NA
ATOM     22  C   UNL A   1      32.210  15.194  26.109  1.00  0.00     0.089 C 
ENDBRANCH  15  16
ENDBRANCH  13  15
ENDBRANCH   7  11
ENDBRANCH   6   7
ENDBRANCH   3   6
ENDBRANCH   1   2
BRANCH   1  23
ATOM     23  C   UNL A   1      36.606  20.400  25.142  1.00  0.00     0.023 C 
BRANCH  23  24
ATOM     24  C   UNL A   1      38.052  20.124  24.738  1.00  0.00     0.023 C 
BRANCH  24  25
ATOM     25  C   UNL A   1      39.091  20.315  25.836  1.00  0.00     0.116 C 
BRANCH  25  26
ATOM     26  N   UNL A   1      40.092  19.260  25.890  1.00  0.00    -0.352 N 
ATOM     27  C   UNL A   1      41.441  19.369  26.128  1.00  0.00     0.251 C 
ATOM     28  H   UNL A   1      39.759  18.346  25.736  1.00  0.00     0.163 HD
ATOM     29  O   UNL A   1      42.165  18.380  26.075  1.00  0.00    -0.269 OA
BRANCH  27  30
ATOM     30  C   UNL A   1      42.024  20.699  26.400  1.00  0.00     0.039 A 
ATOM     31  C   UNL A   1      42.349  21.522  25.317  1.00  0.00     0.014 A 
ATOM     32  C   UNL A   1      42.204  21.151  27.710  1.00  0.00     0.014 A 
ATOM     33  C   UNL A   1      42.781  22.829  25.550  1.00  0.00     0.010 A 
ATOM     34  C   UNL A   1      42.567  22.474  27.938  1.00  0.00     0.010 A 
ATOM     35  C   UNL A   1      42.852  23.327  26.861  1.00  0.00    -0.014 A 
BRANCH  35  36
ATOM     36  C   UNL A   1      43.203  24.743  27.127  1.00  0.00     0.031 A 
ATOM     37  C   UNL A   1      44.598  25.236  26.874  1.00  0.00     0.074 A 
ATOM     38  C   UNL A   1      42.286  25.561  27.679  1.00  0.00     0.049 A 
ATOM     39  N   UNL A   1      45.118  26.412  27.118  1.00  0.00    -0.248 NA
ATOM     40  C   UNL A   1      45.545  24.268  26.297  1.00  0.00     0.031 C 
ATOM     41  C   UNL A   1      40.917  25.180  28.033  1.00  0.00     0.029 A 
ATOM     42  N   UNL A   1      42.374  26.877  28.060  1.00  0.00    -0.354 N 
ATOM     43  C   UNL A   1      46.453  26.318  26.749  1.00  0.00     0.074 A 
ATOM     44  C   UNL A   1      46.675  24.959  26.305  1.00  0.00     0.031 C 
ATOM     45  C   UNL A   1      40.291  26.240  28.567  1.00  0.00     0.029 A 
ATOM     46  C   UNL A   1      41.220  27.364  28.623  1.00  0.00     0.049 A 
ATOM     47  H   UNL A   1      43.186  27.419  27.940  1.00  0.00     0.167 HD
ATOM     48  C   UNL A   1      47.401  27.286  26.758  1.00  0.00     0.037 A 
ATOM     49  C   UNL A   1      40.946  28.579  29.135  1.00  0.00     0.037 A 
ATOM     50  C   UNL A   1      47.165  28.645  27.167  1.00  0.00     0.049 A 
ATOM     51  C   UNL A   1      42.009  29.643  29.111  1.00  0.00     0.074 A 
ATOM     52  C   UNL A   1      48.034  29.721  27.127  1.00  0.00     0.029 A 
ATOM     53  N   UNL A   1      45.971  29.115  27.695  1.00  0.00    -0.354 N 
ATOM     54  N   UNL A   1      43.242  29.570  28.675  1.00  0.00    -0.248 NA
ATOM     55  C   UNL A   1      41.636  30.963  29.640  1.00  0.00     0.031 C 
ATOM     56  C   UNL A   1      47.381  30.831  27.673  1.00  0.00     0.029 A 
ATOM     57  C   UNL A   1      46.089  30.459  28.009  1.00  0.00     0.049 A 
ATOM     58  H   UNL A   1      45.159  28.573  27.827  1.00  0.00     0.167 HD
ATOM     59  C   UNL A   1      43.788  30.832  28.858  1.00  0.00     0.074 A 
ATOM     60  C   UNL A   1      42.745  31.658  29.429  1.00  0.00     0.031 C 
ATOM     61  C   UNL A   1      45.041  31.268  28.578  1.00  0.00     0.037 A 
BRANCH  48  62
ATOM     62  C   UNL A   1      48.782  26.907  26.310  1.00  0.00     0.064 A 
ATOM     63  C   UNL A   1      49.718  26.354  27.197  1.00  0.00     0.173 A 
ATOM     64  C   UNL A   1      49.164  27.073  24.971  1.00  0.00     0.173 A 
ATOM     65  F   UNL A   1      49.406  26.186  28.490  1.00  0.00    -0.203 F 
ATOM     66  C   UNL A   1      50.997  26.010  26.766  1.00  0.00     0.198 A 
ATOM     67  C   UNL A   1      50.433  26.700  24.537  1.00  0.00     0.198 A 
ATOM     68  F   UNL A   1      48.305  27.592  24.081  1.00  0.00    -0.203 F 
ATOM     69  F   UNL A   1      51.891  25.531  27.641  1.00  0.00    -0.200 F 
ATOM     70  C   UNL A   1      51.351  26.177  25.435  1.00  0.00     0.200 A 
ATOM     71  F   UNL A   1      50.771  26.851  23.248  1.00  0.00    -0.200 F 
ATOM     72  F   UNL A   1      52.581  25.842  25.021  1.00  0.00    -0.200 F 
ENDBRANCH  48  62
BRANCH  49  73
ATOM     73  C   UNL A   1      39.598  28.856  29.694  1.00  0.00     0.064 A 
ATOM     74  C   UNL A   1      39.302  28.574  31.034  1.00  0.00     0.173 A 
ATOM     75  C   UNL A   1      38.584  29.419  28.904  1.00  0.00     0.173 A 
ATOM     76  F   UNL A   1      40.234  28.017  31.821  1.00  0.00    -0.203 F 
ATOM     77  C   UNL A   1      38.037  28.828  31.560  1.00  0.00     0.198 A 
ATOM     78  C   UNL A   1      37.328  29.696  29.438  1.00  0.00     0.198 A 
ATOM     79  F   UNL A   1      38.819  29.713  27.617  1.00  0.00    -0.203 F 
ATOM     80  F   UNL A   1      37.770  28.512  32.834  1.00  0.00    -0.200 F 
ATOM     81  C   UNL A   1      37.053  29.395  30.764  1.00  0.00     0.200 A 
ATOM     82  F   UNL A   1      36.384  30.257  28.671  1.00  0.00    -0.200 F 
ATOM     83  F   UNL A   1      35.840  29.646  31.273  1.00  0.00    -0.200 F 
ENDBRANCH  49  73
BRANCH  61  84
ATOM     84  C   UNL A   1      45.348  32.708  28.865  1.00  0.00     0.064 A 
ATOM     85  C   UNL A   1      45.073  33.717  27.930  1.00  0.00     0.173 A 
ATOM     86  C   UNL A   1      45.883  33.087  30.105  1.00  0.00     0.173 A 
ATOM     87  F   UNL A   1      44.576  33.402  26.724  1.00  0.00    -0.203 F 
ATOM     88  C   UNL A   1      45.344  35.051  28.219  1.00  0.00     0.198 A 
ATOM     89  C   UNL A   1      46.127  34.425  30.400  1.00  0.00     0.198 A 
ATOM     90  F   UNL A   1      46.158  32.160  31.035  1.00  0.00    -0.203 F 
ATOM     91  F   UNL A   1      45.114  35.995  27.295  1.00  0.00    -0.200 F 
ATOM     92  C   UNL A   1      45.862  35.405  29.455  1.00  0.00     0.200 A 
ATOM     93  F   UNL A   1      46.616  34.766  31.600  1.00  0.00    -0.200 F 
ATOM     94  F   UNL A   1      46.115  36.691  29.734  1.00  0.00    -0.200 F 
ENDBRANCH  61  84
ENDBRANCH  35  36
ENDBRANCH  27  30
ENDBRANCH  25  26
ENDBRANCH  24  25
ENDBRANCH  23  24
ENDBRANCH   1  23
TORSDOF 17
ENDMDL
MODEL 2
REMARK VINA RESULT:     -11.4      6.126     11.553
REMARK SMILES C#CCN(CC(=O)NCCCCNC(=O)c1ccc(-c2c3nc(c(-c4c(F)c(F)c(F)c(F)c4F)c4ccc([nH]4)c(-c4c(F)c(F)c(F)c(F)c4F)c4nc(c(-c5c(F)c(F)c(F)c(F)c5F)c5ccc2[nH]5)C=C4)C=C3)cc1)C(=O)NCc1ccnc(C)n1
REMARK SMILES IDX 9 1 8 2 6 3 7 4 5 6 4 7 3 8 2 9 1 10 79 11 80 12 81 13 82 15
REMARK SMILES IDX 83 16 84 17 89 18 85 19 87 20 86 21 88 22 10 23 11 24 12 25
REMARK SMILES IDX 13 26 14 27 15 29 16 30 17 31 78 32 18 33 77 34 19 35 20 36
REMARK SMILES IDX 21 37 71 38 22 39 76 40 70 41 72 42 23 43 75 44 69 45 68 46
REMARK SMILES IDX 24 48 56 49 36 50 55 51 37 52 40 53 54 54 73 55 38 56 39 57
REMARK SMILES IDX 53 59 74 60 41 61 25 62 26 63 34 64 27 65 28 66 32 67 35 68
REMARK SMILES IDX 29 69 30 70 33 71 31 72 57 73 58 74 66 75 59 76 60 77 64 78
REMARK SMILES IDX 67 79 61 80 62 81 65 82 63 83 42 84 43 85 51 86 44 87 45 88
REMARK SMILES IDX 49 89 52 90 46 91 47 92 50 93 48 94
REMARK H PARENT 8 5 81 14 13 28 72 47 40 58
REMARK Flexibility Score: inf
ROOT
ATOM      1  C   UNL A   1      32.872  29.687  25.771  1.00  0.00     0.116 C 
ENDROOT
BRANCH   1   2
ATOM      2  N   UNL A   1      33.589  29.546  24.524  1.00  0.00    -0.355 N 
ATOM      3  C   UNL A   1      33.637  28.465  23.692  1.00  0.00     0.239 C 
ATOM      4  O   UNL A   1      33.750  28.691  22.482  1.00  0.00    -0.273 OA
ATOM      5  H   UNL A   1      34.110  30.332  24.238  1.00  0.00     0.163 HD
BRANCH   3   6
ATOM      6  C   UNL A   1      33.359  27.033  24.183  1.00  0.00     0.222 C 
BRANCH   6   7
ATOM      7  N   UNL A   1      32.026  26.496  23.923  1.00  0.00    -0.304 N 
BRANCH   7   8
ATOM      8  C   UNL A   1      31.975  25.257  23.149  1.00  0.00     0.211 C 
BRANCH   8   9
ATOM      9  C   UNL A   1      32.307  25.471  21.681  1.00  0.00    -0.085 C 
ATOM     10  C   UNL A   1      32.591  25.655  20.422  1.00  0.00     0.006 C 
ENDBRANCH   8   9
ENDBRANCH   7   8
BRANCH   7  11
ATOM     11  C   UNL A   1      30.831  26.988  24.353  1.00  0.00     0.318 C 
ATOM     12  O   UNL A   1      30.329  26.619  25.421  1.00  0.00    -0.249 OA
ATOM     13  N   UNL A   1      30.092  27.890  23.701  1.00  0.00    -0.332 N 
ATOM     14  H   UNL A   1      29.333  28.175  24.257  1.00  0.00     0.165 HD
BRANCH  13  15
ATOM     15  C   UNL A   1      30.068  28.580  22.420  1.00  0.00     0.174 C 
BRANCH  15  16
ATOM     16  C   UNL A   1      29.237  29.845  22.449  1.00  0.00     0.063 A 
ATOM     17  C   UNL A   1      28.794  30.399  23.636  1.00  0.00     0.046 A 
ATOM     18  N   UNL A   1      28.994  30.440  21.261  1.00  0.00    -0.236 NA
ATOM     19  C   UNL A   1      28.059  31.557  23.534  1.00  0.00     0.115 A 
ATOM     20  C   UNL A   1      28.261  31.568  21.262  1.00  0.00     0.125 A 
ATOM     21  N   UNL A   1      27.769  32.155  22.366  1.00  0.00    -0.242 NA
ATOM     22  C   UNL A   1      27.954  32.188  19.935  1.00  0.00     0.089 C 
ENDBRANCH  15  16
ENDBRANCH  13  15
ENDBRANCH   7  11
ENDBRANCH   6   7
ENDBRANCH   3   6
ENDBRANCH   1   2
BRANCH   1  23
ATOM     23  C   UNL A   1      31.690  30.651  25.705  1.00  0.00     0.023 C 
BRANCH  23  24
ATOM     24  C   UNL A   1      31.548  31.605  26.888  1.00  0.00     0.023 C 
BRANCH  24  25
ATOM     25  C   UNL A   1      32.770  32.459  27.196  1.00  0.00     0.116 C 
BRANCH  25  26
ATOM     26  N   UNL A   1      32.453  33.832  27.561  1.00  0.00    -0.352 N 
ATOM     27  C   UNL A   1      33.071  34.638  28.487  1.00  0.00     0.251 C 
ATOM     28  H   UNL A   1      31.696  34.238  27.080  1.00  0.00     0.163 HD
ATOM     29  O   UNL A   1      32.636  35.760  28.725  1.00  0.00    -0.269 OA
BRANCH  27  30
ATOM     30  C   UNL A   1      34.235  34.122  29.236  1.00  0.00     0.039 A 
ATOM     31  C   UNL A   1      34.009  33.370  30.392  1.00  0.00     0.014 A 
ATOM     32  C   UNL A   1      35.537  34.336  28.776  1.00  0.00     0.014 A 
ATOM     33  C   UNL A   1      35.086  32.766  31.044  1.00  0.00     0.010 A 
ATOM     34  C   UNL A   1      36.600  33.678  29.384  1.00  0.00     0.010 A 
ATOM     35  C   UNL A   1      36.383  32.881  30.520  1.00  0.00    -0.014 A 
BRANCH  35  36
ATOM     36  C   UNL A   1      37.527  32.160  31.131  1.00  0.00     0.031 A 
ATOM     37  C   UNL A   1      38.023  32.549  32.493  1.00  0.00     0.074 A 
ATOM     38  C   UNL A   1      38.170  31.214  30.420  1.00  0.00     0.049 A 
ATOM     39  N   UNL A   1      39.053  32.095  33.159  1.00  0.00    -0.248 NA
ATOM     40  C   UNL A   1      37.280  33.613  33.187  1.00  0.00     0.031 C 
ATOM     41  C   UNL A   1      37.823  30.795  29.061  1.00  0.00     0.029 A 
ATOM     42  N   UNL A   1      39.265  30.448  30.735  1.00  0.00    -0.354 N 
ATOM     43  C   UNL A   1      39.096  32.831  34.336  1.00  0.00     0.074 A 
ATOM     44  C   UNL A   1      38.016  33.791  34.274  1.00  0.00     0.031 C 
ATOM     45  C   UNL A   1      38.679  29.841  28.664  1.00  0.00     0.029 A 
ATOM     46  C   UNL A   1      39.652  29.603  29.725  1.00  0.00     0.049 A 
ATOM     47  H   UNL A   1      39.727  30.500  31.603  1.00  0.00     0.167 HD
ATOM     48  C   UNL A   1      39.947  32.701  35.382  1.00  0.00     0.037 A 
ATOM     49  C   UNL A   1      40.685  28.740  29.659  1.00  0.00     0.037 A 
ATOM     50  C   UNL A   1      40.997  31.720  35.453  1.00  0.00     0.049 A 
ATOM     51  C   UNL A   1      41.600  28.597  30.844  1.00  0.00     0.074 A 
ATOM     52  C   UNL A   1      41.853  31.449  36.506  1.00  0.00     0.029 A 
ATOM     53  N   UNL A   1      41.338  30.852  34.426  1.00  0.00    -0.354 N 
ATOM     54  N   UNL A   1      41.576  29.235  31.988  1.00  0.00    -0.248 NA
ATOM     55  C   UNL A   1      42.679  27.606  30.731  1.00  0.00     0.031 C 
ATOM     56  C   UNL A   1      42.741  30.445  36.099  1.00  0.00     0.029 A 
ATOM     57  C   UNL A   1      42.408  30.060  34.811  1.00  0.00     0.049 A 
ATOM     58  H   UNL A   1      40.885  30.805  33.553  1.00  0.00     0.167 HD
ATOM     59  C   UNL A   1      42.620  28.712  32.739  1.00  0.00     0.074 A 
ATOM     60  C   UNL A   1      43.247  27.691  31.926  1.00  0.00     0.031 C 
ATOM     61  C   UNL A   1      43.022  29.048  33.989  1.00  0.00     0.037 A 
BRANCH  48  62
ATOM     62  C   UNL A   1      39.774  33.644  36.536  1.00  0.00     0.064 A 
ATOM     63  C   UNL A   1      40.438  34.878  36.585  1.00  0.00     0.173 A 
ATOM     64  C   UNL A   1      38.911  33.320  37.594  1.00  0.00     0.173 A 
ATOM     65  F   UNL A   1      41.283  35.231  35.605  1.00  0.00    -0.203 F 
ATOM     66  C   UNL A   1      40.269  35.741  37.666  1.00  0.00     0.198 A 
ATOM     67  C   UNL A   1      38.721  34.197  38.658  1.00  0.00     0.198 A 
ATOM     68  F   UNL A   1      38.249  32.153  37.594  1.00  0.00    -0.203 F 
ATOM     69  F   UNL A   1      40.952  36.893  37.715  1.00  0.00    -0.200 F 
ATOM     70  C   UNL A   1      39.406  35.403  38.698  1.00  0.00     0.200 A 
ATOM     71  F   UNL A   1      37.878  33.875  39.649  1.00  0.00    -0.200 F 
ATOM     72  F   UNL A   1      39.240  36.235  39.734  1.00  0.00    -0.200 F 
ENDBRANCH  48  62
BRANCH  49  73
ATOM     73  C   UNL A   1      40.889  27.929  28.432  1.00  0.00     0.064 A 
ATOM     74  C   UNL A   1      40.255  26.690  28.274  1.00  0.00     0.173 A 
ATOM     75  C   UNL A   1      41.713  28.380  27.389  1.00  0.00     0.173 A 
ATOM     76  F   UNL A   1      39.474  26.208  29.253  1.00  0.00    -0.203 F 
ATOM     77  C   UNL A   1      40.447  25.923  27.127  1.00  0.00     0.198 A 
ATOM     78  C   UNL A   1      41.885  27.624  26.232  1.00  0.00     0.198 A 
ATOM     79  F   UNL A   1      42.338  29.562  27.489  1.00  0.00    -0.203 F 
ATOM     80  F   UNL A   1      39.859  24.725  27.018  1.00  0.00    -0.200 F 
ATOM     81  C   UNL A   1      41.257  26.394  26.103  1.00  0.00     0.200 A 
ATOM     82  F   UNL A   1      42.656  28.089  25.239  1.00  0.00    -0.200 F 
ATOM     83  F   UNL A   1      41.436  25.660  24.997  1.00  0.00    -0.200 F 
ENDBRANCH  49  73
BRANCH  61  84
ATOM     84  C   UNL A   1      44.181  28.291  34.564  1.00  0.00     0.064 A 
ATOM     85  C   UNL A   1      45.499  28.751  34.428  1.00  0.00     0.173 A 
ATOM     86  C   UNL A   1      43.968  27.113  35.296  1.00  0.00     0.173 A 
ATOM     87  F   UNL A   1      45.755  29.863  33.723  1.00  0.00    -0.203 F 
ATOM     88  C   UNL A   1      46.563  28.048  34.986  1.00  0.00     0.198 A 
ATOM     89  C   UNL A   1      45.031  26.428  35.876  1.00  0.00     0.198 A 
ATOM     90  F   UNL A   1      42.725  26.634  35.460  1.00  0.00    -0.203 F 
ATOM     91  F   UNL A   1      47.818  28.482  34.806  1.00  0.00    -0.200 F 
ATOM     92  C   UNL A   1      46.328  26.892  35.715  1.00  0.00     0.200 A 
ATOM     93  F   UNL A   1      44.802  25.317  36.591  1.00  0.00    -0.200 F 
ATOM     94  F   UNL A   1      47.353  26.221  36.257  1.00  0.00    -0.200 F 
ENDBRANCH  61  84
ENDBRANCH  35  36
ENDBRANCH  27  30
ENDBRANCH  25  26
ENDBRANCH  24  25
ENDBRANCH  23  24
ENDBRANCH   1  23
TORSDOF 17
ENDMDL
MODEL 3
REMARK VINA RESULT:     -11.3      5.589     10.838
REMARK SMILES C#CCN(CC(=O)NCCCCNC(=O)c1ccc(-c2c3nc(c(-c4c(F)c(F)c(F)c(F)c4F)c4ccc([nH]4)c(-c4c(F)c(F)c(F)c(F)c4F)c4nc(c(-c5c(F)c(F)c(F)c(F)c5F)c5ccc2[nH]5)C=C4)C=C3)cc1)C(=O)NCc1ccnc(C)n1
REMARK SMILES IDX 9 1 8 2 6 3 7 4 5 6 4 7 3 8 2 9 1 10 79 11 80 12 81 13 82 15
REMARK SMILES IDX 83 16 84 17 89 18 85 19 87 20 86 21 88 22 10 23 11 24 12 25
REMARK SMILES IDX 13 26 14 27 15 29 16 30 17 31 78 32 18 33 77 34 19 35 20 36
REMARK SMILES IDX 21 37 71 38 22 39 76 40 70 41 72 42 23 43 75 44 69 45 68 46
REMARK SMILES IDX 24 48 56 49 36 50 55 51 37 52 40 53 54 54 73 55 38 56 39 57
REMARK SMILES IDX 53 59 74 60 41 61 25 62 26 63 34 64 27 65 28 66 32 67 35 68
REMARK SMILES IDX 29 69 30 70 33 71 31 72 57 73 58 74 66 75 59 76 60 77 64 78
REMARK SMILES IDX 67 79 61 80 62 81 65 82 63 83 42 84 43 85 51 86 44 87 45 88
REMARK SMILES IDX 49 89 52 90 46 91 47 92 50 93 48 94
REMARK H PARENT 8 5 81 14 13 28 72 47 40 58
REMARK Flexibility Score: inf
ROOT
ATOM      1  C   UNL A   1      31.838  29.754  25.313  1.00  0.00     0.116 C 
ENDROOT
BRANCH   1   2
ATOM      2  N   UNL A   1      33.097  29.624  24.617  1.00  0.00    -0.355 N 
ATOM      3  C   UNL A   1      33.514  28.609  23.804  1.00  0.00     0.239 C 
ATOM      4  O   UNL A   1      34.265  28.909  22.870  1.00  0.00    -0.273 OA
ATOM      5  H   UNL A   1      33.737  30.361  24.745  1.00  0.00     0.163 HD
BRANCH   3   6
ATOM      6  C   UNL A   1      32.932  27.187  23.894  1.00  0.00     0.222 C 
BRANCH   6   7
ATOM      7  N   UNL A   1      32.260  26.675  22.703  1.00  0.00    -0.304 N 
BRANCH   7   8
ATOM      8  C   UNL A   1      30.985  27.304  22.368  1.00  0.00     0.211 C 
BRANCH   8   9
ATOM      9  C   UNL A   1      29.857  26.863  23.286  1.00  0.00    -0.085 C 
ATOM     10  C   UNL A   1      28.889  26.484  24.074  1.00  0.00     0.006 C 
ENDBRANCH   8   9
ENDBRANCH   7   8
BRANCH   7  11
ATOM     11  C   UNL A   1      32.703  25.713  21.846  1.00  0.00     0.318 C 
ATOM     12  O   UNL A   1      33.206  26.005  20.753  1.00  0.00    -0.249 OA
ATOM     13  N   UNL A   1      32.648  24.398  22.072  1.00  0.00    -0.332 N 
ATOM     14  H   UNL A   1      33.128  23.910  21.365  1.00  0.00     0.165 HD
BRANCH  13  15
ATOM     15  C   UNL A   1      32.098  23.467  23.045  1.00  0.00     0.174 C 
BRANCH  15  16
ATOM     16  C   UNL A   1      33.166  22.748  23.842  1.00  0.00     0.063 A 
ATOM     17  C   UNL A   1      33.079  21.398  24.124  1.00  0.00     0.046 A 
ATOM     18  N   UNL A   1      34.238  23.478  24.217  1.00  0.00    -0.236 NA
ATOM     19  C   UNL A   1      34.119  20.855  24.844  1.00  0.00     0.115 A 
ATOM     20  C   UNL A   1      35.202  22.861  24.924  1.00  0.00     0.125 A 
ATOM     21  N   UNL A   1      35.182  21.561  25.264  1.00  0.00    -0.242 NA
ATOM     22  C   UNL A   1      36.359  23.693  25.380  1.00  0.00     0.089 C 
ENDBRANCH  15  16
ENDBRANCH  13  15
ENDBRANCH   7  11
ENDBRANCH   6   7
ENDBRANCH   3   6
ENDBRANCH   1   2
BRANCH   1  23
ATOM     23  C   UNL A   1      31.958  30.356  26.710  1.00  0.00     0.023 C 
BRANCH  23  24
ATOM     24  C   UNL A   1      31.645  31.847  26.818  1.00  0.00     0.023 C 
BRANCH  24  25
ATOM     25  C   UNL A   1      32.833  32.748  27.128  1.00  0.00     0.116 C 
BRANCH  25  26
ATOM     26  N   UNL A   1      32.460  34.080  27.581  1.00  0.00    -0.352 N 
ATOM     27  C   UNL A   1      33.020  34.832  28.585  1.00  0.00     0.251 C 
ATOM     28  H   UNL A   1      31.707  34.498  27.105  1.00  0.00     0.163 HD
ATOM     29  O   UNL A   1      32.542  35.921  28.889  1.00  0.00    -0.269 OA
BRANCH  27  30
ATOM     30  C   UNL A   1      34.176  34.298  29.335  1.00  0.00     0.039 A 
ATOM     31  C   UNL A   1      33.936  33.537  30.482  1.00  0.00     0.014 A 
ATOM     32  C   UNL A   1      35.482  34.503  28.883  1.00  0.00     0.014 A 
ATOM     33  C   UNL A   1      35.003  32.915  31.133  1.00  0.00     0.010 A 
ATOM     34  C   UNL A   1      36.535  33.828  29.490  1.00  0.00     0.010 A 
ATOM     35  C   UNL A   1      36.304  33.022  30.616  1.00  0.00    -0.014 A 
BRANCH  35  36
ATOM     36  C   UNL A   1      37.437  32.284  31.226  1.00  0.00     0.031 A 
ATOM     37  C   UNL A   1      37.948  32.671  32.583  1.00  0.00     0.074 A 
ATOM     38  C   UNL A   1      38.059  31.321  30.518  1.00  0.00     0.049 A 
ATOM     39  N   UNL A   1      38.973  32.201  33.247  1.00  0.00    -0.248 NA
ATOM     40  C   UNL A   1      37.228  33.752  33.275  1.00  0.00     0.031 C 
ATOM     41  C   UNL A   1      37.698  30.901  29.163  1.00  0.00     0.029 A 
ATOM     42  N   UNL A   1      39.141  30.537  30.832  1.00  0.00    -0.354 N 
ATOM     43  C   UNL A   1      39.036  32.943  34.419  1.00  0.00     0.074 A 
ATOM     44  C   UNL A   1      37.974  33.923  34.356  1.00  0.00     0.031 C 
ATOM     45  C   UNL A   1      38.534  29.928  28.767  1.00  0.00     0.029 A 
ATOM     46  C   UNL A   1      39.508  29.679  29.825  1.00  0.00     0.049 A 
ATOM     47  H   UNL A   1      39.608  30.585  31.697  1.00  0.00     0.167 HD
ATOM     48  C   UNL A   1      39.890  32.804  35.461  1.00  0.00     0.037 A 
ATOM     49  C   UNL A   1      40.523  28.796  29.758  1.00  0.00     0.037 A 
ATOM     50  C   UNL A   1      40.922  31.804  35.533  1.00  0.00     0.049 A 
ATOM     51  C   UNL A   1      41.442  28.643  30.939  1.00  0.00     0.074 A 
ATOM     52  C   UNL A   1      41.778  31.522  36.583  1.00  0.00     0.029 A 
ATOM     53  N   UNL A   1      41.240  30.923  34.509  1.00  0.00    -0.354 N 
ATOM     54  N   UNL A   1      41.436  29.288  32.080  1.00  0.00    -0.248 NA
ATOM     55  C   UNL A   1      42.502  27.631  30.827  1.00  0.00     0.031 C 
ATOM     56  C   UNL A   1      42.645  30.501  36.178  1.00  0.00     0.029 A 
ATOM     57  C   UNL A   1      42.298  30.114  34.893  1.00  0.00     0.049 A 
ATOM     58  H   UNL A   1      40.782  30.880  33.639  1.00  0.00     0.167 HD
ATOM     59  C   UNL A   1      42.474  28.750  32.828  1.00  0.00     0.074 A 
ATOM     60  C   UNL A   1      43.077  27.713  32.018  1.00  0.00     0.031 C 
ATOM     61  C   UNL A   1      42.888  29.086  34.075  1.00  0.00     0.037 A 
BRANCH  48  62
ATOM     62  C   UNL A   1      39.740  33.756  36.611  1.00  0.00     0.064 A 
ATOM     63  C   UNL A   1      40.392  34.998  36.629  1.00  0.00     0.173 A 
ATOM     64  C   UNL A   1      38.912  33.434  37.697  1.00  0.00     0.173 A 
ATOM     65  F   UNL A   1      41.204  35.349  35.621  1.00  0.00    -0.203 F 
ATOM     66  C   UNL A   1      40.245  35.870  37.705  1.00  0.00     0.198 A 
ATOM     67  C   UNL A   1      38.744  34.320  38.757  1.00  0.00     0.198 A 
ATOM     68  F   UNL A   1      38.262  32.261  37.727  1.00  0.00    -0.203 F 
ATOM     69  F   UNL A   1      40.917  37.029  37.723  1.00  0.00    -0.200 F 
ATOM     70  C   UNL A   1      39.416  35.533  38.765  1.00  0.00     0.200 A 
ATOM     71  F   UNL A   1      37.933  33.999  39.775  1.00  0.00    -0.200 F 
ATOM     72  F   UNL A   1      39.272  36.375  39.798  1.00  0.00    -0.200 F 
ENDBRANCH  48  62
BRANCH  49  73
ATOM     73  C   UNL A   1      40.707  27.974  28.535  1.00  0.00     0.064 A 
ATOM     74  C   UNL A   1      40.096  26.719  28.413  1.00  0.00     0.173 A 
ATOM     75  C   UNL A   1      41.484  28.431  27.460  1.00  0.00     0.173 A 
ATOM     76  F   UNL A   1      39.361  26.232  29.424  1.00  0.00    -0.203 F 
ATOM     77  C   UNL A   1      40.269  25.942  27.270  1.00  0.00     0.198 A 
ATOM     78  C   UNL A   1      41.635  27.665  26.307  1.00  0.00     0.198 A 
ATOM     79  F   UNL A   1      42.084  29.629  27.525  1.00  0.00    -0.203 F 
ATOM     80  F   UNL A   1      39.706  24.729  27.196  1.00  0.00    -0.200 F 
ATOM     81  C   UNL A   1      41.033  26.419  26.214  1.00  0.00     0.200 A 
ATOM     82  F   UNL A   1      42.362  28.134  25.283  1.00  0.00    -0.200 F 
ATOM     83  F   UNL A   1      41.193  25.675  25.112  1.00  0.00    -0.200 F 
ENDBRANCH  49  73
BRANCH  61  84
ATOM     84  C   UNL A   1      44.037  28.310  34.648  1.00  0.00     0.064 A 
ATOM     85  C   UNL A   1      45.360  28.754  34.517  1.00  0.00     0.173 A 
ATOM     86  C   UNL A   1      43.806  27.132  35.374  1.00  0.00     0.173 A 
ATOM     87  F   UNL A   1      45.633  29.866  33.819  1.00  0.00    -0.203 F 
ATOM     88  C   UNL A   1      46.414  28.034  35.073  1.00  0.00     0.198 A 
ATOM     89  C   UNL A   1      44.859  26.430  35.952  1.00  0.00     0.198 A 
ATOM     90  F   UNL A   1      42.557  26.669  35.532  1.00  0.00    -0.203 F 
ATOM     91  F   UNL A   1      47.675  28.453  34.899  1.00  0.00    -0.200 F 
ATOM     92  C   UNL A   1      46.162  26.878  35.796  1.00  0.00     0.200 A 
ATOM     93  F   UNL A   1      44.614  25.319  36.661  1.00  0.00    -0.200 F 
ATOM     94  F   UNL A   1      47.177  26.190  36.337  1.00  0.00    -0.200 F 
ENDBRANCH  61  84
ENDBRANCH  35  36
ENDBRANCH  27  30
ENDBRANCH  25  26
ENDBRANCH  24  25
ENDBRANCH  23  24
ENDBRANCH   1  23
TORSDOF 17
ENDMDL
