MODEL 1
REMARK VINA RESULT:     -10.7      0.000      0.000
REMARK SMILES [NH3+]CC1([C@H](O)C(=O)NCCCCNC(=O)c2ccc(-c3c4nc(c(-c5c(F)c(F)c(F)c(F)c5F)c5ccc([nH]5)c(-c5c(F)c(F)c(F)c(F)c5F)c5nc(c(-c6c(F)c(F)c(F)c(F)c6F)c6ccc3[nH]6)C=C5)C=C4)cc2)Cc2ccccc2C1
REMARK SMILES IDX 10 1 9 2 8 3 6 4 7 5 4 7 3 8 79 9 86 10 80 11 85 12 81 13
REMARK SMILES IDX 84 14 82 15 83 16 2 17 1 18 5 22 11 24 12 25 13 26 14 27
REMARK SMILES IDX 15 29 16 30 17 31 78 32 18 33 77 34 19 35 20 36 21 37 71 38
REMARK SMILES IDX 22 39 76 40 70 41 72 42 23 43 75 44 69 45 68 46 24 48 56 49
REMARK SMILES IDX 36 50 55 51 37 52 40 53 54 54 73 55 38 56 39 57 53 59 74 60
REMARK SMILES IDX 41 61 25 62 26 63 34 64 27 65 28 66 32 67 35 68 29 69 30 70
REMARK SMILES IDX 33 71 31 72 57 73 58 74 66 75 59 76 60 77 64 78 67 79 61 80
REMARK SMILES IDX 62 81 65 82 63 83 42 84 43 85 51 86 44 87 45 88 49 89 52 90
REMARK SMILES IDX 46 91 47 92 50 93 48 94
REMARK H PARENT 8 6 1 19 1 20 1 21 5 23 13 28 72 47 40 58
REMARK Flexibility Score: inf
ROOT
ATOM      1  C   UNL A   1      34.047  35.065  28.283  1.00  0.00     0.023 C 
ENDROOT
BRANCH   1   2
ATOM      2  C   UNL A   1      33.326  36.032  29.214  1.00  0.00     0.116 C 
BRANCH   2   3
ATOM      3  N   UNL A   1      32.708  35.380  30.358  1.00  0.00    -0.354 N 
ATOM      4  C   UNL A   1      33.178  35.253  31.637  1.00  0.00     0.249 C 
ATOM      5  O   UNL A   1      32.367  34.958  32.518  1.00  0.00    -0.272 OA
ATOM      6  H   UNL A   1      31.828  34.972  30.189  1.00  0.00     0.163 HD
BRANCH   4   7
ATOM      7  C   UNL A   1      34.661  35.509  31.986  1.00  0.00     0.215 C 
BRANCH   7   8
ATOM      8  C   UNL A   1      35.482  34.230  32.389  1.00  0.00     0.062 C 
ATOM      9  C   UNL A   1      36.973  34.617  32.704  1.00  0.00     0.052 C 
ATOM     10  C   UNL A   1      35.560  33.250  31.167  1.00  0.00     0.052 C 
ATOM     11  C   UNL A   1      37.700  34.279  31.445  1.00  0.00    -0.044 A 
ATOM     12  C   UNL A   1      36.915  33.513  30.588  1.00  0.00    -0.044 A 
ATOM     13  C   UNL A   1      39.018  34.581  31.140  1.00  0.00     0.004 A 
ATOM     14  C   UNL A   1      37.436  33.026  29.400  1.00  0.00     0.004 A 
ATOM     15  C   UNL A   1      39.549  34.100  29.944  1.00  0.00     0.000 A 
ATOM     16  C   UNL A   1      38.762  33.326  29.079  1.00  0.00     0.000 A 
BRANCH   8  17
ATOM     17  C   UNL A   1      34.945  33.460  33.626  1.00  0.00     0.269 C 
BRANCH  17  18
ATOM     18  N   UNL A   1      34.778  34.197  34.878  1.00  0.00    -0.357 N 
ATOM     19  H   UNL A   1      33.799  34.463  34.988  1.00  0.00     0.344 HD
ATOM     20  H   UNL A   1      35.359  35.036  34.859  1.00  0.00     0.344 HD
ATOM     21  H   UNL A   1      35.059  33.606  35.661  1.00  0.00     0.344 HD
ENDBRANCH  17  18
ENDBRANCH   8  17
ENDBRANCH   7   8
BRANCH   7  22
ATOM     22  O   UNL A   1      34.788  36.572  32.931  1.00  0.00    -0.382 OA
ATOM     23  H   UNL A   1      35.724  36.698  33.152  1.00  0.00     0.211 HD
ENDBRANCH   7  22
ENDBRANCH   4   7
ENDBRANCH   2   3
ENDBRANCH   1   2
BRANCH   1  24
ATOM     24  C   UNL A   1      33.301  33.760  28.002  1.00  0.00     0.023 C 
BRANCH  24  25
ATOM     25  C   UNL A   1      34.027  32.480  28.412  1.00  0.00     0.116 C 
BRANCH  25  26
ATOM     26  N   UNL A   1      33.698  31.337  27.571  1.00  0.00    -0.352 N 
ATOM     27  C   UNL A   1      34.435  30.212  27.290  1.00  0.00     0.251 C 
ATOM     28  H   UNL A   1      32.815  31.377  27.139  1.00  0.00     0.163 HD
ATOM     29  O   UNL A   1      34.038  29.400  26.462  1.00  0.00    -0.269 OA
BRANCH  27  30
ATOM     30  C   UNL A   1      35.735  30.001  27.960  1.00  0.00     0.039 A 
ATOM     31  C   UNL A   1      35.746  29.654  29.313  1.00  0.00     0.014 A 
ATOM     32  C   UNL A   1      36.934  30.117  27.252  1.00  0.00     0.014 A 
ATOM     33  C   UNL A   1      36.954  29.330  29.934  1.00  0.00     0.010 A 
ATOM     34  C   UNL A   1      38.128  29.722  27.851  1.00  0.00     0.010 A 
ATOM     35  C   UNL A   1      38.148  29.315  29.194  1.00  0.00    -0.014 A 
BRANCH  35  36
ATOM     36  C   UNL A   1      39.421  28.848  29.800  1.00  0.00     0.031 A 
ATOM     37  C   UNL A   1      40.007  29.569  30.981  1.00  0.00     0.074 A 
ATOM     38  C   UNL A   1      40.087  27.821  29.238  1.00  0.00     0.049 A 
ATOM     39  N   UNL A   1      41.142  29.357  31.600  1.00  0.00    -0.248 NA
ATOM     40  C   UNL A   1      39.231  30.696  31.520  1.00  0.00     0.031 C 
ATOM     41  C   UNL A   1      39.651  27.077  28.056  1.00  0.00     0.029 A 
ATOM     42  N   UNL A   1      41.279  27.232  29.579  1.00  0.00    -0.354 N 
ATOM     43  C   UNL A   1      41.220  30.329  32.587  1.00  0.00     0.074 A 
ATOM     44  C   UNL A   1      40.046  31.164  32.454  1.00  0.00     0.031 C 
ATOM     45  C   UNL A   1      40.549  26.117  27.783  1.00  0.00     0.029 A 
ATOM     46  C   UNL A   1      41.641  26.201  28.748  1.00  0.00     0.049 A 
ATOM     47  H   UNL A   1      41.823  27.523  30.346  1.00  0.00     0.167 HD
ATOM     48  C   UNL A   1      42.175  30.497  33.533  1.00  0.00     0.037 A 
ATOM     49  C   UNL A   1      42.734  25.413  28.761  1.00  0.00     0.037 A 
ATOM     50  C   UNL A   1      43.328  29.649  33.682  1.00  0.00     0.049 A 
ATOM     51  C   UNL A   1      43.773  25.615  29.828  1.00  0.00     0.074 A 
ATOM     52  C   UNL A   1      44.316  29.697  34.651  1.00  0.00     0.029 A 
ATOM     53  N   UNL A   1      43.648  28.598  32.837  1.00  0.00    -0.354 N 
ATOM     54  N   UNL A   1      43.801  26.493  30.800  1.00  0.00    -0.248 NA
ATOM     55  C   UNL A   1      44.933  24.712  29.802  1.00  0.00     0.031 C 
ATOM     56  C   UNL A   1      45.255  28.699  34.369  1.00  0.00     0.029 A 
ATOM     57  C   UNL A   1      44.829  28.001  33.251  1.00  0.00     0.049 A 
ATOM     58  H   UNL A   1      43.116  28.316  32.058  1.00  0.00     0.167 HD
ATOM     59  C   UNL A   1      44.962  26.234  31.515  1.00  0.00     0.074 A 
ATOM     60  C   UNL A   1      45.605  25.105  30.874  1.00  0.00     0.031 C 
ATOM     61  C   UNL A   1      45.453  26.875  32.605  1.00  0.00     0.037 A 
BRANCH  48  62
ATOM     62  C   UNL A   1      42.006  31.641  34.491  1.00  0.00     0.064 A 
ATOM     63  C   UNL A   1      42.489  32.924  34.194  1.00  0.00     0.173 A 
ATOM     64  C   UNL A   1      41.325  31.460  35.704  1.00  0.00     0.173 A 
ATOM     65  F   UNL A   1      43.157  33.145  33.051  1.00  0.00    -0.203 F 
ATOM     66  C   UNL A   1      42.321  33.978  35.087  1.00  0.00     0.198 A 
ATOM     67  C   UNL A   1      41.134  32.523  36.582  1.00  0.00     0.198 A 
ATOM     68  F   UNL A   1      40.839  30.254  36.035  1.00  0.00    -0.203 F 
ATOM     69  F   UNL A   1      42.832  35.183  34.802  1.00  0.00    -0.200 F 
ATOM     70  C   UNL A   1      41.639  33.778  36.277  1.00  0.00     0.200 A 
ATOM     71  F   UNL A   1      40.464  32.333  37.727  1.00  0.00    -0.200 F 
ATOM     72  F   UNL A   1      41.472  34.795  37.134  1.00  0.00    -0.200 F 
ENDBRANCH  48  62
BRANCH  49  73
ATOM     73  C   UNL A   1      42.885  24.339  27.746  1.00  0.00     0.064 A 
ATOM     74  C   UNL A   1      43.460  24.609  26.495  1.00  0.00     0.173 A 
ATOM     75  C   UNL A   1      42.457  23.028  27.999  1.00  0.00     0.173 A 
ATOM     76  F   UNL A   1      43.863  25.852  26.200  1.00  0.00    -0.203 F 
ATOM     77  C   UNL A   1      43.584  23.611  25.531  1.00  0.00     0.198 A 
ATOM     78  C   UNL A   1      42.607  22.026  27.043  1.00  0.00     0.198 A 
ATOM     79  F   UNL A   1      41.906  22.718  29.182  1.00  0.00    -0.203 F 
ATOM     80  F   UNL A   1      44.097  23.907  24.329  1.00  0.00    -0.200 F 
ATOM     81  C   UNL A   1      43.162  22.320  25.807  1.00  0.00     0.200 A 
ATOM     82  F   UNL A   1      42.210  20.775  27.318  1.00  0.00    -0.200 F 
ATOM     83  F   UNL A   1      43.284  21.361  24.879  1.00  0.00    -0.200 F 
ENDBRANCH  49  73
BRANCH  61  84
ATOM     84  C   UNL A   1      46.731  26.352  33.190  1.00  0.00     0.064 A 
ATOM     85  C   UNL A   1      47.978  26.875  32.816  1.00  0.00     0.173 A 
ATOM     86  C   UNL A   1      46.706  25.341  34.163  1.00  0.00     0.173 A 
ATOM     87  F   UNL A   1      48.055  27.830  31.878  1.00  0.00    -0.203 F 
ATOM     88  C   UNL A   1      49.155  26.387  33.377  1.00  0.00     0.198 A 
ATOM     89  C   UNL A   1      47.883  24.875  34.742  1.00  0.00     0.198 A 
ATOM     90  F   UNL A   1      45.539  24.812  34.558  1.00  0.00    -0.203 F 
ATOM     91  F   UNL A   1      50.337  26.868  32.972  1.00  0.00    -0.200 F 
ATOM     92  C   UNL A   1      49.106  25.393  34.344  1.00  0.00     0.200 A 
ATOM     93  F   UNL A   1      47.833  23.924  35.684  1.00  0.00    -0.200 F 
ATOM     94  F   UNL A   1      50.240  24.929  34.887  1.00  0.00    -0.200 F 
ENDBRANCH  61  84
ENDBRANCH  35  36
ENDBRANCH  27  30
ENDBRANCH  25  26
ENDBRANCH  24  25
ENDBRANCH   1  24
TORSDOF 15
ENDMDL
MODEL 2
REMARK VINA RESULT:     -10.5      3.582     10.129
REMARK SMILES [NH3+]CC1([C@H](O)C(=O)NCCCCNC(=O)c2ccc(-c3c4nc(c(-c5c(F)c(F)c(F)c(F)c5F)c5ccc([nH]5)c(-c5c(F)c(F)c(F)c(F)c5F)c5nc(c(-c6c(F)c(F)c(F)c(F)c6F)c6ccc3[nH]6)C=C5)C=C4)cc2)Cc2ccccc2C1
REMARK SMILES IDX 10 1 9 2 8 3 6 4 7 5 4 7 3 8 79 9 86 10 80 11 85 12 81 13
REMARK SMILES IDX 84 14 82 15 83 16 2 17 1 18 5 22 11 24 12 25 13 26 14 27
REMARK SMILES IDX 15 29 16 30 17 31 78 32 18 33 77 34 19 35 20 36 21 37 71 38
REMARK SMILES IDX 22 39 76 40 70 41 72 42 23 43 75 44 69 45 68 46 24 48 56 49
REMARK SMILES IDX 36 50 55 51 37 52 40 53 54 54 73 55 38 56 39 57 53 59 74 60
REMARK SMILES IDX 41 61 25 62 26 63 34 64 27 65 28 66 32 67 35 68 29 69 30 70
REMARK SMILES IDX 33 71 31 72 57 73 58 74 66 75 59 76 60 77 64 78 67 79 61 80
REMARK SMILES IDX 62 81 65 82 63 83 42 84 43 85 51 86 44 87 45 88 49 89 52 90
REMARK SMILES IDX 46 91 47 92 50 93 48 94
REMARK H PARENT 8 6 1 19 1 20 1 21 5 23 13 28 72 47 40 58
REMARK Flexibility Score: inf
ROOT
ATOM      1  C   UNL A   1      31.819  30.413  26.685  1.00  0.00     0.023 C 
ENDROOT
BRANCH   1   2
ATOM      2  C   UNL A   1      31.503  29.812  25.321  1.00  0.00     0.116 C 
BRANCH   2   3
ATOM      3  N   UNL A   1      32.683  29.585  24.502  1.00  0.00    -0.354 N 
ATOM      4  C   UNL A   1      32.824  28.797  23.393  1.00  0.00     0.249 C 
ATOM      5  O   UNL A   1      33.803  28.998  22.668  1.00  0.00    -0.272 OA
ATOM      6  H   UNL A   1      33.495  30.065  24.786  1.00  0.00     0.163 HD
BRANCH   4   7
ATOM      7  C   UNL A   1      31.781  27.719  23.023  1.00  0.00     0.215 C 
BRANCH   7   8
ATOM      8  C   UNL A   1      32.369  26.284  22.763  1.00  0.00     0.062 C 
ATOM      9  C   UNL A   1      31.261  25.192  22.993  1.00  0.00     0.052 C 
ATOM     10  C   UNL A   1      33.480  25.971  23.825  1.00  0.00     0.052 C 
ATOM     11  C   UNL A   1      31.536  24.691  24.371  1.00  0.00    -0.044 A 
ATOM     12  C   UNL A   1      32.776  25.121  24.836  1.00  0.00    -0.044 A 
ATOM     13  C   UNL A   1      30.744  23.833  25.117  1.00  0.00     0.004 A 
ATOM     14  C   UNL A   1      33.255  24.697  26.065  1.00  0.00     0.004 A 
ATOM     15  C   UNL A   1      31.216  23.404  26.357  1.00  0.00     0.000 A 
ATOM     16  C   UNL A   1      32.465  23.833  26.828  1.00  0.00     0.000 A 
BRANCH   8  17
ATOM     17  C   UNL A   1      32.945  26.051  21.340  1.00  0.00     0.269 C 
BRANCH  17  18
ATOM     18  N   UNL A   1      32.004  25.801  20.248  1.00  0.00    -0.357 N 
ATOM     19  H   UNL A   1      31.412  25.004  20.485  1.00  0.00     0.344 HD
ATOM     20  H   UNL A   1      32.522  25.597  19.393  1.00  0.00     0.344 HD
ATOM     21  H   UNL A   1      31.422  26.625  20.104  1.00  0.00     0.344 HD
ENDBRANCH  17  18
ENDBRANCH   8  17
ENDBRANCH   7   8
BRANCH   7  22
ATOM     22  O   UNL A   1      30.929  28.170  21.971  1.00  0.00    -0.382 OA
ATOM     23  H   UNL A   1      31.131  27.681  21.159  1.00  0.00     0.211 HD
ENDBRANCH   7  22
ENDBRANCH   4   7
ENDBRANCH   2   3
ENDBRANCH   1   2
BRANCH   1  24
ATOM     24  C   UNL A   1      31.574  31.918  26.801  1.00  0.00     0.023 C 
BRANCH  24  25
ATOM     25  C   UNL A   1      32.768  32.750  27.264  1.00  0.00     0.116 C 
BRANCH  25  26
ATOM     26  N   UNL A   1      32.417  34.123  27.603  1.00  0.00    -0.352 N 
ATOM     27  C   UNL A   1      32.965  34.964  28.542  1.00  0.00     0.251 C 
ATOM     28  H   UNL A   1      31.675  34.505  27.081  1.00  0.00     0.163 HD
ATOM     29  O   UNL A   1      32.460  36.058  28.765  1.00  0.00    -0.269 OA
BRANCH  27  30
ATOM     30  C   UNL A   1      34.146  34.529  29.316  1.00  0.00     0.039 A 
ATOM     31  C   UNL A   1      33.955  34.003  30.596  1.00  0.00     0.014 A 
ATOM     32  C   UNL A   1      35.430  34.611  28.772  1.00  0.00     0.014 A 
ATOM     33  C   UNL A   1      35.041  33.472  31.294  1.00  0.00     0.010 A 
ATOM     34  C   UNL A   1      36.499  34.015  29.436  1.00  0.00     0.010 A 
ATOM     35  C   UNL A   1      36.313  33.430  30.699  1.00  0.00    -0.014 A 
BRANCH  35  36
ATOM     36  C   UNL A   1      37.452  32.754  31.369  1.00  0.00     0.031 A 
ATOM     37  C   UNL A   1      38.149  31.601  30.703  1.00  0.00     0.074 A 
ATOM     38  C   UNL A   1      37.810  33.131  32.613  1.00  0.00     0.049 A 
ATOM     39  N   UNL A   1      39.112  30.841  31.159  1.00  0.00    -0.248 NA
ATOM     40  C   UNL A   1      37.682  31.237  29.357  1.00  0.00     0.031 C 
ATOM     41  C   UNL A   1      37.175  34.196  33.389  1.00  0.00     0.029 A 
ATOM     42  N   UNL A   1      38.788  32.650  33.448  1.00  0.00    -0.354 N 
ATOM     43  C   UNL A   1      39.354  29.902  30.166  1.00  0.00     0.074 A 
ATOM     44  C   UNL A   1      38.405  30.155  29.104  1.00  0.00     0.031 C 
ATOM     45  C   UNL A   1      37.793  34.305  34.575  1.00  0.00     0.029 A 
ATOM     46  C   UNL A   1      38.843  33.295  34.659  1.00  0.00     0.049 A 
ATOM     47  H   UNL A   1      39.392  31.913  33.201  1.00  0.00     0.167 HD
ATOM     48  C   UNL A   1      40.298  28.931  30.133  1.00  0.00     0.037 A 
ATOM     49  C   UNL A   1      39.647  33.091  35.720  1.00  0.00     0.037 A 
ATOM     50  C   UNL A   1      41.260  28.699  31.178  1.00  0.00     0.049 A 
ATOM     51  C   UNL A   1      40.692  32.012  35.653  1.00  0.00     0.074 A 
ATOM     52  C   UNL A   1      42.299  27.785  31.208  1.00  0.00     0.029 A 
ATOM     53  N   UNL A   1      41.301  29.389  32.380  1.00  0.00    -0.354 N 
ATOM     54  N   UNL A   1      40.959  31.177  34.679  1.00  0.00    -0.248 NA
ATOM     55  C   UNL A   1      41.554  31.851  36.834  1.00  0.00     0.031 C 
ATOM     56  C   UNL A   1      42.944  27.894  32.444  1.00  0.00     0.029 A 
ATOM     57  C   UNL A   1      42.335  28.907  33.167  1.00  0.00     0.049 A 
ATOM     58  H   UNL A   1      40.687  30.114  32.636  1.00  0.00     0.167 HD
ATOM     59  C   UNL A   1      42.031  30.411  35.116  1.00  0.00     0.074 A 
ATOM     60  C   UNL A   1      42.376  30.891  36.438  1.00  0.00     0.031 C 
ATOM     61  C   UNL A   1      42.670  29.399  34.479  1.00  0.00     0.037 A 
BRANCH  48  62
ATOM     62  C   UNL A   1      40.342  28.050  28.919  1.00  0.00     0.064 A 
ATOM     63  C   UNL A   1      41.079  28.405  27.780  1.00  0.00     0.173 A 
ATOM     64  C   UNL A   1      39.666  26.820  28.907  1.00  0.00     0.173 A 
ATOM     65  F   UNL A   1      41.733  29.576  27.739  1.00  0.00    -0.203 F 
ATOM     66  C   UNL A   1      41.117  27.576  26.663  1.00  0.00     0.198 A 
ATOM     67  C   UNL A   1      39.729  25.980  27.798  1.00  0.00     0.198 A 
ATOM     68  F   UNL A   1      38.950  26.430  29.972  1.00  0.00    -0.203 F 
ATOM     69  F   UNL A   1      41.789  27.959  25.569  1.00  0.00    -0.200 F 
ATOM     70  C   UNL A   1      40.447  26.362  26.675  1.00  0.00     0.200 A 
ATOM     71  F   UNL A   1      39.092  24.801  27.815  1.00  0.00    -0.200 F 
ATOM     72  F   UNL A   1      40.489  25.562  25.601  1.00  0.00    -0.200 F 
ENDBRANCH  48  62
BRANCH  49  73
ATOM     73  C   UNL A   1      39.515  33.948  36.926  1.00  0.00     0.064 A 
ATOM     74  C   UNL A   1      38.764  33.522  38.031  1.00  0.00     0.173 A 
ATOM     75  C   UNL A   1      40.130  35.207  36.999  1.00  0.00     0.173 A 
ATOM     76  F   UNL A   1      38.141  32.336  37.998  1.00  0.00    -0.203 F 
ATOM     77  C   UNL A   1      38.618  34.331  39.156  1.00  0.00     0.198 A 
ATOM     78  C   UNL A   1      40.004  36.002  38.136  1.00  0.00     0.198 A 
ATOM     79  F   UNL A   1      40.863  35.657  35.970  1.00  0.00    -0.203 F 
ATOM     80  F   UNL A   1      37.859  33.917  40.180  1.00  0.00    -0.200 F 
ATOM     81  C   UNL A   1      39.241  35.568  39.209  1.00  0.00     0.200 A 
ATOM     82  F   UNL A   1      40.619  37.193  38.189  1.00  0.00    -0.200 F 
ATOM     83  F   UNL A   1      39.102  36.343  40.293  1.00  0.00    -0.200 F 
ENDBRANCH  49  73
BRANCH  61  84
ATOM     84  C   UNL A   1      43.827  28.763  35.191  1.00  0.00     0.064 A 
ATOM     85  C   UNL A   1      43.649  27.662  36.042  1.00  0.00     0.173 A 
ATOM     86  C   UNL A   1      45.132  29.238  34.991  1.00  0.00     0.173 A 
ATOM     87  F   UNL A   1      42.420  27.182  36.277  1.00  0.00    -0.203 F 
ATOM     88  C   UNL A   1      44.735  27.075  36.686  1.00  0.00     0.198 A 
ATOM     89  C   UNL A   1      46.218  28.631  35.617  1.00  0.00     0.198 A 
ATOM     90  F   UNL A   1      45.354  30.285  34.183  1.00  0.00    -0.203 F 
ATOM     91  F   UNL A   1      44.538  26.054  37.530  1.00  0.00    -0.200 F 
ATOM     92  C   UNL A   1      46.018  27.555  36.468  1.00  0.00     0.200 A 
ATOM     93  F   UNL A   1      47.457  29.089  35.395  1.00  0.00    -0.200 F 
ATOM     94  F   UNL A   1      47.062  26.985  37.085  1.00  0.00    -0.200 F 
ENDBRANCH  61  84
ENDBRANCH  35  36
ENDBRANCH  27  30
ENDBRANCH  25  26
ENDBRANCH  24  25
ENDBRANCH   1  24
TORSDOF 15
ENDMDL
MODEL 3
REMARK VINA RESULT:     -10.5      5.904     10.004
REMARK SMILES [NH3+]CC1([C@H](O)C(=O)NCCCCNC(=O)c2ccc(-c3c4nc(c(-c5c(F)c(F)c(F)c(F)c5F)c5ccc([nH]5)c(-c5c(F)c(F)c(F)c(F)c5F)c5nc(c(-c6c(F)c(F)c(F)c(F)c6F)c6ccc3[nH]6)C=C5)C=C4)cc2)Cc2ccccc2C1
REMARK SMILES IDX 10 1 9 2 8 3 6 4 7 5 4 7 3 8 79 9 86 10 80 11 85 12 81 13
REMARK SMILES IDX 84 14 82 15 83 16 2 17 1 18 5 22 11 24 12 25 13 26 14 27
REMARK SMILES IDX 15 29 16 30 17 31 78 32 18 33 77 34 19 35 20 36 21 37 71 38
REMARK SMILES IDX 22 39 76 40 70 41 72 42 23 43 75 44 69 45 68 46 24 48 56 49
REMARK SMILES IDX 36 50 55 51 37 52 40 53 54 54 73 55 38 56 39 57 53 59 74 60
REMARK SMILES IDX 41 61 25 62 26 63 34 64 27 65 28 66 32 67 35 68 29 69 30 70
REMARK SMILES IDX 33 71 31 72 57 73 58 74 66 75 59 76 60 77 64 78 67 79 61 80
REMARK SMILES IDX 62 81 65 82 63 83 42 84 43 85 51 86 44 87 45 88 49 89 52 90
REMARK SMILES IDX 46 91 47 92 50 93 48 94
REMARK H PARENT 8 6 1 19 1 20 1 21 5 23 13 28 72 47 40 58
REMARK Flexibility Score: inf
ROOT
ATOM      1  C   UNL A   1      36.975  21.090  24.733  1.00  0.00     0.023 C 
ENDROOT
BRANCH   1   2
ATOM      2  C   UNL A   1      35.508  20.778  25.001  1.00  0.00     0.116 C 
BRANCH   2   3
ATOM      3  N   UNL A   1      35.030  21.294  26.275  1.00  0.00    -0.354 N 
ATOM      4  C   UNL A   1      33.754  21.606  26.654  1.00  0.00     0.249 C 
ATOM      5  O   UNL A   1      33.526  21.714  27.862  1.00  0.00    -0.272 OA
ATOM      6  H   UNL A   1      35.723  21.437  26.960  1.00  0.00     0.163 HD
BRANCH   4   7
ATOM      7  C   UNL A   1      32.618  21.781  25.621  1.00  0.00     0.215 C 
BRANCH   7   8
ATOM      8  C   UNL A   1      31.810  23.125  25.738  1.00  0.00     0.062 C 
ATOM      9  C   UNL A   1      31.047  23.419  24.395  1.00  0.00     0.052 C 
ATOM     10  C   UNL A   1      32.807  24.323  25.917  1.00  0.00     0.052 C 
ATOM     11  C   UNL A   1      31.928  24.399  23.695  1.00  0.00    -0.044 A 
ATOM     12  C   UNL A   1      32.908  24.907  24.543  1.00  0.00    -0.044 A 
ATOM     13  C   UNL A   1      31.792  24.856  22.394  1.00  0.00     0.004 A 
ATOM     14  C   UNL A   1      33.778  25.893  24.106  1.00  0.00     0.004 A 
ATOM     15  C   UNL A   1      32.666  25.845  21.943  1.00  0.00     0.000 A 
ATOM     16  C   UNL A   1      33.653  26.362  22.795  1.00  0.00     0.000 A 
BRANCH   8  17
ATOM     17  C   UNL A   1      30.754  23.166  26.876  1.00  0.00     0.269 C 
BRANCH  17  18
ATOM     18  N   UNL A   1      29.572  22.313  26.752  1.00  0.00    -0.357 N 
ATOM     19  H   UNL A   1      28.751  22.894  26.581  1.00  0.00     0.344 HD
ATOM     20  H   UNL A   1      29.441  21.785  27.615  1.00  0.00     0.344 HD
ATOM     21  H   UNL A   1      29.699  21.667  25.973  1.00  0.00     0.344 HD
ENDBRANCH  17  18
ENDBRANCH   8  17
ENDBRANCH   7   8
BRANCH   7  22
ATOM     22  O   UNL A   1      31.778  20.628  25.585  1.00  0.00    -0.382 OA
ATOM     23  H   UNL A   1      31.403  20.472  26.465  1.00  0.00     0.211 HD
ENDBRANCH   7  22
ENDBRANCH   4   7
ENDBRANCH   2   3
ENDBRANCH   1   2
BRANCH   1  24
ATOM     24  C   UNL A   1      37.941  19.935  25.001  1.00  0.00     0.023 C 
BRANCH  24  25
ATOM     25  C   UNL A   1      39.220  20.301  25.751  1.00  0.00     0.116 C 
BRANCH  25  26
ATOM     26  N   UNL A   1      40.156  19.191  25.868  1.00  0.00    -0.352 N 
ATOM     27  C   UNL A   1      41.506  19.203  26.126  1.00  0.00     0.251 C 
ATOM     28  H   UNL A   1      39.762  18.297  25.744  1.00  0.00     0.163 HD
ATOM     29  O   UNL A   1      42.157  18.166  26.076  1.00  0.00    -0.269 OA
BRANCH  27  30
ATOM     30  C   UNL A   1      42.184  20.482  26.424  1.00  0.00     0.039 A 
ATOM     31  C   UNL A   1      42.728  21.217  25.367  1.00  0.00     0.014 A 
ATOM     32  C   UNL A   1      42.258  20.967  27.732  1.00  0.00     0.014 A 
ATOM     33  C   UNL A   1      43.262  22.484  25.611  1.00  0.00     0.010 A 
ATOM     34  C   UNL A   1      42.721  22.260  27.962  1.00  0.00     0.010 A 
ATOM     35  C   UNL A   1      43.218  23.035  26.902  1.00  0.00    -0.014 A 
BRANCH  35  36
ATOM     36  C   UNL A   1      43.661  24.429  27.157  1.00  0.00     0.031 A 
ATOM     37  C   UNL A   1      42.684  25.455  27.661  1.00  0.00     0.074 A 
ATOM     38  C   UNL A   1      44.925  24.789  26.862  1.00  0.00     0.049 A 
ATOM     39  N   UNL A   1      42.864  26.734  27.873  1.00  0.00    -0.248 NA
ATOM     40  C   UNL A   1      41.317  24.986  27.935  1.00  0.00     0.031 C 
ATOM     41  C   UNL A   1      45.951  23.901  26.314  1.00  0.00     0.029 A 
ATOM     42  N   UNL A   1      45.560  26.002  26.971  1.00  0.00    -0.354 N 
ATOM     43  C   UNL A   1      41.635  27.224  28.290  1.00  0.00     0.074 A 
ATOM     44  C   UNL A   1      40.703  26.117  28.252  1.00  0.00     0.031 C 
ATOM     45  C   UNL A   1      47.092  24.591  26.156  1.00  0.00     0.029 A 
ATOM     46  C   UNL A   1      46.869  25.977  26.557  1.00  0.00     0.049 A 
ATOM     47  H   UNL A   1      45.118  26.812  27.313  1.00  0.00     0.167 HD
ATOM     48  C   UNL A   1      41.316  28.479  28.689  1.00  0.00     0.037 A 
ATOM     49  C   UNL A   1      47.786  26.962  26.502  1.00  0.00     0.037 A 
ATOM     50  C   UNL A   1      42.250  29.571  28.753  1.00  0.00     0.049 A 
ATOM     51  C   UNL A   1      47.408  28.343  26.960  1.00  0.00     0.074 A 
ATOM     52  C   UNL A   1      42.039  30.862  29.208  1.00  0.00     0.029 A 
ATOM     53  N   UNL A   1      43.575  29.502  28.349  1.00  0.00    -0.354 N 
ATOM     54  N   UNL A   1      46.260  28.778  27.420  1.00  0.00    -0.248 NA
ATOM     55  C   UNL A   1      48.456  29.372  26.897  1.00  0.00     0.031 C 
ATOM     56  C   UNL A   1      43.226  31.584  29.043  1.00  0.00     0.029 A 
ATOM     57  C   UNL A   1      44.188  30.732  28.527  1.00  0.00     0.049 A 
ATOM     58  H   UNL A   1      44.014  28.697  27.990  1.00  0.00     0.167 HD
ATOM     59  C   UNL A   1      46.454  30.118  27.724  1.00  0.00     0.074 A 
ATOM     60  C   UNL A   1      47.835  30.423  27.411  1.00  0.00     0.031 C 
ATOM     61  C   UNL A   1      45.566  31.018  28.215  1.00  0.00     0.037 A 
BRANCH  48  62
ATOM     62  C   UNL A   1      39.895  28.734  29.098  1.00  0.00     0.064 A 
ATOM     63  C   UNL A   1      38.931  29.165  28.173  1.00  0.00     0.173 A 
ATOM     64  C   UNL A   1      39.483  28.515  30.421  1.00  0.00     0.173 A 
ATOM     65  F   UNL A   1      39.278  29.400  26.898  1.00  0.00    -0.203 F 
ATOM     66  C   UNL A   1      37.615  29.393  28.563  1.00  0.00     0.198 A 
ATOM     67  C   UNL A   1      38.158  28.716  30.801  1.00  0.00     0.198 A 
ATOM     68  F   UNL A   1      40.362  28.098  31.344  1.00  0.00    -0.203 F 
ATOM     69  F   UNL A   1      36.724  29.849  27.672  1.00  0.00    -0.200 F 
ATOM     70  C   UNL A   1      37.228  29.162  29.874  1.00  0.00     0.200 A 
ATOM     71  F   UNL A   1      37.782  28.482  32.065  1.00  0.00    -0.200 F 
ATOM     72  F   UNL A   1      35.959  29.376  30.247  1.00  0.00    -0.200 F 
ENDBRANCH  48  62
BRANCH  49  73
ATOM     73  C   UNL A   1      49.161  26.670  26.023  1.00  0.00     0.064 A 
ATOM     74  C   UNL A   1      49.533  26.943  24.699  1.00  0.00     0.173 A 
ATOM     75  C   UNL A   1      50.127  26.109  26.871  1.00  0.00     0.173 A 
ATOM     76  F   UNL A   1      48.637  27.459  23.846  1.00  0.00    -0.203 F 
ATOM     77  C   UNL A   1      50.814  26.650  24.237  1.00  0.00     0.198 A 
ATOM     78  C   UNL A   1      51.416  25.842  26.415  1.00  0.00     0.198 A 
ATOM     79  F   UNL A   1      49.822  25.834  28.148  1.00  0.00    -0.203 F 
ATOM     80  F   UNL A   1      51.130  26.882  22.956  1.00  0.00    -0.200 F 
ATOM     81  C   UNL A   1      51.756  26.104  25.096  1.00  0.00     0.200 A 
ATOM     82  F   UNL A   1      52.328  25.326  27.251  1.00  0.00    -0.200 F 
ATOM     83  F   UNL A   1      52.988  25.826  24.651  1.00  0.00    -0.200 F 
ENDBRANCH  49  73
BRANCH  61  84
ATOM     84  C   UNL A   1      46.068  32.407  28.475  1.00  0.00     0.064 A 
ATOM     85  C   UNL A   1      45.986  33.410  27.498  1.00  0.00     0.173 A 
ATOM     86  C   UNL A   1      46.605  32.746  29.726  1.00  0.00     0.173 A 
ATOM     87  F   UNL A   1      45.497  33.130  26.281  1.00  0.00    -0.203 F 
ATOM     88  C   UNL A   1      46.447  34.698  27.758  1.00  0.00     0.198 A 
ATOM     89  C   UNL A   1      47.038  34.043  29.990  1.00  0.00     0.198 A 
ATOM     90  F   UNL A   1      46.699  31.824  30.694  1.00  0.00    -0.203 F 
ATOM     91  F   UNL A   1      46.402  35.630  26.796  1.00  0.00    -0.200 F 
ATOM     92  C   UNL A   1      46.965  35.015  29.005  1.00  0.00     0.200 A 
ATOM     93  F   UNL A   1      47.528  34.349  31.199  1.00  0.00    -0.200 F 
ATOM     94  F   UNL A   1      47.402  36.257  29.254  1.00  0.00    -0.200 F 
ENDBRANCH  61  84
ENDBRANCH  35  36
ENDBRANCH  27  30
ENDBRANCH  25  26
ENDBRANCH  24  25
ENDBRANCH   1  24
TORSDOF 15
ENDMDL
