MODEL 1
REMARK VINA RESULT:     -12.3      0.000      0.000
REMARK SMILES CNC(=O)NC1=[NH+]N=CN[C@@H]1C(=O)NCCCCNC(=O)c1ccc(-c2c3nc(c(-c4c(F)c(F)c(F)c(F)c4F)c4ccc([nH]4)c(-c4c(F)c(F)c(F)c(F)c4F)c4nc(c(-c5c(F)c(F)c(F)c(F)c5F)c5ccc2[nH]5)C=C4)C=C3)cc1
REMARK SMILES IDX 17 1 16 2 15 3 14 4 12 5 13 6 11 8 1 9 2 10 3 11 4 13 5 14
REMARK SMILES IDX 6 15 7 17 8 18 10 20 9 21 18 23 19 24 20 25 21 27 22 28
REMARK SMILES IDX 23 29 84 30 24 31 83 32 25 33 26 34 27 35 77 36 28 37 82 38
REMARK SMILES IDX 76 39 78 40 29 41 81 42 75 43 74 44 30 46 62 47 42 48 61 49
REMARK SMILES IDX 43 50 46 51 60 52 79 53 44 54 45 55 59 57 80 58 47 59 31 60
REMARK SMILES IDX 32 61 40 62 33 63 34 64 38 65 41 66 35 67 36 68 39 69 37 70
REMARK SMILES IDX 63 71 64 72 72 73 65 74 66 75 70 76 73 77 67 78 68 79 71 80
REMARK SMILES IDX 69 81 48 82 49 83 57 84 50 85 51 86 55 87 58 88 52 89 53 90
REMARK SMILES IDX 56 91 54 92
REMARK H PARENT 14 7 2 12 5 16 7 19 10 22 19 26 78 45 46 56
REMARK Flexibility Score: inf
ROOT
ATOM      1  C   UNL A   1      37.805  20.175  24.990  1.00  0.00     0.023 C 
ENDROOT
BRANCH   1   2
ATOM      2  C   UNL A   1      36.848  21.363  24.871  1.00  0.00     0.023 C 
BRANCH   2   3
ATOM      3  C   UNL A   1      35.367  20.993  24.923  1.00  0.00     0.116 C 
BRANCH   3   4
ATOM      4  N   UNL A   1      34.848  21.011  26.276  1.00  0.00    -0.354 N 
ATOM      5  C   UNL A   1      33.743  21.628  26.788  1.00  0.00     0.255 C 
ATOM      6  O   UNL A   1      33.574  21.532  28.009  1.00  0.00    -0.272 OA
ATOM      7  H   UNL A   1      35.377  20.497  26.929  1.00  0.00     0.163 HD
BRANCH   5   8
ATOM      8  C   UNL A   1      32.771  22.463  25.936  1.00  0.00     0.287 C 
ATOM      9  C   UNL A   1      33.339  24.379  23.199  1.00  0.00     0.147 C 
ATOM     10  N   UNL A   1      34.589  24.243  23.924  1.00  0.00    -0.321 N 
ATOM     11  C   UNL A   1      34.857  24.556  25.220  1.00  0.00     0.406 C 
ATOM     12  H   UNL A   1      35.343  23.874  23.409  1.00  0.00     0.167 HD
ATOM     13  O   UNL A   1      36.015  24.696  25.600  1.00  0.00    -0.221 OA
ATOM     14  N   UNL A   1      33.798  24.756  26.055  1.00  0.00    -0.191 N 
ATOM     15  C   UNL A   1      32.722  23.942  26.305  1.00  0.00     0.309 C 
ATOM     16  H   UNL A   1      33.806  25.607  26.550  1.00  0.00     0.317 HD
ATOM     17  N   UNL A   1      31.694  24.540  26.828  1.00  0.00    -0.148 N 
ATOM     18  N   UNL A   1      30.479  23.836  26.951  1.00  0.00    -0.077 NA
ATOM     19  H   UNL A   1      31.762  25.473  27.134  1.00  0.00     0.342 HD
ATOM     20  N   UNL A   1      31.431  21.896  25.968  1.00  0.00    -0.352 N 
ATOM     21  C   UNL A   1      30.418  22.628  26.495  1.00  0.00     0.241 C 
ATOM     22  H   UNL A   1      31.262  20.994  25.613  1.00  0.00     0.163 HD
ENDBRANCH   5   8
ENDBRANCH   3   4
ENDBRANCH   2   3
ENDBRANCH   1   2
BRANCH   1  23
ATOM     23  C   UNL A   1      39.102  20.460  25.736  1.00  0.00     0.116 C 
BRANCH  23  24
ATOM     24  N   UNL A   1      39.989  19.310  25.822  1.00  0.00    -0.352 N 
ATOM     25  C   UNL A   1      41.341  19.295  26.084  1.00  0.00     0.251 C 
ATOM     26  H   UNL A   1      39.569  18.432  25.676  1.00  0.00     0.163 HD
ATOM     27  O   UNL A   1      41.980  18.257  26.031  1.00  0.00    -0.269 OA
BRANCH  25  28
ATOM     28  C   UNL A   1      42.017  20.572  26.388  1.00  0.00     0.039 A 
ATOM     29  C   UNL A   1      42.419  21.388  25.329  1.00  0.00     0.014 A 
ATOM     30  C   UNL A   1      42.200  20.981  27.711  1.00  0.00     0.014 A 
ATOM     31  C   UNL A   1      42.943  22.653  25.598  1.00  0.00     0.010 A 
ATOM     32  C   UNL A   1      42.655  22.266  27.975  1.00  0.00     0.010 A 
ATOM     33  C   UNL A   1      43.030  23.114  26.921  1.00  0.00    -0.014 A 
BRANCH  33  34
ATOM     34  C   UNL A   1      43.503  24.486  27.225  1.00  0.00     0.031 A 
ATOM     35  C   UNL A   1      42.540  25.518  27.735  1.00  0.00     0.074 A 
ATOM     36  C   UNL A   1      44.780  24.821  26.962  1.00  0.00     0.049 A 
ATOM     37  N   UNL A   1      42.743  26.786  27.989  1.00  0.00    -0.248 NA
ATOM     38  C   UNL A   1      41.155  25.074  27.951  1.00  0.00     0.031 C 
ATOM     39  C   UNL A   1      45.790  23.925  26.398  1.00  0.00     0.029 A 
ATOM     40  N   UNL A   1      45.441  26.014  27.115  1.00  0.00    -0.354 N 
ATOM     41  C   UNL A   1      41.510  27.292  28.378  1.00  0.00     0.074 A 
ATOM     42  C   UNL A   1      40.555  26.210  28.270  1.00  0.00     0.031 C 
ATOM     43  C   UNL A   1      46.945  24.596  26.261  1.00  0.00     0.029 A 
ATOM     44  C   UNL A   1      46.749  25.974  26.700  1.00  0.00     0.049 A 
ATOM     45  H   UNL A   1      45.018  26.821  27.487  1.00  0.00     0.167 HD
ATOM     46  C   UNL A   1      41.208  28.539  28.812  1.00  0.00     0.037 A 
ATOM     47  C   UNL A   1      47.683  26.943  26.673  1.00  0.00     0.037 A 
ATOM     48  C   UNL A   1      42.168  29.602  28.941  1.00  0.00     0.049 A 
ATOM     49  C   UNL A   1      47.336  28.313  27.186  1.00  0.00     0.074 A 
ATOM     50  C   UNL A   1      41.983  30.878  29.443  1.00  0.00     0.029 A 
ATOM     51  N   UNL A   1      43.499  29.513  28.556  1.00  0.00    -0.354 N 
ATOM     52  N   UNL A   1      46.188  28.759  27.636  1.00  0.00    -0.248 NA
ATOM     53  C   UNL A   1      48.415  29.309  27.200  1.00  0.00     0.031 C 
ATOM     54  C   UNL A   1      43.191  31.575  29.323  1.00  0.00     0.029 A 
ATOM     55  C   UNL A   1      44.142  30.719  28.788  1.00  0.00     0.049 A 
ATOM     56  H   UNL A   1      43.924  28.712  28.174  1.00  0.00     0.167 HD
ATOM     57  C   UNL A   1      46.409  30.079  28.002  1.00  0.00     0.074 A 
ATOM     58  C   UNL A   1      47.805  30.357  27.737  1.00  0.00     0.031 C 
ATOM     59  C   UNL A   1      45.532  30.980  28.512  1.00  0.00     0.037 A 
BRANCH  46  60
ATOM     60  C   UNL A   1      39.777  28.809  29.176  1.00  0.00     0.064 A 
ATOM     61  C   UNL A   1      39.291  28.583  30.473  1.00  0.00     0.173 A 
ATOM     62  C   UNL A   1      38.878  29.297  28.216  1.00  0.00     0.173 A 
ATOM     63  F   UNL A   1      40.107  28.104  31.425  1.00  0.00    -0.203 F 
ATOM     64  C   UNL A   1      37.950  28.791  30.784  1.00  0.00     0.198 A 
ATOM     65  C   UNL A   1      37.544  29.536  28.539  1.00  0.00     0.198 A 
ATOM     66  F   UNL A   1      39.290  29.537  26.962  1.00  0.00    -0.203 F 
ATOM     67  F   UNL A   1      37.497  28.503  32.012  1.00  0.00    -0.200 F 
ATOM     68  C   UNL A   1      37.079  29.270  29.818  1.00  0.00     0.200 A 
ATOM     69  F   UNL A   1      36.705  30.011  27.608  1.00  0.00    -0.200 F 
ATOM     70  F   UNL A   1      35.787  29.466  30.117  1.00  0.00    -0.200 F 
ENDBRANCH  46  60
BRANCH  47  71
ATOM     71  C   UNL A   1      49.043  26.632  26.163  1.00  0.00     0.064 A 
ATOM     72  C   UNL A   1      49.405  26.935  24.844  1.00  0.00     0.173 A 
ATOM     73  C   UNL A   1      50.017  26.061  26.995  1.00  0.00     0.173 A 
ATOM     74  F   UNL A   1      48.501  27.466  24.008  1.00  0.00    -0.203 F 
ATOM     75  C   UNL A   1      50.689  26.670  24.372  1.00  0.00     0.198 A 
ATOM     76  C   UNL A   1      51.308  25.818  26.528  1.00  0.00     0.198 A 
ATOM     77  F   UNL A   1      49.722  25.760  28.268  1.00  0.00    -0.203 F 
ATOM     78  F   UNL A   1      51.001  26.943  23.098  1.00  0.00    -0.200 F 
ATOM     79  C   UNL A   1      51.641  26.120  25.217  1.00  0.00     0.200 A 
ATOM     80  F   UNL A   1      52.229  25.302  27.352  1.00  0.00    -0.200 F 
ATOM     81  F   UNL A   1      52.880  25.878  24.766  1.00  0.00    -0.200 F 
ENDBRANCH  47  71
BRANCH  59  82
ATOM     82  C   UNL A   1      46.062  32.347  28.830  1.00  0.00     0.064 A 
ATOM     83  C   UNL A   1      46.019  33.387  27.891  1.00  0.00     0.173 A 
ATOM     84  C   UNL A   1      46.577  32.631  30.104  1.00  0.00     0.173 A 
ATOM     85  F   UNL A   1      45.550  33.161  26.654  1.00  0.00    -0.203 F 
ATOM     86  C   UNL A   1      46.493  34.657  28.209  1.00  0.00     0.198 A 
ATOM     87  C   UNL A   1      47.024  33.909  30.427  1.00  0.00     0.198 A 
ATOM     88  F   UNL A   1      46.634  31.670  31.040  1.00  0.00    -0.203 F 
ATOM     89  F   UNL A   1      46.481  35.626  27.283  1.00  0.00    -0.200 F 
ATOM     90  C   UNL A   1      46.987  34.918  29.479  1.00  0.00     0.200 A 
ATOM     91  F   UNL A   1      47.490  34.162  31.658  1.00  0.00    -0.200 F 
ATOM     92  F   UNL A   1      47.435  36.144  29.785  1.00  0.00    -0.200 F 
ENDBRANCH  59  82
ENDBRANCH  33  34
ENDBRANCH  25  28
ENDBRANCH  23  24
ENDBRANCH   1  23
TORSDOF 11
ENDMDL
MODEL 2
REMARK VINA RESULT:     -12.3      0.106      1.642
REMARK SMILES CNC(=O)NC1=[NH+]N=CN[C@@H]1C(=O)NCCCCNC(=O)c1ccc(-c2c3nc(c(-c4c(F)c(F)c(F)c(F)c4F)c4ccc([nH]4)c(-c4c(F)c(F)c(F)c(F)c4F)c4nc(c(-c5c(F)c(F)c(F)c(F)c5F)c5ccc2[nH]5)C=C4)C=C3)cc1
REMARK SMILES IDX 17 1 16 2 15 3 14 4 12 5 13 6 11 8 1 9 2 10 3 11 4 13 5 14
REMARK SMILES IDX 6 15 7 17 8 18 10 20 9 21 18 23 19 24 20 25 21 27 22 28
REMARK SMILES IDX 23 29 84 30 24 31 83 32 25 33 26 34 27 35 77 36 28 37 82 38
REMARK SMILES IDX 76 39 78 40 29 41 81 42 75 43 74 44 30 46 62 47 42 48 61 49
REMARK SMILES IDX 43 50 46 51 60 52 79 53 44 54 45 55 59 57 80 58 47 59 31 60
REMARK SMILES IDX 32 61 40 62 33 63 34 64 38 65 41 66 35 67 36 68 39 69 37 70
REMARK SMILES IDX 63 71 64 72 72 73 65 74 66 75 70 76 73 77 67 78 68 79 71 80
REMARK SMILES IDX 69 81 48 82 49 83 57 84 50 85 51 86 55 87 58 88 52 89 53 90
REMARK SMILES IDX 56 91 54 92
REMARK H PARENT 14 7 2 12 5 16 7 19 10 22 19 26 78 45 46 56
REMARK Flexibility Score: inf
ROOT
ATOM      1  C   UNL A   1      37.789  20.171  25.000  1.00  0.00     0.023 C 
ENDROOT
BRANCH   1   2
ATOM      2  C   UNL A   1      36.818  21.349  24.891  1.00  0.00     0.023 C 
BRANCH   2   3
ATOM      3  C   UNL A   1      35.343  20.968  24.997  1.00  0.00     0.116 C 
BRANCH   3   4
ATOM      4  N   UNL A   1      34.851  21.071  26.356  1.00  0.00    -0.354 N 
ATOM      5  C   UNL A   1      33.758  21.722  26.851  1.00  0.00     0.255 C 
ATOM      6  O   UNL A   1      33.612  21.701  28.078  1.00  0.00    -0.272 OA
ATOM      7  H   UNL A   1      35.390  20.595  27.029  1.00  0.00     0.163 HD
BRANCH   5   8
ATOM      8  C   UNL A   1      32.772  22.509  25.968  1.00  0.00     0.287 C 
ATOM      9  C   UNL A   1      33.303  24.298  23.140  1.00  0.00     0.147 C 
ATOM     10  N   UNL A   1      34.560  24.206  23.860  1.00  0.00    -0.321 N 
ATOM     11  C   UNL A   1      34.836  24.582  25.137  1.00  0.00     0.406 C 
ATOM     12  H   UNL A   1      35.312  23.819  23.357  1.00  0.00     0.167 HD
ATOM     13  O   UNL A   1      35.996  24.748  25.501  1.00  0.00    -0.221 OA
ATOM     14  N   UNL A   1      33.782  24.812  25.971  1.00  0.00    -0.191 N 
ATOM     15  C   UNL A   1      32.715  24.004  26.268  1.00  0.00     0.309 C 
ATOM     16  H   UNL A   1      33.787  25.686  26.425  1.00  0.00     0.317 HD
ATOM     17  N   UNL A   1      31.686  24.618  26.771  1.00  0.00    -0.148 N 
ATOM     18  N   UNL A   1      30.478  23.911  26.937  1.00  0.00    -0.077 NA
ATOM     19  H   UNL A   1      31.749  25.565  27.033  1.00  0.00     0.342 HD
ATOM     20  N   UNL A   1      31.437  21.934  26.039  1.00  0.00    -0.352 N 
ATOM     21  C   UNL A   1      30.422  22.683  26.539  1.00  0.00     0.241 C 
ATOM     22  H   UNL A   1      31.272  21.015  25.728  1.00  0.00     0.163 HD
ENDBRANCH   5   8
ENDBRANCH   3   4
ENDBRANCH   2   3
ENDBRANCH   1   2
BRANCH   1  23
ATOM     23  C   UNL A   1      39.091  20.471  25.730  1.00  0.00     0.116 C 
BRANCH  23  24
ATOM     24  N   UNL A   1      39.985  19.326  25.820  1.00  0.00    -0.352 N 
ATOM     25  C   UNL A   1      41.335  19.318  26.088  1.00  0.00     0.251 C 
ATOM     26  H   UNL A   1      39.571  18.445  25.672  1.00  0.00     0.163 HD
ATOM     27  O   UNL A   1      41.981  18.284  26.038  1.00  0.00    -0.269 OA
BRANCH  25  28
ATOM     28  C   UNL A   1      42.003  20.599  26.395  1.00  0.00     0.039 A 
ATOM     29  C   UNL A   1      42.390  21.425  25.337  1.00  0.00     0.014 A 
ATOM     30  C   UNL A   1      42.193  21.002  27.719  1.00  0.00     0.014 A 
ATOM     31  C   UNL A   1      42.905  22.692  25.610  1.00  0.00     0.010 A 
ATOM     32  C   UNL A   1      42.639  22.289  27.987  1.00  0.00     0.010 A 
ATOM     33  C   UNL A   1      42.998  23.147  26.935  1.00  0.00    -0.014 A 
BRANCH  33  34
ATOM     34  C   UNL A   1      43.462  24.520  27.245  1.00  0.00     0.031 A 
ATOM     35  C   UNL A   1      42.496  25.540  27.773  1.00  0.00     0.074 A 
ATOM     36  C   UNL A   1      44.733  24.870  26.969  1.00  0.00     0.049 A 
ATOM     37  N   UNL A   1      42.689  26.807  28.035  1.00  0.00    -0.248 NA
ATOM     38  C   UNL A   1      41.117  25.081  28.002  1.00  0.00     0.031 C 
ATOM     39  C   UNL A   1      45.745  23.987  26.387  1.00  0.00     0.029 A 
ATOM     40  N   UNL A   1      45.384  26.068  27.123  1.00  0.00    -0.354 N 
ATOM     41  C   UNL A   1      41.457  27.299  28.442  1.00  0.00     0.074 A 
ATOM     42  C   UNL A   1      40.510  26.209  28.336  1.00  0.00     0.031 C 
ATOM     43  C   UNL A   1      46.892  24.670  26.241  1.00  0.00     0.029 A 
ATOM     44  C   UNL A   1      46.688  26.043  26.693  1.00  0.00     0.049 A 
ATOM     45  H   UNL A   1      44.958  26.868  27.506  1.00  0.00     0.167 HD
ATOM     46  C   UNL A   1      41.148  28.540  28.888  1.00  0.00     0.037 A 
ATOM     47  C   UNL A   1      47.612  27.021  26.662  1.00  0.00     0.037 A 
ATOM     48  C   UNL A   1      42.099  29.611  29.014  1.00  0.00     0.049 A 
ATOM     49  C   UNL A   1      47.258  28.384  27.190  1.00  0.00     0.074 A 
ATOM     50  C   UNL A   1      41.908  30.881  29.528  1.00  0.00     0.029 A 
ATOM     51  N   UNL A   1      43.426  29.537  28.613  1.00  0.00    -0.354 N 
ATOM     52  N   UNL A   1      46.112  28.815  27.657  1.00  0.00    -0.248 NA
ATOM     53  C   UNL A   1      48.328  29.390  27.198  1.00  0.00     0.031 C 
ATOM     54  C   UNL A   1      43.108  31.591  29.399  1.00  0.00     0.029 A 
ATOM     55  C   UNL A   1      44.061  30.748  28.847  1.00  0.00     0.049 A 
ATOM     56  H   UNL A   1      43.854  28.743  28.220  1.00  0.00     0.167 HD
ATOM     57  C   UNL A   1      46.324  30.135  28.030  1.00  0.00     0.074 A 
ATOM     58  C   UNL A   1      47.715  30.428  27.751  1.00  0.00     0.031 C 
ATOM     59  C   UNL A   1      45.444  31.024  28.557  1.00  0.00     0.037 A 
BRANCH  46  60
ATOM     60  C   UNL A   1      39.718  28.793  29.270  1.00  0.00     0.064 A 
ATOM     61  C   UNL A   1      39.251  28.559  30.573  1.00  0.00     0.173 A 
ATOM     62  C   UNL A   1      38.802  29.275  28.323  1.00  0.00     0.173 A 
ATOM     63  F   UNL A   1      40.084  28.087  31.513  1.00  0.00    -0.203 F 
ATOM     64  C   UNL A   1      37.912  28.752  30.901  1.00  0.00     0.198 A 
ATOM     65  C   UNL A   1      37.470  29.498  28.664  1.00  0.00     0.198 A 
ATOM     66  F   UNL A   1      39.196  29.522  27.065  1.00  0.00    -0.203 F 
ATOM     67  F   UNL A   1      37.477  28.456  32.134  1.00  0.00    -0.200 F 
ATOM     68  C   UNL A   1      37.024  29.224  29.948  1.00  0.00     0.200 A 
ATOM     69  F   UNL A   1      36.614  29.966  27.744  1.00  0.00    -0.200 F 
ATOM     70  F   UNL A   1      35.734  29.406  30.263  1.00  0.00    -0.200 F 
ENDBRANCH  46  60
BRANCH  47  71
ATOM     71  C   UNL A   1      48.969  26.726  26.135  1.00  0.00     0.064 A 
ATOM     72  C   UNL A   1      49.941  26.126  26.945  1.00  0.00     0.173 A 
ATOM     73  C   UNL A   1      49.306  27.002  24.802  1.00  0.00     0.173 A 
ATOM     74  F   UNL A   1      49.670  25.860  28.231  1.00  0.00    -0.203 F 
ATOM     75  C   UNL A   1      51.206  25.822  26.445  1.00  0.00     0.198 A 
ATOM     76  C   UNL A   1      50.563  26.676  24.297  1.00  0.00     0.198 A 
ATOM     77  F   UNL A   1      48.407  27.569  23.984  1.00  0.00    -0.203 F 
ATOM     78  F   UNL A   1      52.128  25.275  27.249  1.00  0.00    -0.200 F 
ATOM     79  C   UNL A   1      51.513  26.089  25.119  1.00  0.00     0.200 A 
ATOM     80  F   UNL A   1      50.849  26.920  23.011  1.00  0.00    -0.200 F 
ATOM     81  F   UNL A   1      52.724  25.783  24.635  1.00  0.00    -0.200 F 
ENDBRANCH  47  71
BRANCH  59  82
ATOM     82  C   UNL A   1      45.965  32.393  28.879  1.00  0.00     0.064 A 
ATOM     83  C   UNL A   1      46.547  32.684  30.121  1.00  0.00     0.173 A 
ATOM     84  C   UNL A   1      45.922  33.414  27.918  1.00  0.00     0.173 A 
ATOM     85  F   UNL A   1      46.597  31.745  31.079  1.00  0.00    -0.203 F 
ATOM     86  C   UNL A   1      47.048  33.953  30.397  1.00  0.00     0.198 A 
ATOM     87  C   UNL A   1      46.448  34.675  28.187  1.00  0.00     0.198 A 
ATOM     88  F   UNL A   1      45.380  33.185  26.712  1.00  0.00    -0.203 F 
ATOM     89  F   UNL A   1      47.561  34.221  31.605  1.00  0.00    -0.200 F 
ATOM     90  C   UNL A   1      47.005  34.944  29.427  1.00  0.00     0.200 A 
ATOM     91  F   UNL A   1      46.417  35.627  27.245  1.00  0.00    -0.200 F 
ATOM     92  F   UNL A   1      47.495  36.163  29.693  1.00  0.00    -0.200 F 
ENDBRANCH  59  82
ENDBRANCH  33  34
ENDBRANCH  25  28
ENDBRANCH  23  24
ENDBRANCH   1  23
TORSDOF 11
ENDMDL
MODEL 3
REMARK VINA RESULT:     -12.2      5.387      9.713
REMARK SMILES CNC(=O)NC1=[NH+]N=CN[C@@H]1C(=O)NCCCCNC(=O)c1ccc(-c2c3nc(c(-c4c(F)c(F)c(F)c(F)c4F)c4ccc([nH]4)c(-c4c(F)c(F)c(F)c(F)c4F)c4nc(c(-c5c(F)c(F)c(F)c(F)c5F)c5ccc2[nH]5)C=C4)C=C3)cc1
REMARK SMILES IDX 17 1 16 2 15 3 14 4 12 5 13 6 11 8 1 9 2 10 3 11 4 13 5 14
REMARK SMILES IDX 6 15 7 17 8 18 10 20 9 21 18 23 19 24 20 25 21 27 22 28
REMARK SMILES IDX 23 29 84 30 24 31 83 32 25 33 26 34 27 35 77 36 28 37 82 38
REMARK SMILES IDX 76 39 78 40 29 41 81 42 75 43 74 44 30 46 62 47 42 48 61 49
REMARK SMILES IDX 43 50 46 51 60 52 79 53 44 54 45 55 59 57 80 58 47 59 31 60
REMARK SMILES IDX 32 61 40 62 33 63 34 64 38 65 41 66 35 67 36 68 39 69 37 70
REMARK SMILES IDX 63 71 64 72 72 73 65 74 66 75 70 76 73 77 67 78 68 79 71 80
REMARK SMILES IDX 69 81 48 82 49 83 57 84 50 85 51 86 55 87 58 88 52 89 53 90
REMARK SMILES IDX 56 91 54 92
REMARK H PARENT 14 7 2 12 5 16 7 19 10 22 19 26 78 45 46 56
REMARK Flexibility Score: inf
ROOT
ATOM      1  C   UNL A   1      33.923  33.663  28.045  1.00  0.00     0.023 C 
ENDROOT
BRANCH   1   2
ATOM      2  C   UNL A   1      34.765  34.940  27.990  1.00  0.00     0.023 C 
BRANCH   2   3
ATOM      3  C   UNL A   1      34.019  36.209  28.397  1.00  0.00     0.116 C 
BRANCH   3   4
ATOM      4  N   UNL A   1      32.899  35.926  29.271  1.00  0.00    -0.354 N 
ATOM      5  C   UNL A   1      32.822  35.931  30.634  1.00  0.00     0.255 C 
ATOM      6  O   UNL A   1      31.744  35.578  31.127  1.00  0.00    -0.272 OA
ATOM      7  H   UNL A   1      32.061  35.694  28.809  1.00  0.00     0.163 HD
BRANCH   5   8
ATOM      8  C   UNL A   1      34.009  36.285  31.546  1.00  0.00     0.287 C 
ATOM      9  C   UNL A   1      36.861  34.576  32.202  1.00  0.00     0.147 C 
ATOM     10  N   UNL A   1      35.865  33.631  31.733  1.00  0.00    -0.321 N 
ATOM     11  C   UNL A   1      34.624  33.388  32.233  1.00  0.00     0.406 C 
ATOM     12  H   UNL A   1      36.121  33.096  30.947  1.00  0.00     0.167 HD
ATOM     13  O   UNL A   1      34.030  32.353  31.948  1.00  0.00    -0.221 OA
ATOM     14  N   UNL A   1      34.097  34.304  33.094  1.00  0.00    -0.191 N 
ATOM     15  C   UNL A   1      33.945  35.658  32.935  1.00  0.00     0.309 C 
ATOM     16  H   UNL A   1      33.782  33.943  33.953  1.00  0.00     0.317 HD
ATOM     17  N   UNL A   1      33.784  36.324  34.040  1.00  0.00    -0.148 N 
ATOM     18  N   UNL A   1      33.804  37.732  34.002  1.00  0.00    -0.077 NA
ATOM     19  H   UNL A   1      33.650  35.850  34.892  1.00  0.00     0.342 HD
ATOM     20  N   UNL A   1      34.169  37.727  31.657  1.00  0.00    -0.352 N 
ATOM     21  C   UNL A   1      34.027  38.316  32.871  1.00  0.00     0.241 C 
ATOM     22  H   UNL A   1      34.377  38.269  30.862  1.00  0.00     0.163 HD
ENDBRANCH   5   8
ENDBRANCH   3   4
ENDBRANCH   2   3
ENDBRANCH   1   2
BRANCH   1  23
ATOM     23  C   UNL A   1      34.657  32.424  28.543  1.00  0.00     0.116 C 
BRANCH  23  24
ATOM     24  N   UNL A   1      34.029  31.175  28.142  1.00  0.00    -0.352 N 
ATOM     25  C   UNL A   1      34.614  29.938  27.990  1.00  0.00     0.251 C 
ATOM     26  H   UNL A   1      33.063  31.219  27.959  1.00  0.00     0.163 HD
ATOM     27  O   UNL A   1      33.980  28.991  27.552  1.00  0.00    -0.269 OA
BRANCH  25  28
ATOM     28  C   UNL A   1      36.045  29.786  28.322  1.00  0.00     0.039 A 
ATOM     29  C   UNL A   1      36.394  29.331  29.595  1.00  0.00     0.014 A 
ATOM     30  C   UNL A   1      37.027  30.039  27.361  1.00  0.00     0.014 A 
ATOM     31  C   UNL A   1      37.732  29.061  29.883  1.00  0.00     0.010 A 
ATOM     32  C   UNL A   1      38.348  29.701  27.626  1.00  0.00     0.010 A 
ATOM     33  C   UNL A   1      38.712  29.208  28.889  1.00  0.00    -0.014 A 
BRANCH  33  34
ATOM     34  C   UNL A   1      40.127  28.846  29.146  1.00  0.00     0.031 A 
ATOM     35  C   UNL A   1      41.046  29.829  29.810  1.00  0.00     0.074 A 
ATOM     36  C   UNL A   1      40.601  27.666  28.705  1.00  0.00     0.049 A 
ATOM     37  N   UNL A   1      42.328  29.729  30.055  1.00  0.00    -0.248 NA
ATOM     38  C   UNL A   1      40.453  31.111  30.219  1.00  0.00     0.031 C 
ATOM     39  C   UNL A   1      39.822  26.659  27.983  1.00  0.00     0.029 A 
ATOM     40  N   UNL A   1      41.859  27.122  28.781  1.00  0.00    -0.354 N 
ATOM     41  C   UNL A   1      42.695  30.938  30.630  1.00  0.00     0.074 A 
ATOM     42  C   UNL A   1      41.515  31.777  30.642  1.00  0.00     0.031 C 
ATOM     43  C   UNL A   1      40.616  25.616  27.690  1.00  0.00     0.029 A 
ATOM     44  C   UNL A   1      41.963  25.893  28.179  1.00  0.00     0.049 A 
ATOM     45  H   UNL A   1      42.614  27.571  29.226  1.00  0.00     0.167 HD
ATOM     46  C   UNL A   1      43.901  31.307  31.126  1.00  0.00     0.037 A 
ATOM     47  C   UNL A   1      43.029  25.083  28.033  1.00  0.00     0.037 A 
ATOM     48  C   UNL A   1      45.063  30.459  31.132  1.00  0.00     0.049 A 
ATOM     49  C   UNL A   1      44.351  25.498  28.616  1.00  0.00     0.074 A 
ATOM     50  C   UNL A   1      46.309  30.704  31.680  1.00  0.00     0.029 A 
ATOM     51  N   UNL A   1      45.121  29.198  30.555  1.00  0.00    -0.354 N 
ATOM     52  N   UNL A   1      44.668  26.607  29.238  1.00  0.00    -0.248 NA
ATOM     53  C   UNL A   1      45.460  24.543  28.490  1.00  0.00     0.031 C 
ATOM     54  C   UNL A   1      47.135  29.609  31.396  1.00  0.00     0.029 A 
ATOM     55  C   UNL A   1      46.389  28.661  30.713  1.00  0.00     0.049 A 
ATOM     56  H   UNL A   1      44.372  28.749  30.100  1.00  0.00     0.167 HD
ATOM     57  C   UNL A   1      46.004  26.479  29.592  1.00  0.00     0.074 A 
ATOM     58  C   UNL A   1      46.433  25.176  29.130  1.00  0.00     0.031 C 
ATOM     59  C   UNL A   1      46.801  27.364  30.241  1.00  0.00     0.037 A 
BRANCH  46  60
ATOM     60  C   UNL A   1      44.011  32.689  31.700  1.00  0.00     0.064 A 
ATOM     61  C   UNL A   1      43.729  32.951  33.050  1.00  0.00     0.173 A 
ATOM     62  C   UNL A   1      44.402  33.767  30.892  1.00  0.00     0.173 A 
ATOM     63  F   UNL A   1      43.340  31.957  33.863  1.00  0.00    -0.203 F 
ATOM     64  C   UNL A   1      43.789  34.246  33.558  1.00  0.00     0.198 A 
ATOM     65  C   UNL A   1      44.492  35.057  31.411  1.00  0.00     0.198 A 
ATOM     66  F   UNL A   1      44.689  33.573  29.596  1.00  0.00    -0.203 F 
ATOM     67  F   UNL A   1      43.449  34.480  34.833  1.00  0.00    -0.200 F 
ATOM     68  C   UNL A   1      44.173  35.296  32.739  1.00  0.00     0.200 A 
ATOM     69  F   UNL A   1      44.875  36.070  30.622  1.00  0.00    -0.200 F 
ATOM     70  F   UNL A   1      44.226  36.543  33.228  1.00  0.00    -0.200 F 
ENDBRANCH  46  60
BRANCH  47  71
ATOM     71  C   UNL A   1      42.870  23.788  27.324  1.00  0.00     0.064 A 
ATOM     72  C   UNL A   1      43.239  23.653  25.980  1.00  0.00     0.173 A 
ATOM     73  C   UNL A   1      42.381  22.653  27.987  1.00  0.00     0.173 A 
ATOM     74  F   UNL A   1      43.695  24.716  25.301  1.00  0.00    -0.203 F 
ATOM     75  C   UNL A   1      43.117  22.432  25.320  1.00  0.00     0.198 A 
ATOM     76  C   UNL A   1      42.282  21.426  27.332  1.00  0.00     0.198 A 
ATOM     77  F   UNL A   1      42.022  22.730  29.276  1.00  0.00    -0.203 F 
ATOM     78  F   UNL A   1      43.451  22.335  24.026  1.00  0.00    -0.200 F 
ATOM     79  C   UNL A   1      42.647  21.317  26.000  1.00  0.00     0.200 A 
ATOM     80  F   UNL A   1      41.843  20.349  27.997  1.00  0.00    -0.200 F 
ATOM     81  F   UNL A   1      42.543  20.140  25.369  1.00  0.00    -0.200 F 
ENDBRANCH  47  71
BRANCH  59  82
ATOM     82  C   UNL A   1      48.217  26.944  30.503  1.00  0.00     0.064 A 
ATOM     83  C   UNL A   1      48.553  26.135  31.599  1.00  0.00     0.173 A 
ATOM     84  C   UNL A   1      49.244  27.318  29.623  1.00  0.00     0.173 A 
ATOM     85  F   UNL A   1      47.608  25.765  32.478  1.00  0.00    -0.203 F 
ATOM     86  C   UNL A   1      49.868  25.733  31.815  1.00  0.00     0.198 A 
ATOM     87  C   UNL A   1      50.554  26.891  29.827  1.00  0.00     0.198 A 
ATOM     88  F   UNL A   1      48.974  28.086  28.557  1.00  0.00    -0.203 F 
ATOM     89  F   UNL A   1      50.173  24.996  32.892  1.00  0.00    -0.200 F 
ATOM     90  C   UNL A   1      50.865  26.105  30.925  1.00  0.00     0.200 A 
ATOM     91  F   UNL A   1      51.513  27.241  28.960  1.00  0.00    -0.200 F 
ATOM     92  F   UNL A   1      52.129  25.710  31.132  1.00  0.00    -0.200 F 
ENDBRANCH  59  82
ENDBRANCH  33  34
ENDBRANCH  25  28
ENDBRANCH  23  24
ENDBRANCH   1  23
TORSDOF 11
ENDMDL
