MODEL 1
REMARK VINA RESULT:     -13.0      0.000      0.000
REMARK SMILES COc1c[nH]c(C[N@H+]2CCC[C@@H](c3ccc(C(=O)NCCCCNC(=O)c4ccc(-c5c6nc(c(-c7c(F)c(F)c(F)c(F)c7F)c7ccc([nH]7)c(-c7c(F)c(F)c(F)c(F)c7F)c7nc(c(-c8c(F)c(F)c(F)c(F)c8F)c8ccc5[nH]8)C=C7)C=C6)cc4)cc3)C2)cc1=O
REMARK SMILES IDX 20 1 19 2 17 3 18 4 16 6 13 7 14 8 91 9 15 10 90 11 12 12
REMARK SMILES IDX 8 13 9 14 92 15 10 17 11 18 7 19 6 20 3 21 4 22 94 23 5 24
REMARK SMILES IDX 93 25 95 26 2 28 1 29 21 30 22 31 23 32 24 33 25 34 26 36
REMARK SMILES IDX 27 37 28 38 89 39 29 40 88 41 30 42 31 43 32 44 82 45 33 46
REMARK SMILES IDX 87 47 81 48 83 49 34 50 86 51 80 52 79 53 35 55 67 56 47 57
REMARK SMILES IDX 66 58 48 59 51 60 65 61 84 62 49 63 50 64 64 66 85 67 52 68
REMARK SMILES IDX 36 69 37 70 45 71 38 72 39 73 43 74 46 75 40 76 41 77 44 78
REMARK SMILES IDX 42 79 68 80 69 81 77 82 70 83 71 84 75 85 78 86 72 87 73 88
REMARK SMILES IDX 76 89 74 90 53 91 54 92 62 93 55 94 56 95 60 96 63 97 57 98
REMARK SMILES IDX 58 99 61 100 59 101
REMARK H PARENT 19 5 8 16 5 27 24 35 83 54 51 65
REMARK Flexibility Score: inf
ROOT
ATOM      1  C   UNL A   1      41.819  20.758  26.376  1.00  0.00     0.116 C 
ENDROOT
BRANCH   1   2
ATOM      2  N   UNL A   1      41.502  21.804  27.324  1.00  0.00    -0.352 N 
ATOM      3  C   UNL A   1      40.419  22.639  27.425  1.00  0.00     0.251 C 
ATOM      4  O   UNL A   1      40.401  23.435  28.365  1.00  0.00    -0.269 OA
ATOM      5  H   UNL A   1      42.186  21.941  28.019  1.00  0.00     0.163 HD
BRANCH   3   6
ATOM      6  C   UNL A   1      39.252  22.576  26.501  1.00  0.00     0.039 A 
ATOM      7  C   UNL A   1      36.932  22.613  24.881  1.00  0.00    -0.039 A 
ATOM      8  C   UNL A   1      37.370  23.773  25.539  1.00  0.00     0.005 A 
ATOM      9  C   UNL A   1      37.714  21.460  24.980  1.00  0.00     0.005 A 
ATOM     10  C   UNL A   1      38.507  23.750  26.350  1.00  0.00     0.014 A 
ATOM     11  C   UNL A   1      38.874  21.452  25.761  1.00  0.00     0.014 A 
BRANCH   7  12
ATOM     12  C   UNL A   1      35.641  22.581  24.079  1.00  0.00     0.074 C 
ATOM     13  N   UNL A   1      33.318  21.602  24.032  1.00  0.00    -0.329 N 
ATOM     14  C   UNL A   1      32.746  22.951  23.939  1.00  0.00     0.262 C 
ATOM     15  C   UNL A   1      34.616  21.620  24.719  1.00  0.00     0.270 C 
ATOM     16  H   UNL A   1      33.489  21.277  23.081  1.00  0.00     0.348 HD
ATOM     17  C   UNL A   1      33.696  23.914  23.220  1.00  0.00     0.062 C 
ATOM     18  C   UNL A   1      35.049  23.984  23.919  1.00  0.00     0.020 C 
BRANCH  13  19
ATOM     19  C   UNL A   1      32.372  20.634  24.631  1.00  0.00     0.317 C 
BRANCH  19  20
ATOM     20  C   UNL A   1      32.816  19.173  24.655  1.00  0.00     0.074 A 
ATOM     21  C   UNL A   1      33.299  16.363  24.872  1.00  0.00     0.182 A 
ATOM     22  C   UNL A   1      32.903  17.118  25.907  1.00  0.00     0.133 A 
ATOM     23  C   UNL A   1      33.581  17.103  23.587  1.00  0.00     0.223 A 
ATOM     24  N   UNL A   1      32.731  18.473  25.844  1.00  0.00    -0.357 N 
ATOM     25  C   UNL A   1      33.265  18.560  23.544  1.00  0.00     0.083 A 
ATOM     26  O   UNL A   1      34.028  16.559  22.580  1.00  0.00    -0.286 OA
ATOM     27  H   UNL A   1      32.540  18.966  26.675  1.00  0.00     0.166 HD
BRANCH  21  28
ATOM     28  O   UNL A   1      33.356  14.989  25.001  1.00  0.00    -0.491 OA
ATOM     29  C   UNL A   1      32.288  14.424  25.751  1.00  0.00     0.278 C 
ENDBRANCH  21  28
ENDBRANCH  19  20
ENDBRANCH  13  19
ENDBRANCH   7  12
ENDBRANCH   3   6
ENDBRANCH   1   2
BRANCH   1  30
ATOM     30  C   UNL A   1      41.926  19.406  27.085  1.00  0.00     0.023 C 
BRANCH  30  31
ATOM     31  C   UNL A   1      42.650  18.326  26.279  1.00  0.00     0.023 C 
BRANCH  31  32
ATOM     32  C   UNL A   1      44.139  18.570  26.085  1.00  0.00     0.116 C 
BRANCH  32  33
ATOM     33  N   UNL A   1      44.550  18.541  24.690  1.00  0.00    -0.352 N 
ATOM     34  C   UNL A   1      44.882  19.598  23.877  1.00  0.00     0.251 C 
ATOM     35  H   UNL A   1      44.596  17.650  24.274  1.00  0.00     0.163 HD
ATOM     36  O   UNL A   1      45.110  19.424  22.689  1.00  0.00    -0.269 OA
BRANCH  34  37
ATOM     37  C   UNL A   1      44.909  20.959  24.450  1.00  0.00     0.039 A 
ATOM     38  C   UNL A   1      45.529  21.151  25.687  1.00  0.00     0.014 A 
ATOM     39  C   UNL A   1      44.362  22.041  23.756  1.00  0.00     0.014 A 
ATOM     40  C   UNL A   1      45.655  22.441  26.199  1.00  0.00     0.010 A 
ATOM     41  C   UNL A   1      44.553  23.333  24.232  1.00  0.00     0.010 A 
ATOM     42  C   UNL A   1      45.197  23.544  25.460  1.00  0.00    -0.014 A 
BRANCH  42  43
ATOM     43  C   UNL A   1      45.386  24.927  25.963  1.00  0.00     0.031 A 
ATOM     44  C   UNL A   1      46.738  25.576  25.897  1.00  0.00     0.074 A 
ATOM     45  C   UNL A   1      44.348  25.573  26.527  1.00  0.00     0.049 A 
ATOM     46  N   UNL A   1      47.103  26.768  26.298  1.00  0.00    -0.248 NA
ATOM     47  C   UNL A   1      47.833  24.772  25.332  1.00  0.00     0.031 C 
ATOM     48  C   UNL A   1      43.005  25.019  26.708  1.00  0.00     0.029 A 
ATOM     49  N   UNL A   1      44.261  26.837  27.054  1.00  0.00    -0.354 N 
ATOM     50  C   UNL A   1      48.466  26.849  26.045  1.00  0.00     0.074 A 
ATOM     51  C   UNL A   1      48.876  25.568  25.513  1.00  0.00     0.031 C 
ATOM     52  C   UNL A   1      42.220  25.948  27.278  1.00  0.00     0.029 A 
ATOM     53  C   UNL A   1      43.010  27.152  27.525  1.00  0.00     0.049 A 
ATOM     54  H   UNL A   1      45.023  27.459  27.092  1.00  0.00     0.167 HD
ATOM     55  C   UNL A   1      49.295  27.905  26.217  1.00  0.00     0.037 A 
ATOM     56  C   UNL A   1      42.552  28.286  28.084  1.00  0.00     0.037 A 
ATOM     57  C   UNL A   1      48.876  29.187  26.720  1.00  0.00     0.049 A 
ATOM     58  C   UNL A   1      43.486  29.457  28.235  1.00  0.00     0.074 A 
ATOM     59  C   UNL A   1      49.623  30.341  26.875  1.00  0.00     0.029 A 
ATOM     60  N   UNL A   1      47.590  29.481  27.151  1.00  0.00    -0.354 N 
ATOM     61  N   UNL A   1      44.753  29.550  27.916  1.00  0.00    -0.248 NA
ATOM     62  C   UNL A   1      42.919  30.684  28.810  1.00  0.00     0.031 C 
ATOM     63  C   UNL A   1      48.800  31.323  27.434  1.00  0.00     0.029 A 
ATOM     64  C   UNL A   1      47.526  30.796  27.583  1.00  0.00     0.049 A 
ATOM     65  H   UNL A   1      46.835  28.850  27.148  1.00  0.00     0.167 HD
ATOM     66  C   UNL A   1      45.129  30.852  28.219  1.00  0.00     0.074 A 
ATOM     67  C   UNL A   1      43.950  31.515  28.737  1.00  0.00     0.031 C 
ATOM     68  C   UNL A   1      46.340  31.444  28.079  1.00  0.00     0.037 A 
BRANCH  55  69
ATOM     69  C   UNL A   1      50.738  27.722  25.846  1.00  0.00     0.064 A 
ATOM     70  C   UNL A   1      51.703  27.369  26.802  1.00  0.00     0.173 A 
ATOM     71  C   UNL A   1      51.157  27.871  24.516  1.00  0.00     0.173 A 
ATOM     72  F   UNL A   1      51.356  27.228  28.090  1.00  0.00    -0.203 F 
ATOM     73  C   UNL A   1      53.038  27.202  26.445  1.00  0.00     0.198 A 
ATOM     74  C   UNL A   1      52.488  27.673  24.158  1.00  0.00     0.198 A 
ATOM     75  F   UNL A   1      50.275  28.203  23.561  1.00  0.00    -0.203 F 
ATOM     76  F   UNL A   1      53.950  26.917  27.386  1.00  0.00    -0.200 F 
ATOM     77  C   UNL A   1      53.429  27.347  25.123  1.00  0.00     0.200 A 
ATOM     78  F   UNL A   1      52.862  27.802  22.877  1.00  0.00    -0.200 F 
ATOM     79  F   UNL A   1      54.713  27.181  24.781  1.00  0.00    -0.200 F 
ENDBRANCH  55  69
BRANCH  56  80
ATOM     80  C   UNL A   1      41.127  28.389  28.494  1.00  0.00     0.064 A 
ATOM     81  C   UNL A   1      40.163  28.904  27.617  1.00  0.00     0.173 A 
ATOM     82  C   UNL A   1      40.701  27.975  29.764  1.00  0.00     0.173 A 
ATOM     83  F   UNL A   1      40.527  29.329  26.398  1.00  0.00    -0.203 F 
ATOM     84  C   UNL A   1      38.829  29.022  28.001  1.00  0.00     0.198 A 
ATOM     85  C   UNL A   1      39.362  28.068  30.138  1.00  0.00     0.198 A 
ATOM     86  F   UNL A   1      41.583  27.467  30.637  1.00  0.00    -0.203 F 
ATOM     87  F   UNL A   1      37.937  29.558  27.158  1.00  0.00    -0.200 F 
ATOM     88  C   UNL A   1      38.429  28.599  29.259  1.00  0.00     0.200 A 
ATOM     89  F   UNL A   1      38.976  27.646  31.349  1.00  0.00    -0.200 F 
ATOM     90  F   UNL A   1      37.145  28.709  29.628  1.00  0.00    -0.200 F 
ENDBRANCH  56  80
BRANCH  68  91
ATOM     91  C   UNL A   1      46.441  32.894  28.449  1.00  0.00     0.064 A 
ATOM     92  C   UNL A   1      46.745  33.303  29.755  1.00  0.00     0.173 A 
ATOM     93  C   UNL A   1      46.271  33.886  27.471  1.00  0.00     0.173 A 
ATOM     94  F   UNL A   1      46.902  32.393  30.728  1.00  0.00    -0.203 F 
ATOM     95  C   UNL A   1      46.847  34.655  30.075  1.00  0.00     0.198 A 
ATOM     96  C   UNL A   1      46.403  35.235  27.788  1.00  0.00     0.198 A 
ATOM     97  F   UNL A   1      45.987  33.545  26.204  1.00  0.00    -0.203 F 
ATOM     98  F   UNL A   1      47.090  35.025  31.339  1.00  0.00    -0.200 F 
ATOM     99  C   UNL A   1      46.684  35.618  29.090  1.00  0.00     0.200 A 
ATOM    100  F   UNL A   1      46.258  36.163  26.832  1.00  0.00    -0.200 F 
ATOM    101  F   UNL A   1      46.790  36.918  29.399  1.00  0.00    -0.200 F 
ENDBRANCH  68  91
ENDBRANCH  42  43
ENDBRANCH  34  37
ENDBRANCH  32  33
ENDBRANCH  31  32
ENDBRANCH  30  31
ENDBRANCH   1  30
TORSDOF 15
ENDMDL
MODEL 2
REMARK VINA RESULT:     -12.5      5.749     10.597
REMARK SMILES COc1c[nH]c(C[N@H+]2CCC[C@@H](c3ccc(C(=O)NCCCCNC(=O)c4ccc(-c5c6nc(c(-c7c(F)c(F)c(F)c(F)c7F)c7ccc([nH]7)c(-c7c(F)c(F)c(F)c(F)c7F)c7nc(c(-c8c(F)c(F)c(F)c(F)c8F)c8ccc5[nH]8)C=C7)C=C6)cc4)cc3)C2)cc1=O
REMARK SMILES IDX 20 1 19 2 17 3 18 4 16 6 13 7 14 8 91 9 15 10 90 11 12 12
REMARK SMILES IDX 8 13 9 14 92 15 10 17 11 18 7 19 6 20 3 21 4 22 94 23 5 24
REMARK SMILES IDX 93 25 95 26 2 28 1 29 21 30 22 31 23 32 24 33 25 34 26 36
REMARK SMILES IDX 27 37 28 38 89 39 29 40 88 41 30 42 31 43 32 44 82 45 33 46
REMARK SMILES IDX 87 47 81 48 83 49 34 50 86 51 80 52 79 53 35 55 67 56 47 57
REMARK SMILES IDX 66 58 48 59 51 60 65 61 84 62 49 63 50 64 64 66 85 67 52 68
REMARK SMILES IDX 36 69 37 70 45 71 38 72 39 73 43 74 46 75 40 76 41 77 44 78
REMARK SMILES IDX 42 79 68 80 69 81 77 82 70 83 71 84 75 85 78 86 72 87 73 88
REMARK SMILES IDX 76 89 74 90 53 91 54 92 62 93 55 94 56 95 60 96 63 97 57 98
REMARK SMILES IDX 58 99 61 100 59 101
REMARK H PARENT 19 5 8 16 5 27 24 35 83 54 51 65
REMARK Flexibility Score: inf
ROOT
ATOM      1  C   UNL A   1      45.867  21.561  34.005  1.00  0.00     0.116 C 
ENDROOT
BRANCH   1   2
ATOM      2  N   UNL A   1      44.631  22.274  34.246  1.00  0.00    -0.352 N 
ATOM      3  C   UNL A   1      43.996  23.257  33.531  1.00  0.00     0.251 C 
ATOM      4  O   UNL A   1      42.923  23.675  33.966  1.00  0.00    -0.269 OA
ATOM      5  H   UNL A   1      44.162  22.006  35.070  1.00  0.00     0.163 HD
BRANCH   3   6
ATOM      6  C   UNL A   1      44.510  23.784  32.235  1.00  0.00     0.039 A 
ATOM      7  C   UNL A   1      45.459  24.571  29.687  1.00  0.00    -0.039 A 
ATOM      8  C   UNL A   1      44.460  23.593  29.814  1.00  0.00     0.005 A 
ATOM      9  C   UNL A   1      45.916  25.204  30.846  1.00  0.00     0.005 A 
ATOM     10  C   UNL A   1      44.003  23.195  31.072  1.00  0.00     0.014 A 
ATOM     11  C   UNL A   1      45.427  24.830  32.101  1.00  0.00     0.014 A 
BRANCH   7  12
ATOM     12  C   UNL A   1      46.051  24.948  28.340  1.00  0.00     0.074 C 
ATOM     13  N   UNL A   1      46.446  24.098  25.999  1.00  0.00    -0.329 N 
ATOM     14  C   UNL A   1      45.750  25.269  25.450  1.00  0.00     0.262 C 
ATOM     15  C   UNL A   1      45.958  23.771  27.345  1.00  0.00     0.270 C 
ATOM     16  H   UNL A   1      47.431  24.342  26.091  1.00  0.00     0.348 HD
ATOM     17  C   UNL A   1      45.903  26.489  26.364  1.00  0.00     0.062 C 
ATOM     18  C   UNL A   1      45.381  26.201  27.768  1.00  0.00     0.020 C 
BRANCH  13  19
ATOM     19  C   UNL A   1      46.397  22.938  25.080  1.00  0.00     0.317 C 
BRANCH  19  20
ATOM     20  C   UNL A   1      45.312  21.899  25.351  1.00  0.00     0.074 A 
ATOM     21  C   UNL A   1      43.051  20.169  25.617  1.00  0.00     0.182 A 
ATOM     22  C   UNL A   1      42.977  21.496  25.786  1.00  0.00     0.133 A 
ATOM     23  C   UNL A   1      44.432  19.610  25.376  1.00  0.00     0.223 A 
ATOM     24  N   UNL A   1      44.055  22.335  25.730  1.00  0.00    -0.357 N 
ATOM     25  C   UNL A   1      45.552  20.582  25.210  1.00  0.00     0.083 A 
ATOM     26  O   UNL A   1      44.667  18.408  25.285  1.00  0.00    -0.286 OA
ATOM     27  H   UNL A   1      43.932  23.283  25.969  1.00  0.00     0.166 HD
BRANCH  21  28
ATOM     28  O   UNL A   1      41.896  19.409  25.597  1.00  0.00    -0.491 OA
ATOM     29  C   UNL A   1      40.836  19.933  26.387  1.00  0.00     0.278 C 
ENDBRANCH  21  28
ENDBRANCH  19  20
ENDBRANCH  13  19
ENDBRANCH   7  12
ENDBRANCH   3   6
ENDBRANCH   1   2
BRANCH   1  30
ATOM     30  C   UNL A   1      46.795  21.674  35.215  1.00  0.00     0.023 C 
BRANCH  30  31
ATOM     31  C   UNL A   1      47.856  22.769  35.097  1.00  0.00     0.023 C 
BRANCH  31  32
ATOM     32  C   UNL A   1      47.301  24.183  34.999  1.00  0.00     0.116 C 
BRANCH  32  33
ATOM     33  N   UNL A   1      47.541  24.980  36.192  1.00  0.00    -0.352 N 
ATOM     34  C   UNL A   1      46.972  26.180  36.544  1.00  0.00     0.251 C 
ATOM     35  H   UNL A   1      48.197  24.613  36.829  1.00  0.00     0.163 HD
ATOM     36  O   UNL A   1      47.353  26.784  37.536  1.00  0.00    -0.269 OA
BRANCH  34  37
ATOM     37  C   UNL A   1      45.924  26.756  35.677  1.00  0.00     0.039 A 
ATOM     38  C   UNL A   1      44.616  26.284  35.806  1.00  0.00     0.014 A 
ATOM     39  C   UNL A   1      46.224  27.776  34.771  1.00  0.00     0.014 A 
ATOM     40  C   UNL A   1      43.595  26.883  35.070  1.00  0.00     0.010 A 
ATOM     41  C   UNL A   1      45.194  28.420  34.093  1.00  0.00     0.010 A 
ATOM     42  C   UNL A   1      43.871  27.976  34.233  1.00  0.00    -0.014 A 
BRANCH  42  43
ATOM     43  C   UNL A   1      42.783  28.664  33.496  1.00  0.00     0.031 A 
ATOM     44  C   UNL A   1      42.465  28.274  32.082  1.00  0.00     0.074 A 
ATOM     45  C   UNL A   1      42.120  29.675  34.088  1.00  0.00     0.049 A 
ATOM     46  N   UNL A   1      41.563  28.766  31.272  1.00  0.00    -0.248 NA
ATOM     47  C   UNL A   1      43.286  27.208  31.487  1.00  0.00     0.031 C 
ATOM     48  C   UNL A   1      42.386  30.188  35.434  1.00  0.00     0.029 A 
ATOM     49  N   UNL A   1      41.088  30.456  33.633  1.00  0.00    -0.354 N 
ATOM     50  C   UNL A   1      41.718  28.081  30.074  1.00  0.00     0.074 A 
ATOM     51  C   UNL A   1      42.837  27.181  30.242  1.00  0.00     0.031 C 
ATOM     52  C   UNL A   1      41.521  31.178  35.705  1.00  0.00     0.029 A 
ATOM     53  C   UNL A   1      40.656  31.386  34.547  1.00  0.00     0.049 A 
ATOM     54  H   UNL A   1      40.694  30.358  32.736  1.00  0.00     0.167 HD
ATOM     55  C   UNL A   1      40.976  28.176  28.946  1.00  0.00     0.037 A 
ATOM     56  C   UNL A   1      39.670  32.296  34.461  1.00  0.00     0.037 A 
ATOM     57  C   UNL A   1      39.845  29.053  28.794  1.00  0.00     0.049 A 
ATOM     58  C   UNL A   1      38.840  32.360  33.207  1.00  0.00     0.074 A 
ATOM     59  C   UNL A   1      38.989  29.181  27.714  1.00  0.00     0.029 A 
ATOM     60  N   UNL A   1      39.413  29.953  29.756  1.00  0.00    -0.354 N 
ATOM     61  N   UNL A   1      38.942  31.649  32.111  1.00  0.00    -0.248 NA
ATOM     62  C   UNL A   1      37.747  33.342  33.187  1.00  0.00     0.031 C 
ATOM     63  C   UNL A   1      38.062  30.185  28.008  1.00  0.00     0.029 A 
ATOM     64  C   UNL A   1      38.310  30.650  29.291  1.00  0.00     0.049 A 
ATOM     65  H   UNL A   1      39.828  30.078  30.640  1.00  0.00     0.167 HD
ATOM     66  C   UNL A   1      37.911  32.072  31.283  1.00  0.00     0.074 A 
ATOM     67  C   UNL A   1      37.187  33.095  32.010  1.00  0.00     0.031 C 
ATOM     68  C   UNL A   1      37.591  31.652  30.035  1.00  0.00     0.037 A 
BRANCH  55  69
ATOM     69  C   UNL A   1      41.359  27.298  27.789  1.00  0.00     0.064 A 
ATOM     70  C   UNL A   1      42.122  27.787  26.718  1.00  0.00     0.173 A 
ATOM     71  C   UNL A   1      40.983  25.947  27.764  1.00  0.00     0.173 A 
ATOM     72  F   UNL A   1      42.495  29.075  26.687  1.00  0.00    -0.203 F 
ATOM     73  C   UNL A   1      42.470  26.963  25.651  1.00  0.00     0.198 A 
ATOM     74  C   UNL A   1      41.359  25.119  26.710  1.00  0.00     0.198 A 
ATOM     75  F   UNL A   1      40.256  25.427  28.765  1.00  0.00    -0.203 F 
ATOM     76  F   UNL A   1      43.155  27.466  24.615  1.00  0.00    -0.200 F 
ATOM     77  C   UNL A   1      42.095  25.629  25.651  1.00  0.00     0.200 A 
ATOM     78  F   UNL A   1      41.006  23.825  26.717  1.00  0.00    -0.200 F 
ATOM     79  F   UNL A   1      42.435  24.836  24.626  1.00  0.00    -0.200 F 
ENDBRANCH  55  69
BRANCH  56  80
ATOM     80  C   UNL A   1      39.378  33.185  35.615  1.00  0.00     0.064 A 
ATOM     81  C   UNL A   1      38.504  32.778  36.633  1.00  0.00     0.173 A 
ATOM     82  C   UNL A   1      39.964  34.454  35.726  1.00  0.00     0.173 A 
ATOM     83  F   UNL A   1      37.906  31.580  36.560  1.00  0.00    -0.203 F 
ATOM     84  C   UNL A   1      38.210  33.614  37.707  1.00  0.00     0.198 A 
ATOM     85  C   UNL A   1      39.691  35.279  36.815  1.00  0.00     0.198 A 
ATOM     86  F   UNL A   1      40.814  34.887  34.783  1.00  0.00    -0.203 F 
ATOM     87  F   UNL A   1      37.338  33.217  38.643  1.00  0.00    -0.200 F 
ATOM     88  C   UNL A   1      38.807  34.862  37.800  1.00  0.00     0.200 A 
ATOM     89  F   UNL A   1      40.280  36.478  36.909  1.00  0.00    -0.200 F 
ATOM     90  F   UNL A   1      38.528  35.665  38.836  1.00  0.00    -0.200 F 
ENDBRANCH  56  80
BRANCH  68  91
ATOM     91  C   UNL A   1      36.381  32.262  29.394  1.00  0.00     0.064 A 
ATOM     92  C   UNL A   1      36.331  33.622  29.055  1.00  0.00     0.173 A 
ATOM     93  C   UNL A   1      35.270  31.464  29.077  1.00  0.00     0.173 A 
ATOM     94  F   UNL A   1      37.362  34.429  29.350  1.00  0.00    -0.203 F 
ATOM     95  C   UNL A   1      35.203  34.167  28.448  1.00  0.00     0.198 A 
ATOM     96  C   UNL A   1      34.156  32.006  28.444  1.00  0.00     0.198 A 
ATOM     97  F   UNL A   1      35.272  30.155  29.374  1.00  0.00    -0.203 F 
ATOM     98  F   UNL A   1      35.158  35.478  28.177  1.00  0.00    -0.200 F 
ATOM     99  C   UNL A   1      34.120  33.357  28.137  1.00  0.00     0.200 A 
ATOM    100  F   UNL A   1      33.116  31.219  28.133  1.00  0.00    -0.200 F 
ATOM    101  F   UNL A   1      33.038  33.883  27.547  1.00  0.00    -0.200 F 
ENDBRANCH  68  91
ENDBRANCH  42  43
ENDBRANCH  34  37
ENDBRANCH  32  33
ENDBRANCH  31  32
ENDBRANCH  30  31
ENDBRANCH   1  30
TORSDOF 15
ENDMDL
MODEL 3
REMARK VINA RESULT:     -12.0      5.949     12.361
REMARK SMILES COc1c[nH]c(C[N@H+]2CCC[C@@H](c3ccc(C(=O)NCCCCNC(=O)c4ccc(-c5c6nc(c(-c7c(F)c(F)c(F)c(F)c7F)c7ccc([nH]7)c(-c7c(F)c(F)c(F)c(F)c7F)c7nc(c(-c8c(F)c(F)c(F)c(F)c8F)c8ccc5[nH]8)C=C7)C=C6)cc4)cc3)C2)cc1=O
REMARK SMILES IDX 20 1 19 2 17 3 18 4 16 6 13 7 14 8 91 9 15 10 90 11 12 12
REMARK SMILES IDX 8 13 9 14 92 15 10 17 11 18 7 19 6 20 3 21 4 22 94 23 5 24
REMARK SMILES IDX 93 25 95 26 2 28 1 29 21 30 22 31 23 32 24 33 25 34 26 36
REMARK SMILES IDX 27 37 28 38 89 39 29 40 88 41 30 42 31 43 32 44 82 45 33 46
REMARK SMILES IDX 87 47 81 48 83 49 34 50 86 51 80 52 79 53 35 55 67 56 47 57
REMARK SMILES IDX 66 58 48 59 51 60 65 61 84 62 49 63 50 64 64 66 85 67 52 68
REMARK SMILES IDX 36 69 37 70 45 71 38 72 39 73 43 74 46 75 40 76 41 77 44 78
REMARK SMILES IDX 42 79 68 80 69 81 77 82 70 83 71 84 75 85 78 86 72 87 73 88
REMARK SMILES IDX 76 89 74 90 53 91 54 92 62 93 55 94 56 95 60 96 63 97 57 98
REMARK SMILES IDX 58 99 61 100 59 101
REMARK H PARENT 19 5 8 16 5 27 24 35 83 54 51 65
REMARK Flexibility Score: inf
ROOT
ATOM      1  C   UNL A   1      36.698  32.519  31.267  1.00  0.00     0.116 C 
ENDROOT
BRANCH   1   2
ATOM      2  N   UNL A   1      37.143  33.267  32.424  1.00  0.00    -0.352 N 
ATOM      3  C   UNL A   1      38.243  34.061  32.624  1.00  0.00     0.251 C 
ATOM      4  O   UNL A   1      38.361  34.604  33.723  1.00  0.00    -0.269 OA
ATOM      5  H   UNL A   1      36.550  33.191  33.208  1.00  0.00     0.163 HD
BRANCH   3   6
ATOM      6  C   UNL A   1      39.248  34.343  31.560  1.00  0.00     0.039 A 
ATOM      7  C   UNL A   1      41.282  34.989  29.702  1.00  0.00    -0.039 A 
ATOM      8  C   UNL A   1      41.591  34.724  31.046  1.00  0.00     0.005 A 
ATOM      9  C   UNL A   1      39.956  34.847  29.287  1.00  0.00     0.005 A 
ATOM     10  C   UNL A   1      40.585  34.420  31.965  1.00  0.00     0.014 A 
ATOM     11  C   UNL A   1      38.957  34.503  30.203  1.00  0.00     0.014 A 
BRANCH   7  12
ATOM     12  C   UNL A   1      42.341  35.427  28.704  1.00  0.00     0.074 C 
ATOM     13  N   UNL A   1      44.360  34.628  27.422  1.00  0.00    -0.329 N 
ATOM     14  C   UNL A   1      43.728  35.036  26.161  1.00  0.00     0.262 C 
ATOM     15  C   UNL A   1      43.354  34.292  28.438  1.00  0.00     0.270 C 
ATOM     16  H   UNL A   1      44.884  35.428  27.775  1.00  0.00     0.348 HD
ATOM     17  C   UNL A   1      42.787  36.227  26.367  1.00  0.00     0.062 C 
ATOM     18  C   UNL A   1      41.707  35.910  27.396  1.00  0.00     0.020 C 
BRANCH  13  19
ATOM     19  C   UNL A   1      45.352  33.546  27.225  1.00  0.00     0.317 C 
BRANCH  19  20
ATOM     20  C   UNL A   1      44.888  32.129  27.554  1.00  0.00     0.074 A 
ATOM     21  C   UNL A   1      44.103  29.390  27.792  1.00  0.00     0.182 A 
ATOM     22  C   UNL A   1      43.655  30.195  26.820  1.00  0.00     0.133 A 
ATOM     23  C   UNL A   1      44.978  30.040  28.836  1.00  0.00     0.223 A 
ATOM     24  N   UNL A   1      43.963  31.524  26.724  1.00  0.00    -0.357 N 
ATOM     25  C   UNL A   1      45.375  31.462  28.617  1.00  0.00     0.083 A 
ATOM     26  O   UNL A   1      45.396  29.451  29.829  1.00  0.00    -0.286 OA
ATOM     27  H   UNL A   1      43.509  32.068  26.040  1.00  0.00     0.166 HD
BRANCH  21  28
ATOM     28  O   UNL A   1      43.816  28.038  27.758  1.00  0.00    -0.491 OA
ATOM     29  C   UNL A   1      44.499  27.320  26.738  1.00  0.00     0.278 C 
ENDBRANCH  21  28
ENDBRANCH  19  20
ENDBRANCH  13  19
ENDBRANCH   7  12
ENDBRANCH   3   6
ENDBRANCH   1   2
BRANCH   1  30
ATOM     30  C   UNL A   1      35.304  32.979  30.836  1.00  0.00     0.023 C 
BRANCH  30  31
ATOM     31  C   UNL A   1      35.288  33.856  29.584  1.00  0.00     0.023 C 
BRANCH  31  32
ATOM     32  C   UNL A   1      35.680  33.138  28.300  1.00  0.00     0.116 C 
BRANCH  32  33
ATOM     33  N   UNL A   1      34.668  32.204  27.831  1.00  0.00    -0.352 N 
ATOM     34  C   UNL A   1      34.765  30.841  27.693  1.00  0.00     0.251 C 
ATOM     35  H   UNL A   1      33.803  32.600  27.578  1.00  0.00     0.163 HD
ATOM     36  O   UNL A   1      33.858  30.199  27.186  1.00  0.00    -0.269 OA
BRANCH  34  37
ATOM     37  C   UNL A   1      36.006  30.165  28.124  1.00  0.00     0.039 A 
ATOM     38  C   UNL A   1      37.117  30.207  27.280  1.00  0.00     0.014 A 
ATOM     39  C   UNL A   1      36.082  29.530  29.366  1.00  0.00     0.014 A 
ATOM     40  C   UNL A   1      38.327  29.664  27.711  1.00  0.00     0.010 A 
ATOM     41  C   UNL A   1      37.306  29.055  29.823  1.00  0.00     0.010 A 
ATOM     42  C   UNL A   1      38.439  29.114  28.998  1.00  0.00    -0.014 A 
BRANCH  42  43
ATOM     43  C   UNL A   1      39.737  28.594  29.492  1.00  0.00     0.031 A 
ATOM     44  C   UNL A   1      40.520  29.367  30.513  1.00  0.00     0.074 A 
ATOM     45  C   UNL A   1      40.230  27.451  28.979  1.00  0.00     0.049 A 
ATOM     46  N   UNL A   1      41.678  29.084  31.054  1.00  0.00    -0.248 NA
ATOM     47  C   UNL A   1      39.942  30.642  30.966  1.00  0.00     0.031 C 
ATOM     48  C   UNL A   1      39.592  26.648  27.934  1.00  0.00     0.029 A 
ATOM     49  N   UNL A   1      41.385  26.767  29.265  1.00  0.00    -0.354 N 
ATOM     50  C   UNL A   1      41.969  30.148  31.898  1.00  0.00     0.074 A 
ATOM     51  C   UNL A   1      40.898  31.110  31.753  1.00  0.00     0.031 C 
ATOM     52  C   UNL A   1      40.349  25.566  27.688  1.00  0.00     0.029 A 
ATOM     53  C   UNL A   1      41.535  25.612  28.538  1.00  0.00     0.049 A 
ATOM     54  H   UNL A   1      42.043  27.076  29.929  1.00  0.00     0.167 HD
ATOM     55  C   UNL A   1      43.021  30.296  32.737  1.00  0.00     0.037 A 
ATOM     56  C   UNL A   1      42.517  24.692  28.561  1.00  0.00     0.037 A 
ATOM     57  C   UNL A   1      44.068  29.323  32.898  1.00  0.00     0.049 A 
ATOM     58  C   UNL A   1      43.659  24.864  29.525  1.00  0.00     0.074 A 
ATOM     59  C   UNL A   1      45.147  29.348  33.766  1.00  0.00     0.029 A 
ATOM     60  N   UNL A   1      44.167  28.145  32.172  1.00  0.00    -0.354 N 
ATOM     61  N   UNL A   1      43.882  25.833  30.378  1.00  0.00    -0.248 NA
ATOM     62  C   UNL A   1      44.677  23.805  29.540  1.00  0.00     0.031 C 
ATOM     63  C   UNL A   1      45.917  28.204  33.539  1.00  0.00     0.029 A 
ATOM     64  C   UNL A   1      45.294  27.441  32.563  1.00  0.00     0.049 A 
ATOM     65  H   UNL A   1      43.529  27.851  31.482  1.00  0.00     0.167 HD
ATOM     66  C   UNL A   1      45.045  25.488  31.054  1.00  0.00     0.074 A 
ATOM     67  C   UNL A   1      45.474  24.213  30.518  1.00  0.00     0.031 C 
ATOM     68  C   UNL A   1      45.697  26.165  32.031  1.00  0.00     0.037 A 
BRANCH  55  69
ATOM     69  C   UNL A   1      43.084  31.554  33.555  1.00  0.00     0.064 A 
ATOM     70  C   UNL A   1      43.802  32.678  33.119  1.00  0.00     0.173 A 
ATOM     71  C   UNL A   1      42.395  31.647  34.773  1.00  0.00     0.173 A 
ATOM     72  F   UNL A   1      44.489  32.635  31.968  1.00  0.00    -0.203 F 
ATOM     73  C   UNL A   1      43.853  33.838  33.887  1.00  0.00     0.198 A 
ATOM     74  C   UNL A   1      42.423  32.820  35.523  1.00  0.00     0.198 A 
ATOM     75  F   UNL A   1      41.689  30.604  35.234  1.00  0.00    -0.203 F 
ATOM     76  F   UNL A   1      44.589  34.880  33.475  1.00  0.00    -0.200 F 
ATOM     77  C   UNL A   1      43.158  33.911  35.084  1.00  0.00     0.200 A 
ATOM     78  F   UNL A   1      41.741  32.894  36.675  1.00  0.00    -0.200 F 
ATOM     79  F   UNL A   1      43.203  35.031  35.819  1.00  0.00    -0.200 F 
ENDBRANCH  55  69
BRANCH  56  80
ATOM     80  C   UNL A   1      42.434  23.498  27.680  1.00  0.00     0.064 A 
ATOM     81  C   UNL A   1      41.713  22.363  28.074  1.00  0.00     0.173 A 
ATOM     82  C   UNL A   1      43.072  23.466  26.432  1.00  0.00     0.173 A 
ATOM     83  F   UNL A   1      41.101  22.340  29.268  1.00  0.00    -0.203 F 
ATOM     84  C   UNL A   1      41.648  21.233  27.263  1.00  0.00     0.198 A 
ATOM     85  C   UNL A   1      42.984  22.346  25.609  1.00  0.00     0.198 A 
ATOM     86  F   UNL A   1      43.769  24.530  26.006  1.00  0.00    -0.203 F 
ATOM     87  F   UNL A   1      40.988  20.146  27.683  1.00  0.00    -0.200 F 
ATOM     88  C   UNL A   1      42.280  21.226  26.029  1.00  0.00     0.200 A 
ATOM     89  F   UNL A   1      43.584  22.348  24.411  1.00  0.00    -0.200 F 
ATOM     90  F   UNL A   1      42.216  20.141  25.246  1.00  0.00    -0.200 F 
ENDBRANCH  56  80
BRANCH  68  91
ATOM     91  C   UNL A   1      46.917  25.519  32.616  1.00  0.00     0.064 A 
ATOM     92  C   UNL A   1      48.192  25.720  32.069  1.00  0.00     0.173 A 
ATOM     93  C   UNL A   1      46.813  24.721  33.765  1.00  0.00     0.173 A 
ATOM     94  F   UNL A   1      48.343  26.464  30.962  1.00  0.00    -0.203 F 
ATOM     95  C   UNL A   1      49.316  25.122  32.635  1.00  0.00     0.198 A 
ATOM     96  C   UNL A   1      47.941  24.149  34.345  1.00  0.00     0.198 A 
ATOM     97  F   UNL A   1      45.615  24.505  34.331  1.00  0.00    -0.203 F 
ATOM     98  F   UNL A   1      50.518  25.288  32.067  1.00  0.00    -0.200 F 
ATOM     99  C   UNL A   1      49.189  24.343  33.776  1.00  0.00     0.200 A 
ATOM    100  F   UNL A   1      47.817  23.407  35.455  1.00  0.00    -0.200 F 
ATOM    101  F   UNL A   1      50.272  23.775  34.323  1.00  0.00    -0.200 F 
ENDBRANCH  68  91
ENDBRANCH  42  43
ENDBRANCH  34  37
ENDBRANCH  32  33
ENDBRANCH  31  32
ENDBRANCH  30  31
ENDBRANCH   1  30
TORSDOF 15
ENDMDL
