MODEL 1
REMARK VINA RESULT:     -13.0      0.000      0.000
REMARK SMILES CC(C)CC(=O)Nc1ccc(NC(=O)[C@@H]2CCCC[C@@H]2C(=O)NCCCCNC(=O)c2ccc(-c3c4nc(c(-c5c(F)c(F)c(F)c(F)c5F)c5ccc([nH]5)c(-c5c(F)c(F)c(F)c(F)c5F)c5nc(c(-c6c(F)c(F)c(F)c(F)c6F)c6ccc3[nH]6)C=C5)C=C4)cc2)cc1
REMARK SMILES IDX 24 1 23 2 21 3 22 4 20 6 15 7 16 8 17 9 19 10 18 11 13 12
REMARK SMILES IDX 12 13 14 15 11 16 8 17 9 18 95 19 10 20 94 21 7 22 5 23 6 24
REMARK SMILES IDX 4 26 2 27 1 28 3 29 25 30 26 31 27 32 28 33 29 34 30 36
REMARK SMILES IDX 31 37 32 38 93 39 33 40 92 41 34 42 35 43 36 44 86 45 37 46
REMARK SMILES IDX 91 47 85 48 87 49 38 50 90 51 84 52 83 53 39 55 71 56 51 57
REMARK SMILES IDX 70 58 52 59 55 60 69 61 88 62 53 63 54 64 68 66 89 67 56 68
REMARK SMILES IDX 40 69 41 70 49 71 42 72 43 73 47 74 50 75 44 76 45 77 48 78
REMARK SMILES IDX 46 79 72 80 73 81 81 82 74 83 75 84 79 85 82 86 76 87 77 88
REMARK SMILES IDX 80 89 78 90 57 91 58 92 66 93 59 94 60 95 64 96 67 97 61 98
REMARK SMILES IDX 62 99 65 100 63 101
REMARK H PARENT 23 5 12 14 7 25 28 35 87 54 55 65
REMARK Flexibility Score: inf
ROOT
ATOM      1  C   UNL A   1      31.169  29.857  25.032  1.00  0.00     0.116 C 
ENDROOT
BRANCH   1   2
ATOM      2  N   UNL A   1      32.128  29.674  23.953  1.00  0.00    -0.356 N 
ATOM      3  C   UNL A   1      32.472  28.568  23.232  1.00  0.00     0.223 C 
ATOM      4  O   UNL A   1      33.295  28.710  22.326  1.00  0.00    -0.275 OA
ATOM      5  H   UNL A   1      32.614  30.491  23.700  1.00  0.00     0.163 HD
BRANCH   3   6
ATOM      6  C   UNL A   1      31.805  27.227  23.516  1.00  0.00     0.091 C 
ATOM      7  C   UNL A   1      32.714  26.139  24.098  1.00  0.00     0.091 C 
ATOM      8  C   UNL A   1      33.676  25.521  23.084  1.00  0.00     0.014 C 
ATOM      9  C   UNL A   1      32.903  24.890  21.949  1.00  0.00     0.001 C 
ATOM     10  C   UNL A   1      31.096  26.660  22.260  1.00  0.00     0.014 C 
ATOM     11  C   UNL A   1      32.015  25.926  21.275  1.00  0.00     0.001 C 
BRANCH   7  12
ATOM     12  C   UNL A   1      33.569  26.498  25.277  1.00  0.00     0.228 C 
ATOM     13  N   UNL A   1      33.931  25.584  26.212  1.00  0.00    -0.326 N 
ATOM     14  H   UNL A   1      34.288  26.004  27.028  1.00  0.00     0.169 HD
ATOM     15  O   UNL A   1      34.010  27.644  25.401  1.00  0.00    -0.274 OA
BRANCH  13  16
ATOM     16  C   UNL A   1      33.917  24.182  26.294  1.00  0.00     0.041 A 
ATOM     17  C   UNL A   1      33.565  21.385  26.488  1.00  0.00     0.041 A 
ATOM     18  C   UNL A   1      34.823  21.904  26.240  1.00  0.00     0.028 A 
ATOM     19  C   UNL A   1      32.543  22.269  26.788  1.00  0.00     0.028 A 
ATOM     20  C   UNL A   1      34.998  23.300  26.171  1.00  0.00     0.028 A 
ATOM     21  C   UNL A   1      32.684  23.640  26.638  1.00  0.00     0.028 A 
BRANCH  17  22
ATOM     22  N   UNL A   1      33.337  20.004  26.543  1.00  0.00    -0.326 N 
ATOM     23  C   UNL A   1      32.847  19.204  25.530  1.00  0.00     0.224 C 
ATOM     24  O   UNL A   1      32.281  18.148  25.809  1.00  0.00    -0.275 OA
ATOM     25  H   UNL A   1      33.547  19.556  27.393  1.00  0.00     0.169 HD
BRANCH  23  26
ATOM     26  C   UNL A   1      33.233  19.544  24.084  1.00  0.00     0.103 C 
BRANCH  26  27
ATOM     27  C   UNL A   1      32.105  19.604  23.030  1.00  0.00    -0.008 C 
ATOM     28  C   UNL A   1      32.026  20.926  22.257  1.00  0.00     0.008 C 
ATOM     29  C   UNL A   1      32.336  18.495  21.997  1.00  0.00     0.008 C 
ENDBRANCH  26  27
ENDBRANCH  23  26
ENDBRANCH  17  22
ENDBRANCH  13  16
ENDBRANCH   7  12
ENDBRANCH   3   6
ENDBRANCH   1   2
BRANCH   1  30
ATOM     30  C   UNL A   1      31.793  30.412  26.315  1.00  0.00     0.023 C 
BRANCH  30  31
ATOM     31  C   UNL A   1      31.573  31.902  26.545  1.00  0.00     0.023 C 
BRANCH  31  32
ATOM     32  C   UNL A   1      32.713  32.548  27.306  1.00  0.00     0.116 C 
BRANCH  32  33
ATOM     33  N   UNL A   1      32.457  33.965  27.547  1.00  0.00    -0.352 N 
ATOM     34  C   UNL A   1      32.957  34.776  28.540  1.00  0.00     0.251 C 
ATOM     35  H   UNL A   1      31.843  34.401  26.913  1.00  0.00     0.163 HD
ATOM     36  O   UNL A   1      32.464  35.865  28.771  1.00  0.00    -0.269 OA
BRANCH  34  37
ATOM     37  C   UNL A   1      34.107  34.284  29.322  1.00  0.00     0.039 A 
ATOM     38  C   UNL A   1      33.887  33.515  30.466  1.00  0.00     0.014 A 
ATOM     39  C   UNL A   1      35.403  34.553  28.877  1.00  0.00     0.014 A 
ATOM     40  C   UNL A   1      34.981  32.964  31.133  1.00  0.00     0.010 A 
ATOM     41  C   UNL A   1      36.474  33.906  29.466  1.00  0.00     0.010 A 
ATOM     42  C   UNL A   1      36.277  33.129  30.617  1.00  0.00    -0.014 A 
BRANCH  42  43
ATOM     43  C   UNL A   1      37.467  32.555  31.284  1.00  0.00     0.031 A 
ATOM     44  C   UNL A   1      38.217  31.442  30.605  1.00  0.00     0.074 A 
ATOM     45  C   UNL A   1      37.810  32.964  32.519  1.00  0.00     0.049 A 
ATOM     46  N   UNL A   1      39.196  30.703  31.058  1.00  0.00    -0.248 NA
ATOM     47  C   UNL A   1      37.770  31.077  29.248  1.00  0.00     0.031 C 
ATOM     48  C   UNL A   1      37.120  33.995  33.295  1.00  0.00     0.029 A 
ATOM     49  N   UNL A   1      38.821  32.547  33.345  1.00  0.00    -0.354 N 
ATOM     50  C   UNL A   1      39.456  29.775  30.058  1.00  0.00     0.074 A 
ATOM     51  C   UNL A   1      38.487  29.991  29.009  1.00  0.00     0.031 C 
ATOM     52  C   UNL A   1      37.744  34.151  34.473  1.00  0.00     0.029 A 
ATOM     53  C   UNL A   1      38.849  33.201  34.552  1.00  0.00     0.049 A 
ATOM     54  H   UNL A   1      39.465  31.845  33.099  1.00  0.00     0.167 HD
ATOM     55  C   UNL A   1      40.438  28.846  30.006  1.00  0.00     0.037 A 
ATOM     56  C   UNL A   1      39.674  33.043  35.604  1.00  0.00     0.037 A 
ATOM     57  C   UNL A   1      41.424  28.670  31.038  1.00  0.00     0.049 A 
ATOM     58  C   UNL A   1      40.768  32.010  35.517  1.00  0.00     0.074 A 
ATOM     59  C   UNL A   1      42.505  27.809  31.063  1.00  0.00     0.029 A 
ATOM     60  N   UNL A   1      41.446  29.380  32.231  1.00  0.00    -0.354 N 
ATOM     61  N   UNL A   1      41.051  31.184  34.540  1.00  0.00    -0.248 NA
ATOM     62  C   UNL A   1      41.661  31.897  36.678  1.00  0.00     0.031 C 
ATOM     63  C   UNL A   1      43.154  27.963  32.292  1.00  0.00     0.029 A 
ATOM     64  C   UNL A   1      42.512  28.963  33.008  1.00  0.00     0.049 A 
ATOM     65  H   UNL A   1      40.798  30.076  32.486  1.00  0.00     0.167 HD
ATOM     66  C   UNL A   1      42.172  30.474  34.950  1.00  0.00     0.074 A 
ATOM     67  C   UNL A   1      42.524  30.980  36.261  1.00  0.00     0.031 C 
ATOM     68  C   UNL A   1      42.850  29.495  34.304  1.00  0.00     0.037 A 
BRANCH  55  69
ATOM     69  C   UNL A   1      40.497  27.964  28.791  1.00  0.00     0.064 A 
ATOM     70  C   UNL A   1      41.242  28.321  27.656  1.00  0.00     0.173 A 
ATOM     71  C   UNL A   1      39.809  26.742  28.764  1.00  0.00     0.173 A 
ATOM     72  F   UNL A   1      41.906  29.486  27.621  1.00  0.00    -0.203 F 
ATOM     73  C   UNL A   1      41.265  27.506  26.527  1.00  0.00     0.198 A 
ATOM     74  C   UNL A   1      39.864  25.913  27.647  1.00  0.00     0.198 A 
ATOM     75  F   UNL A   1      39.083  26.350  29.822  1.00  0.00    -0.203 F 
ATOM     76  F   UNL A   1      41.930  27.900  25.432  1.00  0.00    -0.200 F 
ATOM     77  C   UNL A   1      40.583  26.299  26.526  1.00  0.00     0.200 A 
ATOM     78  F   UNL A   1      39.215  24.740  27.653  1.00  0.00    -0.200 F 
ATOM     79  F   UNL A   1      40.609  25.514  25.440  1.00  0.00    -0.200 F 
ENDBRANCH  55  69
BRANCH  56  80
ATOM     80  C   UNL A   1      39.522  33.900  36.809  1.00  0.00     0.064 A 
ATOM     81  C   UNL A   1      40.131  35.161  36.871  1.00  0.00     0.173 A 
ATOM     82  C   UNL A   1      38.770  33.484  37.916  1.00  0.00     0.173 A 
ATOM     83  F   UNL A   1      40.875  35.598  35.843  1.00  0.00    -0.203 F 
ATOM     84  C   UNL A   1      40.016  35.963  38.005  1.00  0.00     0.198 A 
ATOM     85  C   UNL A   1      38.630  34.298  39.038  1.00  0.00     0.198 A 
ATOM     86  F   UNL A   1      38.160  32.291  37.904  1.00  0.00    -0.203 F 
ATOM     87  F   UNL A   1      40.649  37.142  38.057  1.00  0.00    -0.200 F 
ATOM     88  C   UNL A   1      39.261  35.533  39.086  1.00  0.00     0.200 A 
ATOM     89  F   UNL A   1      37.887  33.887  40.075  1.00  0.00    -0.200 F 
ATOM     90  F   UNL A   1      39.147  36.305  40.175  1.00  0.00    -0.200 F 
ENDBRANCH  56  80
BRANCH  68  91
ATOM     91  C   UNL A   1      44.068  28.939  34.980  1.00  0.00     0.064 A 
ATOM     92  C   UNL A   1      45.339  29.501  34.791  1.00  0.00     0.173 A 
ATOM     93  C   UNL A   1      43.951  27.861  35.871  1.00  0.00     0.173 A 
ATOM     94  F   UNL A   1      45.506  30.525  33.941  1.00  0.00    -0.203 F 
ATOM     95  C   UNL A   1      46.452  28.986  35.450  1.00  0.00     0.198 A 
ATOM     96  C   UNL A   1      45.060  27.371  36.553  1.00  0.00     0.198 A 
ATOM     97  F   UNL A   1      42.755  27.295  36.093  1.00  0.00    -0.203 F 
ATOM     98  F   UNL A   1      47.665  29.506  35.217  1.00  0.00    -0.200 F 
ATOM     99  C   UNL A   1      46.311  27.928  36.336  1.00  0.00     0.200 A 
ATOM    100  F   UNL A   1      44.918  26.360  37.422  1.00  0.00    -0.200 F 
ATOM    101  F   UNL A   1      47.381  27.442  36.977  1.00  0.00    -0.200 F 
ENDBRANCH  68  91
ENDBRANCH  42  43
ENDBRANCH  34  37
ENDBRANCH  32  33
ENDBRANCH  31  32
ENDBRANCH  30  31
ENDBRANCH   1  30
TORSDOF 16
ENDMDL
MODEL 2
REMARK VINA RESULT:     -12.7      5.313     11.126
REMARK SMILES CC(C)CC(=O)Nc1ccc(NC(=O)[C@@H]2CCCC[C@@H]2C(=O)NCCCCNC(=O)c2ccc(-c3c4nc(c(-c5c(F)c(F)c(F)c(F)c5F)c5ccc([nH]5)c(-c5c(F)c(F)c(F)c(F)c5F)c5nc(c(-c6c(F)c(F)c(F)c(F)c6F)c6ccc3[nH]6)C=C5)C=C4)cc2)cc1
REMARK SMILES IDX 24 1 23 2 21 3 22 4 20 6 15 7 16 8 17 9 19 10 18 11 13 12
REMARK SMILES IDX 12 13 14 15 11 16 8 17 9 18 95 19 10 20 94 21 7 22 5 23 6 24
REMARK SMILES IDX 4 26 2 27 1 28 3 29 25 30 26 31 27 32 28 33 29 34 30 36
REMARK SMILES IDX 31 37 32 38 93 39 33 40 92 41 34 42 35 43 36 44 86 45 37 46
REMARK SMILES IDX 91 47 85 48 87 49 38 50 90 51 84 52 83 53 39 55 71 56 51 57
REMARK SMILES IDX 70 58 52 59 55 60 69 61 88 62 53 63 54 64 68 66 89 67 56 68
REMARK SMILES IDX 40 69 41 70 49 71 42 72 43 73 47 74 50 75 44 76 45 77 48 78
REMARK SMILES IDX 46 79 72 80 73 81 81 82 74 83 75 84 79 85 82 86 76 87 77 88
REMARK SMILES IDX 80 89 78 90 57 91 58 92 66 93 59 94 60 95 64 96 67 97 61 98
REMARK SMILES IDX 62 99 65 100 63 101
REMARK H PARENT 23 5 12 14 7 25 28 35 87 54 55 65
REMARK Flexibility Score: inf
ROOT
ATOM      1  C   UNL A   1      35.999  20.931  24.960  1.00  0.00     0.116 C 
ENDROOT
BRANCH   1   2
ATOM      2  N   UNL A   1      35.268  21.075  26.209  1.00  0.00    -0.356 N 
ATOM      3  C   UNL A   1      34.037  21.597  26.478  1.00  0.00     0.223 C 
ATOM      4  O   UNL A   1      33.635  21.546  27.642  1.00  0.00    -0.275 OA
ATOM      5  H   UNL A   1      35.746  20.737  27.000  1.00  0.00     0.163 HD
BRANCH   3   6
ATOM      6  C   UNL A   1      33.180  22.164  25.351  1.00  0.00     0.091 C 
ATOM      7  C   UNL A   1      33.066  23.692  25.304  1.00  0.00     0.091 C 
ATOM      8  C   UNL A   1      32.158  24.283  26.381  1.00  0.00     0.014 C 
ATOM      9  C   UNL A   1      30.757  23.732  26.244  1.00  0.00     0.001 C 
ATOM     10  C   UNL A   1      31.752  21.560  25.354  1.00  0.00     0.014 C 
ATOM     11  C   UNL A   1      30.777  22.214  26.343  1.00  0.00     0.001 C 
BRANCH   7  12
ATOM     12  C   UNL A   1      34.333  24.491  25.379  1.00  0.00     0.228 C 
ATOM     13  N   UNL A   1      34.505  25.640  24.678  1.00  0.00    -0.326 N 
ATOM     14  H   UNL A   1      35.448  25.923  24.648  1.00  0.00     0.169 HD
ATOM     15  O   UNL A   1      35.247  24.140  26.130  1.00  0.00    -0.274 OA
BRANCH  13  16
ATOM     16  C   UNL A   1      33.659  26.522  23.986  1.00  0.00     0.041 A 
ATOM     17  C   UNL A   1      32.083  28.534  22.780  1.00  0.00     0.041 A 
ATOM     18  C   UNL A   1      32.038  27.240  22.292  1.00  0.00     0.028 A 
ATOM     19  C   UNL A   1      32.787  28.765  23.949  1.00  0.00     0.028 A 
ATOM     20  C   UNL A   1      32.806  26.236  22.914  1.00  0.00     0.028 A 
ATOM     21  C   UNL A   1      33.612  27.806  24.518  1.00  0.00     0.028 A 
BRANCH  17  22
ATOM     22  N   UNL A   1      31.356  29.571  22.182  1.00  0.00    -0.326 N 
ATOM     23  C   UNL A   1      29.983  29.694  22.123  1.00  0.00     0.224 C 
ATOM     24  O   UNL A   1      29.471  30.363  21.225  1.00  0.00    -0.275 OA
ATOM     25  H   UNL A   1      31.881  30.288  21.759  1.00  0.00     0.169 HD
BRANCH  23  26
ATOM     26  C   UNL A   1      29.155  29.187  23.311  1.00  0.00     0.103 C 
BRANCH  26  27
ATOM     27  C   UNL A   1      28.314  27.906  23.112  1.00  0.00    -0.008 C 
ATOM     28  C   UNL A   1      28.770  26.708  23.954  1.00  0.00     0.008 C 
ATOM     29  C   UNL A   1      26.863  28.203  23.506  1.00  0.00     0.008 C 
ENDBRANCH  26  27
ENDBRANCH  23  26
ENDBRANCH  17  22
ENDBRANCH  13  16
ENDBRANCH   7  12
ENDBRANCH   3   6
ENDBRANCH   1   2
BRANCH   1  30
ATOM     30  C   UNL A   1      37.076  19.843  25.006  1.00  0.00     0.023 C 
BRANCH  30  31
ATOM     31  C   UNL A   1      38.507  20.350  24.882  1.00  0.00     0.023 C 
BRANCH  31  32
ATOM     32  C   UNL A   1      39.268  20.269  26.190  1.00  0.00     0.116 C 
BRANCH  32  33
ATOM     33  N   UNL A   1      40.269  19.207  26.160  1.00  0.00    -0.352 N 
ATOM     34  C   UNL A   1      41.637  19.313  26.069  1.00  0.00     0.251 C 
ATOM     35  H   UNL A   1      39.917  18.289  26.213  1.00  0.00     0.163 HD
ATOM     36  O   UNL A   1      42.326  18.346  25.798  1.00  0.00    -0.269 OA
BRANCH  34  37
ATOM     37  C   UNL A   1      42.247  20.636  26.302  1.00  0.00     0.039 A 
ATOM     38  C   UNL A   1      42.512  21.475  25.220  1.00  0.00     0.014 A 
ATOM     39  C   UNL A   1      42.504  21.049  27.611  1.00  0.00     0.014 A 
ATOM     40  C   UNL A   1      42.984  22.765  25.462  1.00  0.00     0.010 A 
ATOM     41  C   UNL A   1      42.854  22.364  27.854  1.00  0.00     0.010 A 
ATOM     42  C   UNL A   1      43.126  23.227  26.782  1.00  0.00    -0.014 A 
BRANCH  42  43
ATOM     43  C   UNL A   1      43.614  24.590  27.089  1.00  0.00     0.031 A 
ATOM     44  C   UNL A   1      42.646  25.608  27.627  1.00  0.00     0.074 A 
ATOM     45  C   UNL A   1      44.883  24.932  26.800  1.00  0.00     0.049 A 
ATOM     46  N   UNL A   1      42.816  26.887  27.837  1.00  0.00    -0.248 NA
ATOM     47  C   UNL A   1      41.283  25.129  27.923  1.00  0.00     0.031 C 
ATOM     48  C   UNL A   1      45.892  24.043  26.222  1.00  0.00     0.029 A 
ATOM     49  N   UNL A   1      45.536  26.129  26.940  1.00  0.00    -0.354 N 
ATOM     50  C   UNL A   1      41.581  27.363  28.256  1.00  0.00     0.074 A 
ATOM     51  C   UNL A   1      40.652  26.259  28.200  1.00  0.00     0.031 C 
ATOM     52  C   UNL A   1      47.045  24.718  26.083  1.00  0.00     0.029 A 
ATOM     53  C   UNL A   1      46.843  26.095  26.521  1.00  0.00     0.049 A 
ATOM     54  H   UNL A   1      45.109  26.937  27.306  1.00  0.00     0.167 HD
ATOM     55  C   UNL A   1      41.259  28.606  28.684  1.00  0.00     0.037 A 
ATOM     56  C   UNL A   1      47.768  27.072  26.489  1.00  0.00     0.037 A 
ATOM     57  C   UNL A   1      42.204  29.686  28.777  1.00  0.00     0.049 A 
ATOM     58  C   UNL A   1      47.389  28.444  26.981  1.00  0.00     0.074 A 
ATOM     59  C   UNL A   1      42.007  30.966  29.259  1.00  0.00     0.029 A 
ATOM     60  N   UNL A   1      43.531  29.603  28.380  1.00  0.00    -0.354 N 
ATOM     61  N   UNL A   1      46.238  28.870  27.442  1.00  0.00    -0.248 NA
ATOM     62  C   UNL A   1      48.441  29.468  26.956  1.00  0.00     0.031 C 
ATOM     63  C   UNL A   1      43.204  31.674  29.110  1.00  0.00     0.029 A 
ATOM     64  C   UNL A   1      44.162  30.817  28.590  1.00  0.00     0.049 A 
ATOM     65  H   UNL A   1      43.960  28.801  28.006  1.00  0.00     0.167 HD
ATOM     66  C   UNL A   1      46.433  30.200  27.793  1.00  0.00     0.074 A 
ATOM     67  C   UNL A   1      47.819  30.504  27.503  1.00  0.00     0.031 C 
ATOM     68  C   UNL A   1      45.549  31.088  28.308  1.00  0.00     0.037 A 
BRANCH  55  69
ATOM     69  C   UNL A   1      39.834  28.853  29.091  1.00  0.00     0.064 A 
ATOM     70  C   UNL A   1      38.875  29.315  28.176  1.00  0.00     0.173 A 
ATOM     71  C   UNL A   1      39.418  28.614  30.409  1.00  0.00     0.173 A 
ATOM     72  F   UNL A   1      39.222  29.576  26.906  1.00  0.00    -0.203 F 
ATOM     73  C   UNL A   1      37.565  29.566  28.574  1.00  0.00     0.198 A 
ATOM     74  C   UNL A   1      38.098  28.831  30.794  1.00  0.00     0.198 A 
ATOM     75  F   UNL A   1      40.291  28.169  31.325  1.00  0.00    -0.203 F 
ATOM     76  F   UNL A   1      36.685  30.070  27.697  1.00  0.00    -0.200 F 
ATOM     77  C   UNL A   1      37.175  29.316  29.880  1.00  0.00     0.200 A 
ATOM     78  F   UNL A   1      37.719  28.576  32.054  1.00  0.00    -0.200 F 
ATOM     79  F   UNL A   1      35.912  29.553  30.261  1.00  0.00    -0.200 F 
ENDBRANCH  55  69
BRANCH  56  80
ATOM     80  C   UNL A   1      49.145  26.782  26.010  1.00  0.00     0.064 A 
ATOM     81  C   UNL A   1      50.118  26.281  26.886  1.00  0.00     0.173 A 
ATOM     82  C   UNL A   1      49.518  26.997  24.676  1.00  0.00     0.173 A 
ATOM     83  F   UNL A   1      49.814  26.074  28.177  1.00  0.00    -0.203 F 
ATOM     84  C   UNL A   1      51.418  26.030  26.454  1.00  0.00     0.198 A 
ATOM     85  C   UNL A   1      50.811  26.716  24.236  1.00  0.00     0.198 A 
ATOM     86  F   UNL A   1      48.624  27.466  23.795  1.00  0.00    -0.203 F 
ATOM     87  F   UNL A   1      52.339  25.597  27.324  1.00  0.00    -0.200 F 
ATOM     88  C   UNL A   1      51.762  26.242  25.128  1.00  0.00     0.200 A 
ATOM     89  F   UNL A   1      51.136  26.908  22.950  1.00  0.00    -0.200 F 
ATOM     90  F   UNL A   1      53.011  25.997  24.710  1.00  0.00    -0.200 F 
ENDBRANCH  56  80
BRANCH  68  91
ATOM     91  C   UNL A   1      46.064  32.459  28.637  1.00  0.00     0.064 A 
ATOM     92  C   UNL A   1      46.621  32.758  29.888  1.00  0.00     0.173 A 
ATOM     93  C   UNL A   1      46.044  33.472  27.666  1.00  0.00     0.173 A 
ATOM     94  F   UNL A   1      46.653  31.827  30.854  1.00  0.00    -0.203 F 
ATOM     95  C   UNL A   1      47.117  34.028  30.163  1.00  0.00     0.198 A 
ATOM     96  C   UNL A   1      46.571  34.731  27.934  1.00  0.00     0.198 A 
ATOM     97  F   UNL A   1      45.529  33.234  26.450  1.00  0.00    -0.203 F 
ATOM     98  F   UNL A   1      47.602  34.307  31.382  1.00  0.00    -0.200 F 
ATOM     99  C   UNL A   1      47.100  35.011  29.184  1.00  0.00     0.200 A 
ATOM    100  F   UNL A   1      46.568  35.673  26.981  1.00  0.00    -0.200 F 
ATOM    101  F   UNL A   1      47.588  36.230  29.448  1.00  0.00    -0.200 F 
ENDBRANCH  68  91
ENDBRANCH  42  43
ENDBRANCH  34  37
ENDBRANCH  32  33
ENDBRANCH  31  32
ENDBRANCH  30  31
ENDBRANCH   1  30
TORSDOF 16
ENDMDL
MODEL 3
REMARK VINA RESULT:     -12.6      2.113      4.681
REMARK SMILES CC(C)CC(=O)Nc1ccc(NC(=O)[C@@H]2CCCC[C@@H]2C(=O)NCCCCNC(=O)c2ccc(-c3c4nc(c(-c5c(F)c(F)c(F)c(F)c5F)c5ccc([nH]5)c(-c5c(F)c(F)c(F)c(F)c5F)c5nc(c(-c6c(F)c(F)c(F)c(F)c6F)c6ccc3[nH]6)C=C5)C=C4)cc2)cc1
REMARK SMILES IDX 24 1 23 2 21 3 22 4 20 6 15 7 16 8 17 9 19 10 18 11 13 12
REMARK SMILES IDX 12 13 14 15 11 16 8 17 9 18 95 19 10 20 94 21 7 22 5 23 6 24
REMARK SMILES IDX 4 26 2 27 1 28 3 29 25 30 26 31 27 32 28 33 29 34 30 36
REMARK SMILES IDX 31 37 32 38 93 39 33 40 92 41 34 42 35 43 36 44 86 45 37 46
REMARK SMILES IDX 91 47 85 48 87 49 38 50 90 51 84 52 83 53 39 55 71 56 51 57
REMARK SMILES IDX 70 58 52 59 55 60 69 61 88 62 53 63 54 64 68 66 89 67 56 68
REMARK SMILES IDX 40 69 41 70 49 71 42 72 43 73 47 74 50 75 44 76 45 77 48 78
REMARK SMILES IDX 46 79 72 80 73 81 81 82 74 83 75 84 79 85 82 86 76 87 77 88
REMARK SMILES IDX 80 89 78 90 57 91 58 92 66 93 59 94 60 95 64 96 67 97 61 98
REMARK SMILES IDX 62 99 65 100 63 101
REMARK H PARENT 23 5 12 14 7 25 28 35 87 54 55 65
REMARK Flexibility Score: inf
ROOT
ATOM      1  C   UNL A   1      32.084  25.283  26.351  1.00  0.00     0.116 C 
ENDROOT
BRANCH   1   2
ATOM      2  N   UNL A   1      32.725  24.130  26.965  1.00  0.00    -0.356 N 
ATOM      3  C   UNL A   1      33.813  23.398  26.589  1.00  0.00     0.223 C 
ATOM      4  O   UNL A   1      34.175  22.487  27.335  1.00  0.00    -0.275 OA
ATOM      5  H   UNL A   1      32.299  23.825  27.798  1.00  0.00     0.163 HD
BRANCH   3   6
ATOM      6  C   UNL A   1      34.574  23.751  25.316  1.00  0.00     0.091 C 
ATOM      7  C   UNL A   1      34.500  22.717  24.186  1.00  0.00     0.091 C 
ATOM      8  C   UNL A   1      35.349  21.470  24.426  1.00  0.00     0.014 C 
ATOM      9  C   UNL A   1      36.803  21.849  24.583  1.00  0.00     0.001 C 
ATOM     10  C   UNL A   1      36.064  24.064  25.604  1.00  0.00     0.014 C 
ATOM     11  C   UNL A   1      36.970  22.833  25.732  1.00  0.00     0.001 C 
BRANCH   7  12
ATOM     12  C   UNL A   1      33.147  22.200  23.798  1.00  0.00     0.228 C 
ATOM     13  N   UNL A   1      32.148  23.025  23.392  1.00  0.00    -0.326 N 
ATOM     14  H   UNL A   1      31.270  22.578  23.394  1.00  0.00     0.169 HD
ATOM     15  O   UNL A   1      32.920  20.987  23.793  1.00  0.00    -0.274 OA
BRANCH  13  16
ATOM     16  C   UNL A   1      32.067  24.362  22.971  1.00  0.00     0.041 A 
ATOM     17  C   UNL A   1      31.631  27.072  22.301  1.00  0.00     0.041 A 
ATOM     18  C   UNL A   1      32.787  26.437  21.880  1.00  0.00     0.028 A 
ATOM     19  C   UNL A   1      30.651  26.307  22.908  1.00  0.00     0.028 A 
ATOM     20  C   UNL A   1      32.986  25.079  22.195  1.00  0.00     0.028 A 
ATOM     21  C   UNL A   1      30.873  24.994  23.298  1.00  0.00     0.028 A 
BRANCH  17  22
ATOM     22  N   UNL A   1      31.398  28.427  22.033  1.00  0.00    -0.326 N 
ATOM     23  C   UNL A   1      30.181  29.078  22.054  1.00  0.00     0.224 C 
ATOM     24  O   UNL A   1      30.030  30.105  21.392  1.00  0.00    -0.275 OA
ATOM     25  H   UNL A   1      32.185  28.973  21.806  1.00  0.00     0.169 HD
BRANCH  23  26
ATOM     26  C   UNL A   1      29.135  28.632  23.084  1.00  0.00     0.103 C 
BRANCH  26  27
ATOM     27  C   UNL A   1      27.684  29.131  22.903  1.00  0.00    -0.008 C 
ATOM     28  C   UNL A   1      26.618  28.236  23.547  1.00  0.00     0.008 C 
ATOM     29  C   UNL A   1      27.555  30.516  23.550  1.00  0.00     0.008 C 
ENDBRANCH  26  27
ENDBRANCH  23  26
ENDBRANCH  17  22
ENDBRANCH  13  16
ENDBRANCH   7  12
ENDBRANCH   3   6
ENDBRANCH   1   2
BRANCH   1  30
ATOM     30  C   UNL A   1      33.040  26.454  26.106  1.00  0.00     0.023 C 
BRANCH  30  31
ATOM     31  C   UNL A   1      32.376  27.824  26.044  1.00  0.00     0.023 C 
BRANCH  31  32
ATOM     32  C   UNL A   1      33.329  28.912  25.593  1.00  0.00     0.116 C 
BRANCH  32  33
ATOM     33  N   UNL A   1      32.813  30.239  25.915  1.00  0.00    -0.352 N 
ATOM     34  C   UNL A   1      33.220  31.108  26.900  1.00  0.00     0.251 C 
ATOM     35  H   UNL A   1      32.072  30.556  25.349  1.00  0.00     0.163 HD
ATOM     36  O   UNL A   1      32.538  32.066  27.216  1.00  0.00    -0.269 OA
BRANCH  34  37
ATOM     37  C   UNL A   1      34.508  30.842  27.569  1.00  0.00     0.039 A 
ATOM     38  C   UNL A   1      35.461  31.856  27.662  1.00  0.00     0.014 A 
ATOM     39  C   UNL A   1      34.733  29.590  28.144  1.00  0.00     0.014 A 
ATOM     40  C   UNL A   1      36.627  31.626  28.392  1.00  0.00     0.010 A 
ATOM     41  C   UNL A   1      35.829  29.406  28.967  1.00  0.00     0.010 A 
ATOM     42  C   UNL A   1      36.802  30.411  29.076  1.00  0.00    -0.014 A 
BRANCH  42  43
ATOM     43  C   UNL A   1      38.017  30.125  29.871  1.00  0.00     0.031 A 
ATOM     44  C   UNL A   1      39.051  29.186  29.310  1.00  0.00     0.074 A 
ATOM     45  C   UNL A   1      38.143  30.626  31.113  1.00  0.00     0.049 A 
ATOM     46  N   UNL A   1      40.117  28.689  29.880  1.00  0.00    -0.248 NA
ATOM     47  C   UNL A   1      38.826  28.703  27.936  1.00  0.00     0.031 C 
ATOM     48  C   UNL A   1      37.175  31.499  31.779  1.00  0.00     0.029 A 
ATOM     49  N   UNL A   1      39.134  30.457  32.044  1.00  0.00    -0.354 N 
ATOM     50  C   UNL A   1      40.665  27.817  28.949  1.00  0.00     0.074 A 
ATOM     51  C   UNL A   1      39.779  27.794  27.808  1.00  0.00     0.031 C 
ATOM     52  C   UNL A   1      37.634  31.813  33.001  1.00  0.00     0.029 A 
ATOM     53  C   UNL A   1      38.904  31.129  33.220  1.00  0.00     0.049 A 
ATOM     54  H   UNL A   1      39.935  29.907  31.887  1.00  0.00     0.167 HD
ATOM     55  C   UNL A   1      41.825  27.124  29.024  1.00  0.00     0.037 A 
ATOM     56  C   UNL A   1      39.638  31.177  34.347  1.00  0.00     0.037 A 
ATOM     57  C   UNL A   1      42.720  27.190  30.147  1.00  0.00     0.049 A 
ATOM     58  C   UNL A   1      40.931  30.405  34.403  1.00  0.00     0.074 A 
ATOM     59  C   UNL A   1      43.953  26.586  30.306  1.00  0.00     0.029 A 
ATOM     60  N   UNL A   1      42.473  27.913  31.306  1.00  0.00    -0.354 N 
ATOM     61  N   UNL A   1      41.478  29.639  33.492  1.00  0.00    -0.248 NA
ATOM     62  C   UNL A   1      41.711  30.514  35.643  1.00  0.00     0.031 C 
ATOM     63  C   UNL A   1      44.431  26.905  31.581  1.00  0.00     0.029 A 
ATOM     64  C   UNL A   1      43.524  27.756  32.193  1.00  0.00     0.049 A 
ATOM     65  H   UNL A   1      41.670  28.457  31.472  1.00  0.00     0.167 HD
ATOM     66  C   UNL A   1      42.680  29.199  34.030  1.00  0.00     0.074 A 
ATOM     67  C   UNL A   1      42.787  29.799  35.345  1.00  0.00     0.031 C 
ATOM     68  C   UNL A   1      43.612  28.378  33.490  1.00  0.00     0.037 A 
BRANCH  55  69
ATOM     69  C   UNL A   1      42.189  26.250  27.858  1.00  0.00     0.064 A 
ATOM     70  C   UNL A   1      43.101  26.670  26.877  1.00  0.00     0.173 A 
ATOM     71  C   UNL A   1      41.627  24.971  27.725  1.00  0.00     0.173 A 
ATOM     72  F   UNL A   1      43.655  27.890  26.946  1.00  0.00    -0.203 F 
ATOM     73  C   UNL A   1      43.407  25.859  25.787  1.00  0.00     0.198 A 
ATOM     74  C   UNL A   1      41.965  24.149  26.653  1.00  0.00     0.198 A 
ATOM     75  F   UNL A   1      40.752  24.517  28.633  1.00  0.00    -0.203 F 
ATOM     76  F   UNL A   1      44.231  26.310  24.830  1.00  0.00    -0.200 F 
ATOM     77  C   UNL A   1      42.846  24.596  25.680  1.00  0.00     0.200 A 
ATOM     78  F   UNL A   1      41.431  22.923  26.557  1.00  0.00    -0.200 F 
ATOM     79  F   UNL A   1      43.146  23.815  24.633  1.00  0.00    -0.200 F 
ENDBRANCH  55  69
BRANCH  56  80
ATOM     80  C   UNL A   1      39.190  32.007  35.495  1.00  0.00     0.064 A 
ATOM     81  C   UNL A   1      38.393  31.455  36.509  1.00  0.00     0.173 A 
ATOM     82  C   UNL A   1      39.543  33.359  35.607  1.00  0.00     0.173 A 
ATOM     83  F   UNL A   1      38.015  30.170  36.440  1.00  0.00    -0.203 F 
ATOM     84  C   UNL A   1      37.945  32.231  37.577  1.00  0.00     0.198 A 
ATOM     85  C   UNL A   1      39.120  34.126  36.691  1.00  0.00     0.198 A 
ATOM     86  F   UNL A   1      40.310  33.932  34.670  1.00  0.00    -0.203 F 
ATOM     87  F   UNL A   1      37.146  31.690  38.505  1.00  0.00    -0.200 F 
ATOM     88  C   UNL A   1      38.314  33.564  37.670  1.00  0.00     0.200 A 
ATOM     89  F   UNL A   1      39.491  35.410  36.785  1.00  0.00    -0.200 F 
ATOM     90  F   UNL A   1      37.887  34.309  38.699  1.00  0.00    -0.200 F 
ENDBRANCH  56  80
BRANCH  68  91
ATOM     91  C   UNL A   1      44.850  28.116  34.296  1.00  0.00     0.064 A 
ATOM     92  C   UNL A   1      45.941  28.996  34.282  1.00  0.00     0.173 A 
ATOM     93  C   UNL A   1      44.921  26.992  35.135  1.00  0.00     0.173 A 
ATOM     94  F   UNL A   1      45.927  30.077  33.488  1.00  0.00    -0.203 F 
ATOM     95  C   UNL A   1      47.069  28.748  35.058  1.00  0.00     0.198 A 
ATOM     96  C   UNL A   1      46.036  26.765  35.935  1.00  0.00     0.198 A 
ATOM     97  F   UNL A   1      43.900  26.124  35.191  1.00  0.00    -0.203 F 
ATOM     98  F   UNL A   1      48.121  29.576  34.993  1.00  0.00    -0.200 F 
ATOM     99  C   UNL A   1      47.113  27.638  35.891  1.00  0.00     0.200 A 
ATOM    100  F   UNL A   1      46.069  25.702  36.750  1.00  0.00    -0.200 F 
ATOM    101  F   UNL A   1      48.194  27.407  36.645  1.00  0.00    -0.200 F 
ENDBRANCH  68  91
ENDBRANCH  42  43
ENDBRANCH  34  37
ENDBRANCH  32  33
ENDBRANCH  31  32
ENDBRANCH  30  31
ENDBRANCH   1  30
TORSDOF 16
ENDMDL
