MODEL 1
REMARK VINA RESULT:     -11.9      0.000      0.000
REMARK SMILES C[C@H](CNC(=O)N1C[C@H]2CCCC[N@@H+]2C[C@@H]1C)C(=O)NCCCCNC(=O)c1ccc(-c2c3nc(c(-c4c(F)c(F)c(F)c(F)c4F)c4ccc([nH]4)c(-c4c(F)c(F)c(F)c(F)c4F)c4nc(c(-c5c(F)c(F)c(F)c(F)c5F)c5ccc2[nH]5)C=C4)C=C3)cc1
REMARK SMILES IDX 22 1 21 2 20 3 18 4 19 5 2 7 1 8 3 9 4 10 5 11 6 13 7 14
REMARK SMILES IDX 8 15 16 16 9 17 15 18 17 19 10 20 14 21 11 22 13 23 12 25
REMARK SMILES IDX 23 26 24 27 25 28 26 29 27 31 28 32 29 33 90 34 30 35 89 36
REMARK SMILES IDX 31 37 32 38 33 39 83 40 34 41 88 42 82 43 84 44 35 45 87 46
REMARK SMILES IDX 81 47 80 48 36 50 68 51 48 52 67 53 49 54 52 55 66 56 85 57
REMARK SMILES IDX 50 58 51 59 65 61 86 62 53 63 37 64 38 65 46 66 39 67 40 68
REMARK SMILES IDX 44 69 47 70 41 71 42 72 45 73 43 74 69 75 70 76 78 77 71 78
REMARK SMILES IDX 72 79 76 80 79 81 73 82 74 83 77 84 75 85 54 86 55 87 63 88
REMARK SMILES IDX 56 89 57 90 61 91 64 92 58 93 59 94 62 95 60 96
REMARK H PARENT 20 6 4 12 14 24 25 30 84 49 52 60
REMARK Flexibility Score: inf
ROOT
ATOM      1  C   UNL A   1      39.266  22.667  26.389  1.00  0.00     0.023 C 
ENDROOT
BRANCH   1   2
ATOM      2  C   UNL A   1      37.976  23.408  26.053  1.00  0.00     0.116 C 
BRANCH   2   3
ATOM      3  N   UNL A   1      37.687  23.373  24.634  1.00  0.00    -0.356 N 
ATOM      4  C   UNL A   1      36.635  22.848  23.953  1.00  0.00     0.224 C 
ATOM      5  O   UNL A   1      36.683  22.904  22.720  1.00  0.00    -0.275 OA
ATOM      6  H   UNL A   1      38.368  23.801  24.067  1.00  0.00     0.163 HD
BRANCH   4   7
ATOM      7  C   UNL A   1      35.439  22.197  24.635  1.00  0.00     0.094 C 
ATOM      8  C   UNL A   1      35.567  20.693  24.868  1.00  0.00     0.020 C 
BRANCH   7   9
ATOM      9  C   UNL A   1      34.077  22.693  24.126  1.00  0.00     0.130 C 
BRANCH   9  10
ATOM     10  N   UNL A   1      34.035  23.415  22.864  1.00  0.00    -0.337 N 
ATOM     11  C   UNL A   1      33.371  24.542  22.491  1.00  0.00     0.318 C 
ATOM     12  H   UNL A   1      34.586  23.016  22.153  1.00  0.00     0.165 HD
ATOM     13  O   UNL A   1      33.308  24.843  21.303  1.00  0.00    -0.249 OA
BRANCH  11  14
ATOM     14  N   UNL A   1      32.768  25.266  23.480  1.00  0.00    -0.311 N 
ATOM     15  C   UNL A   1      33.446  26.503  23.846  1.00  0.00     0.186 C 
ATOM     16  C   UNL A   1      31.297  25.370  23.570  1.00  0.00     0.139 C 
ATOM     17  C   UNL A   1      33.106  26.873  25.286  1.00  0.00     0.203 C 
ATOM     18  C   UNL A   1      30.862  26.011  24.931  1.00  0.00     0.287 C 
ATOM     19  C   UNL A   1      30.590  24.011  23.446  1.00  0.00     0.037 C 
ATOM     20  C   UNL A   1      33.962  28.061  25.729  1.00  0.00     0.067 C 
ATOM     21  N   UNL A   1      31.660  27.174  25.393  1.00  0.00    -0.329 N 
ATOM     22  C   UNL A   1      33.629  28.440  27.165  1.00  0.00     0.012 C 
ATOM     23  C   UNL A   1      31.302  27.521  26.776  1.00  0.00     0.262 C 
ATOM     24  H   UNL A   1      31.452  27.976  24.797  1.00  0.00     0.348 HD
ATOM     25  C   UNL A   1      32.132  28.694  27.305  1.00  0.00     0.062 C 
ENDBRANCH  11  14
ENDBRANCH   9  10
ENDBRANCH   7   9
ENDBRANCH   4   7
ENDBRANCH   2   3
ENDBRANCH   1   2
BRANCH   1  26
ATOM     26  C   UNL A   1      39.440  21.323  25.709  1.00  0.00     0.023 C 
BRANCH  26  27
ATOM     27  C   UNL A   1      39.817  20.193  26.650  1.00  0.00     0.116 C 
BRANCH  27  28
ATOM     28  N   UNL A   1      40.829  19.290  26.111  1.00  0.00    -0.352 N 
ATOM     29  C   UNL A   1      42.166  19.523  25.891  1.00  0.00     0.251 C 
ATOM     30  H   UNL A   1      40.511  18.389  25.872  1.00  0.00     0.163 HD
ATOM     31  O   UNL A   1      42.876  18.685  25.347  1.00  0.00    -0.269 OA
BRANCH  29  32
ATOM     32  C   UNL A   1      42.726  20.828  26.285  1.00  0.00     0.039 A 
ATOM     33  C   UNL A   1      43.133  21.720  25.292  1.00  0.00     0.014 A 
ATOM     34  C   UNL A   1      42.745  21.199  27.630  1.00  0.00     0.014 A 
ATOM     35  C   UNL A   1      43.475  23.026  25.646  1.00  0.00     0.010 A 
ATOM     36  C   UNL A   1      42.975  22.524  27.966  1.00  0.00     0.010 A 
ATOM     37  C   UNL A   1      43.349  23.450  26.979  1.00  0.00    -0.014 A 
BRANCH  37  38
ATOM     38  C   UNL A   1      43.621  24.851  27.380  1.00  0.00     0.031 A 
ATOM     39  C   UNL A   1      45.044  25.321  27.496  1.00  0.00     0.074 A 
ATOM     40  C   UNL A   1      42.603  25.661  27.728  1.00  0.00     0.049 A 
ATOM     41  N   UNL A   1      45.508  26.459  27.944  1.00  0.00    -0.248 NA
ATOM     42  C   UNL A   1      46.089  24.364  27.096  1.00  0.00     0.031 C 
ATOM     43  C   UNL A   1      41.185  25.297  27.720  1.00  0.00     0.029 A 
ATOM     44  N   UNL A   1      42.608  26.961  28.169  1.00  0.00    -0.354 N 
ATOM     45  C   UNL A   1      46.890  26.338  27.913  1.00  0.00     0.074 A 
ATOM     46  C   UNL A   1      47.192  24.999  27.460  1.00  0.00     0.031 C 
ATOM     47  C   UNL A   1      40.456  26.357  28.106  1.00  0.00     0.029 A 
ATOM     48  C   UNL A   1      41.355  27.462  28.424  1.00  0.00     0.049 A 
ATOM     49  H   UNL A   1      43.433  27.485  28.291  1.00  0.00     0.167 HD
ATOM     50  C   UNL A   1      47.825  27.272  28.205  1.00  0.00     0.037 A 
ATOM     51  C   UNL A   1      40.980  28.676  28.868  1.00  0.00     0.037 A 
ATOM     52  C   UNL A   1      47.517  28.619  28.598  1.00  0.00     0.049 A 
ATOM     53  C   UNL A   1      42.038  29.709  29.149  1.00  0.00     0.074 A 
ATOM     54  C   UNL A   1      48.386  29.669  28.835  1.00  0.00     0.029 A 
ATOM     55  N   UNL A   1      46.233  29.104  28.800  1.00  0.00    -0.354 N 
ATOM     56  N   UNL A   1      43.340  29.609  29.046  1.00  0.00    -0.248 NA
ATOM     57  C   UNL A   1      41.572  31.028  29.601  1.00  0.00     0.031 C 
ATOM     58  C   UNL A   1      47.628  30.782  29.215  1.00  0.00     0.029 A 
ATOM     59  C   UNL A   1      46.287  30.437  29.174  1.00  0.00     0.049 A 
ATOM     60  H   UNL A   1      45.408  28.579  28.694  1.00  0.00     0.167 HD
ATOM     61  C   UNL A   1      43.848  30.853  29.391  1.00  0.00     0.074 A 
ATOM     62  C   UNL A   1      42.712  31.697  29.695  1.00  0.00     0.031 C 
ATOM     63  C   UNL A   1      45.140  31.260  29.455  1.00  0.00     0.037 A 
BRANCH  50  64
ATOM     64  C   UNL A   1      49.266  26.867  28.096  1.00  0.00     0.064 A 
ATOM     65  C   UNL A   1      50.014  26.497  29.225  1.00  0.00     0.173 A 
ATOM     66  C   UNL A   1      49.903  26.830  26.847  1.00  0.00     0.173 A 
ATOM     67  F   UNL A   1      49.457  26.531  30.445  1.00  0.00    -0.203 F 
ATOM     68  C   UNL A   1      51.354  26.138  29.111  1.00  0.00     0.198 A 
ATOM     69  C   UNL A   1      51.234  26.439  26.732  1.00  0.00     0.198 A 
ATOM     70  F   UNL A   1      49.233  27.171  25.736  1.00  0.00    -0.203 F 
ATOM     71  F   UNL A   1      52.063  25.844  30.209  1.00  0.00    -0.200 F 
ATOM     72  C   UNL A   1      51.960  26.103  27.864  1.00  0.00     0.200 A 
ATOM     73  F   UNL A   1      51.816  26.396  25.526  1.00  0.00    -0.200 F 
ATOM     74  F   UNL A   1      53.250  25.752  27.755  1.00  0.00    -0.200 F 
ENDBRANCH  50  64
BRANCH  51  75
ATOM     75  C   UNL A   1      39.539  28.997  29.033  1.00  0.00     0.064 A 
ATOM     76  C   UNL A   1      38.927  28.910  30.292  1.00  0.00     0.173 A 
ATOM     77  C   UNL A   1      38.744  29.393  27.949  1.00  0.00     0.173 A 
ATOM     78  F   UNL A   1      39.641  28.517  31.357  1.00  0.00    -0.203 F 
ATOM     79  C   UNL A   1      37.570  29.184  30.455  1.00  0.00     0.198 A 
ATOM     80  C   UNL A   1      37.393  29.692  28.117  1.00  0.00     0.198 A 
ATOM     81  F   UNL A   1      39.282  29.497  26.724  1.00  0.00    -0.203 F 
ATOM     82  F   UNL A   1      37.001  29.048  31.660  1.00  0.00    -0.200 F 
ATOM     83  C   UNL A   1      36.805  29.580  29.368  1.00  0.00     0.200 A 
ATOM     84  F   UNL A   1      36.659  30.085  27.067  1.00  0.00    -0.200 F 
ATOM     85  F   UNL A   1      35.501  29.844  29.525  1.00  0.00    -0.200 F 
ENDBRANCH  51  75
BRANCH  63  86
ATOM     86  C   UNL A   1      45.389  32.691  29.828  1.00  0.00     0.064 A 
ATOM     87  C   UNL A   1      45.621  33.074  31.157  1.00  0.00     0.173 A 
ATOM     88  C   UNL A   1      45.446  33.681  28.836  1.00  0.00     0.173 A 
ATOM     89  F   UNL A   1      45.562  32.163  32.142  1.00  0.00    -0.203 F 
ATOM     90  C   UNL A   1      45.878  34.402  31.482  1.00  0.00     0.198 A 
ATOM     91  C   UNL A   1      45.732  35.004  29.161  1.00  0.00     0.198 A 
ATOM     92  F   UNL A   1      45.239  33.363  27.550  1.00  0.00    -0.203 F 
ATOM     93  F   UNL A   1      46.055  34.754  32.764  1.00  0.00    -0.200 F 
ATOM     94  C   UNL A   1      45.942  35.363  30.484  1.00  0.00     0.200 A 
ATOM     95  F   UNL A   1      45.806  35.929  28.195  1.00  0.00    -0.200 F 
ATOM     96  F   UNL A   1      46.199  36.641  30.799  1.00  0.00    -0.200 F 
ENDBRANCH  63  86
ENDBRANCH  37  38
ENDBRANCH  29  32
ENDBRANCH  27  28
ENDBRANCH  26  27
ENDBRANCH   1  26
TORSDOF 14
ENDMDL
MODEL 2
REMARK VINA RESULT:     -11.9      5.212     10.520
REMARK SMILES C[C@H](CNC(=O)N1C[C@H]2CCCC[N@@H+]2C[C@@H]1C)C(=O)NCCCCNC(=O)c1ccc(-c2c3nc(c(-c4c(F)c(F)c(F)c(F)c4F)c4ccc([nH]4)c(-c4c(F)c(F)c(F)c(F)c4F)c4nc(c(-c5c(F)c(F)c(F)c(F)c5F)c5ccc2[nH]5)C=C4)C=C3)cc1
REMARK SMILES IDX 22 1 21 2 20 3 18 4 19 5 2 7 1 8 3 9 4 10 5 11 6 13 7 14
REMARK SMILES IDX 8 15 16 16 9 17 15 18 17 19 10 20 14 21 11 22 13 23 12 25
REMARK SMILES IDX 23 26 24 27 25 28 26 29 27 31 28 32 29 33 90 34 30 35 89 36
REMARK SMILES IDX 31 37 32 38 33 39 83 40 34 41 88 42 82 43 84 44 35 45 87 46
REMARK SMILES IDX 81 47 80 48 36 50 68 51 48 52 67 53 49 54 52 55 66 56 85 57
REMARK SMILES IDX 50 58 51 59 65 61 86 62 53 63 37 64 38 65 46 66 39 67 40 68
REMARK SMILES IDX 44 69 47 70 41 71 42 72 45 73 43 74 69 75 70 76 78 77 71 78
REMARK SMILES IDX 72 79 76 80 79 81 73 82 74 83 77 84 75 85 54 86 55 87 63 88
REMARK SMILES IDX 56 89 57 90 61 91 64 92 58 93 59 94 62 95 60 96
REMARK H PARENT 20 6 4 12 14 24 25 30 84 49 52 60
REMARK Flexibility Score: inf
ROOT
ATOM      1  C   UNL A   1      34.324  30.949  27.908  1.00  0.00     0.023 C 
ENDROOT
BRANCH   1   2
ATOM      2  C   UNL A   1      34.147  29.546  27.337  1.00  0.00     0.116 C 
BRANCH   2   3
ATOM      3  N   UNL A   1      32.982  28.883  27.885  1.00  0.00    -0.356 N 
ATOM      4  C   UNL A   1      31.929  28.282  27.272  1.00  0.00     0.224 C 
ATOM      5  O   UNL A   1      31.029  27.850  27.999  1.00  0.00    -0.275 OA
ATOM      6  H   UNL A   1      32.946  28.865  28.869  1.00  0.00     0.163 HD
BRANCH   4   7
ATOM      7  C   UNL A   1      31.814  28.139  25.759  1.00  0.00     0.094 C 
ATOM      8  C   UNL A   1      31.386  29.406  25.021  1.00  0.00     0.020 C 
BRANCH   7   9
ATOM      9  C   UNL A   1      31.158  26.828  25.298  1.00  0.00     0.130 C 
BRANCH   9  10
ATOM     10  N   UNL A   1      30.820  25.836  26.307  1.00  0.00    -0.337 N 
ATOM     11  C   UNL A   1      31.164  24.526  26.435  1.00  0.00     0.318 C 
ATOM     12  H   UNL A   1      30.238  26.174  27.025  1.00  0.00     0.165 HD
ATOM     13  O   UNL A   1      30.576  23.822  27.251  1.00  0.00    -0.249 OA
BRANCH  11  14
ATOM     14  N   UNL A   1      32.139  24.054  25.603  1.00  0.00    -0.311 N 
ATOM     15  C   UNL A   1      33.389  23.686  26.257  1.00  0.00     0.186 C 
ATOM     16  C   UNL A   1      31.815  23.185  24.454  1.00  0.00     0.139 C 
ATOM     17  C   UNL A   1      34.544  23.798  25.266  1.00  0.00     0.203 C 
ATOM     18  C   UNL A   1      33.055  23.015  23.512  1.00  0.00     0.287 C 
ATOM     19  C   UNL A   1      30.653  23.722  23.604  1.00  0.00     0.037 C 
ATOM     20  C   UNL A   1      35.872  23.596  25.997  1.00  0.00     0.067 C 
ATOM     21  N   UNL A   1      34.363  22.806  24.181  1.00  0.00    -0.329 N 
ATOM     22  C   UNL A   1      37.031  23.703  25.017  1.00  0.00     0.012 C 
ATOM     23  C   UNL A   1      35.457  22.902  23.202  1.00  0.00     0.262 C 
ATOM     24  H   UNL A   1      34.381  21.872  24.590  1.00  0.00     0.348 HD
ATOM     25  C   UNL A   1      36.830  22.730  23.860  1.00  0.00     0.062 C 
ENDBRANCH  11  14
ENDBRANCH   9  10
ENDBRANCH   7   9
ENDBRANCH   4   7
ENDBRANCH   2   3
ENDBRANCH   1   2
BRANCH   1  26
ATOM     26  C   UNL A   1      33.109  31.851  27.805  1.00  0.00     0.023 C 
BRANCH  26  27
ATOM     27  C   UNL A   1      33.344  33.121  27.005  1.00  0.00     0.116 C 
BRANCH  27  28
ATOM     28  N   UNL A   1      32.788  34.318  27.626  1.00  0.00    -0.352 N 
ATOM     29  C   UNL A   1      33.148  34.928  28.804  1.00  0.00     0.251 C 
ATOM     30  H   UNL A   1      32.053  34.750  27.132  1.00  0.00     0.163 HD
ATOM     31  O   UNL A   1      32.522  35.888  29.239  1.00  0.00    -0.269 OA
BRANCH  29  32
ATOM     32  C   UNL A   1      34.282  34.374  29.564  1.00  0.00     0.039 A 
ATOM     33  C   UNL A   1      34.028  33.604  30.699  1.00  0.00     0.014 A 
ATOM     34  C   UNL A   1      35.584  34.535  29.086  1.00  0.00     0.014 A 
ATOM     35  C   UNL A   1      35.079  32.914  31.305  1.00  0.00     0.010 A 
ATOM     36  C   UNL A   1      36.603  33.762  29.620  1.00  0.00     0.010 A 
ATOM     37  C   UNL A   1      36.364  32.949  30.739  1.00  0.00    -0.014 A 
BRANCH  37  38
ATOM     38  C   UNL A   1      37.486  32.162  31.303  1.00  0.00     0.031 A 
ATOM     39  C   UNL A   1      37.988  32.482  32.683  1.00  0.00     0.074 A 
ATOM     40  C   UNL A   1      38.107  31.237  30.548  1.00  0.00     0.049 A 
ATOM     41  N   UNL A   1      39.028  32.006  33.319  1.00  0.00    -0.248 NA
ATOM     42  C   UNL A   1      37.247  33.510  33.433  1.00  0.00     0.031 C 
ATOM     43  C   UNL A   1      37.753  30.885  29.171  1.00  0.00     0.029 A 
ATOM     44  N   UNL A   1      39.180  30.429  30.829  1.00  0.00    -0.354 N 
ATOM     45  C   UNL A   1      39.084  32.701  34.519  1.00  0.00     0.074 A 
ATOM     46  C   UNL A   1      38.012  33.671  34.501  1.00  0.00     0.031 C 
ATOM     47  C   UNL A   1      38.571  29.912  28.740  1.00  0.00     0.029 A 
ATOM     48  C   UNL A   1      39.531  29.597  29.794  1.00  0.00     0.049 A 
ATOM     49  H   UNL A   1      39.653  30.443  31.693  1.00  0.00     0.167 HD
ATOM     50  C   UNL A   1      39.932  32.523  35.558  1.00  0.00     0.037 A 
ATOM     51  C   UNL A   1      40.518  28.687  29.709  1.00  0.00     0.037 A 
ATOM     52  C   UNL A   1      40.957  31.516  35.592  1.00  0.00     0.049 A 
ATOM     53  C   UNL A   1      41.426  28.481  30.893  1.00  0.00     0.074 A 
ATOM     54  C   UNL A   1      41.816  31.194  36.627  1.00  0.00     0.029 A 
ATOM     55  N   UNL A   1      41.252  30.660  34.542  1.00  0.00    -0.354 N 
ATOM     56  N   UNL A   1      41.424  29.092  32.052  1.00  0.00    -0.248 NA
ATOM     57  C   UNL A   1      42.467  27.453  30.759  1.00  0.00     0.031 C 
ATOM     58  C   UNL A   1      42.656  30.164  36.191  1.00  0.00     0.029 A 
ATOM     59  C   UNL A   1      42.292  29.817  34.899  1.00  0.00     0.049 A 
ATOM     60  H   UNL A   1      40.792  30.652  33.672  1.00  0.00     0.167 HD
ATOM     61  C   UNL A   1      42.439  28.507  32.795  1.00  0.00     0.074 A 
ATOM     62  C   UNL A   1      43.030  27.482  31.958  1.00  0.00     0.031 C 
ATOM     63  C   UNL A   1      42.850  28.794  34.054  1.00  0.00     0.037 A 
BRANCH  50  64
ATOM     64  C   UNL A   1      39.775  33.429  36.744  1.00  0.00     0.064 A 
ATOM     65  C   UNL A   1      40.489  34.632  36.851  1.00  0.00     0.173 A 
ATOM     66  C   UNL A   1      38.886  33.100  37.778  1.00  0.00     0.173 A 
ATOM     67  F   UNL A   1      41.365  34.984  35.897  1.00  0.00    -0.203 F 
ATOM     68  C   UNL A   1      40.345  35.455  37.964  1.00  0.00     0.198 A 
ATOM     69  C   UNL A   1      38.719  33.942  38.874  1.00  0.00     0.198 A 
ATOM     70  F   UNL A   1      38.176  31.963  37.724  1.00  0.00    -0.203 F 
ATOM     71  F   UNL A   1      41.080  36.571  38.070  1.00  0.00    -0.200 F 
ATOM     72  C   UNL A   1      39.455  35.113  38.970  1.00  0.00     0.200 A 
ATOM     73  F   UNL A   1      37.851  33.615  39.842  1.00  0.00    -0.200 F 
ATOM     74  F   UNL A   1      39.313  35.910  40.039  1.00  0.00    -0.200 F 
ENDBRANCH  50  64
BRANCH  51  75
ATOM     75  C   UNL A   1      40.678  27.870  28.478  1.00  0.00     0.064 A 
ATOM     76  C   UNL A   1      41.471  28.327  27.415  1.00  0.00     0.173 A 
ATOM     77  C   UNL A   1      40.045  26.628  28.331  1.00  0.00     0.173 A 
ATOM     78  F   UNL A   1      42.081  29.518  27.500  1.00  0.00    -0.203 F 
ATOM     79  C   UNL A   1      41.608  27.582  26.245  1.00  0.00     0.198 A 
ATOM     80  C   UNL A   1      40.203  25.872  27.171  1.00  0.00     0.198 A 
ATOM     81  F   UNL A   1      39.279  26.144  29.320  1.00  0.00    -0.203 F 
ATOM     82  F   UNL A   1      42.335  28.064  25.228  1.00  0.00    -0.200 F 
ATOM     83  C   UNL A   1      40.977  26.353  26.126  1.00  0.00     0.200 A 
ATOM     84  F   UNL A   1      39.601  24.679  27.064  1.00  0.00    -0.200 F 
ATOM     85  F   UNL A   1      41.108  25.636  25.001  1.00  0.00    -0.200 F 
ENDBRANCH  51  75
BRANCH  63  86
ATOM     86  C   UNL A   1      43.963  27.962  34.618  1.00  0.00     0.064 A 
ATOM     87  C   UNL A   1      45.303  28.367  34.525  1.00  0.00     0.173 A 
ATOM     88  C   UNL A   1      43.679  26.770  35.302  1.00  0.00     0.173 A 
ATOM     89  F   UNL A   1      45.624  29.492  33.867  1.00  0.00    -0.203 F 
ATOM     90  C   UNL A   1      46.321  27.596  35.078  1.00  0.00     0.198 A 
ATOM     91  C   UNL A   1      44.697  26.017  35.879  1.00  0.00     0.198 A 
ATOM     92  F   UNL A   1      42.413  26.346  35.424  1.00  0.00    -0.203 F 
ATOM     93  F   UNL A   1      47.598  27.979  34.941  1.00  0.00    -0.200 F 
ATOM     94  C   UNL A   1      46.017  26.427  35.761  1.00  0.00     0.200 A 
ATOM     95  F   UNL A   1      44.401  24.895  36.549  1.00  0.00    -0.200 F 
ATOM     96  F   UNL A   1      46.999  25.691  36.301  1.00  0.00    -0.200 F 
ENDBRANCH  63  86
ENDBRANCH  37  38
ENDBRANCH  29  32
ENDBRANCH  27  28
ENDBRANCH  26  27
ENDBRANCH   1  26
TORSDOF 14
ENDMDL
MODEL 3
REMARK VINA RESULT:     -11.8      0.657      7.210
REMARK SMILES C[C@H](CNC(=O)N1C[C@H]2CCCC[N@@H+]2C[C@@H]1C)C(=O)NCCCCNC(=O)c1ccc(-c2c3nc(c(-c4c(F)c(F)c(F)c(F)c4F)c4ccc([nH]4)c(-c4c(F)c(F)c(F)c(F)c4F)c4nc(c(-c5c(F)c(F)c(F)c(F)c5F)c5ccc2[nH]5)C=C4)C=C3)cc1
REMARK SMILES IDX 22 1 21 2 20 3 18 4 19 5 2 7 1 8 3 9 4 10 5 11 6 13 7 14
REMARK SMILES IDX 8 15 16 16 9 17 15 18 17 19 10 20 14 21 11 22 13 23 12 25
REMARK SMILES IDX 23 26 24 27 25 28 26 29 27 31 28 32 29 33 90 34 30 35 89 36
REMARK SMILES IDX 31 37 32 38 33 39 83 40 34 41 88 42 82 43 84 44 35 45 87 46
REMARK SMILES IDX 81 47 80 48 36 50 68 51 48 52 67 53 49 54 52 55 66 56 85 57
REMARK SMILES IDX 50 58 51 59 65 61 86 62 53 63 37 64 38 65 46 66 39 67 40 68
REMARK SMILES IDX 44 69 47 70 41 71 42 72 45 73 43 74 69 75 70 76 78 77 71 78
REMARK SMILES IDX 72 79 76 80 79 81 73 82 74 83 77 84 75 85 54 86 55 87 63 88
REMARK SMILES IDX 56 89 57 90 61 91 64 92 58 93 59 94 62 95 60 96
REMARK H PARENT 20 6 4 12 14 24 25 30 84 49 52 60
REMARK Flexibility Score: inf
ROOT
ATOM      1  C   UNL A   1      39.251  22.857  26.379  1.00  0.00     0.023 C 
ENDROOT
BRANCH   1   2
ATOM      2  C   UNL A   1      37.939  23.555  26.042  1.00  0.00     0.116 C 
BRANCH   2   3
ATOM      3  N   UNL A   1      37.650  23.509  24.623  1.00  0.00    -0.356 N 
ATOM      4  C   UNL A   1      36.612  22.956  23.945  1.00  0.00     0.224 C 
ATOM      5  O   UNL A   1      36.658  23.009  22.711  1.00  0.00    -0.275 OA
ATOM      6  H   UNL A   1      38.320  23.952  24.054  1.00  0.00     0.163 HD
BRANCH   4   7
ATOM      7  C   UNL A   1      35.432  22.277  24.629  1.00  0.00     0.094 C 
ATOM      8  C   UNL A   1      35.621  20.788  24.916  1.00  0.00     0.020 C 
BRANCH   7   9
ATOM      9  C   UNL A   1      34.059  22.696  24.082  1.00  0.00     0.130 C 
BRANCH   9  10
ATOM     10  N   UNL A   1      34.014  23.438  22.833  1.00  0.00    -0.337 N 
ATOM     11  C   UNL A   1      33.348  24.571  22.479  1.00  0.00     0.318 C 
ATOM     12  H   UNL A   1      34.564  23.051  22.113  1.00  0.00     0.165 HD
ATOM     13  O   UNL A   1      33.283  24.891  21.296  1.00  0.00    -0.249 OA
BRANCH  11  14
ATOM     14  N   UNL A   1      32.746  25.278  23.480  1.00  0.00    -0.311 N 
ATOM     15  C   UNL A   1      33.403  26.528  23.840  1.00  0.00     0.186 C 
ATOM     16  C   UNL A   1      31.275  25.348  23.596  1.00  0.00     0.139 C 
ATOM     17  C   UNL A   1      33.080  26.886  25.287  1.00  0.00     0.203 C 
ATOM     18  C   UNL A   1      30.849  25.975  24.966  1.00  0.00     0.287 C 
ATOM     19  C   UNL A   1      30.597  23.975  23.479  1.00  0.00     0.037 C 
ATOM     20  C   UNL A   1      33.916  28.091  25.720  1.00  0.00     0.067 C 
ATOM     21  N   UNL A   1      31.629  27.154  25.419  1.00  0.00    -0.329 N 
ATOM     22  C   UNL A   1      33.599  28.457  27.162  1.00  0.00     0.012 C 
ATOM     23  C   UNL A   1      31.287  27.488  26.810  1.00  0.00     0.262 C 
ATOM     24  H   UNL A   1      31.393  27.953  24.830  1.00  0.00     0.348 HD
ATOM     25  C   UNL A   1      32.100  28.678  27.329  1.00  0.00     0.062 C 
ENDBRANCH  11  14
ENDBRANCH   9  10
ENDBRANCH   7   9
ENDBRANCH   4   7
ENDBRANCH   2   3
ENDBRANCH   1   2
BRANCH   1  26
ATOM     26  C   UNL A   1      39.456  21.506  25.719  1.00  0.00     0.023 C 
BRANCH  26  27
ATOM     27  C   UNL A   1      39.675  20.364  26.696  1.00  0.00     0.116 C 
BRANCH  27  28
ATOM     28  N   UNL A   1      40.595  19.341  26.209  1.00  0.00    -0.352 N 
ATOM     29  C   UNL A   1      41.954  19.420  26.020  1.00  0.00     0.251 C 
ATOM     30  H   UNL A   1      40.185  18.473  25.985  1.00  0.00     0.163 HD
ATOM     31  O   UNL A   1      42.580  18.494  25.518  1.00  0.00    -0.269 OA
BRANCH  29  32
ATOM     32  C   UNL A   1      42.644  20.667  26.395  1.00  0.00     0.039 A 
ATOM     33  C   UNL A   1      43.191  21.468  25.392  1.00  0.00     0.014 A 
ATOM     34  C   UNL A   1      42.651  21.085  27.727  1.00  0.00     0.014 A 
ATOM     35  C   UNL A   1      43.666  22.739  25.717  1.00  0.00     0.010 A 
ATOM     36  C   UNL A   1      43.019  22.386  28.028  1.00  0.00     0.010 A 
ATOM     37  C   UNL A   1      43.536  23.225  27.029  1.00  0.00    -0.014 A 
BRANCH  37  38
ATOM     38  C   UNL A   1      43.951  24.601  27.395  1.00  0.00     0.031 A 
ATOM     39  C   UNL A   1      42.907  25.599  27.810  1.00  0.00     0.074 A 
ATOM     40  C   UNL A   1      45.238  24.973  27.263  1.00  0.00     0.049 A 
ATOM     41  N   UNL A   1      43.032  26.879  28.052  1.00  0.00    -0.248 NA
ATOM     42  C   UNL A   1      41.526  25.100  27.923  1.00  0.00     0.031 C 
ATOM     43  C   UNL A   1      46.331  24.112  26.806  1.00  0.00     0.029 A 
ATOM     44  N   UNL A   1      45.845  26.183  27.492  1.00  0.00    -0.354 N 
ATOM     45  C   UNL A   1      41.748  27.338  28.309  1.00  0.00     0.074 A 
ATOM     46  C   UNL A   1      40.850  26.218  28.135  1.00  0.00     0.031 C 
ATOM     47  C   UNL A   1      47.477  24.811  26.818  1.00  0.00     0.029 A 
ATOM     48  C   UNL A   1      47.196  26.178  27.247  1.00  0.00     0.049 A 
ATOM     49  H   UNL A   1      45.357  26.980  27.803  1.00  0.00     0.167 HD
ATOM     50  C   UNL A   1      41.355  28.577  28.688  1.00  0.00     0.037 A 
ATOM     51  C   UNL A   1      48.101  27.168  27.356  1.00  0.00     0.037 A 
ATOM     52  C   UNL A   1      42.260  29.669  28.916  1.00  0.00     0.049 A 
ATOM     53  C   UNL A   1      47.645  28.527  27.816  1.00  0.00     0.074 A 
ATOM     54  C   UNL A   1      41.978  30.940  29.382  1.00  0.00     0.029 A 
ATOM     55  N   UNL A   1      43.630  29.612  28.702  1.00  0.00    -0.354 N 
ATOM     56  N   UNL A   1      46.439  28.933  28.127  1.00  0.00    -0.248 NA
ATOM     57  C   UNL A   1      48.679  29.563  27.947  1.00  0.00     0.031 C 
ATOM     58  C   UNL A   1      43.174  31.665  29.419  1.00  0.00     0.029 A 
ATOM     59  C   UNL A   1      44.206  30.833  29.015  1.00  0.00     0.049 A 
ATOM     60  H   UNL A   1      44.119  28.823  28.377  1.00  0.00     0.167 HD
ATOM     61  C   UNL A   1      46.570  30.258  28.517  1.00  0.00     0.074 A 
ATOM     62  C   UNL A   1      47.977  30.585  28.415  1.00  0.00     0.031 C 
ATOM     63  C   UNL A   1      45.612  31.128  28.920  1.00  0.00     0.037 A 
BRANCH  50  64
ATOM     64  C   UNL A   1      39.886  28.806  28.891  1.00  0.00     0.064 A 
ATOM     65  C   UNL A   1      39.275  28.598  30.137  1.00  0.00     0.173 A 
ATOM     66  C   UNL A   1      39.083  29.255  27.833  1.00  0.00     0.173 A 
ATOM     67  F   UNL A   1      39.995  28.152  31.177  1.00  0.00    -0.203 F 
ATOM     68  C   UNL A   1      37.908  28.800  30.307  1.00  0.00     0.198 A 
ATOM     69  C   UNL A   1      37.722  29.488  28.015  1.00  0.00     0.198 A 
ATOM     70  F   UNL A   1      39.617  29.472  26.621  1.00  0.00    -0.203 F 
ATOM     71  F   UNL A   1      37.336  28.540  31.491  1.00  0.00    -0.200 F 
ATOM     72  C   UNL A   1      37.135  29.251  29.248  1.00  0.00     0.200 A 
ATOM     73  F   UNL A   1      36.978  29.933  26.993  1.00  0.00    -0.200 F 
ATOM     74  F   UNL A   1      35.820  29.450  29.415  1.00  0.00    -0.200 F 
ENDBRANCH  50  64
BRANCH  51  75
ATOM     75  C   UNL A   1      49.535  26.904  27.065  1.00  0.00     0.064 A 
ATOM     76  C   UNL A   1      50.410  26.507  28.086  1.00  0.00     0.173 A 
ATOM     77  C   UNL A   1      50.061  27.044  25.773  1.00  0.00     0.173 A 
ATOM     78  F   UNL A   1      49.958  26.378  29.342  1.00  0.00    -0.203 F 
ATOM     79  C   UNL A   1      51.761  26.282  27.831  1.00  0.00     0.198 A 
ATOM     80  C   UNL A   1      51.408  26.794  25.513  1.00  0.00     0.198 A 
ATOM     81  F   UNL A   1      49.265  27.417  24.760  1.00  0.00    -0.203 F 
ATOM     82  F   UNL A   1      52.584  25.948  28.834  1.00  0.00    -0.200 F 
ATOM     83  C   UNL A   1      52.258  26.421  26.543  1.00  0.00     0.200 A 
ATOM     84  F   UNL A   1      51.882  26.919  24.266  1.00  0.00    -0.200 F 
ATOM     85  F   UNL A   1      53.557  26.204  26.297  1.00  0.00    -0.200 F 
ENDBRANCH  51  75
BRANCH  63  86
ATOM     86  C   UNL A   1      46.059  32.502  29.320  1.00  0.00     0.064 A 
ATOM     87  C   UNL A   1      46.460  32.791  30.632  1.00  0.00     0.173 A 
ATOM     88  C   UNL A   1      46.134  33.528  28.365  1.00  0.00     0.173 A 
ATOM     89  F   UNL A   1      46.391  31.846  31.583  1.00  0.00    -0.203 F 
ATOM     90  C   UNL A   1      46.898  34.065  30.980  1.00  0.00     0.198 A 
ATOM     91  C   UNL A   1      46.601  34.793  28.710  1.00  0.00     0.198 A 
ATOM     92  F   UNL A   1      45.769  33.297  27.095  1.00  0.00    -0.203 F 
ATOM     93  F   UNL A   1      47.236  34.332  32.249  1.00  0.00    -0.200 F 
ATOM     94  C   UNL A   1      46.976  35.062  30.017  1.00  0.00     0.200 A 
ATOM     95  F   UNL A   1      46.688  35.750  27.777  1.00  0.00    -0.200 F 
ATOM     96  F   UNL A   1      47.408  36.286  30.353  1.00  0.00    -0.200 F 
ENDBRANCH  63  86
ENDBRANCH  37  38
ENDBRANCH  29  32
ENDBRANCH  27  28
ENDBRANCH  26  27
ENDBRANCH   1  26
TORSDOF 14
ENDMDL
