MODEL 1
REMARK VINA RESULT:     -11.2      0.000      0.000
REMARK SMILES CC[C@@H]1CCC[C@](CCCCCO)(C(=O)NCCCCNC(=O)c2ccc(-c3c4nc(c(-c5c(F)c(F)c(F)c(F)c5F)c5ccc([nH]5)c(-c5c(F)c(F)c(F)c(F)c5F)c5nc(c(-c6c(F)c(F)c(F)c(F)c6F)c6ccc3[nH]6)C=C5)C=C4)cc2)C1
REMARK SMILES IDX 14 1 15 2 16 3 7 5 3 6 4 7 87 8 5 9 6 10 2 11 1 12 8 13 9 14
REMARK SMILES IDX 10 15 11 16 12 17 13 18 17 20 18 21 19 22 20 23 21 24 22 25
REMARK SMILES IDX 23 27 24 28 25 29 86 30 26 31 85 32 27 33 28 34 29 35 79 36
REMARK SMILES IDX 30 37 84 38 78 39 80 40 31 41 83 42 77 43 76 44 32 46 64 47
REMARK SMILES IDX 44 48 63 49 45 50 48 51 62 52 81 53 46 54 47 55 61 57 82 58
REMARK SMILES IDX 49 59 33 60 34 61 42 62 35 63 36 64 40 65 43 66 37 67 38 68
REMARK SMILES IDX 41 69 39 70 65 71 66 72 74 73 67 74 68 75 72 76 75 77 69 78
REMARK SMILES IDX 70 79 73 80 71 81 50 82 51 83 59 84 52 85 53 86 57 87 60 88
REMARK SMILES IDX 54 89 55 90 58 91 56 92
REMARK H PARENT 16 4 13 19 21 26 80 45 48 56
REMARK Flexibility Score: inf
ROOT
ATOM      1  C   UNL A   1      33.612  27.547  24.404  1.00  0.00     0.226 C 
ATOM      2  O   UNL A   1      33.963  28.219  23.439  1.00  0.00    -0.274 OA
ATOM      3  N   UNL A   1      33.145  28.125  25.566  1.00  0.00    -0.356 N 
ATOM      4  H   UNL A   1      33.158  27.611  26.405  1.00  0.00     0.163 HD
ENDROOT
BRANCH   1   5
ATOM      5  C   UNL A   1      33.476  26.013  24.364  1.00  0.00     0.049 C 
ATOM      6  C   UNL A   1      34.571  23.810  25.177  1.00  0.00    -0.010 C 
ATOM      7  C   UNL A   1      34.715  23.323  23.730  1.00  0.00     0.003 C 
ATOM      8  C   UNL A   1      34.579  25.352  25.249  1.00  0.00     0.020 C 
ATOM      9  C   UNL A   1      33.708  23.974  22.792  1.00  0.00     0.001 C 
ATOM     10  C   UNL A   1      33.716  25.498  22.918  1.00  0.00     0.017 C 
BRANCH   6  11
ATOM     11  C   UNL A   1      35.616  23.183  26.124  1.00  0.00     0.000 C 
ATOM     12  C   UNL A   1      37.066  23.301  25.677  1.00  0.00     0.004 C 
ENDBRANCH   6  11
BRANCH   5  13
ATOM     13  C   UNL A   1      32.056  25.632  24.909  1.00  0.00     0.017 C 
BRANCH  13  14
ATOM     14  C   UNL A   1      30.787  25.664  24.018  1.00  0.00     0.001 C 
BRANCH  14  15
ATOM     15  C   UNL A   1      30.035  26.982  23.826  1.00  0.00     0.002 C 
BRANCH  15  16
ATOM     16  C   UNL A   1      30.403  27.746  22.551  1.00  0.00     0.028 C 
BRANCH  16  17
ATOM     17  C   UNL A   1      30.356  29.264  22.659  1.00  0.00     0.156 C 
BRANCH  17  18
ATOM     18  O   UNL A   1      30.741  29.872  21.435  1.00  0.00    -0.396 OA
ATOM     19  H   UNL A   1      29.953  30.216  20.984  1.00  0.00     0.210 HD
ENDBRANCH  17  18
ENDBRANCH  16  17
ENDBRANCH  15  16
ENDBRANCH  14  15
ENDBRANCH  13  14
ENDBRANCH   5  13
ENDBRANCH   1   5
BRANCH   3  20
ATOM     20  C   UNL A   1      32.636  29.475  25.563  1.00  0.00     0.116 C 
BRANCH  20  21
ATOM     21  C   UNL A   1      32.780  30.103  26.945  1.00  0.00     0.023 C 
BRANCH  21  22
ATOM     22  C   UNL A   1      32.237  31.527  27.011  1.00  0.00     0.023 C 
BRANCH  22  23
ATOM     23  C   UNL A   1      33.209  32.571  27.544  1.00  0.00     0.116 C 
BRANCH  23  24
ATOM     24  N   UNL A   1      32.617  33.889  27.710  1.00  0.00    -0.352 N 
ATOM     25  C   UNL A   1      33.036  34.898  28.559  1.00  0.00     0.251 C 
ATOM     26  H   UNL A   1      31.828  34.086  27.155  1.00  0.00     0.163 HD
ATOM     27  O   UNL A   1      32.411  35.936  28.669  1.00  0.00    -0.269 OA
BRANCH  25  28
ATOM     28  C   UNL A   1      34.233  34.644  29.393  1.00  0.00     0.039 A 
ATOM     29  C   UNL A   1      34.052  34.188  30.700  1.00  0.00     0.014 A 
ATOM     30  C   UNL A   1      35.510  34.701  28.827  1.00  0.00     0.014 A 
ATOM     31  C   UNL A   1      35.145  33.682  31.408  1.00  0.00     0.010 A 
ATOM     32  C   UNL A   1      36.584  34.137  29.510  1.00  0.00     0.010 A 
ATOM     33  C   UNL A   1      36.406  33.596  30.795  1.00  0.00    -0.014 A 
BRANCH  33  34
ATOM     34  C   UNL A   1      37.538  32.895  31.457  1.00  0.00     0.031 A 
ATOM     35  C   UNL A   1      38.184  31.711  30.798  1.00  0.00     0.074 A 
ATOM     36  C   UNL A   1      37.922  33.268  32.694  1.00  0.00     0.049 A 
ATOM     37  N   UNL A   1      39.120  30.919  31.255  1.00  0.00    -0.248 NA
ATOM     38  C   UNL A   1      37.693  31.353  29.459  1.00  0.00     0.031 C 
ATOM     39  C   UNL A   1      37.335  34.362  33.470  1.00  0.00     0.029 A 
ATOM     40  N   UNL A   1      38.888  32.756  33.526  1.00  0.00    -0.354 N 
ATOM     41  C   UNL A   1      39.317  29.961  30.271  1.00  0.00     0.074 A 
ATOM     42  C   UNL A   1      38.373  30.244  29.209  1.00  0.00     0.031 C 
ATOM     43  C   UNL A   1      37.961  34.449  34.655  1.00  0.00     0.029 A 
ATOM     44  C   UNL A   1      38.969  33.397  34.740  1.00  0.00     0.049 A 
ATOM     45  H   UNL A   1      39.469  32.001  33.276  1.00  0.00     0.167 HD
ATOM     46  C   UNL A   1      40.215  28.948  30.245  1.00  0.00     0.037 A 
ATOM     47  C   UNL A   1      39.762  33.157  35.803  1.00  0.00     0.037 A 
ATOM     48  C   UNL A   1      41.177  28.687  31.283  1.00  0.00     0.049 A 
ATOM     49  C   UNL A   1      40.761  32.033  35.743  1.00  0.00     0.074 A 
ATOM     50  C   UNL A   1      42.183  27.738  31.306  1.00  0.00     0.029 A 
ATOM     51  N   UNL A   1      41.248  29.377  32.483  1.00  0.00    -0.354 N 
ATOM     52  N   UNL A   1      40.993  31.188  34.770  1.00  0.00    -0.248 NA
ATOM     53  C   UNL A   1      41.609  31.834  36.927  1.00  0.00     0.031 C 
ATOM     54  C   UNL A   1      42.840  27.827  32.538  1.00  0.00     0.029 A 
ATOM     55  C   UNL A   1      42.268  28.858  33.266  1.00  0.00     0.049 A 
ATOM     56  H   UNL A   1      40.661  30.123  32.742  1.00  0.00     0.167 HD
ATOM     57  C   UNL A   1      42.025  30.371  35.213  1.00  0.00     0.074 A 
ATOM     58  C   UNL A   1      42.385  30.832  36.537  1.00  0.00     0.031 C 
ATOM     59  C   UNL A   1      42.619  29.331  34.579  1.00  0.00     0.037 A 
BRANCH  46  60
ATOM     60  C   UNL A   1      40.208  28.048  29.047  1.00  0.00     0.064 A 
ATOM     61  C   UNL A   1      40.935  28.361  27.889  1.00  0.00     0.173 A 
ATOM     62  C   UNL A   1      39.498  26.838  29.069  1.00  0.00     0.173 A 
ATOM     63  F   UNL A   1      41.623  29.511  27.815  1.00  0.00    -0.203 F 
ATOM     64  C   UNL A   1      40.932  27.509  26.789  1.00  0.00     0.198 A 
ATOM     65  C   UNL A   1      39.518  25.976  27.977  1.00  0.00     0.198 A 
ATOM     66  F   UNL A   1      38.791  26.489  30.154  1.00  0.00    -0.203 F 
ATOM     67  F   UNL A   1      41.601  27.850  25.678  1.00  0.00    -0.200 F 
ATOM     68  C   UNL A   1      40.230  26.315  26.835  1.00  0.00     0.200 A 
ATOM     69  F   UNL A   1      38.848  24.816  28.027  1.00  0.00    -0.200 F 
ATOM     70  F   UNL A   1      40.234  25.492  25.778  1.00  0.00    -0.200 F 
ENDBRANCH  46  60
BRANCH  47  71
ATOM     71  C   UNL A   1      39.656  34.010  37.016  1.00  0.00     0.064 A 
ATOM     72  C   UNL A   1      38.863  33.618  38.104  1.00  0.00     0.173 A 
ATOM     73  C   UNL A   1      40.330  35.237  37.108  1.00  0.00     0.173 A 
ATOM     74  F   UNL A   1      38.182  32.464  38.052  1.00  0.00    -0.203 F 
ATOM     75  C   UNL A   1      38.734  34.428  39.230  1.00  0.00     0.198 A 
ATOM     76  C   UNL A   1      40.219  36.034  38.245  1.00  0.00     0.198 A 
ATOM     77  F   UNL A   1      41.102  35.656  36.095  1.00  0.00    -0.203 F 
ATOM     78  F   UNL A   1      37.934  34.049  40.236  1.00  0.00    -0.200 F 
ATOM     79  C   UNL A   1      39.415  35.633  39.301  1.00  0.00     0.200 A 
ATOM     80  F   UNL A   1      40.888  37.193  38.316  1.00  0.00    -0.200 F 
ATOM     81  F   UNL A   1      39.291  36.412  40.385  1.00  0.00    -0.200 F 
ENDBRANCH  47  71
BRANCH  59  82
ATOM     82  C   UNL A   1      43.736  28.633  35.295  1.00  0.00     0.064 A 
ATOM     83  C   UNL A   1      43.489  27.567  36.173  1.00  0.00     0.173 A 
ATOM     84  C   UNL A   1      45.069  29.000  35.061  1.00  0.00     0.173 A 
ATOM     85  F   UNL A   1      42.230  27.192  36.442  1.00  0.00    -0.203 F 
ATOM     86  C   UNL A   1      44.539  26.903  36.802  1.00  0.00     0.198 A 
ATOM     87  C   UNL A   1      46.117  28.317  35.672  1.00  0.00     0.198 A 
ATOM     88  F   UNL A   1      45.357  30.010  34.228  1.00  0.00    -0.203 F 
ATOM     89  F   UNL A   1      44.279  25.910  37.664  1.00  0.00    -0.200 F 
ATOM     90  C   UNL A   1      45.851  27.272  36.545  1.00  0.00     0.200 A 
ATOM     91  F   UNL A   1      47.385  28.667  35.415  1.00  0.00    -0.200 F 
ATOM     92  F   UNL A   1      46.859  26.624  37.143  1.00  0.00    -0.200 F 
ENDBRANCH  59  82
ENDBRANCH  33  34
ENDBRANCH  25  28
ENDBRANCH  23  24
ENDBRANCH  22  23
ENDBRANCH  21  22
ENDBRANCH  20  21
ENDBRANCH   3  20
TORSDOF 18
ENDMDL
MODEL 2
REMARK VINA RESULT:     -11.1      0.811      7.349
REMARK SMILES CC[C@@H]1CCC[C@](CCCCCO)(C(=O)NCCCCNC(=O)c2ccc(-c3c4nc(c(-c5c(F)c(F)c(F)c(F)c5F)c5ccc([nH]5)c(-c5c(F)c(F)c(F)c(F)c5F)c5nc(c(-c6c(F)c(F)c(F)c(F)c6F)c6ccc3[nH]6)C=C5)C=C4)cc2)C1
REMARK SMILES IDX 14 1 15 2 16 3 7 5 3 6 4 7 87 8 5 9 6 10 2 11 1 12 8 13 9 14
REMARK SMILES IDX 10 15 11 16 12 17 13 18 17 20 18 21 19 22 20 23 21 24 22 25
REMARK SMILES IDX 23 27 24 28 25 29 86 30 26 31 85 32 27 33 28 34 29 35 79 36
REMARK SMILES IDX 30 37 84 38 78 39 80 40 31 41 83 42 77 43 76 44 32 46 64 47
REMARK SMILES IDX 44 48 63 49 45 50 48 51 62 52 81 53 46 54 47 55 61 57 82 58
REMARK SMILES IDX 49 59 33 60 34 61 42 62 35 63 36 64 40 65 43 66 37 67 38 68
REMARK SMILES IDX 41 69 39 70 65 71 66 72 74 73 67 74 68 75 72 76 75 77 69 78
REMARK SMILES IDX 70 79 73 80 71 81 50 82 51 83 59 84 52 85 53 86 57 87 60 88
REMARK SMILES IDX 54 89 55 90 58 91 56 92
REMARK H PARENT 16 4 13 19 21 26 80 45 48 56
REMARK Flexibility Score: inf
ROOT
ATOM      1  C   UNL A   1      33.580  28.335  24.325  1.00  0.00     0.226 C 
ATOM      2  O   UNL A   1      33.597  29.274  23.535  1.00  0.00    -0.274 OA
ATOM      3  N   UNL A   1      33.839  28.505  25.669  1.00  0.00    -0.356 N 
ATOM      4  H   UNL A   1      34.113  27.734  26.213  1.00  0.00     0.163 HD
ENDROOT
BRANCH   1   5
ATOM      5  C   UNL A   1      33.093  26.922  23.950  1.00  0.00     0.049 C 
ATOM      6  C   UNL A   1      33.649  24.403  24.189  1.00  0.00    -0.010 C 
ATOM      7  C   UNL A   1      33.674  24.242  22.664  1.00  0.00     0.003 C 
ATOM      8  C   UNL A   1      34.015  25.844  24.603  1.00  0.00     0.020 C 
ATOM      9  C   UNL A   1      32.844  25.302  21.952  1.00  0.00     0.001 C 
ATOM     10  C   UNL A   1      33.205  26.714  22.415  1.00  0.00     0.017 C 
BRANCH   6  11
ATOM     11  C   UNL A   1      34.522  23.356  24.913  1.00  0.00     0.000 C 
ATOM     12  C   UNL A   1      34.609  23.502  26.426  1.00  0.00     0.004 C 
ENDBRANCH   6  11
BRANCH   5  13
ATOM     13  C   UNL A   1      31.623  26.756  24.473  1.00  0.00     0.017 C 
BRANCH  13  14
ATOM     14  C   UNL A   1      30.541  27.847  24.273  1.00  0.00     0.001 C 
BRANCH  14  15
ATOM     15  C   UNL A   1      29.757  27.897  22.960  1.00  0.00     0.002 C 
BRANCH  15  16
ATOM     16  C   UNL A   1      29.040  29.224  22.697  1.00  0.00     0.028 C 
BRANCH  16  17
ATOM     17  C   UNL A   1      29.753  30.178  21.748  1.00  0.00     0.156 C 
BRANCH  17  18
ATOM     18  O   UNL A   1      31.142  29.891  21.689  1.00  0.00    -0.396 OA
ATOM     19  H   UNL A   1      31.644  30.722  21.708  1.00  0.00     0.210 HD
ENDBRANCH  17  18
ENDBRANCH  16  17
ENDBRANCH  15  16
ENDBRANCH  14  15
ENDBRANCH  13  14
ENDBRANCH   5  13
ENDBRANCH   1   5
BRANCH   3  20
ATOM     20  C   UNL A   1      33.709  29.803  26.285  1.00  0.00     0.116 C 
BRANCH  20  21
ATOM     21  C   UNL A   1      32.301  29.996  26.836  1.00  0.00     0.023 C 
BRANCH  21  22
ATOM     22  C   UNL A   1      31.891  31.462  26.923  1.00  0.00     0.023 C 
BRANCH  22  23
ATOM     23  C   UNL A   1      32.950  32.402  27.486  1.00  0.00     0.116 C 
BRANCH  23  24
ATOM     24  N   UNL A   1      32.491  33.774  27.639  1.00  0.00    -0.352 N 
ATOM     25  C   UNL A   1      33.015  34.748  28.470  1.00  0.00     0.251 C 
ATOM     26  H   UNL A   1      31.720  34.040  27.088  1.00  0.00     0.163 HD
ATOM     27  O   UNL A   1      32.496  35.843  28.570  1.00  0.00    -0.269 OA
BRANCH  25  28
ATOM     28  C   UNL A   1      34.190  34.389  29.297  1.00  0.00     0.039 A 
ATOM     29  C   UNL A   1      33.974  33.785  30.537  1.00  0.00     0.014 A 
ATOM     30  C   UNL A   1      35.481  34.502  28.771  1.00  0.00     0.014 A 
ATOM     31  C   UNL A   1      35.047  33.192  31.206  1.00  0.00     0.010 A 
ATOM     32  C   UNL A   1      36.535  33.854  29.409  1.00  0.00     0.010 A 
ATOM     33  C   UNL A   1      36.323  33.168  30.618  1.00  0.00    -0.014 A 
BRANCH  33  34
ATOM     34  C   UNL A   1      37.434  32.385  31.221  1.00  0.00     0.031 A 
ATOM     35  C   UNL A   1      37.955  32.737  32.584  1.00  0.00     0.074 A 
ATOM     36  C   UNL A   1      38.032  31.414  30.502  1.00  0.00     0.049 A 
ATOM     37  N   UNL A   1      38.970  32.230  33.237  1.00  0.00    -0.248 NA
ATOM     38  C   UNL A   1      37.263  33.822  33.295  1.00  0.00     0.031 C 
ATOM     39  C   UNL A   1      37.663  31.015  29.143  1.00  0.00     0.029 A 
ATOM     40  N   UNL A   1      39.094  30.596  30.808  1.00  0.00    -0.354 N 
ATOM     41  C   UNL A   1      39.048  32.945  34.424  1.00  0.00     0.074 A 
ATOM     42  C   UNL A   1      38.006  33.950  34.384  1.00  0.00     0.031 C 
ATOM     43  C   UNL A   1      38.471  30.022  28.739  1.00  0.00     0.029 A 
ATOM     44  C   UNL A   1      39.439  29.736  29.793  1.00  0.00     0.049 A 
ATOM     45  H   UNL A   1      39.563  30.624  31.673  1.00  0.00     0.167 HD
ATOM     46  C   UNL A   1      39.899  32.768  35.463  1.00  0.00     0.037 A 
ATOM     47  C   UNL A   1      40.430  28.825  29.719  1.00  0.00     0.037 A 
ATOM     48  C   UNL A   1      40.912  31.747  35.519  1.00  0.00     0.049 A 
ATOM     49  C   UNL A   1      41.353  28.640  30.892  1.00  0.00     0.074 A 
ATOM     50  C   UNL A   1      41.763  31.436  36.565  1.00  0.00     0.029 A 
ATOM     51  N   UNL A   1      41.211  30.875  34.485  1.00  0.00    -0.354 N 
ATOM     52  N   UNL A   1      41.362  29.266  32.042  1.00  0.00    -0.248 NA
ATOM     53  C   UNL A   1      42.402  27.618  30.757  1.00  0.00     0.031 C 
ATOM     54  C   UNL A   1      42.606  30.399  36.148  1.00  0.00     0.029 A 
ATOM     55  C   UNL A   1      42.252  30.039  34.858  1.00  0.00     0.049 A 
ATOM     56  H   UNL A   1      40.753  30.853  33.613  1.00  0.00     0.167 HD
ATOM     57  C   UNL A   1      42.398  28.703  32.776  1.00  0.00     0.074 A 
ATOM     58  C   UNL A   1      42.986  27.673  31.946  1.00  0.00     0.031 C 
ATOM     59  C   UNL A   1      42.823  29.014  34.024  1.00  0.00     0.037 A 
BRANCH  46  60
ATOM     60  C   UNL A   1      39.765  33.695  36.632  1.00  0.00     0.064 A 
ATOM     61  C   UNL A   1      40.447  34.920  36.680  1.00  0.00     0.173 A 
ATOM     62  C   UNL A   1      38.914  33.375  37.702  1.00  0.00     0.173 A 
ATOM     63  F   UNL A   1      41.279  35.267  35.686  1.00  0.00    -0.203 F 
ATOM     64  C   UNL A   1      40.303  35.778  37.765  1.00  0.00     0.198 A 
ATOM     65  C   UNL A   1      38.752  34.248  38.773  1.00  0.00     0.198 A 
ATOM     66  F   UNL A   1      38.235  32.219  37.702  1.00  0.00    -0.203 F 
ATOM     67  F   UNL A   1      40.997  36.924  37.808  1.00  0.00    -0.200 F 
ATOM     68  C   UNL A   1      39.451  35.446  38.808  1.00  0.00     0.200 A 
ATOM     69  F   UNL A   1      37.920  33.931  39.774  1.00  0.00    -0.200 F 
ATOM     70  F   UNL A   1      39.307  36.277  39.848  1.00  0.00    -0.200 F 
ENDBRANCH  46  60
BRANCH  47  71
ATOM     71  C   UNL A   1      40.593  28.003  28.491  1.00  0.00     0.064 A 
ATOM     72  C   UNL A   1      40.009  26.732  28.394  1.00  0.00     0.173 A 
ATOM     73  C   UNL A   1      41.345  28.461  27.399  1.00  0.00     0.173 A 
ATOM     74  F   UNL A   1      39.301  26.242  29.422  1.00  0.00    -0.203 F 
ATOM     75  C   UNL A   1      40.186  25.943  27.260  1.00  0.00     0.198 A 
ATOM     76  C   UNL A   1      41.500  27.681  26.256  1.00  0.00     0.198 A 
ATOM     77  F   UNL A   1      41.922  29.671  27.442  1.00  0.00    -0.203 F 
ATOM     78  F   UNL A   1      39.654  24.715  27.212  1.00  0.00    -0.200 F 
ATOM     79  C   UNL A   1      40.927  26.419  26.190  1.00  0.00     0.200 A 
ATOM     80  F   UNL A   1      42.208  28.149  25.218  1.00  0.00    -0.200 F 
ATOM     81  F   UNL A   1      41.096  25.661  25.098  1.00  0.00    -0.200 F 
ENDBRANCH  47  71
BRANCH  59  82
ATOM     82  C   UNL A   1      43.965  28.219  34.582  1.00  0.00     0.064 A 
ATOM     83  C   UNL A   1      43.754  27.003  35.250  1.00  0.00     0.173 A 
ATOM     84  C   UNL A   1      45.287  28.651  34.401  1.00  0.00     0.173 A 
ATOM     85  F   UNL A   1      42.507  26.558  35.462  1.00  0.00    -0.203 F 
ATOM     86  C   UNL A   1      44.827  26.256  35.728  1.00  0.00     0.198 A 
ATOM     87  C   UNL A   1      46.359  27.888  34.859  1.00  0.00     0.198 A 
ATOM     88  F   UNL A   1      45.541  29.805  33.766  1.00  0.00    -0.203 F 
ATOM     89  F   UNL A   1      44.601  25.115  36.394  1.00  0.00    -0.200 F 
ATOM     90  C   UNL A   1      46.127  26.694  35.525  1.00  0.00     0.200 A 
ATOM     91  F   UNL A   1      47.615  28.308  34.653  1.00  0.00    -0.200 F 
ATOM     92  F   UNL A   1      47.158  25.967  35.978  1.00  0.00    -0.200 F 
ENDBRANCH  59  82
ENDBRANCH  33  34
ENDBRANCH  25  28
ENDBRANCH  23  24
ENDBRANCH  22  23
ENDBRANCH  21  22
ENDBRANCH  20  21
ENDBRANCH   3  20
TORSDOF 18
ENDMDL
MODEL 3
REMARK VINA RESULT:     -11.0      4.101      9.205
REMARK SMILES CC[C@@H]1CCC[C@](CCCCCO)(C(=O)NCCCCNC(=O)c2ccc(-c3c4nc(c(-c5c(F)c(F)c(F)c(F)c5F)c5ccc([nH]5)c(-c5c(F)c(F)c(F)c(F)c5F)c5nc(c(-c6c(F)c(F)c(F)c(F)c6F)c6ccc3[nH]6)C=C5)C=C4)cc2)C1
REMARK SMILES IDX 14 1 15 2 16 3 7 5 3 6 4 7 87 8 5 9 6 10 2 11 1 12 8 13 9 14
REMARK SMILES IDX 10 15 11 16 12 17 13 18 17 20 18 21 19 22 20 23 21 24 22 25
REMARK SMILES IDX 23 27 24 28 25 29 86 30 26 31 85 32 27 33 28 34 29 35 79 36
REMARK SMILES IDX 30 37 84 38 78 39 80 40 31 41 83 42 77 43 76 44 32 46 64 47
REMARK SMILES IDX 44 48 63 49 45 50 48 51 62 52 81 53 46 54 47 55 61 57 82 58
REMARK SMILES IDX 49 59 33 60 34 61 42 62 35 63 36 64 40 65 43 66 37 67 38 68
REMARK SMILES IDX 41 69 39 70 65 71 66 72 74 73 67 74 68 75 72 76 75 77 69 78
REMARK SMILES IDX 70 79 73 80 71 81 50 82 51 83 59 84 52 85 53 86 57 87 60 88
REMARK SMILES IDX 54 89 55 90 58 91 56 92
REMARK H PARENT 16 4 13 19 21 26 80 45 48 56
REMARK Flexibility Score: inf
ROOT
ATOM      1  C   UNL A   1      33.101  25.131  25.202  1.00  0.00     0.226 C 
ATOM      2  O   UNL A   1      32.675  25.407  26.320  1.00  0.00    -0.274 OA
ATOM      3  N   UNL A   1      32.841  25.923  24.104  1.00  0.00    -0.356 N 
ATOM      4  H   UNL A   1      32.924  25.545  23.200  1.00  0.00     0.163 HD
ENDROOT
BRANCH   1   5
ATOM      5  C   UNL A   1      34.112  23.999  24.937  1.00  0.00     0.049 C 
ATOM      6  C   UNL A   1      36.567  23.272  25.338  1.00  0.00    -0.010 C 
ATOM      7  C   UNL A   1      36.794  23.133  23.827  1.00  0.00     0.003 C 
ATOM      8  C   UNL A   1      35.469  24.314  25.642  1.00  0.00     0.020 C 
ATOM      9  C   UNL A   1      35.500  22.886  23.063  1.00  0.00     0.001 C 
ATOM     10  C   UNL A   1      34.424  23.912  23.419  1.00  0.00     0.017 C 
BRANCH   6  11
ATOM     11  C   UNL A   1      37.869  23.563  26.111  1.00  0.00     0.000 C 
ATOM     12  C   UNL A   1      38.860  22.410  26.193  1.00  0.00     0.004 C 
ENDBRANCH   6  11
BRANCH   5  13
ATOM     13  C   UNL A   1      33.513  22.665  25.505  1.00  0.00     0.017 C 
BRANCH  13  14
ATOM     14  C   UNL A   1      32.274  21.977  24.878  1.00  0.00     0.001 C 
BRANCH  14  15
ATOM     15  C   UNL A   1      32.470  20.837  23.877  1.00  0.00     0.002 C 
BRANCH  15  16
ATOM     16  C   UNL A   1      33.358  19.695  24.379  1.00  0.00     0.028 C 
BRANCH  16  17
ATOM     17  C   UNL A   1      32.708  18.750  25.381  1.00  0.00     0.156 C 
BRANCH  17  18
ATOM     18  O   UNL A   1      31.939  17.758  24.718  1.00  0.00    -0.396 OA
ATOM     19  H   UNL A   1      31.010  18.035  24.689  1.00  0.00     0.210 HD
ENDBRANCH  17  18
ENDBRANCH  16  17
ENDBRANCH  15  16
ENDBRANCH  14  15
ENDBRANCH  13  14
ENDBRANCH   5  13
ENDBRANCH   1   5
BRANCH   3  20
ATOM     20  C   UNL A   1      32.447  27.302  24.267  1.00  0.00     0.116 C 
BRANCH  20  21
ATOM     21  C   UNL A   1      33.641  28.153  24.687  1.00  0.00     0.023 C 
BRANCH  21  22
ATOM     22  C   UNL A   1      33.256  29.299  25.615  1.00  0.00     0.023 C 
BRANCH  22  23
ATOM     23  C   UNL A   1      33.794  29.194  27.037  1.00  0.00     0.116 C 
BRANCH  23  24
ATOM     24  N   UNL A   1      33.828  30.466  27.743  1.00  0.00    -0.352 N 
ATOM     25  C   UNL A   1      34.867  30.980  28.500  1.00  0.00     0.251 C 
ATOM     26  H   UNL A   1      33.022  31.026  27.674  1.00  0.00     0.163 HD
ATOM     27  O   UNL A   1      34.751  32.024  29.110  1.00  0.00    -0.269 OA
BRANCH  25  28
ATOM     28  C   UNL A   1      36.105  30.173  28.607  1.00  0.00     0.039 A 
ATOM     29  C   UNL A   1      37.051  30.263  27.584  1.00  0.00     0.014 A 
ATOM     30  C   UNL A   1      36.388  29.472  29.783  1.00  0.00     0.014 A 
ATOM     31  C   UNL A   1      38.330  29.739  27.786  1.00  0.00     0.010 A 
ATOM     32  C   UNL A   1      37.682  29.008  30.005  1.00  0.00     0.010 A 
ATOM     33  C   UNL A   1      38.673  29.163  29.020  1.00  0.00    -0.014 A 
BRANCH  33  34
ATOM     34  C   UNL A   1      40.074  28.768  29.323  1.00  0.00     0.031 A 
ATOM     35  C   UNL A   1      40.982  29.708  30.063  1.00  0.00     0.074 A 
ATOM     36  C   UNL A   1      40.555  27.601  28.852  1.00  0.00     0.049 A 
ATOM     37  N   UNL A   1      42.254  29.580  30.342  1.00  0.00    -0.248 NA
ATOM     38  C   UNL A   1      40.388  30.971  30.525  1.00  0.00     0.031 C 
ATOM     39  C   UNL A   1      39.795  26.626  28.067  1.00  0.00     0.029 A 
ATOM     40  N   UNL A   1      41.806  27.041  28.948  1.00  0.00    -0.354 N 
ATOM     41  C   UNL A   1      42.616  30.750  30.994  1.00  0.00     0.074 A 
ATOM     42  C   UNL A   1      41.441  31.595  31.032  1.00  0.00     0.031 C 
ATOM     43  C   UNL A   1      40.589  25.585  27.766  1.00  0.00     0.029 A 
ATOM     44  C   UNL A   1      41.922  25.831  28.306  1.00  0.00     0.049 A 
ATOM     45  H   UNL A   1      42.550  27.467  29.433  1.00  0.00     0.167 HD
ATOM     46  C   UNL A   1      43.814  31.082  31.530  1.00  0.00     0.037 A 
ATOM     47  C   UNL A   1      42.986  25.017  28.161  1.00  0.00     0.037 A 
ATOM     48  C   UNL A   1      44.973  30.229  31.525  1.00  0.00     0.049 A 
ATOM     49  C   UNL A   1      44.303  25.405  28.779  1.00  0.00     0.074 A 
ATOM     50  C   UNL A   1      46.204  30.444  32.118  1.00  0.00     0.029 A 
ATOM     51  N   UNL A   1      45.043  28.998  30.891  1.00  0.00    -0.354 N 
ATOM     52  N   UNL A   1      44.608  26.477  29.465  1.00  0.00    -0.248 NA
ATOM     53  C   UNL A   1      45.421  24.466  28.602  1.00  0.00     0.031 C 
ATOM     54  C   UNL A   1      47.034  29.360  31.810  1.00  0.00     0.029 A 
ATOM     55  C   UNL A   1      46.306  28.451  31.059  1.00  0.00     0.049 A 
ATOM     56  H   UNL A   1      44.305  28.575  30.394  1.00  0.00     0.167 HD
ATOM     57  C   UNL A   1      45.943  26.334  29.822  1.00  0.00     0.074 A 
ATOM     58  C   UNL A   1      46.386  25.065  29.288  1.00  0.00     0.031 C 
ATOM     59  C   UNL A   1      46.730  27.183  30.527  1.00  0.00     0.037 A 
BRANCH  46  60
ATOM     60  C   UNL A   1      43.932  32.428  32.180  1.00  0.00     0.064 A 
ATOM     61  C   UNL A   1      43.675  32.607  33.546  1.00  0.00     0.173 A 
ATOM     62  C   UNL A   1      44.344  33.544  31.436  1.00  0.00     0.173 A 
ATOM     63  F   UNL A   1      43.269  31.573  34.298  1.00  0.00    -0.203 F 
ATOM     64  C   UNL A   1      43.802  33.860  34.140  1.00  0.00     0.198 A 
ATOM     65  C   UNL A   1      44.496  34.789  32.039  1.00  0.00     0.198 A 
ATOM     66  F   UNL A   1      44.608  33.424  30.126  1.00  0.00    -0.203 F 
ATOM     67  F   UNL A   1      43.511  34.015  35.440  1.00  0.00    -0.200 F 
ATOM     68  C   UNL A   1      44.219  34.948  33.389  1.00  0.00     0.200 A 
ATOM     69  F   UNL A   1      44.910  35.838  31.314  1.00  0.00    -0.200 F 
ATOM     70  F   UNL A   1      44.349  36.151  33.964  1.00  0.00    -0.200 F 
ENDBRANCH  46  60
BRANCH  47  71
ATOM     71  C   UNL A   1      42.850  23.741  27.412  1.00  0.00     0.064 A 
ATOM     72  C   UNL A   1      42.371  22.584  28.043  1.00  0.00     0.173 A 
ATOM     73  C   UNL A   1      43.207  23.646  26.058  1.00  0.00     0.173 A 
ATOM     74  F   UNL A   1      42.039  22.620  29.341  1.00  0.00    -0.203 F 
ATOM     75  C   UNL A   1      42.272  21.376  27.355  1.00  0.00     0.198 A 
ATOM     76  C   UNL A   1      43.084  22.444  25.366  1.00  0.00     0.198 A 
ATOM     77  F   UNL A   1      43.668  24.724  25.409  1.00  0.00    -0.203 F 
ATOM     78  F   UNL A   1      41.853  20.277  27.994  1.00  0.00    -0.200 F 
ATOM     79  C   UNL A   1      42.624  21.309  26.016  1.00  0.00     0.200 A 
ATOM     80  F   UNL A   1      43.413  22.384  24.068  1.00  0.00    -0.200 F 
ATOM     81  F   UNL A   1      42.527  20.147  25.354  1.00  0.00    -0.200 F 
ENDBRANCH  47  71
BRANCH  59  82
ATOM     82  C   UNL A   1      48.145  26.759  30.784  1.00  0.00     0.064 A 
ATOM     83  C   UNL A   1      49.196  27.174  29.954  1.00  0.00     0.173 A 
ATOM     84  C   UNL A   1      48.458  25.971  31.902  1.00  0.00     0.173 A 
ATOM     85  F   UNL A   1      48.943  27.913  28.863  1.00  0.00    -0.203 F 
ATOM     86  C   UNL A   1      50.510  26.804  30.227  1.00  0.00     0.198 A 
ATOM     87  C   UNL A   1      49.777  25.624  32.185  1.00  0.00     0.198 A 
ATOM     88  F   UNL A   1      47.489  25.551  32.727  1.00  0.00    -0.203 F 
ATOM     89  F   UNL A   1      51.495  27.183  29.401  1.00  0.00    -0.200 F 
ATOM     90  C   UNL A   1      50.800  26.038  31.346  1.00  0.00     0.200 A 
ATOM     91  F   UNL A   1      50.057  24.892  33.273  1.00  0.00    -0.200 F 
ATOM     92  F   UNL A   1      52.067  25.692  31.612  1.00  0.00    -0.200 F 
ENDBRANCH  59  82
ENDBRANCH  33  34
ENDBRANCH  25  28
ENDBRANCH  23  24
ENDBRANCH  22  23
ENDBRANCH  21  22
ENDBRANCH  20  21
ENDBRANCH   3  20
TORSDOF 18
ENDMDL
