MODEL 1
REMARK VINA RESULT:     -13.0      0.000      0.000
REMARK SMILES C=Cc1cc(Cl)cc2c1O[C@H](C(F)(F)F)C(C(=O)NCCCCNC(=O)c1ccc(-c3c4nc(c(-c5c(F)c(F)c(F)c(F)c5F)c5ccc([nH]5)c(-c5c(F)c(F)c(F)c(F)c5F)c5nc(c(-c6c(F)c(F)c(F)c(F)c6F)c6ccc3[nH]6)C=C5)C=C4)cc1)=C2
REMARK SMILES IDX 22 1 21 2 20 3 19 4 17 5 18 6 16 8 3 9 4 10 9 11 5 12 8 13
REMARK SMILES IDX 10 14 6 15 7 16 90 17 11 18 2 19 1 20 12 21 13 22 14 23
REMARK SMILES IDX 15 24 23 25 24 26 25 27 26 29 27 30 28 31 89 32 29 33 88 34
REMARK SMILES IDX 30 35 31 36 32 37 82 38 33 39 87 40 81 41 83 42 34 43 86 44
REMARK SMILES IDX 80 45 79 46 35 48 67 49 47 50 66 51 48 52 51 53 65 54 84 55
REMARK SMILES IDX 49 56 50 57 64 59 85 60 52 61 36 62 37 63 45 64 38 65 39 66
REMARK SMILES IDX 43 67 46 68 40 69 41 70 44 71 42 72 68 73 69 74 77 75 70 76
REMARK SMILES IDX 71 77 75 78 78 79 72 80 73 81 76 82 74 83 53 84 54 85 62 86
REMARK SMILES IDX 55 87 56 88 60 89 63 90 57 91 58 92 61 93 59 94
REMARK H PARENT 19 7 24 28 83 47 51 58
REMARK Flexibility Score: inf
ROOT
ATOM      1  C   UNL A   1      31.722  28.358  25.679  1.00  0.00     0.023 C 
ENDROOT
BRANCH   1   2
ATOM      2  C   UNL A   1      31.247  28.116  24.244  1.00  0.00     0.023 C 
BRANCH   2   3
ATOM      3  C   UNL A   1      31.246  26.649  23.823  1.00  0.00     0.116 C 
BRANCH   3   4
ATOM      4  N   UNL A   1      31.951  26.439  22.571  1.00  0.00    -0.352 N 
ATOM      5  C   UNL A   1      32.865  25.563  22.089  1.00  0.00     0.251 C 
ATOM      6  O   UNL A   1      33.214  25.763  20.920  1.00  0.00    -0.270 OA
ATOM      7  H   UNL A   1      31.699  27.109  21.895  1.00  0.00     0.163 HD
BRANCH   5   8
ATOM      8  C   UNL A   1      33.453  24.422  22.851  1.00  0.00     0.067 C 
ATOM      9  C   UNL A   1      35.109  21.027  24.725  1.00  0.00     0.018 A 
ATOM     10  C   UNL A   1      34.335  19.864  24.825  1.00  0.00     0.032 A 
ATOM     11  C   UNL A   1      34.569  22.145  24.066  1.00  0.00     0.135 A 
ATOM     12  C   UNL A   1      33.065  19.817  24.251  1.00  0.00     0.042 A 
ATOM     13  C   UNL A   1      33.298  22.094  23.481  1.00  0.00     0.019 A 
ATOM     14  O   UNL A   1      35.354  23.263  23.960  1.00  0.00    -0.475 OA
ATOM     15  Cl  UNL A   1      32.128  18.378  24.376  1.00  0.00    -0.084 Cl
ATOM     16  C   UNL A   1      32.545  20.921  23.575  1.00  0.00     0.032 A 
ATOM     17  C   UNL A   1      32.798  23.250  22.746  1.00  0.00     0.025 C 
ATOM     18  C   UNL A   1      34.668  24.520  23.726  1.00  0.00     0.314 C 
BRANCH   9  19
ATOM     19  C   UNL A   1      36.438  21.101  25.350  1.00  0.00     0.004 C 
ATOM     20  C   UNL A   1      37.530  20.515  24.844  1.00  0.00     0.009 C 
ENDBRANCH   9  19
BRANCH  18  21
ATOM     21  C   UNL A   1      34.374  25.201  25.076  1.00  0.00     0.429 C 
ATOM     22  F   UNL A   1      34.386  26.550  24.938  1.00  0.00    -0.167 F 
ATOM     23  F   UNL A   1      33.153  24.878  25.564  1.00  0.00    -0.167 F 
ATOM     24  F   UNL A   1      35.277  24.882  26.029  1.00  0.00    -0.167 F 
ENDBRANCH  18  21
ENDBRANCH   5   8
ENDBRANCH   3   4
ENDBRANCH   2   3
ENDBRANCH   1   2
BRANCH   1  25
ATOM     25  C   UNL A   1      32.860  29.365  25.831  1.00  0.00     0.116 C 
BRANCH  25  26
ATOM     26  N   UNL A   1      32.450  30.659  26.359  1.00  0.00    -0.352 N 
ATOM     27  C   UNL A   1      33.168  31.499  27.181  1.00  0.00     0.251 C 
ATOM     28  H   UNL A   1      31.554  30.971  26.096  1.00  0.00     0.163 HD
ATOM     29  O   UNL A   1      32.682  32.539  27.607  1.00  0.00    -0.269 OA
BRANCH  27  30
ATOM     30  C   UNL A   1      34.524  31.083  27.590  1.00  0.00     0.039 A 
ATOM     31  C   UNL A   1      34.768  29.756  27.948  1.00  0.00     0.014 A 
ATOM     32  C   UNL A   1      35.517  32.055  27.723  1.00  0.00     0.014 A 
ATOM     33  C   UNL A   1      35.952  29.436  28.600  1.00  0.00     0.010 A 
ATOM     34  C   UNL A   1      36.735  31.715  28.314  1.00  0.00     0.010 A 
ATOM     35  C   UNL A   1      36.937  30.416  28.808  1.00  0.00    -0.014 A 
BRANCH  35  36
ATOM     36  C   UNL A   1      38.157  30.066  29.574  1.00  0.00     0.031 A 
ATOM     37  C   UNL A   1      38.350  30.567  30.978  1.00  0.00     0.074 A 
ATOM     38  C   UNL A   1      39.057  29.232  29.023  1.00  0.00     0.049 A 
ATOM     39  N   UNL A   1      39.342  30.346  31.805  1.00  0.00    -0.248 NA
ATOM     40  C   UNL A   1      37.294  31.430  31.530  1.00  0.00     0.031 C 
ATOM     41  C   UNL A   1      38.959  28.663  27.678  1.00  0.00     0.029 A 
ATOM     42  N   UNL A   1      40.208  28.690  29.534  1.00  0.00    -0.354 N 
ATOM     43  C   UNL A   1      39.041  31.056  32.959  1.00  0.00     0.074 A 
ATOM     44  C   UNL A   1      37.784  31.731  32.725  1.00  0.00     0.031 C 
ATOM     45  C   UNL A   1      39.972  27.804  27.493  1.00  0.00     0.029 A 
ATOM     46  C   UNL A   1      40.821  27.808  28.681  1.00  0.00     0.049 A 
ATOM     47  H   UNL A   1      40.560  28.912  30.427  1.00  0.00     0.167 HD
ATOM     48  C   UNL A   1      39.750  31.128  34.111  1.00  0.00     0.037 A 
ATOM     49  C   UNL A   1      41.944  27.084  28.837  1.00  0.00     0.037 A 
ATOM     50  C   UNL A   1      40.988  30.435  34.350  1.00  0.00     0.049 A 
ATOM     51  C   UNL A   1      42.724  27.205  30.112  1.00  0.00     0.074 A 
ATOM     52  C   UNL A   1      41.779  30.443  35.487  1.00  0.00     0.029 A 
ATOM     53  N   UNL A   1      41.611  29.599  33.436  1.00  0.00    -0.354 N 
ATOM     54  N   UNL A   1      42.444  27.903  31.185  1.00  0.00    -0.248 NA
ATOM     55  C   UNL A   1      43.981  26.450  30.192  1.00  0.00     0.031 C 
ATOM     56  C   UNL A   1      42.896  29.636  35.249  1.00  0.00     0.029 A 
ATOM     57  C   UNL A   1      42.784  29.095  33.979  1.00  0.00     0.049 A 
ATOM     58  H   UNL A   1      41.273  29.393  32.536  1.00  0.00     0.167 HD
ATOM     59  C   UNL A   1      43.488  27.674  32.069  1.00  0.00     0.074 A 
ATOM     60  C   UNL A   1      44.396  26.754  31.415  1.00  0.00     0.031 C 
ATOM     61  C   UNL A   1      43.679  28.188  33.308  1.00  0.00     0.037 A 
BRANCH  48  62
ATOM     62  C   UNL A   1      39.212  32.003  35.206  1.00  0.00     0.064 A 
ATOM     63  C   UNL A   1      38.451  31.476  36.260  1.00  0.00     0.173 A 
ATOM     64  C   UNL A   1      39.507  33.374  35.229  1.00  0.00     0.173 A 
ATOM     65  F   UNL A   1      38.132  30.173  36.275  1.00  0.00    -0.203 F 
ATOM     66  C   UNL A   1      37.995  32.294  37.291  1.00  0.00     0.198 A 
ATOM     67  C   UNL A   1      39.066  34.185  36.272  1.00  0.00     0.198 A 
ATOM     68  F   UNL A   1      40.232  33.926  34.244  1.00  0.00    -0.203 F 
ATOM     69  F   UNL A   1      37.243  31.775  38.272  1.00  0.00    -0.200 F 
ATOM     70  C   UNL A   1      38.308  33.644  37.299  1.00  0.00     0.200 A 
ATOM     71  F   UNL A   1      39.377  35.488  36.283  1.00  0.00    -0.200 F 
ATOM     72  F   UNL A   1      37.875  34.429  38.296  1.00  0.00    -0.200 F 
ENDBRANCH  48  62
BRANCH  49  73
ATOM     73  C   UNL A   1      42.375  26.175  27.748  1.00  0.00     0.064 A 
ATOM     74  C   UNL A   1      41.781  24.916  27.591  1.00  0.00     0.173 A 
ATOM     75  C   UNL A   1      43.336  26.570  26.807  1.00  0.00     0.173 A 
ATOM     76  F   UNL A   1      40.868  24.491  28.478  1.00  0.00    -0.203 F 
ATOM     77  C   UNL A   1      42.130  24.086  26.528  1.00  0.00     0.198 A 
ATOM     78  C   UNL A   1      43.668  25.749  25.732  1.00  0.00     0.198 A 
ATOM     79  F   UNL A   1      43.926  27.769  26.914  1.00  0.00    -0.203 F 
ATOM     80  F   UNL A   1      41.558  22.881  26.406  1.00  0.00    -0.200 F 
ATOM     81  C   UNL A   1      43.065  24.508  25.593  1.00  0.00     0.200 A 
ATOM     82  F   UNL A   1      44.559  26.167  24.822  1.00  0.00    -0.200 F 
ATOM     83  F   UNL A   1      43.383  23.719  24.559  1.00  0.00    -0.200 F 
ENDBRANCH  49  73
BRANCH  61  84
ATOM     84  C   UNL A   1      44.915  27.766  34.041  1.00  0.00     0.064 A 
ATOM     85  C   UNL A   1      44.929  26.611  34.836  1.00  0.00     0.173 A 
ATOM     86  C   UNL A   1      46.107  28.491  33.906  1.00  0.00     0.173 A 
ATOM     87  F   UNL A   1      43.807  25.894  35.004  1.00  0.00    -0.203 F 
ATOM     88  C   UNL A   1      46.093  26.204  35.482  1.00  0.00     0.198 A 
ATOM     89  C   UNL A   1      47.274  28.070  34.538  1.00  0.00     0.198 A 
ATOM     90  F   UNL A   1      46.142  29.600  33.152  1.00  0.00    -0.203 F 
ATOM     91  F   UNL A   1      46.078  25.114  36.261  1.00  0.00    -0.200 F 
ATOM     92  C   UNL A   1      47.264  26.929  35.327  1.00  0.00     0.200 A 
ATOM     93  F   UNL A   1      48.407  28.767  34.382  1.00  0.00    -0.200 F 
ATOM     94  F   UNL A   1      48.385  26.532  35.944  1.00  0.00    -0.200 F 
ENDBRANCH  61  84
ENDBRANCH  35  36
ENDBRANCH  27  30
ENDBRANCH  25  26
ENDBRANCH   1  25
TORSDOF 13
ENDMDL
MODEL 2
REMARK VINA RESULT:     -12.9      2.244      3.472
REMARK SMILES C=Cc1cc(Cl)cc2c1O[C@H](C(F)(F)F)C(C(=O)NCCCCNC(=O)c1ccc(-c3c4nc(c(-c5c(F)c(F)c(F)c(F)c5F)c5ccc([nH]5)c(-c5c(F)c(F)c(F)c(F)c5F)c5nc(c(-c6c(F)c(F)c(F)c(F)c6F)c6ccc3[nH]6)C=C5)C=C4)cc1)=C2
REMARK SMILES IDX 22 1 21 2 20 3 19 4 17 5 18 6 16 8 3 9 4 10 9 11 5 12 8 13
REMARK SMILES IDX 10 14 6 15 7 16 90 17 11 18 2 19 1 20 12 21 13 22 14 23
REMARK SMILES IDX 15 24 23 25 24 26 25 27 26 29 27 30 28 31 89 32 29 33 88 34
REMARK SMILES IDX 30 35 31 36 32 37 82 38 33 39 87 40 81 41 83 42 34 43 86 44
REMARK SMILES IDX 80 45 79 46 35 48 67 49 47 50 66 51 48 52 51 53 65 54 84 55
REMARK SMILES IDX 49 56 50 57 64 59 85 60 52 61 36 62 37 63 45 64 38 65 39 66
REMARK SMILES IDX 43 67 46 68 40 69 41 70 44 71 42 72 68 73 69 74 77 75 70 76
REMARK SMILES IDX 71 77 75 78 78 79 72 80 73 81 76 82 74 83 53 84 54 85 62 86
REMARK SMILES IDX 55 87 56 88 60 89 63 90 57 91 58 92 61 93 59 94
REMARK H PARENT 19 7 24 28 83 47 51 58
REMARK Flexibility Score: inf
ROOT
ATOM      1  C   UNL A   1      31.814  31.750  26.872  1.00  0.00     0.023 C 
ENDROOT
BRANCH   1   2
ATOM      2  C   UNL A   1      32.147  30.264  27.039  1.00  0.00     0.023 C 
BRANCH   2   3
ATOM      3  C   UNL A   1      33.563  29.887  26.614  1.00  0.00     0.116 C 
BRANCH   3   4
ATOM      4  N   UNL A   1      33.647  29.593  25.195  1.00  0.00    -0.352 N 
ATOM      5  C   UNL A   1      33.474  28.509  24.400  1.00  0.00     0.251 C 
ATOM      6  O   UNL A   1      33.661  28.710  23.196  1.00  0.00    -0.270 OA
ATOM      7  H   UNL A   1      33.895  30.390  24.672  1.00  0.00     0.163 HD
BRANCH   5   8
ATOM      8  C   UNL A   1      33.091  27.146  24.872  1.00  0.00     0.067 C 
ATOM      9  C   UNL A   1      32.291  23.283  26.364  1.00  0.00     0.018 A 
ATOM     10  C   UNL A   1      33.104  22.218  25.954  1.00  0.00     0.032 A 
ATOM     11  C   UNL A   1      32.584  24.576  25.895  1.00  0.00     0.135 A 
ATOM     12  C   UNL A   1      34.197  22.452  25.120  1.00  0.00     0.042 A 
ATOM     13  C   UNL A   1      33.687  24.811  25.067  1.00  0.00     0.019 A 
ATOM     14  O   UNL A   1      31.790  25.606  26.329  1.00  0.00    -0.475 OA
ATOM     15  Cl  UNL A   1      35.190  21.134  24.631  1.00  0.00    -0.084 Cl
ATOM     16  C   UNL A   1      34.497  23.741  24.680  1.00  0.00     0.032 A 
ATOM     17  C   UNL A   1      34.000  26.176  24.656  1.00  0.00     0.025 C 
ATOM     18  C   UNL A   1      31.777  26.806  25.513  1.00  0.00     0.314 C 
BRANCH   9  19
ATOM     19  C   UNL A   1      31.119  23.049  27.219  1.00  0.00     0.004 C 
ATOM     20  C   UNL A   1      29.915  22.698  26.749  1.00  0.00     0.009 C 
ENDBRANCH   9  19
BRANCH  18  21
ATOM     21  C   UNL A   1      30.624  26.720  24.496  1.00  0.00     0.429 C 
ATOM     22  F   UNL A   1      29.619  25.950  24.984  1.00  0.00    -0.167 F 
ATOM     23  F   UNL A   1      30.082  27.931  24.224  1.00  0.00    -0.167 F 
ATOM     24  F   UNL A   1      31.008  26.186  23.315  1.00  0.00    -0.167 F 
ENDBRANCH  18  21
ENDBRANCH   5   8
ENDBRANCH   3   4
ENDBRANCH   2   3
ENDBRANCH   1   2
BRANCH   1  25
ATOM     25  C   UNL A   1      32.880  32.720  27.376  1.00  0.00     0.116 C 
BRANCH  25  26
ATOM     26  N   UNL A   1      32.389  34.064  27.644  1.00  0.00    -0.352 N 
ATOM     27  C   UNL A   1      32.886  34.977  28.548  1.00  0.00     0.251 C 
ATOM     28  H   UNL A   1      31.610  34.356  27.117  1.00  0.00     0.163 HD
ATOM     29  O   UNL A   1      32.339  36.060  28.722  1.00  0.00    -0.269 OA
BRANCH  27  30
ATOM     30  C   UNL A   1      34.062  34.595  29.351  1.00  0.00     0.039 A 
ATOM     31  C   UNL A   1      35.348  34.803  28.848  1.00  0.00     0.014 A 
ATOM     32  C   UNL A   1      33.866  33.922  30.559  1.00  0.00     0.014 A 
ATOM     33  C   UNL A   1      36.427  34.187  29.468  1.00  0.00     0.010 A 
ATOM     34  C   UNL A   1      34.963  33.364  31.218  1.00  0.00     0.010 A 
ATOM     35  C   UNL A   1      36.242  33.444  30.646  1.00  0.00    -0.014 A 
BRANCH  35  36
ATOM     36  C   UNL A   1      37.398  32.734  31.244  1.00  0.00     0.031 A 
ATOM     37  C   UNL A   1      37.847  33.046  32.645  1.00  0.00     0.074 A 
ATOM     38  C   UNL A   1      37.996  31.753  30.545  1.00  0.00     0.049 A 
ATOM     39  N   UNL A   1      38.821  32.512  33.338  1.00  0.00    -0.248 NA
ATOM     40  C   UNL A   1      37.106  34.093  33.366  1.00  0.00     0.031 C 
ATOM     41  C   UNL A   1      37.627  31.347  29.188  1.00  0.00     0.029 A 
ATOM     42  N   UNL A   1      39.011  30.899  30.887  1.00  0.00    -0.354 N 
ATOM     43  C   UNL A   1      38.825  33.170  34.561  1.00  0.00     0.074 A 
ATOM     44  C   UNL A   1      37.768  34.156  34.513  1.00  0.00     0.031 C 
ATOM     45  C   UNL A   1      38.362  30.282  28.837  1.00  0.00     0.029 A 
ATOM     46  C   UNL A   1      39.292  29.970  29.917  1.00  0.00     0.049 A 
ATOM     47  H   UNL A   1      39.492  30.946  31.745  1.00  0.00     0.167 HD
ATOM     48  C   UNL A   1      39.635  32.962  35.626  1.00  0.00     0.037 A 
ATOM     49  C   UNL A   1      40.200  28.978  29.900  1.00  0.00     0.037 A 
ATOM     50  C   UNL A   1      40.669  31.963  35.679  1.00  0.00     0.049 A 
ATOM     51  C   UNL A   1      41.103  28.787  31.083  1.00  0.00     0.074 A 
ATOM     52  C   UNL A   1      41.540  31.674  36.716  1.00  0.00     0.029 A 
ATOM     53  N   UNL A   1      40.966  31.081  34.651  1.00  0.00    -0.354 N 
ATOM     54  N   UNL A   1      41.116  29.436  32.221  1.00  0.00    -0.248 NA
ATOM     55  C   UNL A   1      42.124  27.738  30.973  1.00  0.00     0.031 C 
ATOM     56  C   UNL A   1      42.383  30.637  36.305  1.00  0.00     0.029 A 
ATOM     57  C   UNL A   1      42.015  30.255  35.025  1.00  0.00     0.049 A 
ATOM     58  H   UNL A   1      40.502  31.046  33.785  1.00  0.00     0.167 HD
ATOM     59  C   UNL A   1      42.145  28.876  32.964  1.00  0.00     0.074 A 
ATOM     60  C   UNL A   1      42.718  27.820  32.156  1.00  0.00     0.031 C 
ATOM     61  C   UNL A   1      42.578  29.215  34.203  1.00  0.00     0.037 A 
BRANCH  48  62
ATOM     62  C   UNL A   1      39.447  33.843  36.826  1.00  0.00     0.064 A 
ATOM     63  C   UNL A   1      38.662  33.442  37.917  1.00  0.00     0.173 A 
ATOM     64  C   UNL A   1      40.103  35.081  36.908  1.00  0.00     0.173 A 
ATOM     65  F   UNL A   1      38.003  32.274  37.880  1.00  0.00    -0.203 F 
ATOM     66  C   UNL A   1      38.532  34.253  39.042  1.00  0.00     0.198 A 
ATOM     67  C   UNL A   1      39.988  35.880  38.043  1.00  0.00     0.198 A 
ATOM     68  F   UNL A   1      40.867  35.509  35.892  1.00  0.00    -0.203 F 
ATOM     69  F   UNL A   1      37.752  33.864  40.060  1.00  0.00    -0.200 F 
ATOM     70  C   UNL A   1      39.200  35.467  39.106  1.00  0.00     0.200 A 
ATOM     71  F   UNL A   1      40.640  37.049  38.107  1.00  0.00    -0.200 F 
ATOM     72  F   UNL A   1      39.079  36.243  40.192  1.00  0.00    -0.200 F 
ENDBRANCH  48  62
BRANCH  49  73
ATOM     73  C   UNL A   1      40.277  28.089  28.716  1.00  0.00     0.064 A 
ATOM     74  C   UNL A   1      41.026  28.460  27.591  1.00  0.00     0.173 A 
ATOM     75  C   UNL A   1      39.661  26.829  28.709  1.00  0.00     0.173 A 
ATOM     76  F   UNL A   1      41.617  29.663  27.548  1.00  0.00    -0.203 F 
ATOM     77  C   UNL A   1      41.160  27.599  26.504  1.00  0.00     0.198 A 
ATOM     78  C   UNL A   1      39.815  25.960  27.632  1.00  0.00     0.198 A 
ATOM     79  F   UNL A   1      38.940  26.430  29.767  1.00  0.00    -0.203 F 
ATOM     80  F   UNL A   1      41.870  27.980  25.434  1.00  0.00    -0.200 F 
ATOM     81  C   UNL A   1      40.564  26.346  26.530  1.00  0.00     0.200 A 
ATOM     82  F   UNL A   1      39.252  24.745  27.668  1.00  0.00    -0.200 F 
ATOM     83  F   UNL A   1      40.713  25.510  25.495  1.00  0.00    -0.200 F 
ENDBRANCH  49  73
BRANCH  61  84
ATOM     84  C   UNL A   1      43.728  28.435  34.762  1.00  0.00     0.064 A 
ATOM     85  C   UNL A   1      43.520  27.234  35.455  1.00  0.00     0.173 A 
ATOM     86  C   UNL A   1      45.047  28.863  34.559  1.00  0.00     0.173 A 
ATOM     87  F   UNL A   1      42.273  26.794  35.684  1.00  0.00    -0.203 F 
ATOM     88  C   UNL A   1      44.596  26.495  35.938  1.00  0.00     0.198 A 
ATOM     89  C   UNL A   1      46.121  28.111  35.026  1.00  0.00     0.198 A 
ATOM     90  F   UNL A   1      45.293  30.004  33.898  1.00  0.00    -0.203 F 
ATOM     91  F   UNL A   1      44.376  25.365  36.624  1.00  0.00    -0.200 F 
ATOM     92  C   UNL A   1      45.894  26.930  35.718  1.00  0.00     0.200 A 
ATOM     93  F   UNL A   1      47.375  28.529  34.807  1.00  0.00    -0.200 F 
ATOM     94  F   UNL A   1      46.929  26.214  36.177  1.00  0.00    -0.200 F 
ENDBRANCH  61  84
ENDBRANCH  35  36
ENDBRANCH  27  30
ENDBRANCH  25  26
ENDBRANCH   1  25
TORSDOF 13
ENDMDL
MODEL 3
REMARK VINA RESULT:     -12.9      2.242      3.623
REMARK SMILES C=Cc1cc(Cl)cc2c1O[C@H](C(F)(F)F)C(C(=O)NCCCCNC(=O)c1ccc(-c3c4nc(c(-c5c(F)c(F)c(F)c(F)c5F)c5ccc([nH]5)c(-c5c(F)c(F)c(F)c(F)c5F)c5nc(c(-c6c(F)c(F)c(F)c(F)c6F)c6ccc3[nH]6)C=C5)C=C4)cc1)=C2
REMARK SMILES IDX 22 1 21 2 20 3 19 4 17 5 18 6 16 8 3 9 4 10 9 11 5 12 8 13
REMARK SMILES IDX 10 14 6 15 7 16 90 17 11 18 2 19 1 20 12 21 13 22 14 23
REMARK SMILES IDX 15 24 23 25 24 26 25 27 26 29 27 30 28 31 89 32 29 33 88 34
REMARK SMILES IDX 30 35 31 36 32 37 82 38 33 39 87 40 81 41 83 42 34 43 86 44
REMARK SMILES IDX 80 45 79 46 35 48 67 49 47 50 66 51 48 52 51 53 65 54 84 55
REMARK SMILES IDX 49 56 50 57 64 59 85 60 52 61 36 62 37 63 45 64 38 65 39 66
REMARK SMILES IDX 43 67 46 68 40 69 41 70 44 71 42 72 68 73 69 74 77 75 70 76
REMARK SMILES IDX 71 77 75 78 78 79 72 80 73 81 76 82 74 83 53 84 54 85 62 86
REMARK SMILES IDX 55 87 56 88 60 89 63 90 57 91 58 92 61 93 59 94
REMARK H PARENT 19 7 24 28 83 47 51 58
REMARK Flexibility Score: inf
ROOT
ATOM      1  C   UNL A   1      31.928  31.622  26.867  1.00  0.00     0.023 C 
ENDROOT
BRANCH   1   2
ATOM      2  C   UNL A   1      32.233  30.125  26.981  1.00  0.00     0.023 C 
BRANCH   2   3
ATOM      3  C   UNL A   1      33.617  29.727  26.476  1.00  0.00     0.116 C 
BRANCH   3   4
ATOM      4  N   UNL A   1      33.653  29.594  25.030  1.00  0.00    -0.352 N 
ATOM      5  C   UNL A   1      33.436  28.611  24.125  1.00  0.00     0.251 C 
ATOM      6  O   UNL A   1      33.590  28.943  22.945  1.00  0.00    -0.270 OA
ATOM      7  H   UNL A   1      33.900  30.441  24.593  1.00  0.00     0.163 HD
BRANCH   5   8
ATOM      8  C   UNL A   1      33.040  27.209  24.451  1.00  0.00     0.067 C 
ATOM      9  C   UNL A   1      32.059  23.291  25.666  1.00  0.00     0.018 A 
ATOM     10  C   UNL A   1      33.095  22.380  25.910  1.00  0.00     0.032 A 
ATOM     11  C   UNL A   1      32.390  24.608  25.298  1.00  0.00     0.135 A 
ATOM     12  C   UNL A   1      34.425  22.789  25.816  1.00  0.00     0.042 A 
ATOM     13  C   UNL A   1      33.724  25.020  25.215  1.00  0.00     0.019 A 
ATOM     14  O   UNL A   1      31.360  25.488  25.088  1.00  0.00    -0.475 OA
ATOM     15  Cl  UNL A   1      35.686  21.659  26.126  1.00  0.00    -0.084 Cl
ATOM     16  C   UNL A   1      34.746  24.103  25.477  1.00  0.00     0.032 A 
ATOM     17  C   UNL A   1      34.028  26.412  24.898  1.00  0.00     0.025 C 
ATOM     18  C   UNL A   1      31.657  26.653  24.275  1.00  0.00     0.314 C 
BRANCH   9  19
ATOM     19  C   UNL A   1      30.653  22.867  25.732  1.00  0.00     0.004 C 
ATOM     20  C   UNL A   1      29.970  22.737  26.877  1.00  0.00     0.009 C 
ENDBRANCH   9  19
BRANCH  18  21
ATOM     21  C   UNL A   1      31.322  26.348  22.803  1.00  0.00     0.429 C 
ATOM     22  F   UNL A   1      30.601  27.363  22.263  1.00  0.00    -0.167 F 
ATOM     23  F   UNL A   1      32.429  26.214  22.037  1.00  0.00    -0.167 F 
ATOM     24  F   UNL A   1      30.600  25.215  22.656  1.00  0.00    -0.167 F 
ENDBRANCH  18  21
ENDBRANCH   5   8
ENDBRANCH   3   4
ENDBRANCH   2   3
ENDBRANCH   1   2
BRANCH   1  25
ATOM     25  C   UNL A   1      32.979  32.552  27.467  1.00  0.00     0.116 C 
BRANCH  25  26
ATOM     26  N   UNL A   1      32.515  33.913  27.699  1.00  0.00    -0.352 N 
ATOM     27  C   UNL A   1      33.042  34.847  28.563  1.00  0.00     0.251 C 
ATOM     28  H   UNL A   1      31.732  34.200  27.175  1.00  0.00     0.163 HD
ATOM     29  O   UNL A   1      32.516  35.943  28.710  1.00  0.00    -0.269 OA
BRANCH  27  30
ATOM     30  C   UNL A   1      34.225  34.471  29.359  1.00  0.00     0.039 A 
ATOM     31  C   UNL A   1      35.504  34.610  28.816  1.00  0.00     0.014 A 
ATOM     32  C   UNL A   1      34.039  33.872  30.606  1.00  0.00     0.014 A 
ATOM     33  C   UNL A   1      36.579  33.994  29.443  1.00  0.00     0.010 A 
ATOM     34  C   UNL A   1      35.134  33.316  31.270  1.00  0.00     0.010 A 
ATOM     35  C   UNL A   1      36.400  33.324  30.665  1.00  0.00    -0.014 A 
BRANCH  35  36
ATOM     36  C   UNL A   1      37.548  32.611  31.275  1.00  0.00     0.031 A 
ATOM     37  C   UNL A   1      37.993  32.932  32.675  1.00  0.00     0.074 A 
ATOM     38  C   UNL A   1      38.142  31.620  30.588  1.00  0.00     0.049 A 
ATOM     39  N   UNL A   1      38.961  32.398  33.377  1.00  0.00    -0.248 NA
ATOM     40  C   UNL A   1      37.257  33.992  33.383  1.00  0.00     0.031 C 
ATOM     41  C   UNL A   1      37.777  31.204  29.233  1.00  0.00     0.029 A 
ATOM     42  N   UNL A   1      39.150  30.761  30.942  1.00  0.00    -0.354 N 
ATOM     43  C   UNL A   1      38.964  33.068  34.594  1.00  0.00     0.074 A 
ATOM     44  C   UNL A   1      37.914  34.061  34.533  1.00  0.00     0.031 C 
ATOM     45  C   UNL A   1      38.506  30.130  28.895  1.00  0.00     0.029 A 
ATOM     46  C   UNL A   1      39.428  29.821  29.982  1.00  0.00     0.049 A 
ATOM     47  H   UNL A   1      39.627  30.813  31.802  1.00  0.00     0.167 HD
ATOM     48  C   UNL A   1      39.767  32.864  35.665  1.00  0.00     0.037 A 
ATOM     49  C   UNL A   1      40.329  28.822  29.978  1.00  0.00     0.037 A 
ATOM     50  C   UNL A   1      40.794  31.857  35.732  1.00  0.00     0.049 A 
ATOM     51  C   UNL A   1      41.225  28.636  31.167  1.00  0.00     0.074 A 
ATOM     52  C   UNL A   1      41.658  31.572  36.776  1.00  0.00     0.029 A 
ATOM     53  N   UNL A   1      41.089  30.964  34.714  1.00  0.00    -0.354 N 
ATOM     54  N   UNL A   1      41.237  29.295  32.299  1.00  0.00    -0.248 NA
ATOM     55  C   UNL A   1      42.239  27.579  31.071  1.00  0.00     0.031 C 
ATOM     56  C   UNL A   1      42.495  30.525  36.377  1.00  0.00     0.029 A 
ATOM     57  C   UNL A   1      42.130  30.134  35.100  1.00  0.00     0.049 A 
ATOM     58  H   UNL A   1      40.628  30.924  33.845  1.00  0.00     0.167 HD
ATOM     59  C   UNL A   1      42.259  28.735  33.053  1.00  0.00     0.074 A 
ATOM     60  C   UNL A   1      42.828  27.667  32.257  1.00  0.00     0.031 C 
ATOM     61  C   UNL A   1      42.689  29.083  34.289  1.00  0.00     0.037 A 
BRANCH  48  62
ATOM     62  C   UNL A   1      39.580  33.757  36.856  1.00  0.00     0.064 A 
ATOM     63  C   UNL A   1      40.168  35.029  36.919  1.00  0.00     0.173 A 
ATOM     64  C   UNL A   1      38.760  33.359  37.922  1.00  0.00     0.173 A 
ATOM     65  F   UNL A   1      40.972  35.450  35.931  1.00  0.00    -0.203 F 
ATOM     66  C   UNL A   1      39.951  35.865  38.012  1.00  0.00     0.198 A 
ATOM     67  C   UNL A   1      38.528  34.204  39.004  1.00  0.00     0.198 A 
ATOM     68  F   UNL A   1      38.173  32.152  37.908  1.00  0.00    -0.203 F 
ATOM     69  F   UNL A   1      40.548  37.063  38.066  1.00  0.00    -0.200 F 
ATOM     70  C   UNL A   1      39.127  35.454  39.049  1.00  0.00     0.200 A 
ATOM     71  F   UNL A   1      37.725  33.810  40.001  1.00  0.00    -0.200 F 
ATOM     72  F   UNL A   1      38.913  36.262  40.097  1.00  0.00    -0.200 F 
ENDBRANCH  48  62
BRANCH  49  73
ATOM     73  C   UNL A   1      40.404  27.922  28.803  1.00  0.00     0.064 A 
ATOM     74  C   UNL A   1      39.653  26.739  28.759  1.00  0.00     0.173 A 
ATOM     75  C   UNL A   1      41.172  28.255  27.678  1.00  0.00     0.173 A 
ATOM     76  F   UNL A   1      38.918  26.374  29.819  1.00  0.00    -0.203 F 
ATOM     77  C   UNL A   1      39.664  25.925  27.628  1.00  0.00     0.198 A 
ATOM     78  C   UNL A   1      41.164  27.453  26.540  1.00  0.00     0.198 A 
ATOM     79  F   UNL A   1      41.901  29.380  27.673  1.00  0.00    -0.203 F 
ATOM     80  F   UNL A   1      38.948  24.793  27.614  1.00  0.00    -0.200 F 
ATOM     81  C   UNL A   1      40.410  26.289  26.516  1.00  0.00     0.200 A 
ATOM     82  F   UNL A   1      41.872  27.815  25.462  1.00  0.00    -0.200 F 
ATOM     83  F   UNL A   1      40.402  25.517  25.421  1.00  0.00    -0.200 F 
ENDBRANCH  49  73
BRANCH  61  84
ATOM     84  C   UNL A   1      43.830  28.299  34.861  1.00  0.00     0.064 A 
ATOM     85  C   UNL A   1      45.155  28.733  34.713  1.00  0.00     0.173 A 
ATOM     86  C   UNL A   1      43.595  27.134  35.605  1.00  0.00     0.173 A 
ATOM     87  F   UNL A   1      45.427  29.835  33.997  1.00  0.00    -0.203 F 
ATOM     88  C   UNL A   1      46.207  28.020  35.280  1.00  0.00     0.198 A 
ATOM     89  C   UNL A   1      44.648  26.435  36.187  1.00  0.00     0.198 A 
ATOM     90  F   UNL A   1      42.343  26.684  35.776  1.00  0.00    -0.203 F 
ATOM     91  F   UNL A   1      47.469  28.435  35.102  1.00  0.00    -0.200 F 
ATOM     92  C   UNL A   1      45.952  26.876  36.021  1.00  0.00     0.200 A 
ATOM     93  F   UNL A   1      44.400  25.334  36.910  1.00  0.00    -0.200 F 
ATOM     94  F   UNL A   1      46.966  26.195  36.572  1.00  0.00    -0.200 F 
ENDBRANCH  61  84
ENDBRANCH  35  36
ENDBRANCH  27  30
ENDBRANCH  25  26
ENDBRANCH   1  25
TORSDOF 13
ENDMDL
