MODEL 1
REMARK VINA RESULT:     -12.9      0.000      0.000
REMARK SMILES COc1ccc(C[NH2+]Cc2cccn2-c2sc(C)c(C)c2C(=O)NCCCCNC(=O)c2ccc(-c3c4nc(c(-c5c(F)c(F)c(F)c(F)c5F)c5ccc([nH]5)c(-c5c(F)c(F)c(F)c(F)c5F)c5nc(c(-c6c(F)c(F)c(F)c(F)c6F)c6ccc3[nH]6)C=C5)C=C4)cc2)cc1
REMARK SMILES IDX 22 1 23 2 24 3 21 5 15 6 16 7 17 8 19 9 18 10 20 11 14 12
REMARK SMILES IDX 10 13 11 14 12 15 13 16 9 17 8 18 7 21 6 22 3 23 4 24 96 25
REMARK SMILES IDX 5 26 95 27 2 28 1 29 25 30 26 31 27 32 28 33 29 34 30 35
REMARK SMILES IDX 31 37 32 38 33 39 94 40 34 41 93 42 35 43 36 44 37 45 87 46
REMARK SMILES IDX 38 47 92 48 86 49 88 50 39 51 91 52 85 53 84 54 40 56 72 57
REMARK SMILES IDX 52 58 71 59 53 60 56 61 70 62 89 63 54 64 55 65 69 67 90 68
REMARK SMILES IDX 57 69 41 70 42 71 50 72 43 73 44 74 48 75 51 76 45 77 46 78
REMARK SMILES IDX 49 79 47 80 73 81 74 82 82 83 75 84 76 85 80 86 83 87 77 88
REMARK SMILES IDX 78 89 81 90 79 91 58 92 59 93 67 94 60 95 61 96 65 97 68 98
REMARK SMILES IDX 62 99 63 100 66 101 64 102
REMARK H PARENT 24 4 8 19 8 20 29 36 88 55 56 66
REMARK Flexibility Score: inf
ROOT
ATOM      1  C   UNL A   1      32.151  27.396  22.960  1.00  0.00     0.254 C 
ATOM      2  O   UNL A   1      32.611  26.820  21.971  1.00  0.00    -0.269 OA
ATOM      3  N   UNL A   1      33.097  27.979  23.788  1.00  0.00    -0.352 N 
ATOM      4  H   UNL A   1      34.033  27.758  23.581  1.00  0.00     0.163 HD
ENDROOT
BRANCH   1   5
ATOM      5  C   UNL A   1      30.690  27.352  23.247  1.00  0.00     0.078 A 
ATOM      6  C   UNL A   1      29.940  26.426  23.962  1.00  0.00     0.113 A 
ATOM      7  S   UNL A   1      28.268  26.708  23.973  1.00  0.00    -0.122 S 
ATOM      8  C   UNL A   1      28.448  28.179  23.137  1.00  0.00     0.007 A 
ATOM      9  C   UNL A   1      29.769  28.417  22.783  1.00  0.00    -0.022 A 
ATOM     10  C   UNL A   1      27.244  29.032  22.886  1.00  0.00     0.057 C 
ATOM     11  C   UNL A   1      30.208  29.633  22.014  1.00  0.00     0.046 C 
BRANCH   6  12
ATOM     12  N   UNL A   1      30.353  25.393  24.806  1.00  0.00    -0.306 N 
ATOM     13  C   UNL A   1      30.830  24.115  24.455  1.00  0.00     0.078 A 
ATOM     14  C   UNL A   1      31.219  23.496  25.637  1.00  0.00     0.029 A 
ATOM     15  C   UNL A   1      30.950  24.365  26.716  1.00  0.00     0.020 A 
ATOM     16  C   UNL A   1      30.429  25.517  26.183  1.00  0.00     0.092 A 
BRANCH  13  17
ATOM     17  C   UNL A   1      30.939  23.652  23.019  1.00  0.00     0.316 C 
BRANCH  17  18
ATOM     18  N   UNL A   1      32.257  23.847  22.409  1.00  0.00    -0.338 N 
ATOM     19  H   UNL A   1      32.129  24.299  21.503  1.00  0.00     0.346 HD
ATOM     20  H   UNL A   1      32.803  24.418  23.055  1.00  0.00     0.346 HD
BRANCH  18  21
ATOM     21  C   UNL A   1      33.000  22.613  22.204  1.00  0.00     0.297 C 
BRANCH  21  22
ATOM     22  C   UNL A   1      34.175  22.469  23.148  1.00  0.00     0.006 A 
ATOM     23  C   UNL A   1      36.231  22.431  25.069  1.00  0.00     0.118 A 
ATOM     24  C   UNL A   1      35.103  21.630  25.234  1.00  0.00     0.047 A 
ATOM     25  C   UNL A   1      36.379  23.184  23.905  1.00  0.00     0.047 A 
ATOM     26  C   UNL A   1      34.080  21.648  24.280  1.00  0.00     0.013 A 
ATOM     27  C   UNL A   1      35.356  23.204  22.948  1.00  0.00     0.013 A 
BRANCH  23  28
ATOM     28  O   UNL A   1      37.164  22.388  26.070  1.00  0.00    -0.497 OA
ATOM     29  C   UNL A   1      38.380  21.747  25.685  1.00  0.00     0.278 C 
ENDBRANCH  23  28
ENDBRANCH  21  22
ENDBRANCH  18  21
ENDBRANCH  17  18
ENDBRANCH  13  17
ENDBRANCH   6  12
ENDBRANCH   1   5
BRANCH   3  30
ATOM     30  C   UNL A   1      32.905  28.860  24.907  1.00  0.00     0.116 C 
BRANCH  30  31
ATOM     31  C   UNL A   1      32.688  28.281  26.297  1.00  0.00     0.023 C 
BRANCH  31  32
ATOM     32  C   UNL A   1      33.651  28.687  27.410  1.00  0.00     0.023 C 
BRANCH  32  33
ATOM     33  C   UNL A   1      35.070  29.066  26.978  1.00  0.00     0.116 C 
BRANCH  33  34
ATOM     34  N   UNL A   1      35.467  30.407  27.384  1.00  0.00    -0.352 N 
ATOM     35  C   UNL A   1      36.584  30.780  28.092  1.00  0.00     0.251 C 
ATOM     36  H   UNL A   1      34.860  31.136  27.120  1.00  0.00     0.163 HD
ATOM     37  O   UNL A   1      36.643  31.901  28.607  1.00  0.00    -0.269 OA
BRANCH  35  38
ATOM     38  C   UNL A   1      37.722  29.851  28.249  1.00  0.00     0.039 A 
ATOM     39  C   UNL A   1      38.680  29.756  27.230  1.00  0.00     0.014 A 
ATOM     40  C   UNL A   1      37.813  29.032  29.380  1.00  0.00     0.014 A 
ATOM     41  C   UNL A   1      39.767  28.896  27.382  1.00  0.00     0.010 A 
ATOM     42  C   UNL A   1      38.904  28.187  29.544  1.00  0.00     0.010 A 
ATOM     43  C   UNL A   1      39.891  28.134  28.554  1.00  0.00    -0.014 A 
BRANCH  43  44
ATOM     44  C   UNL A   1      41.177  27.456  28.839  1.00  0.00     0.031 A 
ATOM     45  C   UNL A   1      41.177  26.020  28.239  1.00  0.00     0.074 A 
ATOM     46  C   UNL A   1      42.114  28.162  29.553  1.00  0.00     0.049 A 
ATOM     47  N   UNL A   1      41.815  24.958  28.620  1.00  0.00    -0.248 NA
ATOM     48  C   UNL A   1      40.285  25.697  27.085  1.00  0.00     0.031 C 
ATOM     49  C   UNL A   1      41.955  29.567  30.002  1.00  0.00     0.029 A 
ATOM     50  N   UNL A   1      43.376  27.876  30.048  1.00  0.00    -0.354 N 
ATOM     51  C   UNL A   1      41.575  23.929  27.674  1.00  0.00     0.074 A 
ATOM     52  C   UNL A   1      40.529  24.407  26.827  1.00  0.00     0.031 C 
ATOM     53  C   UNL A   1      43.008  29.969  30.752  1.00  0.00     0.029 A 
ATOM     54  C   UNL A   1      43.968  28.888  30.866  1.00  0.00     0.049 A 
ATOM     55  H   UNL A   1      43.837  27.029  29.848  1.00  0.00     0.167 HD
ATOM     56  C   UNL A   1      42.380  22.824  27.569  1.00  0.00     0.037 A 
ATOM     57  C   UNL A   1      45.122  28.836  31.611  1.00  0.00     0.037 A 
ATOM     58  C   UNL A   1      43.402  22.915  28.552  1.00  0.00     0.049 A 
ATOM     59  C   UNL A   1      45.744  27.572  31.224  1.00  0.00     0.074 A 
ATOM     60  C   UNL A   1      43.371  22.825  29.918  1.00  0.00     0.029 A 
ATOM     61  N   UNL A   1      44.560  23.536  28.154  1.00  0.00    -0.354 N 
ATOM     62  N   UNL A   1      46.350  27.372  30.094  1.00  0.00    -0.248 NA
ATOM     63  C   UNL A   1      45.656  26.436  32.148  1.00  0.00     0.031 C 
ATOM     64  C   UNL A   1      44.234  23.865  30.304  1.00  0.00     0.029 A 
ATOM     65  C   UNL A   1      44.978  24.305  29.200  1.00  0.00     0.049 A 
ATOM     66  H   UNL A   1      45.004  23.445  27.279  1.00  0.00     0.167 HD
ATOM     67  C   UNL A   1      46.377  26.004  30.040  1.00  0.00     0.074 A 
ATOM     68  C   UNL A   1      46.267  25.519  31.401  1.00  0.00     0.031 C 
ATOM     69  C   UNL A   1      45.862  25.407  28.936  1.00  0.00     0.037 A 
BRANCH  56  70
ATOM     70  C   UNL A   1      42.600  21.765  26.515  1.00  0.00     0.064 A 
ATOM     71  C   UNL A   1      42.147  20.446  26.805  1.00  0.00     0.173 A 
ATOM     72  C   UNL A   1      43.549  21.875  25.495  1.00  0.00     0.173 A 
ATOM     73  F   UNL A   1      41.188  20.231  27.720  1.00  0.00    -0.203 F 
ATOM     74  C   UNL A   1      42.748  19.316  26.253  1.00  0.00     0.198 A 
ATOM     75  C   UNL A   1      44.107  20.736  24.900  1.00  0.00     0.198 A 
ATOM     76  F   UNL A   1      44.035  23.066  25.127  1.00  0.00    -0.203 F 
ATOM     77  F   UNL A   1      42.414  18.096  26.697  1.00  0.00    -0.200 F 
ATOM     78  C   UNL A   1      43.746  19.463  25.315  1.00  0.00     0.200 A 
ATOM     79  F   UNL A   1      45.067  20.879  23.975  1.00  0.00    -0.200 F 
ATOM     80  F   UNL A   1      44.386  18.387  24.839  1.00  0.00    -0.200 F 
ENDBRANCH  56  70
BRANCH  57  81
ATOM     81  C   UNL A   1      45.889  29.582  32.694  1.00  0.00     0.064 A 
ATOM     82  C   UNL A   1      45.510  29.726  34.030  1.00  0.00     0.173 A 
ATOM     83  C   UNL A   1      47.209  30.064  32.412  1.00  0.00     0.173 A 
ATOM     84  F   UNL A   1      44.265  29.436  34.424  1.00  0.00    -0.203 F 
ATOM     85  C   UNL A   1      46.422  30.171  35.014  1.00  0.00     0.198 A 
ATOM     86  C   UNL A   1      48.131  30.425  33.391  1.00  0.00     0.198 A 
ATOM     87  F   UNL A   1      47.668  30.178  31.157  1.00  0.00    -0.203 F 
ATOM     88  F   UNL A   1      46.021  30.286  36.288  1.00  0.00    -0.200 F 
ATOM     89  C   UNL A   1      47.742  30.460  34.704  1.00  0.00     0.200 A 
ATOM     90  F   UNL A   1      49.398  30.701  33.044  1.00  0.00    -0.200 F 
ATOM     91  F   UNL A   1      48.628  30.778  35.658  1.00  0.00    -0.200 F 
ENDBRANCH  57  81
BRANCH  69  92
ATOM     92  C   UNL A   1      45.959  26.243  27.669  1.00  0.00     0.064 A 
ATOM     93  C   UNL A   1      44.783  26.568  26.968  1.00  0.00     0.173 A 
ATOM     94  C   UNL A   1      47.162  26.625  27.052  1.00  0.00     0.173 A 
ATOM     95  F   UNL A   1      43.587  26.269  27.497  1.00  0.00    -0.203 F 
ATOM     96  C   UNL A   1      44.812  27.194  25.718  1.00  0.00     0.198 A 
ATOM     97  C   UNL A   1      47.195  27.258  25.803  1.00  0.00     0.198 A 
ATOM     98  F   UNL A   1      48.333  26.395  27.641  1.00  0.00    -0.203 F 
ATOM     99  F   UNL A   1      43.665  27.469  25.083  1.00  0.00    -0.200 F 
ATOM    100  C   UNL A   1      46.019  27.535  25.133  1.00  0.00     0.200 A 
ATOM    101  F   UNL A   1      48.372  27.600  25.255  1.00  0.00    -0.200 F 
ATOM    102  F   UNL A   1      46.046  28.146  23.940  1.00  0.00    -0.200 F 
ENDBRANCH  69  92
ENDBRANCH  43  44
ENDBRANCH  35  38
ENDBRANCH  33  34
ENDBRANCH  32  33
ENDBRANCH  31  32
ENDBRANCH  30  31
ENDBRANCH   3  30
TORSDOF 17
ENDMDL
MODEL 2
REMARK VINA RESULT:     -12.6      1.169      2.050
REMARK SMILES COc1ccc(C[NH2+]Cc2cccn2-c2sc(C)c(C)c2C(=O)NCCCCNC(=O)c2ccc(-c3c4nc(c(-c5c(F)c(F)c(F)c(F)c5F)c5ccc([nH]5)c(-c5c(F)c(F)c(F)c(F)c5F)c5nc(c(-c6c(F)c(F)c(F)c(F)c6F)c6ccc3[nH]6)C=C5)C=C4)cc2)cc1
REMARK SMILES IDX 22 1 23 2 24 3 21 5 15 6 16 7 17 8 19 9 18 10 20 11 14 12
REMARK SMILES IDX 10 13 11 14 12 15 13 16 9 17 8 18 7 21 6 22 3 23 4 24 96 25
REMARK SMILES IDX 5 26 95 27 2 28 1 29 25 30 26 31 27 32 28 33 29 34 30 35
REMARK SMILES IDX 31 37 32 38 33 39 94 40 34 41 93 42 35 43 36 44 37 45 87 46
REMARK SMILES IDX 38 47 92 48 86 49 88 50 39 51 91 52 85 53 84 54 40 56 72 57
REMARK SMILES IDX 52 58 71 59 53 60 56 61 70 62 89 63 54 64 55 65 69 67 90 68
REMARK SMILES IDX 57 69 41 70 42 71 50 72 43 73 44 74 48 75 51 76 45 77 46 78
REMARK SMILES IDX 49 79 47 80 73 81 74 82 82 83 75 84 76 85 80 86 83 87 77 88
REMARK SMILES IDX 78 89 81 90 79 91 58 92 59 93 67 94 60 95 61 96 65 97 68 98
REMARK SMILES IDX 62 99 63 100 66 101 64 102
REMARK H PARENT 24 4 8 19 8 20 29 36 88 55 56 66
REMARK Flexibility Score: inf
ROOT
ATOM      1  C   UNL A   1      32.328  27.272  22.987  1.00  0.00     0.254 C 
ATOM      2  O   UNL A   1      32.774  26.718  21.978  1.00  0.00    -0.269 OA
ATOM      3  N   UNL A   1      33.288  27.765  23.855  1.00  0.00    -0.352 N 
ATOM      4  H   UNL A   1      34.214  27.505  23.652  1.00  0.00     0.163 HD
ENDROOT
BRANCH   1   5
ATOM      5  C   UNL A   1      30.861  27.291  23.250  1.00  0.00     0.078 A 
ATOM      6  C   UNL A   1      30.057  26.388  23.933  1.00  0.00     0.113 A 
ATOM      7  S   UNL A   1      28.400  26.749  23.923  1.00  0.00    -0.122 S 
ATOM      8  C   UNL A   1      28.663  28.226  23.122  1.00  0.00     0.007 A 
ATOM      9  C   UNL A   1      30.000  28.408  22.794  1.00  0.00    -0.022 A 
ATOM     10  C   UNL A   1      27.505  29.141  22.871  1.00  0.00     0.057 C 
ATOM     11  C   UNL A   1      30.508  29.618  22.058  1.00  0.00     0.046 C 
BRANCH   6  12
ATOM     12  N   UNL A   1      30.405  25.318  24.761  1.00  0.00    -0.306 N 
ATOM     13  C   UNL A   1      30.834  24.029  24.390  1.00  0.00     0.078 A 
ATOM     14  C   UNL A   1      31.170  23.368  25.565  1.00  0.00     0.029 A 
ATOM     15  C   UNL A   1      30.916  24.223  26.658  1.00  0.00     0.020 A 
ATOM     16  C   UNL A   1      30.457  25.409  26.141  1.00  0.00     0.092 A 
BRANCH  13  17
ATOM     17  C   UNL A   1      30.955  23.594  22.946  1.00  0.00     0.316 C 
BRANCH  17  18
ATOM     18  N   UNL A   1      32.247  23.892  22.320  1.00  0.00    -0.338 N 
ATOM     19  H   UNL A   1      32.088  24.086  21.331  1.00  0.00     0.346 HD
ATOM     20  H   UNL A   1      32.641  24.691  22.816  1.00  0.00     0.346 HD
BRANCH  18  21
ATOM     21  C   UNL A   1      33.215  22.810  22.425  1.00  0.00     0.297 C 
BRANCH  21  22
ATOM     22  C   UNL A   1      34.449  23.199  23.212  1.00  0.00     0.006 A 
ATOM     23  C   UNL A   1      36.724  23.644  24.808  1.00  0.00     0.118 A 
ATOM     24  C   UNL A   1      36.855  23.067  23.545  1.00  0.00     0.047 A 
ATOM     25  C   UNL A   1      35.473  24.081  25.240  1.00  0.00     0.047 A 
ATOM     26  C   UNL A   1      35.725  22.846  22.751  1.00  0.00     0.013 A 
ATOM     27  C   UNL A   1      34.340  23.861  24.447  1.00  0.00     0.013 A 
BRANCH  23  28
ATOM     28  O   UNL A   1      37.873  23.784  25.538  1.00  0.00    -0.497 OA
ATOM     29  C   UNL A   1      38.194  22.632  26.317  1.00  0.00     0.278 C 
ENDBRANCH  23  28
ENDBRANCH  21  22
ENDBRANCH  18  21
ENDBRANCH  17  18
ENDBRANCH  13  17
ENDBRANCH   6  12
ENDBRANCH   1   5
BRANCH   3  30
ATOM     30  C   UNL A   1      33.123  28.603  25.011  1.00  0.00     0.116 C 
BRANCH  30  31
ATOM     31  C   UNL A   1      32.925  27.971  26.381  1.00  0.00     0.023 C 
BRANCH  31  32
ATOM     32  C   UNL A   1      33.580  28.639  27.588  1.00  0.00     0.023 C 
BRANCH  32  33
ATOM     33  C   UNL A   1      34.925  29.326  27.339  1.00  0.00     0.116 C 
BRANCH  33  34
ATOM     34  N   UNL A   1      35.135  30.514  28.157  1.00  0.00    -0.352 N 
ATOM     35  C   UNL A   1      36.119  30.734  29.091  1.00  0.00     0.251 C 
ATOM     36  H   UNL A   1      34.493  31.248  28.024  1.00  0.00     0.163 HD
ATOM     37  O   UNL A   1      36.004  31.658  29.902  1.00  0.00    -0.269 OA
BRANCH  35  38
ATOM     38  C   UNL A   1      37.318  29.872  29.140  1.00  0.00     0.039 A 
ATOM     39  C   UNL A   1      38.335  30.052  28.194  1.00  0.00     0.014 A 
ATOM     40  C   UNL A   1      37.412  28.848  30.090  1.00  0.00     0.014 A 
ATOM     41  C   UNL A   1      39.478  29.255  28.248  1.00  0.00     0.010 A 
ATOM     42  C   UNL A   1      38.557  28.064  30.160  1.00  0.00     0.010 A 
ATOM     43  C   UNL A   1      39.598  28.281  29.251  1.00  0.00    -0.014 A 
BRANCH  43  44
ATOM     44  C   UNL A   1      40.917  27.648  29.486  1.00  0.00     0.031 A 
ATOM     45  C   UNL A   1      41.072  26.375  28.605  1.00  0.00     0.074 A 
ATOM     46  C   UNL A   1      41.749  28.250  30.398  1.00  0.00     0.049 A 
ATOM     47  N   UNL A   1      41.773  25.303  28.806  1.00  0.00    -0.248 NA
ATOM     48  C   UNL A   1      40.280  26.242  27.345  1.00  0.00     0.031 C 
ATOM     49  C   UNL A   1      41.447  29.514  31.114  1.00  0.00     0.029 A 
ATOM     50  N   UNL A   1      42.999  27.954  30.917  1.00  0.00    -0.354 N 
ATOM     51  C   UNL A   1      41.676  24.483  27.653  1.00  0.00     0.074 A 
ATOM     52  C   UNL A   1      40.645  25.056  26.847  1.00  0.00     0.031 C 
ATOM     53  C   UNL A   1      42.417  29.821  32.008  1.00  0.00     0.029 A 
ATOM     54  C   UNL A   1      43.455  28.809  31.968  1.00  0.00     0.049 A 
ATOM     55  H   UNL A   1      43.539  27.203  30.582  1.00  0.00     0.167 HD
ATOM     56  C   UNL A   1      42.574  23.483  27.383  1.00  0.00     0.037 A 
ATOM     57  C   UNL A   1      44.564  28.681  32.771  1.00  0.00     0.037 A 
ATOM     58  C   UNL A   1      43.526  23.435  28.438  1.00  0.00     0.049 A 
ATOM     59  C   UNL A   1      45.311  27.573  32.179  1.00  0.00     0.074 A 
ATOM     60  C   UNL A   1      43.421  23.057  29.750  1.00  0.00     0.029 A 
ATOM     61  N   UNL A   1      44.650  24.205  28.264  1.00  0.00    -0.354 N 
ATOM     62  N   UNL A   1      45.996  27.658  31.081  1.00  0.00    -0.248 NA
ATOM     63  C   UNL A   1      45.263  26.264  32.840  1.00  0.00     0.031 C 
ATOM     64  C   UNL A   1      44.171  24.049  30.405  1.00  0.00     0.029 A 
ATOM     65  C   UNL A   1      44.939  24.762  29.475  1.00  0.00     0.049 A 
ATOM     66  H   UNL A   1      45.150  24.331  27.424  1.00  0.00     0.167 HD
ATOM     67  C   UNL A   1      46.140  26.338  30.748  1.00  0.00     0.074 A 
ATOM     68  C   UNL A   1      45.991  25.571  31.969  1.00  0.00     0.031 C 
ATOM     69  C   UNL A   1      45.743  25.953  29.510  1.00  0.00     0.037 A 
BRANCH  56  70
ATOM     70  C   UNL A   1      42.943  22.689  26.153  1.00  0.00     0.064 A 
ATOM     71  C   UNL A   1      42.922  21.268  26.258  1.00  0.00     0.173 A 
ATOM     72  C   UNL A   1      43.682  23.211  25.088  1.00  0.00     0.173 A 
ATOM     73  F   UNL A   1      42.190  20.657  27.204  1.00  0.00    -0.203 F 
ATOM     74  C   UNL A   1      43.739  20.452  25.477  1.00  0.00     0.198 A 
ATOM     75  C   UNL A   1      44.455  22.380  24.266  1.00  0.00     0.198 A 
ATOM     76  F   UNL A   1      43.761  24.531  24.883  1.00  0.00    -0.203 F 
ATOM     77  F   UNL A   1      43.822  19.140  25.740  1.00  0.00    -0.200 F 
ATOM     78  C   UNL A   1      44.524  21.014  24.494  1.00  0.00     0.200 A 
ATOM     79  F   UNL A   1      45.207  22.924  23.299  1.00  0.00    -0.200 F 
ATOM     80  F   UNL A   1      45.373  20.251  23.793  1.00  0.00    -0.200 F 
ENDBRANCH  56  70
BRANCH  57  81
ATOM     81  C   UNL A   1      45.201  29.233  34.038  1.00  0.00     0.064 A 
ATOM     82  C   UNL A   1      46.357  30.011  34.116  1.00  0.00     0.173 A 
ATOM     83  C   UNL A   1      44.501  29.111  35.284  1.00  0.00     0.173 A 
ATOM     84  F   UNL A   1      47.182  30.119  33.068  1.00  0.00    -0.203 F 
ATOM     85  C   UNL A   1      46.696  30.719  35.291  1.00  0.00     0.198 A 
ATOM     86  C   UNL A   1      44.789  29.869  36.415  1.00  0.00     0.198 A 
ATOM     87  F   UNL A   1      43.481  28.256  35.441  1.00  0.00    -0.203 F 
ATOM     88  F   UNL A   1      47.811  31.463  35.321  1.00  0.00    -0.200 F 
ATOM     89  C   UNL A   1      45.882  30.695  36.413  1.00  0.00     0.200 A 
ATOM     90  F   UNL A   1      43.975  29.811  37.481  1.00  0.00    -0.200 F 
ATOM     91  F   UNL A   1      46.152  31.452  37.486  1.00  0.00    -0.200 F 
ENDBRANCH  57  81
BRANCH  69  92
ATOM     92  C   UNL A   1      45.844  27.043  28.454  1.00  0.00     0.064 A 
ATOM     93  C   UNL A   1      47.104  27.590  28.149  1.00  0.00     0.173 A 
ATOM     94  C   UNL A   1      44.746  27.657  27.829  1.00  0.00     0.173 A 
ATOM     95  F   UNL A   1      48.212  27.049  28.677  1.00  0.00    -0.203 F 
ATOM     96  C   UNL A   1      47.249  28.700  27.310  1.00  0.00     0.198 A 
ATOM     97  C   UNL A   1      44.888  28.764  26.983  1.00  0.00     0.198 A 
ATOM     98  F   UNL A   1      43.510  27.202  28.022  1.00  0.00    -0.203 F 
ATOM     99  F   UNL A   1      48.470  29.193  27.062  1.00  0.00    -0.200 F 
ATOM    100  C   UNL A   1      46.140  29.290  26.730  1.00  0.00     0.200 A 
ATOM    101  F   UNL A   1      43.805  29.316  26.412  1.00  0.00    -0.200 F 
ATOM    102  F   UNL A   1      46.280  30.345  25.916  1.00  0.00    -0.200 F 
ENDBRANCH  69  92
ENDBRANCH  43  44
ENDBRANCH  35  38
ENDBRANCH  33  34
ENDBRANCH  32  33
ENDBRANCH  31  32
ENDBRANCH  30  31
ENDBRANCH   3  30
TORSDOF 17
ENDMDL
MODEL 3
REMARK VINA RESULT:     -11.9      3.710      8.603
REMARK SMILES COc1ccc(C[NH2+]Cc2cccn2-c2sc(C)c(C)c2C(=O)NCCCCNC(=O)c2ccc(-c3c4nc(c(-c5c(F)c(F)c(F)c(F)c5F)c5ccc([nH]5)c(-c5c(F)c(F)c(F)c(F)c5F)c5nc(c(-c6c(F)c(F)c(F)c(F)c6F)c6ccc3[nH]6)C=C5)C=C4)cc2)cc1
REMARK SMILES IDX 22 1 23 2 24 3 21 5 15 6 16 7 17 8 19 9 18 10 20 11 14 12
REMARK SMILES IDX 10 13 11 14 12 15 13 16 9 17 8 18 7 21 6 22 3 23 4 24 96 25
REMARK SMILES IDX 5 26 95 27 2 28 1 29 25 30 26 31 27 32 28 33 29 34 30 35
REMARK SMILES IDX 31 37 32 38 33 39 94 40 34 41 93 42 35 43 36 44 37 45 87 46
REMARK SMILES IDX 38 47 92 48 86 49 88 50 39 51 91 52 85 53 84 54 40 56 72 57
REMARK SMILES IDX 52 58 71 59 53 60 56 61 70 62 89 63 54 64 55 65 69 67 90 68
REMARK SMILES IDX 57 69 41 70 42 71 50 72 43 73 44 74 48 75 51 76 45 77 46 78
REMARK SMILES IDX 49 79 47 80 73 81 74 82 82 83 75 84 76 85 80 86 83 87 77 88
REMARK SMILES IDX 78 89 81 90 79 91 58 92 59 93 67 94 60 95 61 96 65 97 68 98
REMARK SMILES IDX 62 99 63 100 66 101 64 102
REMARK H PARENT 24 4 8 19 8 20 29 36 88 55 56 66
REMARK Flexibility Score: inf
ROOT
ATOM      1  C   UNL A   1      34.031  22.070  26.619  1.00  0.00     0.254 C 
ATOM      2  O   UNL A   1      33.452  21.677  27.636  1.00  0.00    -0.269 OA
ATOM      3  N   UNL A   1      35.375  22.357  26.786  1.00  0.00    -0.352 N 
ATOM      4  H   UNL A   1      35.695  22.352  27.716  1.00  0.00     0.163 HD
ENDROOT
BRANCH   1   5
ATOM      5  C   UNL A   1      33.269  22.297  25.359  1.00  0.00     0.078 A 
ATOM      6  C   UNL A   1      32.661  23.446  24.868  1.00  0.00     0.113 A 
ATOM      7  S   UNL A   1      31.811  23.246  23.415  1.00  0.00    -0.122 S 
ATOM      8  C   UNL A   1      32.322  21.631  23.265  1.00  0.00     0.007 A 
ATOM      9  C   UNL A   1      33.074  21.221  24.358  1.00  0.00    -0.022 A 
ATOM     10  C   UNL A   1      31.948  20.853  22.042  1.00  0.00     0.057 C 
ATOM     11  C   UNL A   1      33.632  19.830  24.498  1.00  0.00     0.046 C 
BRANCH   6  12
ATOM     12  N   UNL A   1      32.769  24.773  25.291  1.00  0.00    -0.306 N 
ATOM     13  C   UNL A   1      31.767  25.602  25.832  1.00  0.00     0.078 A 
ATOM     14  C   UNL A   1      32.389  26.788  26.203  1.00  0.00     0.029 A 
ATOM     15  C   UNL A   1      33.756  26.712  25.861  1.00  0.00     0.020 A 
ATOM     16  C   UNL A   1      33.964  25.471  25.314  1.00  0.00     0.092 A 
BRANCH  13  17
ATOM     17  C   UNL A   1      30.337  25.143  26.011  1.00  0.00     0.316 C 
BRANCH  17  18
ATOM     18  N   UNL A   1      29.357  25.848  25.180  1.00  0.00    -0.338 N 
ATOM     19  H   UNL A   1      28.594  25.204  24.966  1.00  0.00     0.346 HD
ATOM     20  H   UNL A   1      29.044  26.660  25.713  1.00  0.00     0.346 HD
BRANCH  18  21
ATOM     21  C   UNL A   1      29.899  26.349  23.926  1.00  0.00     0.297 C 
BRANCH  21  22
ATOM     22  C   UNL A   1      29.297  27.675  23.512  1.00  0.00     0.006 A 
ATOM     23  C   UNL A   1      28.152  30.203  23.046  1.00  0.00     0.118 A 
ATOM     24  C   UNL A   1      29.535  30.069  23.157  1.00  0.00     0.047 A 
ATOM     25  C   UNL A   1      27.344  29.067  23.077  1.00  0.00     0.047 A 
ATOM     26  C   UNL A   1      30.105  28.814  23.389  1.00  0.00     0.013 A 
ATOM     27  C   UNL A   1      27.913  27.808  23.309  1.00  0.00     0.013 A 
BRANCH  23  28
ATOM     28  O   UNL A   1      27.672  31.473  22.865  1.00  0.00    -0.497 OA
ATOM     29  C   UNL A   1      28.501  32.277  22.025  1.00  0.00     0.278 C 
ENDBRANCH  23  28
ENDBRANCH  21  22
ENDBRANCH  18  21
ENDBRANCH  17  18
ENDBRANCH  13  17
ENDBRANCH   6  12
ENDBRANCH   1   5
BRANCH   3  30
ATOM     30  C   UNL A   1      36.370  22.662  25.794  1.00  0.00     0.116 C 
BRANCH  30  31
ATOM     31  C   UNL A   1      36.959  21.545  24.947  1.00  0.00     0.023 C 
BRANCH  31  32
ATOM     32  C   UNL A   1      38.309  20.961  25.356  1.00  0.00     0.023 C 
BRANCH  32  33
ATOM     33  C   UNL A   1      39.268  21.907  26.083  1.00  0.00     0.116 C 
BRANCH  33  34
ATOM     34  N   UNL A   1      40.669  21.693  25.746  1.00  0.00    -0.352 N 
ATOM     35  C   UNL A   1      41.702  22.598  25.809  1.00  0.00     0.251 C 
ATOM     36  H   UNL A   1      40.905  20.790  25.433  1.00  0.00     0.163 HD
ATOM     37  O   UNL A   1      42.765  22.363  25.226  1.00  0.00    -0.269 OA
BRANCH  35  38
ATOM     38  C   UNL A   1      41.555  23.857  26.568  1.00  0.00     0.039 A 
ATOM     39  C   UNL A   1      41.131  23.812  27.903  1.00  0.00     0.014 A 
ATOM     40  C   UNL A   1      41.784  25.088  25.943  1.00  0.00     0.014 A 
ATOM     41  C   UNL A   1      41.010  24.995  28.630  1.00  0.00     0.010 A 
ATOM     42  C   UNL A   1      41.683  26.269  26.669  1.00  0.00     0.010 A 
ATOM     43  C   UNL A   1      41.316  26.220  28.018  1.00  0.00    -0.014 A 
BRANCH  43  44
ATOM     44  C   UNL A   1      41.471  27.429  28.861  1.00  0.00     0.031 A 
ATOM     45  C   UNL A   1      42.831  27.391  29.617  1.00  0.00     0.074 A 
ATOM     46  C   UNL A   1      40.444  28.341  28.847  1.00  0.00     0.049 A 
ATOM     47  N   UNL A   1      43.169  27.922  30.749  1.00  0.00    -0.248 NA
ATOM     48  C   UNL A   1      43.965  26.589  29.066  1.00  0.00     0.031 C 
ATOM     49  C   UNL A   1      39.226  28.232  28.006  1.00  0.00     0.029 A 
ATOM     50  N   UNL A   1      40.193  29.531  29.509  1.00  0.00    -0.354 N 
ATOM     51  C   UNL A   1      44.557  27.703  30.949  1.00  0.00     0.074 A 
ATOM     52  C   UNL A   1      44.958  26.771  29.943  1.00  0.00     0.031 C 
ATOM     53  C   UNL A   1      38.356  29.236  28.264  1.00  0.00     0.029 A 
ATOM     54  C   UNL A   1      38.906  30.110  29.282  1.00  0.00     0.049 A 
ATOM     55  H   UNL A   1      40.860  29.953  30.098  1.00  0.00     0.167 HD
ATOM     56  C   UNL A   1      45.298  28.442  31.835  1.00  0.00     0.037 A 
ATOM     57  C   UNL A   1      38.317  31.186  29.903  1.00  0.00     0.037 A 
ATOM     58  C   UNL A   1      44.438  29.374  32.476  1.00  0.00     0.049 A 
ATOM     59  C   UNL A   1      39.384  31.758  30.721  1.00  0.00     0.074 A 
ATOM     60  C   UNL A   1      43.423  29.213  33.381  1.00  0.00     0.029 A 
ATOM     61  N   UNL A   1      44.329  30.601  31.869  1.00  0.00    -0.354 N 
ATOM     62  N   UNL A   1      40.374  32.450  30.250  1.00  0.00    -0.248 NA
ATOM     63  C   UNL A   1      39.365  31.513  32.168  1.00  0.00     0.031 C 
ATOM     64  C   UNL A   1      42.449  30.103  32.896  1.00  0.00     0.029 A 
ATOM     65  C   UNL A   1      43.019  30.970  31.954  1.00  0.00     0.049 A 
ATOM     66  H   UNL A   1      45.058  31.116  31.452  1.00  0.00     0.167 HD
ATOM     67  C   UNL A   1      41.264  32.393  31.290  1.00  0.00     0.074 A 
ATOM     68  C   UNL A   1      40.499  32.129  32.492  1.00  0.00     0.031 C 
ATOM     69  C   UNL A   1      42.516  31.944  31.024  1.00  0.00     0.037 A 
BRANCH  56  70
ATOM     70  C   UNL A   1      46.774  28.688  32.040  1.00  0.00     0.064 A 
ATOM     71  C   UNL A   1      47.512  29.205  30.937  1.00  0.00     0.173 A 
ATOM     72  C   UNL A   1      47.527  28.079  33.046  1.00  0.00     0.173 A 
ATOM     73  F   UNL A   1      46.895  29.869  29.945  1.00  0.00    -0.203 F 
ATOM     74  C   UNL A   1      48.872  28.952  30.767  1.00  0.00     0.198 A 
ATOM     75  C   UNL A   1      48.907  27.879  32.899  1.00  0.00     0.198 A 
ATOM     76  F   UNL A   1      46.942  27.570  34.137  1.00  0.00    -0.203 F 
ATOM     77  F   UNL A   1      49.481  29.298  29.624  1.00  0.00    -0.200 F 
ATOM     78  C   UNL A   1      49.564  28.267  31.742  1.00  0.00     0.200 A 
ATOM     79  F   UNL A   1      49.584  27.228  33.854  1.00  0.00    -0.200 F 
ATOM     80  F   UNL A   1      50.851  27.946  31.553  1.00  0.00    -0.200 F 
ENDBRANCH  56  70
BRANCH  57  81
ATOM     81  C   UNL A   1      36.981  31.897  30.065  1.00  0.00     0.064 A 
ATOM     82  C   UNL A   1      36.066  31.719  31.105  1.00  0.00     0.173 A 
ATOM     83  C   UNL A   1      36.653  32.981  29.186  1.00  0.00     0.173 A 
ATOM     84  F   UNL A   1      36.168  30.675  31.935  1.00  0.00    -0.203 F 
ATOM     85  C   UNL A   1      35.009  32.631  31.326  1.00  0.00     0.198 A 
ATOM     86  C   UNL A   1      35.662  33.923  29.449  1.00  0.00     0.198 A 
ATOM     87  F   UNL A   1      37.310  33.181  28.035  1.00  0.00    -0.203 F 
ATOM     88  F   UNL A   1      34.157  32.428  32.341  1.00  0.00    -0.200 F 
ATOM     89  C   UNL A   1      34.847  33.760  30.538  1.00  0.00     0.200 A 
ATOM     90  F   UNL A   1      35.539  34.999  28.656  1.00  0.00    -0.200 F 
ATOM     91  F   UNL A   1      33.909  34.675  30.817  1.00  0.00    -0.200 F 
ENDBRANCH  57  81
BRANCH  69  92
ATOM     92  C   UNL A   1      42.988  32.209  29.603  1.00  0.00     0.064 A 
ATOM     93  C   UNL A   1      43.318  31.122  28.775  1.00  0.00     0.173 A 
ATOM     94  C   UNL A   1      43.251  33.483  29.072  1.00  0.00     0.173 A 
ATOM     95  F   UNL A   1      43.074  29.869  29.188  1.00  0.00    -0.203 F 
ATOM     96  C   UNL A   1      43.908  31.297  27.519  1.00  0.00     0.198 A 
ATOM     97  C   UNL A   1      43.835  33.662  27.812  1.00  0.00     0.198 A 
ATOM     98  F   UNL A   1      42.949  34.583  29.757  1.00  0.00    -0.203 F 
ATOM     99  F   UNL A   1      44.218  30.228  26.772  1.00  0.00    -0.200 F 
ATOM    100  C   UNL A   1      44.171  32.568  27.039  1.00  0.00     0.200 A 
ATOM    101  F   UNL A   1      44.068  34.902  27.350  1.00  0.00    -0.200 F 
ATOM    102  F   UNL A   1      44.725  32.736  25.830  1.00  0.00    -0.200 F 
ENDBRANCH  69  92
ENDBRANCH  43  44
ENDBRANCH  35  38
ENDBRANCH  33  34
ENDBRANCH  32  33
ENDBRANCH  31  32
ENDBRANCH  30  31
ENDBRANCH   3  30
TORSDOF 17
ENDMDL
