MODEL 1
REMARK VINA RESULT:     -11.0      0.000      0.000
REMARK SMILES C#CCN(CC(=O)NCCCCNC(=O)c1ccc(-c2c3nc(c(-c4c(F)c(F)c(F)c(F)c4F)c4ccc([nH]4)c(-c4c(F)c(F)c(F)c(F)c4F)c4nc(c(-c5c(F)c(F)c(F)c(F)c5F)c5ccc2[nH]5)C=C4)C=C3)cc1)C(=O)[C@H]1C[NH2+]C[C@H]1C
REMARK SMILES IDX 10 1 9 2 8 3 6 4 7 5 5 7 4 8 3 9 2 10 1 11 79 12 80 13 81 14
REMARK SMILES IDX 82 15 85 16 83 17 84 18 86 19 11 22 12 23 13 24 14 25 15 27
REMARK SMILES IDX 16 28 17 29 78 30 18 31 77 32 19 33 20 34 21 35 71 36 22 37
REMARK SMILES IDX 76 38 70 39 72 40 23 41 75 42 69 43 68 44 24 46 56 47 36 48
REMARK SMILES IDX 55 49 37 50 40 51 54 52 73 53 38 54 39 55 53 57 74 58 41 59
REMARK SMILES IDX 25 60 26 61 34 62 27 63 28 64 32 65 35 66 29 67 30 68 33 69
REMARK SMILES IDX 31 70 57 71 58 72 66 73 59 74 60 75 64 76 67 77 61 78 62 79
REMARK SMILES IDX 65 80 63 81 42 82 43 83 51 84 44 85 45 86 49 87 52 88 46 89
REMARK SMILES IDX 47 90 50 91 48 92
REMARK H PARENT 8 6 83 20 83 21 13 26 72 45 40 56
REMARK Flexibility Score: inf
ROOT
ATOM      1  C   UNL A   1      31.830  30.497  26.524  1.00  0.00     0.023 C 
ENDROOT
BRANCH   1   2
ATOM      2  C   UNL A   1      33.293  30.086  26.367  1.00  0.00     0.116 C 
BRANCH   2   3
ATOM      3  N   UNL A   1      33.522  29.333  25.156  1.00  0.00    -0.355 N 
ATOM      4  C   UNL A   1      33.617  27.983  24.991  1.00  0.00     0.239 C 
ATOM      5  O   UNL A   1      33.691  27.547  23.840  1.00  0.00    -0.273 OA
ATOM      6  H   UNL A   1      33.624  29.868  24.335  1.00  0.00     0.163 HD
BRANCH   4   7
ATOM      7  C   UNL A   1      33.551  27.028  26.192  1.00  0.00     0.220 C 
BRANCH   7   8
ATOM      8  N   UNL A   1      32.315  26.245  26.290  1.00  0.00    -0.322 N 
BRANCH   8   9
ATOM      9  C   UNL A   1      31.043  26.954  26.131  1.00  0.00     0.209 C 
BRANCH   9  10
ATOM     10  C   UNL A   1      30.341  26.558  24.842  1.00  0.00    -0.085 C 
ATOM     11  C   UNL A   1      29.740  26.219  23.737  1.00  0.00     0.006 C 
ENDBRANCH   9  10
ENDBRANCH   8   9
BRANCH   8  12
ATOM     12  C   UNL A   1      32.269  24.871  26.527  1.00  0.00     0.233 C 
ATOM     13  O   UNL A   1      31.391  24.390  27.249  1.00  0.00    -0.274 OA
BRANCH  12  14
ATOM     14  C   UNL A   1      33.372  23.969  25.970  1.00  0.00     0.142 C 
ATOM     15  C   UNL A   1      33.581  22.740  26.852  1.00  0.00     0.274 C 
ATOM     16  C   UNL A   1      33.207  23.339  24.579  1.00  0.00     0.059 C 
ATOM     17  N   UNL A   1      34.461  21.883  26.047  1.00  0.00    -0.345 N 
ATOM     18  C   UNL A   1      33.927  21.983  24.684  1.00  0.00     0.264 C 
ATOM     19  C   UNL A   1      31.764  23.133  24.118  1.00  0.00     0.015 C 
ATOM     20  H   UNL A   1      34.426  20.919  26.378  1.00  0.00     0.346 HD
ATOM     21  H   UNL A   1      35.438  22.172  26.102  1.00  0.00     0.346 HD
ENDBRANCH  12  14
ENDBRANCH   8  12
ENDBRANCH   7   8
ENDBRANCH   4   7
ENDBRANCH   2   3
ENDBRANCH   1   2
BRANCH   1  22
ATOM     22  C   UNL A   1      31.598  31.997  26.691  1.00  0.00     0.023 C 
BRANCH  22  23
ATOM     23  C   UNL A   1      32.752  32.764  27.320  1.00  0.00     0.116 C 
BRANCH  23  24
ATOM     24  N   UNL A   1      32.429  34.149  27.628  1.00  0.00    -0.352 N 
ATOM     25  C   UNL A   1      33.027  34.981  28.543  1.00  0.00     0.251 C 
ATOM     26  H   UNL A   1      31.686  34.540  27.114  1.00  0.00     0.163 HD
ATOM     27  O   UNL A   1      32.573  36.101  28.755  1.00  0.00    -0.269 OA
BRANCH  25  28
ATOM     28  C   UNL A   1      34.196  34.496  29.301  1.00  0.00     0.039 A 
ATOM     29  C   UNL A   1      33.986  33.886  30.539  1.00  0.00     0.014 A 
ATOM     30  C   UNL A   1      35.484  34.600  28.771  1.00  0.00     0.014 A 
ATOM     31  C   UNL A   1      35.065  33.317  31.218  1.00  0.00     0.010 A 
ATOM     32  C   UNL A   1      36.546  33.970  29.412  1.00  0.00     0.010 A 
ATOM     33  C   UNL A   1      36.346  33.321  30.641  1.00  0.00    -0.014 A 
BRANCH  33  34
ATOM     34  C   UNL A   1      37.487  32.645  31.306  1.00  0.00     0.031 A 
ATOM     35  C   UNL A   1      38.175  31.490  30.634  1.00  0.00     0.074 A 
ATOM     36  C   UNL A   1      37.858  33.028  32.543  1.00  0.00     0.049 A 
ATOM     37  N   UNL A   1      39.143  30.730  31.080  1.00  0.00    -0.248 NA
ATOM     38  C   UNL A   1      37.693  31.121  29.293  1.00  0.00     0.031 C 
ATOM     39  C   UNL A   1      37.230  34.098  33.321  1.00  0.00     0.029 A 
ATOM     40  N   UNL A   1      38.845  32.553  33.370  1.00  0.00    -0.354 N 
ATOM     41  C   UNL A   1      39.372  29.788  30.085  1.00  0.00     0.074 A 
ATOM     42  C   UNL A   1      38.411  30.038  29.034  1.00  0.00     0.031 C 
ATOM     43  C   UNL A   1      37.858  34.208  34.504  1.00  0.00     0.029 A 
ATOM     44  C   UNL A   1      38.907  33.197  34.583  1.00  0.00     0.049 A 
ATOM     45  H   UNL A   1      39.452  31.819  33.119  1.00  0.00     0.167 HD
ATOM     46  C   UNL A   1      40.315  28.818  30.046  1.00  0.00     0.037 A 
ATOM     47  C   UNL A   1      39.714  32.988  35.640  1.00  0.00     0.037 A 
ATOM     48  C   UNL A   1      41.292  28.595  31.079  1.00  0.00     0.049 A 
ATOM     49  C   UNL A   1      40.761  31.908  35.561  1.00  0.00     0.074 A 
ATOM     50  C   UNL A   1      42.336  27.686  31.096  1.00  0.00     0.029 A 
ATOM     51  N   UNL A   1      41.345  29.289  32.278  1.00  0.00    -0.354 N 
ATOM     52  N   UNL A   1      41.022  31.079  34.580  1.00  0.00    -0.248 NA
ATOM     53  C   UNL A   1      41.632  31.743  36.733  1.00  0.00     0.031 C 
ATOM     54  C   UNL A   1      42.990  27.797  32.327  1.00  0.00     0.029 A 
ATOM     55  C   UNL A   1      42.389  28.812  33.053  1.00  0.00     0.049 A 
ATOM     56  H   UNL A   1      40.732  30.013  32.540  1.00  0.00     0.167 HD
ATOM     57  C   UNL A   1      42.102  30.316  35.003  1.00  0.00     0.074 A 
ATOM     58  C   UNL A   1      42.460  30.794  36.322  1.00  0.00     0.031 C 
ATOM     59  C   UNL A   1      42.739  29.308  34.359  1.00  0.00     0.037 A 
BRANCH  46  60
ATOM     60  C   UNL A   1      40.349  27.924  28.841  1.00  0.00     0.064 A 
ATOM     61  C   UNL A   1      41.118  28.240  27.711  1.00  0.00     0.173 A 
ATOM     62  C   UNL A   1      39.654  26.704  28.842  1.00  0.00     0.173 A 
ATOM     63  F   UNL A   1      41.791  29.399  27.656  1.00  0.00    -0.203 F 
ATOM     64  C   UNL A   1      41.176  27.379  26.619  1.00  0.00     0.198 A 
ATOM     65  C   UNL A   1      39.738  25.831  27.759  1.00  0.00     0.198 A 
ATOM     66  F   UNL A   1      38.907  26.352  29.898  1.00  0.00    -0.203 F 
ATOM     67  F   UNL A   1      41.886  27.720  25.535  1.00  0.00    -0.200 F 
ATOM     68  C   UNL A   1      40.494  26.171  26.648  1.00  0.00     0.200 A 
ATOM     69  F   UNL A   1      39.089  24.660  27.795  1.00  0.00    -0.200 F 
ATOM     70  F   UNL A   1      40.563  25.335  25.603  1.00  0.00    -0.200 F 
ENDBRANCH  46  60
BRANCH  47  71
ATOM     71  C   UNL A   1      39.579  33.824  36.862  1.00  0.00     0.064 A 
ATOM     72  C   UNL A   1      38.780  33.409  37.936  1.00  0.00     0.173 A 
ATOM     73  C   UNL A   1      40.223  35.066  36.970  1.00  0.00     0.173 A 
ATOM     74  F   UNL A   1      38.127  32.239  37.872  1.00  0.00    -0.203 F 
ATOM     75  C   UNL A   1      38.604  34.218  39.058  1.00  0.00     0.198 A 
ATOM     76  C   UNL A   1      40.072  35.859  38.106  1.00  0.00     0.198 A 
ATOM     77  F   UNL A   1      41.004  35.507  35.974  1.00  0.00    -0.203 F 
ATOM     78  F   UNL A   1      37.787  33.822  40.044  1.00  0.00    -0.200 F 
ATOM     79  C   UNL A   1      39.253  35.439  39.143  1.00  0.00     0.200 A 
ATOM     80  F   UNL A   1      40.712  37.033  38.191  1.00  0.00    -0.200 F 
ATOM     81  F   UNL A   1      39.080  36.218  40.220  1.00  0.00    -0.200 F 
ENDBRANCH  47  71
BRANCH  59  82
ATOM     82  C   UNL A   1      43.913  28.681  35.053  1.00  0.00     0.064 A 
ATOM     83  C   UNL A   1      45.216  29.172  34.891  1.00  0.00     0.173 A 
ATOM     84  C   UNL A   1      43.722  27.596  35.924  1.00  0.00     0.173 A 
ATOM     85  F   UNL A   1      45.451  30.197  34.057  1.00  0.00    -0.203 F 
ATOM     86  C   UNL A   1      46.290  28.583  35.552  1.00  0.00     0.198 A 
ATOM     87  C   UNL A   1      44.794  27.030  36.608  1.00  0.00     0.198 A 
ATOM     88  F   UNL A   1      42.494  27.094  36.121  1.00  0.00    -0.203 F 
ATOM     89  F   UNL A   1      47.533  29.038  35.342  1.00  0.00    -0.200 F 
ATOM     90  C   UNL A   1      46.078  27.519  36.415  1.00  0.00     0.200 A 
ATOM     91  F   UNL A   1      44.585  26.012  37.454  1.00  0.00    -0.200 F 
ATOM     92  F   UNL A   1      47.111  26.959  37.058  1.00  0.00    -0.200 F 
ENDBRANCH  59  82
ENDBRANCH  33  34
ENDBRANCH  25  28
ENDBRANCH  23  24
ENDBRANCH  22  23
ENDBRANCH   1  22
TORSDOF 16
ENDMDL
MODEL 2
REMARK VINA RESULT:     -10.9      1.445      2.920
REMARK SMILES C#CCN(CC(=O)NCCCCNC(=O)c1ccc(-c2c3nc(c(-c4c(F)c(F)c(F)c(F)c4F)c4ccc([nH]4)c(-c4c(F)c(F)c(F)c(F)c4F)c4nc(c(-c5c(F)c(F)c(F)c(F)c5F)c5ccc2[nH]5)C=C4)C=C3)cc1)C(=O)[C@H]1C[NH2+]C[C@H]1C
REMARK SMILES IDX 10 1 9 2 8 3 6 4 7 5 5 7 4 8 3 9 2 10 1 11 79 12 80 13 81 14
REMARK SMILES IDX 82 15 85 16 83 17 84 18 86 19 11 22 12 23 13 24 14 25 15 27
REMARK SMILES IDX 16 28 17 29 78 30 18 31 77 32 19 33 20 34 21 35 71 36 22 37
REMARK SMILES IDX 76 38 70 39 72 40 23 41 75 42 69 43 68 44 24 46 56 47 36 48
REMARK SMILES IDX 55 49 37 50 40 51 54 52 73 53 38 54 39 55 53 57 74 58 41 59
REMARK SMILES IDX 25 60 26 61 34 62 27 63 28 64 32 65 35 66 29 67 30 68 33 69
REMARK SMILES IDX 31 70 57 71 58 72 66 73 59 74 60 75 64 76 67 77 61 78 62 79
REMARK SMILES IDX 65 80 63 81 42 82 43 83 51 84 44 85 45 86 49 87 52 88 46 89
REMARK SMILES IDX 47 90 50 91 48 92
REMARK H PARENT 8 6 83 20 83 21 13 26 72 45 40 56
REMARK Flexibility Score: inf
ROOT
ATOM      1  C   UNL A   1      31.782  30.454  26.595  1.00  0.00     0.023 C 
ENDROOT
BRANCH   1   2
ATOM      2  C   UNL A   1      33.187  29.938  26.291  1.00  0.00     0.116 C 
BRANCH   2   3
ATOM      3  N   UNL A   1      33.436  29.836  24.872  1.00  0.00    -0.355 N 
ATOM      4  C   UNL A   1      33.067  28.850  24.006  1.00  0.00     0.239 C 
ATOM      5  O   UNL A   1      33.278  29.029  22.804  1.00  0.00    -0.273 OA
ATOM      6  H   UNL A   1      33.942  30.581  24.474  1.00  0.00     0.163 HD
BRANCH   4   7
ATOM      7  C   UNL A   1      32.336  27.592  24.497  1.00  0.00     0.220 C 
BRANCH   7   8
ATOM      8  N   UNL A   1      30.996  27.397  23.935  1.00  0.00    -0.322 N 
BRANCH   8   9
ATOM      9  C   UNL A   1      30.129  26.398  24.566  1.00  0.00     0.209 C 
BRANCH   9  10
ATOM     10  C   UNL A   1      30.439  24.996  24.068  1.00  0.00    -0.085 C 
ATOM     11  C   UNL A   1      30.705  23.794  23.641  1.00  0.00     0.006 C 
ENDBRANCH   9  10
ENDBRANCH   8   9
BRANCH   8  12
ATOM     12  C   UNL A   1      30.490  28.097  22.840  1.00  0.00     0.233 C 
ATOM     13  O   UNL A   1      30.549  27.613  21.706  1.00  0.00    -0.274 OA
BRANCH  12  14
ATOM     14  C   UNL A   1      29.952  29.517  23.031  1.00  0.00     0.142 C 
ATOM     15  C   UNL A   1      30.044  30.323  21.738  1.00  0.00     0.274 C 
ATOM     16  C   UNL A   1      28.484  29.724  23.433  1.00  0.00     0.059 C 
ATOM     17  N   UNL A   1      29.262  31.532  22.029  1.00  0.00    -0.345 N 
ATOM     18  C   UNL A   1      28.082  31.044  22.752  1.00  0.00     0.264 C 
ATOM     19  C   UNL A   1      27.526  28.607  23.021  1.00  0.00     0.015 C 
ATOM     20  H   UNL A   1      28.988  32.001  21.166  1.00  0.00     0.346 HD
ATOM     21  H   UNL A   1      29.793  32.215  22.571  1.00  0.00     0.346 HD
ENDBRANCH  12  14
ENDBRANCH   8  12
ENDBRANCH   7   8
ENDBRANCH   4   7
ENDBRANCH   2   3
ENDBRANCH   1   2
BRANCH   1  22
ATOM     22  C   UNL A   1      31.648  31.976  26.624  1.00  0.00     0.023 C 
BRANCH  22  23
ATOM     23  C   UNL A   1      32.734  32.706  27.400  1.00  0.00     0.116 C 
BRANCH  23  24
ATOM     24  N   UNL A   1      32.416  34.100  27.671  1.00  0.00    -0.352 N 
ATOM     25  C   UNL A   1      33.016  34.954  28.563  1.00  0.00     0.251 C 
ATOM     26  H   UNL A   1      31.674  34.479  27.147  1.00  0.00     0.163 HD
ATOM     27  O   UNL A   1      32.567  36.081  28.745  1.00  0.00    -0.269 OA
BRANCH  25  28
ATOM     28  C   UNL A   1      34.184  34.485  29.335  1.00  0.00     0.039 A 
ATOM     29  C   UNL A   1      33.969  33.875  30.572  1.00  0.00     0.014 A 
ATOM     30  C   UNL A   1      35.476  34.604  28.817  1.00  0.00     0.014 A 
ATOM     31  C   UNL A   1      35.048  33.321  31.262  1.00  0.00     0.010 A 
ATOM     32  C   UNL A   1      36.539  33.989  29.470  1.00  0.00     0.010 A 
ATOM     33  C   UNL A   1      36.335  33.340  30.699  1.00  0.00    -0.014 A 
BRANCH  33  34
ATOM     34  C   UNL A   1      37.478  32.680  31.377  1.00  0.00     0.031 A 
ATOM     35  C   UNL A   1      38.178  31.524  30.719  1.00  0.00     0.074 A 
ATOM     36  C   UNL A   1      37.838  33.078  32.612  1.00  0.00     0.049 A 
ATOM     37  N   UNL A   1      39.150  30.777  31.178  1.00  0.00    -0.248 NA
ATOM     38  C   UNL A   1      37.708  31.139  29.379  1.00  0.00     0.031 C 
ATOM     39  C   UNL A   1      37.196  34.150  33.377  1.00  0.00     0.029 A 
ATOM     40  N   UNL A   1      38.824  32.619  33.449  1.00  0.00    -0.354 N 
ATOM     41  C   UNL A   1      39.393  29.828  30.194  1.00  0.00     0.074 A 
ATOM     42  C   UNL A   1      38.437  30.060  29.135  1.00  0.00     0.031 C 
ATOM     43  C   UNL A   1      37.817  34.276  34.562  1.00  0.00     0.029 A 
ATOM     44  C   UNL A   1      38.874  33.275  34.656  1.00  0.00     0.049 A 
ATOM     45  H   UNL A   1      39.439  31.888  33.208  1.00  0.00     0.167 HD
ATOM     46  C   UNL A   1      40.345  28.864  30.169  1.00  0.00     0.037 A 
ATOM     47  C   UNL A   1      39.676  33.083  35.720  1.00  0.00     0.037 A 
ATOM     48  C   UNL A   1      41.317  28.660  31.210  1.00  0.00     0.049 A 
ATOM     49  C   UNL A   1      40.732  32.011  35.657  1.00  0.00     0.074 A 
ATOM     50  C   UNL A   1      42.368  27.760  31.242  1.00  0.00     0.029 A 
ATOM     51  N   UNL A   1      41.357  29.366  32.403  1.00  0.00    -0.354 N 
ATOM     52  N   UNL A   1      41.006  31.174  34.686  1.00  0.00    -0.248 NA
ATOM     53  C   UNL A   1      41.597  31.864  36.836  1.00  0.00     0.031 C 
ATOM     54  C   UNL A   1      43.014  27.888  32.476  1.00  0.00     0.029 A 
ATOM     55  C   UNL A   1      42.401  28.905  33.189  1.00  0.00     0.049 A 
ATOM     56  H   UNL A   1      40.736  30.087  32.654  1.00  0.00     0.167 HD
ATOM     57  C   UNL A   1      42.090  30.424  35.122  1.00  0.00     0.074 A 
ATOM     58  C   UNL A   1      42.435  30.918  36.439  1.00  0.00     0.031 C 
ATOM     59  C   UNL A   1      42.739  29.416  34.491  1.00  0.00     0.037 A 
BRANCH  46  60
ATOM     60  C   UNL A   1      40.393  27.960  28.973  1.00  0.00     0.064 A 
ATOM     61  C   UNL A   1      39.668  26.760  28.928  1.00  0.00     0.173 A 
ATOM     62  C   UNL A   1      41.123  28.329  27.833  1.00  0.00     0.173 A 
ATOM     63  F   UNL A   1      38.964  26.356  29.996  1.00  0.00    -0.203 F 
ATOM     64  C   UNL A   1      39.687  25.954  27.793  1.00  0.00     0.198 A 
ATOM     65  C   UNL A   1      41.116  27.535  26.688  1.00  0.00     0.198 A 
ATOM     66  F   UNL A   1      41.831  29.469  27.822  1.00  0.00    -0.203 F 
ATOM     67  F   UNL A   1      39.017  24.793  27.787  1.00  0.00    -0.200 F 
ATOM     68  C   UNL A   1      40.402  26.346  26.672  1.00  0.00     0.200 A 
ATOM     69  F   UNL A   1      41.797  27.922  25.602  1.00  0.00    -0.200 F 
ATOM     70  F   UNL A   1      40.407  25.577  25.574  1.00  0.00    -0.200 F 
ENDBRANCH  46  60
BRANCH  47  71
ATOM     71  C   UNL A   1      39.527  33.929  36.933  1.00  0.00     0.064 A 
ATOM     72  C   UNL A   1      38.763  33.497  38.026  1.00  0.00     0.173 A 
ATOM     73  C   UNL A   1      40.121  35.197  37.015  1.00  0.00     0.173 A 
ATOM     74  F   UNL A   1      38.158  32.301  37.988  1.00  0.00    -0.203 F 
ATOM     75  C   UNL A   1      38.572  34.313  39.140  1.00  0.00     0.198 A 
ATOM     76  C   UNL A   1      39.956  35.999  38.143  1.00  0.00     0.198 A 
ATOM     77  F   UNL A   1      40.867  35.656  36.000  1.00  0.00    -0.203 F 
ATOM     78  F   UNL A   1      37.788  33.898  40.144  1.00  0.00    -0.200 F 
ATOM     79  C   UNL A   1      39.172  35.561  39.199  1.00  0.00     0.200 A 
ATOM     80  F   UNL A   1      40.549  37.199  38.201  1.00  0.00    -0.200 F 
ATOM     81  F   UNL A   1      38.985  36.346  40.268  1.00  0.00    -0.200 F 
ENDBRANCH  47  71
BRANCH  59  82
ATOM     82  C   UNL A   1      43.913  28.805  35.198  1.00  0.00     0.064 A 
ATOM     83  C   UNL A   1      45.213  29.306  35.040  1.00  0.00     0.173 A 
ATOM     84  C   UNL A   1      43.727  27.726  36.078  1.00  0.00     0.173 A 
ATOM     85  F   UNL A   1      45.444  30.326  34.200  1.00  0.00    -0.203 F 
ATOM     86  C   UNL A   1      46.288  28.733  35.714  1.00  0.00     0.198 A 
ATOM     87  C   UNL A   1      44.800  27.176  36.773  1.00  0.00     0.198 A 
ATOM     88  F   UNL A   1      42.502  27.215  36.271  1.00  0.00    -0.203 F 
ATOM     89  F   UNL A   1      47.528  29.196  35.508  1.00  0.00    -0.200 F 
ATOM     90  C   UNL A   1      46.080  27.674  36.584  1.00  0.00     0.200 A 
ATOM     91  F   UNL A   1      44.594  26.163  37.627  1.00  0.00    -0.200 F 
ATOM     92  F   UNL A   1      47.114  27.129  37.239  1.00  0.00    -0.200 F 
ENDBRANCH  59  82
ENDBRANCH  33  34
ENDBRANCH  25  28
ENDBRANCH  23  24
ENDBRANCH  22  23
ENDBRANCH   1  22
TORSDOF 16
ENDMDL
MODEL 3
REMARK VINA RESULT:     -10.9      0.198      1.994
REMARK SMILES C#CCN(CC(=O)NCCCCNC(=O)c1ccc(-c2c3nc(c(-c4c(F)c(F)c(F)c(F)c4F)c4ccc([nH]4)c(-c4c(F)c(F)c(F)c(F)c4F)c4nc(c(-c5c(F)c(F)c(F)c(F)c5F)c5ccc2[nH]5)C=C4)C=C3)cc1)C(=O)[C@H]1C[NH2+]C[C@H]1C
REMARK SMILES IDX 10 1 9 2 8 3 6 4 7 5 5 7 4 8 3 9 2 10 1 11 79 12 80 13 81 14
REMARK SMILES IDX 82 15 85 16 83 17 84 18 86 19 11 22 12 23 13 24 14 25 15 27
REMARK SMILES IDX 16 28 17 29 78 30 18 31 77 32 19 33 20 34 21 35 71 36 22 37
REMARK SMILES IDX 76 38 70 39 72 40 23 41 75 42 69 43 68 44 24 46 56 47 36 48
REMARK SMILES IDX 55 49 37 50 40 51 54 52 73 53 38 54 39 55 53 57 74 58 41 59
REMARK SMILES IDX 25 60 26 61 34 62 27 63 28 64 32 65 35 66 29 67 30 68 33 69
REMARK SMILES IDX 31 70 57 71 58 72 66 73 59 74 60 75 64 76 67 77 61 78 62 79
REMARK SMILES IDX 65 80 63 81 42 82 43 83 51 84 44 85 45 86 49 87 52 88 46 89
REMARK SMILES IDX 47 90 50 91 48 92
REMARK H PARENT 8 6 83 20 83 21 13 26 72 45 40 56
REMARK Flexibility Score: inf
ROOT
ATOM      1  C   UNL A   1      31.802  30.451  26.601  1.00  0.00     0.023 C 
ENDROOT
BRANCH   1   2
ATOM      2  C   UNL A   1      33.251  29.991  26.446  1.00  0.00     0.116 C 
BRANCH   2   3
ATOM      3  N   UNL A   1      33.475  29.301  25.197  1.00  0.00    -0.355 N 
ATOM      4  C   UNL A   1      33.609  27.964  24.968  1.00  0.00     0.239 C 
ATOM      5  O   UNL A   1      33.669  27.582  23.797  1.00  0.00    -0.273 OA
ATOM      6  H   UNL A   1      33.539  29.876  24.399  1.00  0.00     0.163 HD
BRANCH   4   7
ATOM      7  C   UNL A   1      33.603  26.954  26.126  1.00  0.00     0.220 C 
BRANCH   7   8
ATOM      8  N   UNL A   1      32.364  26.181  26.264  1.00  0.00    -0.322 N 
BRANCH   8   9
ATOM      9  C   UNL A   1      31.093  26.905  26.168  1.00  0.00     0.209 C 
BRANCH   9  10
ATOM     10  C   UNL A   1      30.320  26.512  24.919  1.00  0.00    -0.085 C 
ATOM     11  C   UNL A   1      29.657  26.175  23.850  1.00  0.00     0.006 C 
ENDBRANCH   9  10
ENDBRANCH   8   9
BRANCH   8  12
ATOM     12  C   UNL A   1      32.312  24.805  26.482  1.00  0.00     0.233 C 
ATOM     13  O   UNL A   1      31.412  24.313  27.169  1.00  0.00    -0.274 OA
BRANCH  12  14
ATOM     14  C   UNL A   1      33.436  23.912  25.952  1.00  0.00     0.142 C 
ATOM     15  C   UNL A   1      33.500  22.591  26.715  1.00  0.00     0.274 C 
ATOM     16  C   UNL A   1      33.402  23.436  24.492  1.00  0.00     0.059 C 
ATOM     17  N   UNL A   1      34.432  21.779  25.920  1.00  0.00    -0.345 N 
ATOM     18  C   UNL A   1      34.056  22.044  24.527  1.00  0.00     0.264 C 
ATOM     19  C   UNL A   1      32.012  23.349  23.862  1.00  0.00     0.015 C 
ATOM     20  H   UNL A   1      34.325  20.789  26.140  1.00  0.00     0.346 HD
ATOM     21  H   UNL A   1      35.407  22.012  26.109  1.00  0.00     0.346 HD
ENDBRANCH  12  14
ENDBRANCH   8  12
ENDBRANCH   7   8
ENDBRANCH   4   7
ENDBRANCH   2   3
ENDBRANCH   1   2
BRANCH   1  22
ATOM     22  C   UNL A   1      31.611  31.965  26.651  1.00  0.00     0.023 C 
BRANCH  22  23
ATOM     23  C   UNL A   1      32.727  32.736  27.340  1.00  0.00     0.116 C 
BRANCH  23  24
ATOM     24  N   UNL A   1      32.382  34.119  27.632  1.00  0.00    -0.352 N 
ATOM     25  C   UNL A   1      32.960  34.969  28.544  1.00  0.00     0.251 C 
ATOM     26  H   UNL A   1      31.638  34.495  27.108  1.00  0.00     0.163 HD
ATOM     27  O   UNL A   1      32.490  36.084  28.742  1.00  0.00    -0.269 OA
BRANCH  25  28
ATOM     28  C   UNL A   1      34.129  34.507  29.317  1.00  0.00     0.039 A 
ATOM     29  C   UNL A   1      33.920  33.937  30.574  1.00  0.00     0.014 A 
ATOM     30  C   UNL A   1      35.418  34.592  28.783  1.00  0.00     0.014 A 
ATOM     31  C   UNL A   1      34.999  33.390  31.270  1.00  0.00     0.010 A 
ATOM     32  C   UNL A   1      36.479  33.981  29.443  1.00  0.00     0.010 A 
ATOM     33  C   UNL A   1      36.279  33.373  30.693  1.00  0.00    -0.014 A 
BRANCH  33  34
ATOM     34  C   UNL A   1      37.420  32.717  31.379  1.00  0.00     0.031 A 
ATOM     35  C   UNL A   1      38.116  31.550  30.736  1.00  0.00     0.074 A 
ATOM     36  C   UNL A   1      37.783  33.130  32.608  1.00  0.00     0.049 A 
ATOM     37  N   UNL A   1      39.085  30.806  31.204  1.00  0.00    -0.248 NA
ATOM     38  C   UNL A   1      37.643  31.149  29.402  1.00  0.00     0.031 C 
ATOM     39  C   UNL A   1      37.146  34.215  33.359  1.00  0.00     0.029 A 
ATOM     40  N   UNL A   1      38.768  32.679  33.451  1.00  0.00    -0.354 N 
ATOM     41  C   UNL A   1      39.324  29.842  30.233  1.00  0.00     0.074 A 
ATOM     42  C   UNL A   1      38.367  30.064  29.171  1.00  0.00     0.031 C 
ATOM     43  C   UNL A   1      37.768  34.355  34.541  1.00  0.00     0.029 A 
ATOM     44  C   UNL A   1      38.821  33.351  34.649  1.00  0.00     0.049 A 
ATOM     45  H   UNL A   1      39.380  31.942  33.219  1.00  0.00     0.167 HD
ATOM     46  C   UNL A   1      40.271  28.875  30.220  1.00  0.00     0.037 A 
ATOM     47  C   UNL A   1      39.624  33.170  35.715  1.00  0.00     0.037 A 
ATOM     48  C   UNL A   1      41.244  28.681  31.263  1.00  0.00     0.049 A 
ATOM     49  C   UNL A   1      40.676  32.093  35.665  1.00  0.00     0.074 A 
ATOM     50  C   UNL A   1      42.291  27.777  31.306  1.00  0.00     0.029 A 
ATOM     51  N   UNL A   1      41.287  29.402  32.446  1.00  0.00    -0.354 N 
ATOM     52  N   UNL A   1      40.945  31.243  34.704  1.00  0.00    -0.248 NA
ATOM     53  C   UNL A   1      41.541  31.959  36.845  1.00  0.00     0.031 C 
ATOM     54  C   UNL A   1      42.939  27.919  32.537  1.00  0.00     0.029 A 
ATOM     55  C   UNL A   1      42.330  28.948  33.237  1.00  0.00     0.049 A 
ATOM     56  H   UNL A   1      40.670  30.129  32.688  1.00  0.00     0.167 HD
ATOM     57  C   UNL A   1      42.027  30.494  35.150  1.00  0.00     0.074 A 
ATOM     58  C   UNL A   1      42.375  31.004  36.460  1.00  0.00     0.031 C 
ATOM     59  C   UNL A   1      42.671  29.475  34.532  1.00  0.00     0.037 A 
BRANCH  46  60
ATOM     60  C   UNL A   1      40.315  27.954  29.036  1.00  0.00     0.064 A 
ATOM     61  C   UNL A   1      39.585  26.757  29.007  1.00  0.00     0.173 A 
ATOM     62  C   UNL A   1      41.045  28.306  27.890  1.00  0.00     0.173 A 
ATOM     63  F   UNL A   1      38.880  26.370  30.081  1.00  0.00    -0.203 F 
ATOM     64  C   UNL A   1      39.600  25.935  27.883  1.00  0.00     0.198 A 
ATOM     65  C   UNL A   1      41.034  27.496  26.757  1.00  0.00     0.198 A 
ATOM     66  F   UNL A   1      41.758  29.442  27.863  1.00  0.00    -0.203 F 
ATOM     67  F   UNL A   1      38.926  24.777  27.893  1.00  0.00    -0.200 F 
ATOM     68  C   UNL A   1      40.315  26.310  26.756  1.00  0.00     0.200 A 
ATOM     69  F   UNL A   1      41.716  27.866  25.664  1.00  0.00    -0.200 F 
ATOM     70  F   UNL A   1      40.316  25.526  25.669  1.00  0.00    -0.200 F 
ENDBRANCH  46  60
BRANCH  47  71
ATOM     71  C   UNL A   1      39.479  34.033  36.916  1.00  0.00     0.064 A 
ATOM     72  C   UNL A   1      40.142  35.265  37.005  1.00  0.00     0.173 A 
ATOM     73  C   UNL A   1      38.699  33.633  38.011  1.00  0.00     0.173 A 
ATOM     74  F   UNL A   1      40.917  35.681  35.992  1.00  0.00    -0.203 F 
ATOM     75  C   UNL A   1      40.057  36.049  38.154  1.00  0.00     0.198 A 
ATOM     76  C   UNL A   1      38.588  34.433  39.148  1.00  0.00     0.198 A 
ATOM     77  F   UNL A   1      38.039  32.467  37.976  1.00  0.00    -0.203 F 
ATOM     78  F   UNL A   1      40.749  37.193  38.233  1.00  0.00    -0.200 F 
ATOM     79  C   UNL A   1      39.277  35.634  39.222  1.00  0.00     0.200 A 
ATOM     80  F   UNL A   1      37.823  34.035  40.172  1.00  0.00    -0.200 F 
ATOM     81  F   UNL A   1      39.198  36.386  40.328  1.00  0.00    -0.200 F 
ENDBRANCH  47  71
BRANCH  59  82
ATOM     82  C   UNL A   1      43.844  28.869  35.246  1.00  0.00     0.064 A 
ATOM     83  C   UNL A   1      43.692  27.796  36.137  1.00  0.00     0.173 A 
ATOM     84  C   UNL A   1      45.143  29.344  35.005  1.00  0.00     0.173 A 
ATOM     85  F   UNL A   1      42.469  27.317  36.411  1.00  0.00    -0.203 F 
ATOM     86  C   UNL A   1      44.793  27.239  36.781  1.00  0.00     0.198 A 
ATOM     87  C   UNL A   1      46.245  28.764  35.627  1.00  0.00     0.198 A 
ATOM     88  F   UNL A   1      45.343  30.363  34.156  1.00  0.00    -0.203 F 
ATOM     89  F   UNL A   1      44.618  26.248  37.665  1.00  0.00    -0.200 F 
ATOM     90  C   UNL A   1      46.068  27.718  36.520  1.00  0.00     0.200 A 
ATOM     91  F   UNL A   1      47.478  29.218  35.361  1.00  0.00    -0.200 F 
ATOM     92  F   UNL A   1      47.128  27.175  37.134  1.00  0.00    -0.200 F 
ENDBRANCH  59  82
ENDBRANCH  33  34
ENDBRANCH  25  28
ENDBRANCH  23  24
ENDBRANCH  22  23
ENDBRANCH   1  22
TORSDOF 16
ENDMDL
