MODEL 1
REMARK VINA RESULT:     -12.4      0.000      0.000
REMARK SMILES CC(C)c1cc(OCC(=O)NCCCCNC(=O)c2ccc(-c3c4nc(c(-c5c(F)c(F)c(F)c(F)c5F)c5ccc([nH]5)c(-c5c(F)c(F)c(F)c(F)c5F)c5nc(c(-c6c(F)c(F)c(F)c(F)c6F)c6ccc3[nH]6)C=C5)C=C4)cc2)nc(Nc2ccc(F)cc2F)n1
REMARK SMILES IDX 12 1 11 2 9 3 10 4 8 6 7 7 6 8 4 9 5 10 93 11 83 12 82 13
REMARK SMILES IDX 2 14 1 15 3 16 84 17 85 19 86 20 91 21 87 22 90 23 92 24
REMARK SMILES IDX 88 25 89 26 13 27 14 28 15 29 16 30 17 31 18 33 19 34 20 35
REMARK SMILES IDX 81 36 21 37 80 38 22 39 23 40 24 41 74 42 25 43 79 44 73 45
REMARK SMILES IDX 75 46 26 47 78 48 72 49 71 50 27 52 59 53 39 54 58 55 40 56
REMARK SMILES IDX 43 57 57 58 76 59 41 60 42 61 56 63 77 64 44 65 28 66 29 67
REMARK SMILES IDX 37 68 30 69 31 70 35 71 38 72 32 73 33 74 36 75 34 76 60 77
REMARK SMILES IDX 61 78 69 79 62 80 63 81 67 82 70 83 64 84 65 85 68 86 66 87
REMARK SMILES IDX 45 88 46 89 54 90 47 91 48 92 52 93 55 94 49 95 50 96 53 97
REMARK SMILES IDX 51 98
REMARK H PARENT 11 5 84 18 16 32 75 51 43 62
REMARK Flexibility Score: inf
ROOT
ATOM      1  C   UNL A   1      37.033  21.814  24.302  1.00  0.00     0.116 C 
ENDROOT
BRANCH   1   2
ATOM      2  N   UNL A   1      37.783  22.787  25.071  1.00  0.00    -0.353 N 
ATOM      3  C   UNL A   1      37.305  23.762  25.894  1.00  0.00     0.258 C 
ATOM      4  O   UNL A   1      38.109  24.487  26.484  1.00  0.00    -0.271 OA
ATOM      5  H   UNL A   1      38.763  22.736  24.989  1.00  0.00     0.163 HD
BRANCH   3   6
ATOM      6  C   UNL A   1      35.791  23.927  26.087  1.00  0.00     0.331 C 
BRANCH   6   7
ATOM      7  O   UNL A   1      35.099  24.739  25.156  1.00  0.00    -0.467 OA
BRANCH   7   8
ATOM      8  C   UNL A   1      33.821  24.385  24.820  1.00  0.00     0.218 A 
ATOM      9  C   UNL A   1      31.681  24.683  23.911  1.00  0.00     0.052 A 
ATOM     10  C   UNL A   1      32.876  25.243  24.306  1.00  0.00     0.092 A 
ATOM     11  N   UNL A   1      31.432  23.379  24.110  1.00  0.00    -0.217 NA
ATOM     12  C   UNL A   1      32.376  22.618  24.681  1.00  0.00     0.230 A 
ATOM     13  N   UNL A   1      33.577  23.081  25.040  1.00  0.00    -0.177 NA
BRANCH   9  14
ATOM     14  C   UNL A   1      30.600  25.525  23.256  1.00  0.00     0.032 C 
ATOM     15  C   UNL A   1      29.718  26.225  24.298  1.00  0.00     0.014 C 
ATOM     16  C   UNL A   1      31.169  26.579  22.296  1.00  0.00     0.014 C 
ENDBRANCH   9  14
BRANCH  12  17
ATOM     17  N   UNL A   1      32.073  21.303  25.029  1.00  0.00    -0.322 N 
ATOM     18  H   UNL A   1      31.421  21.186  25.758  1.00  0.00     0.170 HD
BRANCH  17  19
ATOM     19  C   UNL A   1      32.588  20.130  24.465  1.00  0.00     0.077 A 
ATOM     20  C   UNL A   1      33.334  19.253  25.265  1.00  0.00     0.032 A 
ATOM     21  C   UNL A   1      32.282  19.726  23.153  1.00  0.00     0.149 A 
ATOM     22  C   UNL A   1      33.744  18.010  24.768  1.00  0.00     0.041 A 
ATOM     23  C   UNL A   1      32.697  18.499  22.646  1.00  0.00     0.080 A 
ATOM     24  F   UNL A   1      31.613  20.551  22.330  1.00  0.00    -0.205 F 
ATOM     25  C   UNL A   1      33.418  17.647  23.466  1.00  0.00     0.126 A 
ATOM     26  F   UNL A   1      33.805  16.453  22.998  1.00  0.00    -0.207 F 
ENDBRANCH  17  19
ENDBRANCH  12  17
ENDBRANCH   7   8
ENDBRANCH   6   7
ENDBRANCH   3   6
ENDBRANCH   1   2
BRANCH   1  27
ATOM     27  C   UNL A   1      36.948  20.460  25.004  1.00  0.00     0.023 C 
BRANCH  27  28
ATOM     28  C   UNL A   1      38.193  19.579  24.874  1.00  0.00     0.023 C 
BRANCH  28  29
ATOM     29  C   UNL A   1      39.380  19.975  25.747  1.00  0.00     0.116 C 
BRANCH  29  30
ATOM     30  N   UNL A   1      40.383  18.929  25.861  1.00  0.00    -0.352 N 
ATOM     31  C   UNL A   1      41.728  19.034  26.120  1.00  0.00     0.251 C 
ATOM     32  H   UNL A   1      40.051  18.011  25.733  1.00  0.00     0.163 HD
ATOM     33  O   UNL A   1      42.447  18.039  26.059  1.00  0.00    -0.269 OA
BRANCH  31  34
ATOM     34  C   UNL A   1      42.326  20.349  26.440  1.00  0.00     0.039 A 
ATOM     35  C   UNL A   1      42.953  21.069  25.419  1.00  0.00     0.014 A 
ATOM     36  C   UNL A   1      42.268  20.877  27.732  1.00  0.00     0.014 A 
ATOM     37  C   UNL A   1      43.456  22.347  25.677  1.00  0.00     0.010 A 
ATOM     38  C   UNL A   1      42.700  22.180  27.970  1.00  0.00     0.010 A 
ATOM     39  C   UNL A   1      43.297  22.930  26.945  1.00  0.00    -0.014 A 
BRANCH  39  40
ATOM     40  C   UNL A   1      43.736  24.325  27.209  1.00  0.00     0.031 A 
ATOM     41  C   UNL A   1      42.755  25.348  27.713  1.00  0.00     0.074 A 
ATOM     42  C   UNL A   1      45.004  24.690  26.932  1.00  0.00     0.049 A 
ATOM     43  N   UNL A   1      42.932  26.627  27.938  1.00  0.00    -0.248 NA
ATOM     44  C   UNL A   1      41.386  24.878  27.976  1.00  0.00     0.031 C 
ATOM     45  C   UNL A   1      46.039  23.806  26.393  1.00  0.00     0.029 A 
ATOM     46  N   UNL A   1      45.635  25.904  27.051  1.00  0.00    -0.354 N 
ATOM     47  C   UNL A   1      41.698  27.113  28.351  1.00  0.00     0.074 A 
ATOM     48  C   UNL A   1      40.768  26.006  28.297  1.00  0.00     0.031 C 
ATOM     49  C   UNL A   1      47.179  24.500  26.249  1.00  0.00     0.029 A 
ATOM     50  C   UNL A   1      46.947  25.886  26.641  1.00  0.00     0.049 A 
ATOM     51  H   UNL A   1      45.190  26.711  27.398  1.00  0.00     0.167 HD
ATOM     52  C   UNL A   1      41.376  28.364  28.758  1.00  0.00     0.037 A 
ATOM     53  C   UNL A   1      47.856  26.878  26.575  1.00  0.00     0.037 A 
ATOM     54  C   UNL A   1      42.310  29.458  28.832  1.00  0.00     0.049 A 
ATOM     55  C   UNL A   1      47.467  28.262  27.022  1.00  0.00     0.074 A 
ATOM     56  C   UNL A   1      42.096  30.745  29.297  1.00  0.00     0.029 A 
ATOM     57  N   UNL A   1      43.634  29.398  28.422  1.00  0.00    -0.354 N 
ATOM     58  N   UNL A   1      46.318  28.691  27.487  1.00  0.00    -0.248 NA
ATOM     59  C   UNL A   1      48.504  29.300  26.942  1.00  0.00     0.031 C 
ATOM     60  C   UNL A   1      43.271  31.478  29.111  1.00  0.00     0.029 A 
ATOM     61  C   UNL A   1      44.238  30.633  28.594  1.00  0.00     0.049 A 
ATOM     62  H   UNL A   1      44.078  28.596  28.062  1.00  0.00     0.167 HD
ATOM     63  C   UNL A   1      46.503  30.035  27.783  1.00  0.00     0.074 A 
ATOM     64  C   UNL A   1      47.880  30.347  27.461  1.00  0.00     0.031 C 
ATOM     65  C   UNL A   1      45.613  30.930  28.277  1.00  0.00     0.037 A 
BRANCH  52  66
ATOM     66  C   UNL A   1      39.950  28.624  29.155  1.00  0.00     0.064 A 
ATOM     67  C   UNL A   1      38.997  29.082  28.232  1.00  0.00     0.173 A 
ATOM     68  C   UNL A   1      39.520  28.367  30.466  1.00  0.00     0.173 A 
ATOM     69  F   UNL A   1      39.356  29.351  26.967  1.00  0.00    -0.203 F 
ATOM     70  C   UNL A   1      37.675  29.300  28.614  1.00  0.00     0.198 A 
ATOM     71  C   UNL A   1      38.191  28.555  30.835  1.00  0.00     0.198 A 
ATOM     72  F   UNL A   1      40.386  27.922  31.388  1.00  0.00    -0.203 F 
ATOM     73  F   UNL A   1      36.796  29.786  27.726  1.00  0.00    -0.200 F 
ATOM     74  C   UNL A   1      37.272  29.029  29.912  1.00  0.00     0.200 A 
ATOM     75  F   UNL A   1      37.798  28.277  32.086  1.00  0.00    -0.200 F 
ATOM     76  F   UNL A   1      35.997  29.230  30.275  1.00  0.00    -0.200 F 
ENDBRANCH  52  66
BRANCH  53  77
ATOM     77  C   UNL A   1      49.230  26.598  26.077  1.00  0.00     0.064 A 
ATOM     78  C   UNL A   1      49.587  26.878  24.750  1.00  0.00     0.173 A 
ATOM     79  C   UNL A   1      50.206  26.031  26.909  1.00  0.00     0.173 A 
ATOM     80  F   UNL A   1      48.683  27.400  23.909  1.00  0.00    -0.203 F 
ATOM     81  C   UNL A   1      50.859  26.575  24.268  1.00  0.00     0.198 A 
ATOM     82  C   UNL A   1      51.488  25.760  26.435  1.00  0.00     0.198 A 
ATOM     83  F   UNL A   1      49.918  25.749  28.188  1.00  0.00    -0.203 F 
ATOM     84  F   UNL A   1      51.155  26.799  22.981  1.00  0.00    -0.200 F 
ATOM     85  C   UNL A   1      51.810  26.021  25.111  1.00  0.00     0.200 A 
ATOM     86  F   UNL A   1      52.409  25.240  27.257  1.00  0.00    -0.200 F 
ATOM     87  F   UNL A   1      53.033  25.731  24.647  1.00  0.00    -0.200 F 
ENDBRANCH  53  77
BRANCH  65  88
ATOM     88  C   UNL A   1      46.108  32.323  28.542  1.00  0.00     0.064 A 
ATOM     89  C   UNL A   1      46.747  32.666  29.742  1.00  0.00     0.173 A 
ATOM     90  C   UNL A   1      45.977  33.320  27.561  1.00  0.00     0.173 A 
ATOM     91  F   UNL A   1      46.886  31.756  30.718  1.00  0.00    -0.203 F 
ATOM     92  C   UNL A   1      47.210  33.961  29.963  1.00  0.00     0.198 A 
ATOM     93  C   UNL A   1      46.472  34.603  27.771  1.00  0.00     0.198 A 
ATOM     94  F   UNL A   1      45.381  33.044  26.392  1.00  0.00    -0.203 F 
ATOM     95  F   UNL A   1      47.769  34.279  31.140  1.00  0.00    -0.200 F 
ATOM     96  C   UNL A   1      47.079  34.926  28.976  1.00  0.00     0.200 A 
ATOM     97  F   UNL A   1      46.361  35.529  26.809  1.00  0.00    -0.200 F 
ATOM     98  F   UNL A   1      47.535  36.169  29.186  1.00  0.00    -0.200 F 
ENDBRANCH  65  88
ENDBRANCH  39  40
ENDBRANCH  31  34
ENDBRANCH  29  30
ENDBRANCH  28  29
ENDBRANCH  27  28
ENDBRANCH   1  27
TORSDOF 16
ENDMDL
MODEL 2
REMARK VINA RESULT:     -12.4      2.256      8.113
REMARK SMILES CC(C)c1cc(OCC(=O)NCCCCNC(=O)c2ccc(-c3c4nc(c(-c5c(F)c(F)c(F)c(F)c5F)c5ccc([nH]5)c(-c5c(F)c(F)c(F)c(F)c5F)c5nc(c(-c6c(F)c(F)c(F)c(F)c6F)c6ccc3[nH]6)C=C5)C=C4)cc2)nc(Nc2ccc(F)cc2F)n1
REMARK SMILES IDX 12 1 11 2 9 3 10 4 8 6 7 7 6 8 4 9 5 10 93 11 83 12 82 13
REMARK SMILES IDX 2 14 1 15 3 16 84 17 85 19 86 20 91 21 87 22 90 23 92 24
REMARK SMILES IDX 88 25 89 26 13 27 14 28 15 29 16 30 17 31 18 33 19 34 20 35
REMARK SMILES IDX 81 36 21 37 80 38 22 39 23 40 24 41 74 42 25 43 79 44 73 45
REMARK SMILES IDX 75 46 26 47 78 48 72 49 71 50 27 52 59 53 39 54 58 55 40 56
REMARK SMILES IDX 43 57 57 58 76 59 41 60 42 61 56 63 77 64 44 65 28 66 29 67
REMARK SMILES IDX 37 68 30 69 31 70 35 71 38 72 32 73 33 74 36 75 34 76 60 77
REMARK SMILES IDX 61 78 69 79 62 80 63 81 67 82 70 83 64 84 65 85 68 86 66 87
REMARK SMILES IDX 45 88 46 89 54 90 47 91 48 92 52 93 55 94 49 95 50 96 53 97
REMARK SMILES IDX 51 98
REMARK H PARENT 11 5 84 18 16 32 75 51 43 62
REMARK Flexibility Score: inf
ROOT
ATOM      1  C   UNL A   1      37.121  21.938  24.776  1.00  0.00     0.116 C 
ENDROOT
BRANCH   1   2
ATOM      2  N   UNL A   1      36.441  22.411  23.587  1.00  0.00    -0.353 N 
ATOM      3  C   UNL A   1      35.220  23.008  23.494  1.00  0.00     0.258 C 
ATOM      4  O   UNL A   1      34.816  23.363  22.384  1.00  0.00    -0.271 OA
ATOM      5  H   UNL A   1      36.924  22.286  22.737  1.00  0.00     0.163 HD
BRANCH   3   6
ATOM      6  C   UNL A   1      34.385  23.246  24.760  1.00  0.00     0.331 C 
BRANCH   6   7
ATOM      7  O   UNL A   1      33.009  23.536  24.590  1.00  0.00    -0.467 OA
BRANCH   7   8
ATOM      8  C   UNL A   1      32.598  24.827  24.772  1.00  0.00     0.218 A 
ATOM      9  C   UNL A   1      32.477  26.909  25.843  1.00  0.00     0.052 A 
ATOM     10  C   UNL A   1      32.866  25.589  25.887  1.00  0.00     0.092 A 
ATOM     11  N   UNL A   1      31.788  27.390  24.795  1.00  0.00    -0.217 NA
ATOM     12  C   UNL A   1      31.502  26.570  23.775  1.00  0.00     0.230 A 
ATOM     13  N   UNL A   1      31.894  25.294  23.725  1.00  0.00    -0.177 NA
BRANCH   9  14
ATOM     14  C   UNL A   1      32.795  27.858  26.985  1.00  0.00     0.032 C 
ATOM     15  C   UNL A   1      34.145  28.557  26.782  1.00  0.00     0.014 C 
ATOM     16  C   UNL A   1      31.709  28.924  27.190  1.00  0.00     0.014 C 
ENDBRANCH   9  14
BRANCH  12  17
ATOM     17  N   UNL A   1      30.662  27.016  22.757  1.00  0.00    -0.322 N 
ATOM     18  H   UNL A   1      30.664  26.484  21.928  1.00  0.00     0.170 HD
BRANCH  17  19
ATOM     19  C   UNL A   1      29.817  28.132  22.774  1.00  0.00     0.077 A 
ATOM     20  C   UNL A   1      30.280  29.353  22.265  1.00  0.00     0.032 A 
ATOM     21  C   UNL A   1      28.468  28.050  23.167  1.00  0.00     0.149 A 
ATOM     22  C   UNL A   1      29.416  30.447  22.142  1.00  0.00     0.041 A 
ATOM     23  C   UNL A   1      27.606  29.137  23.062  1.00  0.00     0.080 A 
ATOM     24  F   UNL A   1      27.988  26.918  23.708  1.00  0.00    -0.205 F 
ATOM     25  C   UNL A   1      28.089  30.325  22.539  1.00  0.00     0.126 A 
ATOM     26  F   UNL A   1      27.264  31.372  22.411  1.00  0.00    -0.207 F 
ENDBRANCH  17  19
ENDBRANCH  12  17
ENDBRANCH   7   8
ENDBRANCH   6   7
ENDBRANCH   3   6
ENDBRANCH   1   2
BRANCH   1  27
ATOM     27  C   UNL A   1      36.913  20.443  25.008  1.00  0.00     0.023 C 
BRANCH  27  28
ATOM     28  C   UNL A   1      38.179  19.586  24.912  1.00  0.00     0.023 C 
BRANCH  28  29
ATOM     29  C   UNL A   1      39.319  19.983  25.844  1.00  0.00     0.116 C 
BRANCH  29  30
ATOM     30  N   UNL A   1      40.389  18.999  25.894  1.00  0.00    -0.352 N 
ATOM     31  C   UNL A   1      41.730  19.179  26.129  1.00  0.00     0.251 C 
ATOM     32  H   UNL A   1      40.112  18.068  25.736  1.00  0.00     0.163 HD
ATOM     33  O   UNL A   1      42.508  18.235  26.012  1.00  0.00    -0.269 OA
BRANCH  31  34
ATOM     34  C   UNL A   1      42.251  20.516  26.490  1.00  0.00     0.039 A 
ATOM     35  C   UNL A   1      42.755  21.337  25.477  1.00  0.00     0.014 A 
ATOM     36  C   UNL A   1      42.242  20.965  27.813  1.00  0.00     0.014 A 
ATOM     37  C   UNL A   1      43.181  22.633  25.780  1.00  0.00     0.010 A 
ATOM     38  C   UNL A   1      42.595  22.281  28.103  1.00  0.00     0.010 A 
ATOM     39  C   UNL A   1      43.066  23.131  27.089  1.00  0.00    -0.014 A 
BRANCH  39  40
ATOM     40  C   UNL A   1      43.419  24.538  27.410  1.00  0.00     0.031 A 
ATOM     41  C   UNL A   1      44.858  24.976  27.429  1.00  0.00     0.074 A 
ATOM     42  C   UNL A   1      42.448  25.408  27.752  1.00  0.00     0.049 A 
ATOM     43  N   UNL A   1      45.366  26.140  27.750  1.00  0.00    -0.248 NA
ATOM     44  C   UNL A   1      45.862  23.965  27.061  1.00  0.00     0.031 C 
ATOM     45  C   UNL A   1      41.019  25.096  27.820  1.00  0.00     0.029 A 
ATOM     46  N   UNL A   1      42.515  26.730  28.119  1.00  0.00    -0.354 N 
ATOM     47  C   UNL A   1      46.744  25.995  27.639  1.00  0.00     0.074 A 
ATOM     48  C   UNL A   1      46.995  24.618  27.272  1.00  0.00     0.031 C 
ATOM     49  C   UNL A   1      40.345  26.198  28.184  1.00  0.00     0.029 A 
ATOM     50  C   UNL A   1      41.293  27.282  28.419  1.00  0.00     0.049 A 
ATOM     51  H   UNL A   1      43.360  27.234  28.163  1.00  0.00     0.167 HD
ATOM     52  C   UNL A   1      47.708  26.931  27.808  1.00  0.00     0.037 A 
ATOM     53  C   UNL A   1      40.973  28.519  28.848  1.00  0.00     0.037 A 
ATOM     54  C   UNL A   1      47.453  28.306  28.151  1.00  0.00     0.049 A 
ATOM     55  C   UNL A   1      42.067  29.535  29.039  1.00  0.00     0.074 A 
ATOM     56  C   UNL A   1      48.358  29.346  28.278  1.00  0.00     0.029 A 
ATOM     57  N   UNL A   1      46.200  28.831  28.433  1.00  0.00    -0.354 N 
ATOM     58  N   UNL A   1      43.359  29.408  28.853  1.00  0.00    -0.248 NA
ATOM     59  C   UNL A   1      41.658  30.872  29.494  1.00  0.00     0.031 C 
ATOM     60  C   UNL A   1      47.661  30.484  28.694  1.00  0.00     0.029 A 
ATOM     61  C   UNL A   1      46.314  30.172  28.763  1.00  0.00     0.049 A 
ATOM     62  H   UNL A   1      45.355  28.326  28.403  1.00  0.00     0.167 HD
ATOM     63  C   UNL A   1      43.910  30.651  29.137  1.00  0.00     0.074 A 
ATOM     64  C   UNL A   1      42.811  31.523  29.491  1.00  0.00     0.031 C 
ATOM     65  C   UNL A   1      45.211  31.034  29.106  1.00  0.00     0.037 A 
BRANCH  52  66
ATOM     66  C   UNL A   1      49.137  26.502  27.627  1.00  0.00     0.064 A 
ATOM     67  C   UNL A   1      49.714  26.369  26.354  1.00  0.00     0.173 A 
ATOM     68  C   UNL A   1      49.955  26.265  28.742  1.00  0.00     0.173 A 
ATOM     69  F   UNL A   1      48.975  26.575  25.252  1.00  0.00    -0.203 F 
ATOM     70  C   UNL A   1      51.045  25.988  26.206  1.00  0.00     0.198 A 
ATOM     71  C   UNL A   1      51.294  25.916  28.591  1.00  0.00     0.198 A 
ATOM     72  F   UNL A   1      49.458  26.384  29.983  1.00  0.00    -0.203 F 
ATOM     73  F   UNL A   1      51.558  25.818  24.979  1.00  0.00    -0.200 F 
ATOM     74  C   UNL A   1      51.836  25.770  27.324  1.00  0.00     0.200 A 
ATOM     75  F   UNL A   1      52.061  25.722  29.672  1.00  0.00    -0.200 F 
ATOM     76  F   UNL A   1      53.120  25.413  27.179  1.00  0.00    -0.200 F 
ENDBRANCH  52  66
BRANCH  53  77
ATOM     77  C   UNL A   1      39.553  28.872  29.115  1.00  0.00     0.064 A 
ATOM     78  C   UNL A   1      38.745  29.423  28.110  1.00  0.00     0.173 A 
ATOM     79  C   UNL A   1      38.980  28.684  30.381  1.00  0.00     0.173 A 
ATOM     80  F   UNL A   1      39.252  29.643  26.888  1.00  0.00    -0.203 F 
ATOM     81  C   UNL A   1      37.427  29.797  28.369  1.00  0.00     0.198 A 
ATOM     82  C   UNL A   1      37.653  29.027  30.630  1.00  0.00     0.198 A 
ATOM     83  F   UNL A   1      39.708  28.156  31.376  1.00  0.00    -0.203 F 
ATOM     84  F   UNL A   1      36.697  30.374  27.406  1.00  0.00    -0.200 F 
ATOM     85  C   UNL A   1      36.881  29.595  29.627  1.00  0.00     0.200 A 
ATOM     86  F   UNL A   1      37.124  28.815  31.843  1.00  0.00    -0.200 F 
ATOM     87  F   UNL A   1      35.615  29.955  29.875  1.00  0.00    -0.200 F 
ENDBRANCH  53  77
BRANCH  65  88
ATOM     88  C   UNL A   1      45.515  32.470  29.423  1.00  0.00     0.064 A 
ATOM     89  C   UNL A   1      45.492  33.467  28.437  1.00  0.00     0.173 A 
ATOM     90  C   UNL A   1      45.794  32.861  30.743  1.00  0.00     0.173 A 
ATOM     91  F   UNL A   1      45.245  33.147  27.158  1.00  0.00    -0.203 F 
ATOM     92  C   UNL A   1      45.765  34.796  28.754  1.00  0.00     0.198 A 
ATOM     93  C   UNL A   1      46.031  34.194  31.062  1.00  0.00     0.198 A 
ATOM     94  F   UNL A   1      45.821  31.950  31.727  1.00  0.00    -0.203 F 
ATOM     95  F   UNL A   1      45.791  35.722  27.785  1.00  0.00    -0.200 F 
ATOM     96  C   UNL A   1      46.027  35.159  30.067  1.00  0.00     0.200 A 
ATOM     97  F   UNL A   1      46.266  34.546  32.334  1.00  0.00    -0.200 F 
ATOM     98  F   UNL A   1      46.279  36.440  30.371  1.00  0.00    -0.200 F 
ENDBRANCH  65  88
ENDBRANCH  39  40
ENDBRANCH  31  34
ENDBRANCH  29  30
ENDBRANCH  28  29
ENDBRANCH  27  28
ENDBRANCH   1  27
TORSDOF 16
ENDMDL
MODEL 3
REMARK VINA RESULT:     -12.4      6.845     11.534
REMARK SMILES CC(C)c1cc(OCC(=O)NCCCCNC(=O)c2ccc(-c3c4nc(c(-c5c(F)c(F)c(F)c(F)c5F)c5ccc([nH]5)c(-c5c(F)c(F)c(F)c(F)c5F)c5nc(c(-c6c(F)c(F)c(F)c(F)c6F)c6ccc3[nH]6)C=C5)C=C4)cc2)nc(Nc2ccc(F)cc2F)n1
REMARK SMILES IDX 12 1 11 2 9 3 10 4 8 6 7 7 6 8 4 9 5 10 93 11 83 12 82 13
REMARK SMILES IDX 2 14 1 15 3 16 84 17 85 19 86 20 91 21 87 22 90 23 92 24
REMARK SMILES IDX 88 25 89 26 13 27 14 28 15 29 16 30 17 31 18 33 19 34 20 35
REMARK SMILES IDX 81 36 21 37 80 38 22 39 23 40 24 41 74 42 25 43 79 44 73 45
REMARK SMILES IDX 75 46 26 47 78 48 72 49 71 50 27 52 59 53 39 54 58 55 40 56
REMARK SMILES IDX 43 57 57 58 76 59 41 60 42 61 56 63 77 64 44 65 28 66 29 67
REMARK SMILES IDX 37 68 30 69 31 70 35 71 38 72 32 73 33 74 36 75 34 76 60 77
REMARK SMILES IDX 61 78 69 79 62 80 63 81 67 82 70 83 64 84 65 85 68 86 66 87
REMARK SMILES IDX 45 88 46 89 54 90 47 91 48 92 52 93 55 94 49 95 50 96 53 97
REMARK SMILES IDX 51 98
REMARK H PARENT 11 5 84 18 16 32 75 51 43 62
REMARK Flexibility Score: inf
ROOT
ATOM      1  C   UNL A   1      34.044  32.264  28.040  1.00  0.00     0.116 C 
ENDROOT
BRANCH   1   2
ATOM      2  N   UNL A   1      35.200  31.390  28.047  1.00  0.00    -0.353 N 
ATOM      3  C   UNL A   1      35.285  30.100  27.614  1.00  0.00     0.258 C 
ATOM      4  O   UNL A   1      36.371  29.521  27.683  1.00  0.00    -0.271 OA
ATOM      5  H   UNL A   1      36.029  31.777  28.410  1.00  0.00     0.163 HD
BRANCH   3   6
ATOM      6  C   UNL A   1      34.046  29.403  27.034  1.00  0.00     0.331 C 
BRANCH   6   7
ATOM      7  O   UNL A   1      33.406  30.021  25.931  1.00  0.00    -0.467 OA
BRANCH   7   8
ATOM      8  C   UNL A   1      32.775  29.217  25.023  1.00  0.00     0.218 A 
ATOM      9  C   UNL A   1      32.540  27.391  23.573  1.00  0.00     0.052 A 
ATOM     10  C   UNL A   1      33.363  28.165  24.358  1.00  0.00     0.092 A 
ATOM     11  N   UNL A   1      31.247  27.713  23.401  1.00  0.00    -0.217 NA
ATOM     12  C   UNL A   1      30.760  28.793  24.026  1.00  0.00     0.230 A 
ATOM     13  N   UNL A   1      31.486  29.560  24.845  1.00  0.00    -0.177 NA
BRANCH   9  14
ATOM     14  C   UNL A   1      33.069  26.158  22.860  1.00  0.00     0.032 C 
ATOM     15  C   UNL A   1      34.024  25.354  23.751  1.00  0.00     0.014 C 
ATOM     16  C   UNL A   1      31.948  25.231  22.368  1.00  0.00     0.014 C 
ENDBRANCH   9  14
BRANCH  12  17
ATOM     17  N   UNL A   1      29.466  29.223  23.737  1.00  0.00    -0.322 N 
ATOM     18  H   UNL A   1      28.735  28.710  24.152  1.00  0.00     0.170 HD
BRANCH  17  19
ATOM     19  C   UNL A   1      29.085  30.297  22.924  1.00  0.00     0.077 A 
ATOM     20  C   UNL A   1      28.619  30.045  21.626  1.00  0.00     0.032 A 
ATOM     21  C   UNL A   1      29.029  31.620  23.400  1.00  0.00     0.149 A 
ATOM     22  C   UNL A   1      28.102  31.083  20.842  1.00  0.00     0.041 A 
ATOM     23  C   UNL A   1      28.530  32.659  22.622  1.00  0.00     0.080 A 
ATOM     24  F   UNL A   1      29.509  31.922  24.617  1.00  0.00    -0.205 F 
ATOM     25  C   UNL A   1      28.061  32.377  21.350  1.00  0.00     0.126 A 
ATOM     26  F   UNL A   1      27.557  33.364  20.598  1.00  0.00    -0.207 F 
ENDBRANCH  17  19
ENDBRANCH  12  17
ENDBRANCH   7   8
ENDBRANCH   6   7
ENDBRANCH   3   6
ENDBRANCH   1   2
BRANCH   1  27
ATOM     27  C   UNL A   1      34.226  33.473  28.955  1.00  0.00     0.023 C 
BRANCH  27  28
ATOM     28  C   UNL A   1      33.207  34.599  28.758  1.00  0.00     0.023 C 
BRANCH  28  29
ATOM     29  C   UNL A   1      33.475  35.881  29.540  1.00  0.00     0.116 C 
BRANCH  29  30
ATOM     30  N   UNL A   1      32.533  36.099  30.626  1.00  0.00    -0.352 N 
ATOM     31  C   UNL A   1      32.600  35.690  31.936  1.00  0.00     0.251 C 
ATOM     32  H   UNL A   1      31.728  36.613  30.388  1.00  0.00     0.163 HD
ATOM     33  O   UNL A   1      31.643  35.866  32.686  1.00  0.00    -0.269 OA
BRANCH  31  34
ATOM     34  C   UNL A   1      33.811  35.007  32.442  1.00  0.00     0.039 A 
ATOM     35  C   UNL A   1      33.692  33.699  32.923  1.00  0.00     0.014 A 
ATOM     36  C   UNL A   1      35.055  35.641  32.442  1.00  0.00     0.014 A 
ATOM     37  C   UNL A   1      34.833  33.004  33.334  1.00  0.00     0.010 A 
ATOM     38  C   UNL A   1      36.201  34.923  32.780  1.00  0.00     0.010 A 
ATOM     39  C   UNL A   1      36.103  33.596  33.227  1.00  0.00    -0.014 A 
BRANCH  39  40
ATOM     40  C   UNL A   1      37.335  32.837  33.565  1.00  0.00     0.031 A 
ATOM     41  C   UNL A   1      38.091  33.137  34.830  1.00  0.00     0.074 A 
ATOM     42  C   UNL A   1      37.813  31.921  32.698  1.00  0.00     0.049 A 
ATOM     43  N   UNL A   1      39.219  32.630  35.262  1.00  0.00    -0.248 NA
ATOM     44  C   UNL A   1      37.516  34.160  35.717  1.00  0.00     0.031 C 
ATOM     45  C   UNL A   1      37.201  31.572  31.415  1.00  0.00     0.029 A 
ATOM     46  N   UNL A   1      38.931  31.126  32.758  1.00  0.00    -0.354 N 
ATOM     47  C   UNL A   1      39.494  33.283  36.457  1.00  0.00     0.074 A 
ATOM     48  C   UNL A   1      38.444  34.259  36.657  1.00  0.00     0.031 C 
ATOM     49  C   UNL A   1      37.938  30.621  30.820  1.00  0.00     0.029 A 
ATOM     50  C   UNL A   1      39.097  30.324  31.655  1.00  0.00     0.049 A 
ATOM     51  H   UNL A   1      39.555  31.131  33.520  1.00  0.00     0.167 HD
ATOM     52  C   UNL A   1      40.519  33.073  37.318  1.00  0.00     0.037 A 
ATOM     53  C   UNL A   1      40.079  29.455  31.345  1.00  0.00     0.037 A 
ATOM     54  C   UNL A   1      41.549  32.086  37.127  1.00  0.00     0.049 A 
ATOM     55  C   UNL A   1      41.212  29.251  32.315  1.00  0.00     0.074 A 
ATOM     56  C   UNL A   1      42.590  31.750  37.976  1.00  0.00     0.029 A 
ATOM     57  N   UNL A   1      41.676  31.281  36.004  1.00  0.00    -0.354 N 
ATOM     58  N   UNL A   1      41.419  29.816  33.480  1.00  0.00    -0.248 NA
ATOM     59  C   UNL A   1      42.247  28.281  31.931  1.00  0.00     0.031 C 
ATOM     60  C   UNL A   1      43.380  30.787  37.340  1.00  0.00     0.029 A 
ATOM     61  C   UNL A   1      42.795  30.473  36.125  1.00  0.00     0.049 A 
ATOM     62  H   UNL A   1      41.061  31.284  35.235  1.00  0.00     0.167 HD
ATOM     63  C   UNL A   1      42.584  29.250  33.979  1.00  0.00     0.074 A 
ATOM     64  C   UNL A   1      43.031  28.284  32.998  1.00  0.00     0.031 C 
ATOM     65  C   UNL A   1      43.226  29.508  35.145  1.00  0.00     0.037 A 
BRANCH  52  66
ATOM     66  C   UNL A   1      40.581  33.930  38.551  1.00  0.00     0.064 A 
ATOM     67  C   UNL A   1      41.312  35.128  38.584  1.00  0.00     0.173 A 
ATOM     68  C   UNL A   1      39.861  33.573  39.701  1.00  0.00     0.173 A 
ATOM     69  F   UNL A   1      42.025  35.514  37.514  1.00  0.00    -0.203 F 
ATOM     70  C   UNL A   1      41.344  35.919  39.730  1.00  0.00     0.198 A 
ATOM     71  C   UNL A   1      39.868  34.382  40.834  1.00  0.00     0.198 A 
ATOM     72  F   UNL A   1      39.139  32.442  39.724  1.00  0.00    -0.203 F 
ATOM     73  F   UNL A   1      42.091  37.032  39.753  1.00  0.00    -0.200 F 
ATOM     74  C   UNL A   1      40.616  35.549  40.851  1.00  0.00     0.200 A 
ATOM     75  F   UNL A   1      39.152  34.032  41.911  1.00  0.00    -0.200 F 
ATOM     76  F   UNL A   1      40.639  36.317  41.949  1.00  0.00    -0.200 F 
ENDBRANCH  52  66
BRANCH  53  77
ATOM     77  C   UNL A   1      40.032  28.702  30.063  1.00  0.00     0.064 A 
ATOM     78  C   UNL A   1      39.423  27.440  29.989  1.00  0.00     0.173 A 
ATOM     79  C   UNL A   1      40.608  29.216  28.892  1.00  0.00     0.173 A 
ATOM     80  F   UNL A   1      38.878  26.895  31.086  1.00  0.00    -0.203 F 
ATOM     81  C   UNL A   1      39.417  26.711  28.801  1.00  0.00     0.198 A 
ATOM     82  C   UNL A   1      40.571  28.502  27.697  1.00  0.00     0.198 A 
ATOM     83  F   UNL A   1      41.198  30.420  28.907  1.00  0.00    -0.203 F 
ATOM     84  F   UNL A   1      38.880  25.485  28.774  1.00  0.00    -0.200 F 
ATOM     85  C   UNL A   1      39.987  27.244  27.655  1.00  0.00     0.200 A 
ATOM     86  F   UNL A   1      41.109  29.027  26.588  1.00  0.00    -0.200 F 
ATOM     87  F   UNL A   1      39.980  26.544  26.513  1.00  0.00    -0.200 F 
ENDBRANCH  53  77
BRANCH  65  88
ATOM     88  C   UNL A   1      44.458  28.704  35.448  1.00  0.00     0.064 A 
ATOM     89  C   UNL A   1      44.393  27.473  36.117  1.00  0.00     0.173 A 
ATOM     90  C   UNL A   1      45.720  29.154  35.025  1.00  0.00     0.173 A 
ATOM     91  F   UNL A   1      43.216  27.003  36.554  1.00  0.00    -0.203 F 
ATOM     92  C   UNL A   1      45.547  26.737  36.377  1.00  0.00     0.198 A 
ATOM     93  C   UNL A   1      46.866  28.399  35.255  1.00  0.00     0.198 A 
ATOM     94  F   UNL A   1      45.838  30.321  34.374  1.00  0.00    -0.203 F 
ATOM     95  F   UNL A   1      45.466  25.589  37.065  1.00  0.00    -0.200 F 
ATOM     96  C   UNL A   1      46.780  27.196  35.939  1.00  0.00     0.200 A 
ATOM     97  F   UNL A   1      48.054  28.837  34.816  1.00  0.00    -0.200 F 
ATOM     98  F   UNL A   1      47.888  26.482  36.182  1.00  0.00    -0.200 F 
ENDBRANCH  65  88
ENDBRANCH  39  40
ENDBRANCH  31  34
ENDBRANCH  29  30
ENDBRANCH  28  29
ENDBRANCH  27  28
ENDBRANCH   1  27
TORSDOF 16
ENDMDL
