MODEL 1
REMARK VINA RESULT:     -12.6      0.000      0.000
REMARK SMILES O=C(NCCCCNC(=O)[C@@H]1CCCN(C(=O)Nc2ccccc2)C1)c1ccc(-c2c3nc(c(-c4c(F)c(F)c(F)c(F)c4F)c4ccc([nH]4)c(-c4c(F)c(F)c(F)c(F)c4F)c4nc(c(-c5c(F)c(F)c(F)c(F)c5F)c5ccc2[nH]5)C=C4)C=C3)cc1
REMARK SMILES IDX 5 1 4 2 3 3 1 4 2 5 26 7 27 8 88 9 28 10 87 11 29 12 30 13
REMARK SMILES IDX 31 14 81 15 32 16 86 17 80 18 82 19 33 20 85 21 79 22 78 23
REMARK SMILES IDX 34 25 66 26 46 27 65 28 47 29 50 30 64 31 83 32 48 33 49 34
REMARK SMILES IDX 63 36 84 37 51 38 35 39 36 40 44 41 37 42 38 43 42 44 45 45
REMARK SMILES IDX 39 46 40 47 43 48 41 49 67 50 68 51 76 52 69 53 70 54 74 55
REMARK SMILES IDX 77 56 71 57 72 58 75 59 73 60 52 61 53 62 61 63 54 64 55 65
REMARK SMILES IDX 59 66 62 67 56 68 57 69 60 70 58 71 6 72 7 73 8 74 9 75
REMARK SMILES IDX 10 77 11 78 12 79 25 80 13 81 15 82 14 83 16 84 17 85 18 86
REMARK SMILES IDX 19 88 20 89 24 90 21 91 23 92 22 93
REMARK H PARENT 3 6 82 24 50 35 8 76 18 87
REMARK Flexibility Score: inf
ROOT
ATOM      1  C   UNL A   1      38.314  19.606  25.013  1.00  0.00     0.023 C 
ENDROOT
BRANCH   1   2
ATOM      2  C   UNL A   1      39.372  19.916  26.060  1.00  0.00     0.116 C 
BRANCH   2   3
ATOM      3  N   UNL A   1      40.486  18.981  26.035  1.00  0.00    -0.352 N 
ATOM      4  O   UNL A   1      42.657  18.366  25.954  1.00  0.00    -0.269 OA
ATOM      5  C   UNL A   1      41.832  19.250  26.119  1.00  0.00     0.251 C 
ATOM      6  H   UNL A   1      40.244  18.031  25.950  1.00  0.00     0.163 HD
BRANCH   5   7
ATOM      7  C   UNL A   1      42.267  20.637  26.385  1.00  0.00     0.039 A 
ATOM      8  C   UNL A   1      42.467  21.527  25.327  1.00  0.00     0.014 A 
ATOM      9  C   UNL A   1      42.484  21.042  27.704  1.00  0.00     0.014 A 
ATOM     10  C   UNL A   1      43.001  22.783  25.577  1.00  0.00     0.010 A 
ATOM     11  C   UNL A   1      42.940  22.338  27.960  1.00  0.00     0.010 A 
ATOM     12  C   UNL A   1      43.216  23.210  26.897  1.00  0.00    -0.014 A 
BRANCH  12  13
ATOM     13  C   UNL A   1      43.613  24.617  27.139  1.00  0.00     0.031 A 
ATOM     14  C   UNL A   1      42.635  25.632  27.653  1.00  0.00     0.074 A 
ATOM     15  C   UNL A   1      44.892  24.960  26.889  1.00  0.00     0.049 A 
ATOM     16  N   UNL A   1      42.831  26.902  27.909  1.00  0.00    -0.248 NA
ATOM     17  C   UNL A   1      41.261  25.174  27.906  1.00  0.00     0.031 C 
ATOM     18  C   UNL A   1      45.917  24.053  26.367  1.00  0.00     0.029 A 
ATOM     19  N   UNL A   1      45.553  26.150  27.048  1.00  0.00    -0.354 N 
ATOM     20  C   UNL A   1      41.606  27.397  28.335  1.00  0.00     0.074 A 
ATOM     21  C   UNL A   1      40.666  26.297  28.290  1.00  0.00     0.031 C 
ATOM     22  C   UNL A   1      47.083  24.707  26.280  1.00  0.00     0.029 A 
ATOM     23  C   UNL A   1      46.874  26.094  26.676  1.00  0.00     0.049 A 
ATOM     24  H   UNL A   1      45.124  26.966  27.393  1.00  0.00     0.167 HD
ATOM     25  C   UNL A   1      41.305  28.658  28.728  1.00  0.00     0.037 A 
ATOM     26  C   UNL A   1      47.808  27.059  26.630  1.00  0.00     0.037 A 
ATOM     27  C   UNL A   1      42.257  29.738  28.793  1.00  0.00     0.049 A 
ATOM     28  C   UNL A   1      47.433  28.449  27.056  1.00  0.00     0.074 A 
ATOM     29  C   UNL A   1      42.065  31.032  29.245  1.00  0.00     0.029 A 
ATOM     30  N   UNL A   1      43.581  29.651  28.384  1.00  0.00    -0.354 N 
ATOM     31  N   UNL A   1      46.285  28.891  27.510  1.00  0.00    -0.248 NA
ATOM     32  C   UNL A   1      48.478  29.475  26.956  1.00  0.00     0.031 C 
ATOM     33  C   UNL A   1      43.255  31.743  29.062  1.00  0.00     0.029 A 
ATOM     34  C   UNL A   1      44.204  30.880  28.540  1.00  0.00     0.049 A 
ATOM     35  H   UNL A   1      44.012  28.838  28.035  1.00  0.00     0.167 HD
ATOM     36  C   UNL A   1      46.471  30.241  27.757  1.00  0.00     0.074 A 
ATOM     37  C   UNL A   1      47.851  30.541  27.433  1.00  0.00     0.031 C 
ATOM     38  C   UNL A   1      45.577  31.157  28.203  1.00  0.00     0.037 A 
BRANCH  25  39
ATOM     39  C   UNL A   1      39.887  28.963  29.114  1.00  0.00     0.064 A 
ATOM     40  C   UNL A   1      38.927  29.332  28.161  1.00  0.00     0.173 A 
ATOM     41  C   UNL A   1      39.462  28.784  30.440  1.00  0.00     0.173 A 
ATOM     42  F   UNL A   1      39.283  29.523  26.882  1.00  0.00    -0.203 F 
ATOM     43  C   UNL A   1      37.593  29.514  28.522  1.00  0.00     0.198 A 
ATOM     44  C   UNL A   1      38.125  28.945  30.792  1.00  0.00     0.198 A 
ATOM     45  F   UNL A   1      40.341  28.426  31.387  1.00  0.00    -0.203 F 
ATOM     46  F   UNL A   1      36.695  29.883  27.599  1.00  0.00    -0.200 F 
ATOM     47  C   UNL A   1      37.193  29.310  29.835  1.00  0.00     0.200 A 
ATOM     48  F   UNL A   1      37.737  28.735  32.059  1.00  0.00    -0.200 F 
ATOM     49  F   UNL A   1      35.905  29.465  30.176  1.00  0.00    -0.200 F 
ENDBRANCH  25  39
BRANCH  26  50
ATOM     50  C   UNL A   1      49.172  26.748  26.132  1.00  0.00     0.064 A 
ATOM     51  C   UNL A   1      50.165  26.261  26.992  1.00  0.00     0.173 A 
ATOM     52  C   UNL A   1      49.511  26.938  24.783  1.00  0.00     0.173 A 
ATOM     53  F   UNL A   1      49.893  26.081  28.294  1.00  0.00    -0.203 F 
ATOM     54  C   UNL A   1      51.451  25.996  26.527  1.00  0.00     0.198 A 
ATOM     55  C   UNL A   1      50.788  26.640  24.313  1.00  0.00     0.198 A 
ATOM     56  F   UNL A   1      48.595  27.395  23.918  1.00  0.00    -0.203 F 
ATOM     57  F   UNL A   1      52.396  25.580  27.381  1.00  0.00    -0.200 F 
ATOM     58  C   UNL A   1      51.760  26.181  25.188  1.00  0.00     0.200 A 
ATOM     59  F   UNL A   1      51.075  26.802  23.015  1.00  0.00    -0.200 F 
ATOM     60  F   UNL A   1      52.996  25.923  24.741  1.00  0.00    -0.200 F 
ENDBRANCH  26  50
BRANCH  38  61
ATOM     61  C   UNL A   1      46.073  32.562  28.370  1.00  0.00     0.064 A 
ATOM     62  C   UNL A   1      46.675  32.985  29.563  1.00  0.00     0.173 A 
ATOM     63  C   UNL A   1      45.962  33.487  27.321  1.00  0.00     0.173 A 
ATOM     64  F   UNL A   1      46.786  32.141  30.600  1.00  0.00    -0.203 F 
ATOM     65  C   UNL A   1      47.123  34.294  29.711  1.00  0.00     0.198 A 
ATOM     66  C   UNL A   1      46.438  34.787  27.463  1.00  0.00     0.198 A 
ATOM     67  F   UNL A   1      45.397  33.128  26.159  1.00  0.00    -0.203 F 
ATOM     68  F   UNL A   1      47.648  34.693  30.877  1.00  0.00    -0.200 F 
ATOM     69  C   UNL A   1      47.011  35.192  28.659  1.00  0.00     0.200 A 
ATOM     70  F   UNL A   1      46.339  35.649  26.442  1.00  0.00    -0.200 F 
ATOM     71  F   UNL A   1      47.446  36.451  28.803  1.00  0.00    -0.200 F 
ENDBRANCH  38  61
ENDBRANCH  12  13
ENDBRANCH   5   7
ENDBRANCH   2   3
ENDBRANCH   1   2
BRANCH   1  72
ATOM     72  C   UNL A   1      37.234  20.674  24.856  1.00  0.00     0.023 C 
BRANCH  72  73
ATOM     73  C   UNL A   1      35.799  20.161  24.988  1.00  0.00     0.116 C 
BRANCH  73  74
ATOM     74  N   UNL A   1      35.112  20.746  26.123  1.00  0.00    -0.356 N 
ATOM     75  C   UNL A   1      34.198  21.760  26.157  1.00  0.00     0.224 C 
ATOM     76  H   UNL A   1      35.338  20.354  26.998  1.00  0.00     0.163 HD
ATOM     77  O   UNL A   1      33.719  22.057  27.249  1.00  0.00    -0.275 OA
BRANCH  75  78
ATOM     78  C   UNL A   1      33.851  22.483  24.857  1.00  0.00     0.098 C 
ATOM     79  C   UNL A   1      34.978  23.425  24.435  1.00  0.00     0.017 C 
ATOM     80  C   UNL A   1      32.511  23.229  24.939  1.00  0.00     0.134 C 
ATOM     81  C   UNL A   1      35.041  24.620  25.365  1.00  0.00     0.022 C 
ATOM     82  N   UNL A   1      32.547  24.521  25.634  1.00  0.00    -0.324 N 
ATOM     83  C   UNL A   1      33.718  25.364  25.381  1.00  0.00     0.121 C 
BRANCH  82  84
ATOM     84  C   UNL A   1      31.447  24.843  26.414  1.00  0.00     0.321 C 
ATOM     85  O   UNL A   1      30.984  24.062  27.251  1.00  0.00    -0.248 OA
ATOM     86  N   UNL A   1      30.898  26.087  26.378  1.00  0.00    -0.308 N 
ATOM     87  H   UNL A   1      30.510  26.378  27.236  1.00  0.00     0.171 HD
BRANCH  86  88
ATOM     88  C   UNL A   1      30.779  27.030  25.353  1.00  0.00     0.042 A 
ATOM     89  C   UNL A   1      29.948  26.711  24.277  1.00  0.00     0.026 A 
ATOM     90  C   UNL A   1      31.409  28.276  25.403  1.00  0.00     0.026 A 
ATOM     91  C   UNL A   1      29.640  27.685  23.328  1.00  0.00     0.002 A 
ATOM     92  C   UNL A   1      31.115  29.242  24.440  1.00  0.00     0.002 A 
ATOM     93  C   UNL A   1      30.209  28.956  23.419  1.00  0.00     0.000 A 
ENDBRANCH  86  88
ENDBRANCH  82  84
ENDBRANCH  75  78
ENDBRANCH  73  74
ENDBRANCH  72  73
ENDBRANCH   1  72
TORSDOF 13
ENDMDL
MODEL 2
REMARK VINA RESULT:     -12.6      0.847      7.369
REMARK SMILES O=C(NCCCCNC(=O)[C@@H]1CCCN(C(=O)Nc2ccccc2)C1)c1ccc(-c2c3nc(c(-c4c(F)c(F)c(F)c(F)c4F)c4ccc([nH]4)c(-c4c(F)c(F)c(F)c(F)c4F)c4nc(c(-c5c(F)c(F)c(F)c(F)c5F)c5ccc2[nH]5)C=C4)C=C3)cc1
REMARK SMILES IDX 5 1 4 2 3 3 1 4 2 5 26 7 27 8 88 9 28 10 87 11 29 12 30 13
REMARK SMILES IDX 31 14 81 15 32 16 86 17 80 18 82 19 33 20 85 21 79 22 78 23
REMARK SMILES IDX 34 25 66 26 46 27 65 28 47 29 50 30 64 31 83 32 48 33 49 34
REMARK SMILES IDX 63 36 84 37 51 38 35 39 36 40 44 41 37 42 38 43 42 44 45 45
REMARK SMILES IDX 39 46 40 47 43 48 41 49 67 50 68 51 76 52 69 53 70 54 74 55
REMARK SMILES IDX 77 56 71 57 72 58 75 59 73 60 52 61 53 62 61 63 54 64 55 65
REMARK SMILES IDX 59 66 62 67 56 68 57 69 60 70 58 71 6 72 7 73 8 74 9 75
REMARK SMILES IDX 10 77 11 78 12 79 25 80 13 81 15 82 14 83 16 84 17 85 18 86
REMARK SMILES IDX 19 88 20 89 24 90 21 91 23 92 22 93
REMARK H PARENT 3 6 82 24 50 35 8 76 18 87
REMARK Flexibility Score: inf
ROOT
ATOM      1  C   UNL A   1      38.215  19.451  25.015  1.00  0.00     0.023 C 
ENDROOT
BRANCH   1   2
ATOM      2  C   UNL A   1      39.368  19.856  25.920  1.00  0.00     0.116 C 
BRANCH   2   3
ATOM      3  N   UNL A   1      40.473  18.911  25.887  1.00  0.00    -0.352 N 
ATOM      4  O   UNL A   1      42.640  18.275  25.859  1.00  0.00    -0.269 OA
ATOM      5  C   UNL A   1      41.818  19.158  26.040  1.00  0.00     0.251 C 
ATOM      6  H   UNL A   1      40.226  17.969  25.739  1.00  0.00     0.163 HD
BRANCH   5   7
ATOM      7  C   UNL A   1      42.254  20.523  26.400  1.00  0.00     0.039 A 
ATOM      8  C   UNL A   1      42.736  21.390  25.417  1.00  0.00     0.014 A 
ATOM      9  C   UNL A   1      42.189  20.929  27.735  1.00  0.00     0.014 A 
ATOM     10  C   UNL A   1      43.266  22.619  25.785  1.00  0.00     0.010 A 
ATOM     11  C   UNL A   1      42.644  22.201  28.092  1.00  0.00     0.010 A 
ATOM     12  C   UNL A   1      43.199  23.047  27.121  1.00  0.00    -0.014 A 
BRANCH  12  13
ATOM     13  C   UNL A   1      43.606  24.434  27.450  1.00  0.00     0.031 A 
ATOM     14  C   UNL A   1      45.046  24.853  27.442  1.00  0.00     0.074 A 
ATOM     15  C   UNL A   1      42.634  25.319  27.749  1.00  0.00     0.049 A 
ATOM     16  N   UNL A   1      45.559  26.028  27.712  1.00  0.00    -0.248 NA
ATOM     17  C   UNL A   1      46.042  23.828  27.098  1.00  0.00     0.031 C 
ATOM     18  C   UNL A   1      41.203  25.006  27.805  1.00  0.00     0.029 A 
ATOM     19  N   UNL A   1      42.693  26.654  28.052  1.00  0.00    -0.354 N 
ATOM     20  C   UNL A   1      46.933  25.880  27.589  1.00  0.00     0.074 A 
ATOM     21  C   UNL A   1      47.180  24.499  27.233  1.00  0.00     0.031 C 
ATOM     22  C   UNL A   1      40.518  26.123  28.088  1.00  0.00     0.029 A 
ATOM     23  C   UNL A   1      41.463  27.212  28.300  1.00  0.00     0.049 A 
ATOM     24  H   UNL A   1      43.535  27.163  28.089  1.00  0.00     0.167 HD
ATOM     25  C   UNL A   1      47.894  26.821  27.756  1.00  0.00     0.037 A 
ATOM     26  C   UNL A   1      41.133  28.457  28.683  1.00  0.00     0.037 A 
ATOM     27  C   UNL A   1      47.632  28.200  28.085  1.00  0.00     0.049 A 
ATOM     28  C   UNL A   1      42.226  29.468  28.877  1.00  0.00     0.074 A 
ATOM     29  C   UNL A   1      48.532  29.243  28.206  1.00  0.00     0.029 A 
ATOM     30  N   UNL A   1      46.375  28.724  28.353  1.00  0.00    -0.354 N 
ATOM     31  N   UNL A   1      43.518  29.330  28.702  1.00  0.00    -0.248 NA
ATOM     32  C   UNL A   1      41.817  30.803  29.329  1.00  0.00     0.031 C 
ATOM     33  C   UNL A   1      47.830  30.387  28.599  1.00  0.00     0.029 A 
ATOM     34  C   UNL A   1      46.484  30.068  28.675  1.00  0.00     0.049 A 
ATOM     35  H   UNL A   1      45.533  28.217  28.320  1.00  0.00     0.167 HD
ATOM     36  C   UNL A   1      44.075  30.559  29.013  1.00  0.00     0.074 A 
ATOM     37  C   UNL A   1      42.978  31.441  29.358  1.00  0.00     0.031 C 
ATOM     38  C   UNL A   1      45.380  30.925  29.024  1.00  0.00     0.037 A 
BRANCH  25  39
ATOM     39  C   UNL A   1      49.328  26.408  27.602  1.00  0.00     0.064 A 
ATOM     40  C   UNL A   1      49.921  26.257  26.340  1.00  0.00     0.173 A 
ATOM     41  C   UNL A   1      50.146  26.260  28.734  1.00  0.00     0.173 A 
ATOM     42  F   UNL A   1      49.181  26.381  25.228  1.00  0.00    -0.203 F 
ATOM     43  C   UNL A   1      51.279  25.972  26.217  1.00  0.00     0.198 A 
ATOM     44  C   UNL A   1      51.506  25.997  28.606  1.00  0.00     0.198 A 
ATOM     45  F   UNL A   1      49.628  26.401  29.963  1.00  0.00    -0.203 F 
ATOM     46  F   UNL A   1      51.822  25.816  25.001  1.00  0.00    -0.200 F 
ATOM     47  C   UNL A   1      52.072  25.852  27.349  1.00  0.00     0.200 A 
ATOM     48  F   UNL A   1      52.274  25.895  29.701  1.00  0.00    -0.200 F 
ATOM     49  F   UNL A   1      53.383  25.599  27.228  1.00  0.00    -0.200 F 
ENDBRANCH  25  39
BRANCH  26  50
ATOM     50  C   UNL A   1      39.711  28.801  28.940  1.00  0.00     0.064 A 
ATOM     51  C   UNL A   1      39.145  28.642  30.211  1.00  0.00     0.173 A 
ATOM     52  C   UNL A   1      38.888  29.292  27.914  1.00  0.00     0.173 A 
ATOM     53  F   UNL A   1      39.887  28.159  31.219  1.00  0.00    -0.203 F 
ATOM     54  C   UNL A   1      37.804  28.940  30.442  1.00  0.00     0.198 A 
ATOM     55  C   UNL A   1      37.556  29.621  28.156  1.00  0.00     0.198 A 
ATOM     56  F   UNL A   1      39.383  29.469  26.681  1.00  0.00    -0.203 F 
ATOM     57  F   UNL A   1      37.274  28.730  31.656  1.00  0.00    -0.200 F 
ATOM     58  C   UNL A   1      37.012  29.434  29.416  1.00  0.00     0.200 A 
ATOM     59  F   UNL A   1      36.802  30.116  27.165  1.00  0.00    -0.200 F 
ATOM     60  F   UNL A   1      35.724  29.723  29.641  1.00  0.00    -0.200 F 
ENDBRANCH  26  50
BRANCH  38  61
ATOM     61  C   UNL A   1      45.682  32.340  29.414  1.00  0.00     0.064 A 
ATOM     62  C   UNL A   1      45.702  33.371  28.464  1.00  0.00     0.173 A 
ATOM     63  C   UNL A   1      45.937  32.671  30.754  1.00  0.00     0.173 A 
ATOM     64  F   UNL A   1      45.484  33.098  27.168  1.00  0.00    -0.203 F 
ATOM     65  C   UNL A   1      45.994  34.679  28.835  1.00  0.00     0.198 A 
ATOM     66  C   UNL A   1      46.200  33.987  31.125  1.00  0.00     0.198 A 
ATOM     67  F   UNL A   1      45.925  31.722  31.700  1.00  0.00    -0.203 F 
ATOM     68  F   UNL A   1      46.059  35.640  27.903  1.00  0.00    -0.200 F 
ATOM     69  C   UNL A   1      46.236  34.987  30.166  1.00  0.00     0.200 A 
ATOM     70  F   UNL A   1      46.421  34.285  32.413  1.00  0.00    -0.200 F 
ATOM     71  F   UNL A   1      46.514  36.249  30.522  1.00  0.00    -0.200 F 
ENDBRANCH  38  61
ENDBRANCH  12  13
ENDBRANCH   5   7
ENDBRANCH   2   3
ENDBRANCH   1   2
BRANCH   1  72
ATOM     72  C   UNL A   1      37.175  20.543  24.774  1.00  0.00     0.023 C 
BRANCH  72  73
ATOM     73  C   UNL A   1      35.722  20.091  24.925  1.00  0.00     0.116 C 
BRANCH  73  74
ATOM     74  N   UNL A   1      35.078  20.698  26.075  1.00  0.00    -0.356 N 
ATOM     75  C   UNL A   1      34.210  21.751  26.128  1.00  0.00     0.224 C 
ATOM     76  H   UNL A   1      35.300  20.291  26.943  1.00  0.00     0.163 HD
ATOM     77  O   UNL A   1      33.760  22.062  27.229  1.00  0.00    -0.275 OA
BRANCH  75  78
ATOM     78  C   UNL A   1      33.875  22.497  24.837  1.00  0.00     0.098 C 
ATOM     79  C   UNL A   1      35.002  23.453  24.449  1.00  0.00     0.017 C 
ATOM     80  C   UNL A   1      32.530  23.233  24.916  1.00  0.00     0.134 C 
ATOM     81  C   UNL A   1      35.046  24.630  25.402  1.00  0.00     0.022 C 
ATOM     82  N   UNL A   1      32.549  24.512  25.637  1.00  0.00    -0.324 N 
ATOM     83  C   UNL A   1      33.718  25.366  25.414  1.00  0.00     0.121 C 
BRANCH  82  84
ATOM     84  C   UNL A   1      31.437  24.812  26.408  1.00  0.00     0.321 C 
ATOM     85  O   UNL A   1      30.994  24.031  27.255  1.00  0.00    -0.248 OA
ATOM     86  N   UNL A   1      30.851  26.039  26.351  1.00  0.00    -0.308 N 
ATOM     87  H   UNL A   1      30.451  26.330  27.203  1.00  0.00     0.171 HD
BRANCH  86  88
ATOM     88  C   UNL A   1      30.707  26.962  25.312  1.00  0.00     0.042 A 
ATOM     89  C   UNL A   1      29.836  26.631  24.271  1.00  0.00     0.026 A 
ATOM     90  C   UNL A   1      31.353  28.200  25.314  1.00  0.00     0.026 A 
ATOM     91  C   UNL A   1      29.506  27.590  23.314  1.00  0.00     0.002 A 
ATOM     92  C   UNL A   1      31.037  29.151  24.342  1.00  0.00     0.002 A 
ATOM     93  C   UNL A   1      30.094  28.855  23.359  1.00  0.00     0.000 A 
ENDBRANCH  86  88
ENDBRANCH  82  84
ENDBRANCH  75  78
ENDBRANCH  73  74
ENDBRANCH  72  73
ENDBRANCH   1  72
TORSDOF 13
ENDMDL
MODEL 3
REMARK VINA RESULT:     -12.5      5.586     11.271
REMARK SMILES O=C(NCCCCNC(=O)[C@@H]1CCCN(C(=O)Nc2ccccc2)C1)c1ccc(-c2c3nc(c(-c4c(F)c(F)c(F)c(F)c4F)c4ccc([nH]4)c(-c4c(F)c(F)c(F)c(F)c4F)c4nc(c(-c5c(F)c(F)c(F)c(F)c5F)c5ccc2[nH]5)C=C4)C=C3)cc1
REMARK SMILES IDX 5 1 4 2 3 3 1 4 2 5 26 7 27 8 88 9 28 10 87 11 29 12 30 13
REMARK SMILES IDX 31 14 81 15 32 16 86 17 80 18 82 19 33 20 85 21 79 22 78 23
REMARK SMILES IDX 34 25 66 26 46 27 65 28 47 29 50 30 64 31 83 32 48 33 49 34
REMARK SMILES IDX 63 36 84 37 51 38 35 39 36 40 44 41 37 42 38 43 42 44 45 45
REMARK SMILES IDX 39 46 40 47 43 48 41 49 67 50 68 51 76 52 69 53 70 54 74 55
REMARK SMILES IDX 77 56 71 57 72 58 75 59 73 60 52 61 53 62 61 63 54 64 55 65
REMARK SMILES IDX 59 66 62 67 56 68 57 69 60 70 58 71 6 72 7 73 8 74 9 75
REMARK SMILES IDX 10 77 11 78 12 79 25 80 13 81 15 82 14 83 16 84 17 85 18 86
REMARK SMILES IDX 19 88 20 89 24 90 21 91 23 92 22 93
REMARK H PARENT 3 6 82 24 50 35 8 76 18 87
REMARK Flexibility Score: inf
ROOT
ATOM      1  C   UNL A   1      31.396  32.756  26.610  1.00  0.00     0.023 C 
ENDROOT
BRANCH   1   2
ATOM      2  C   UNL A   1      32.648  33.255  27.314  1.00  0.00     0.116 C 
BRANCH   2   3
ATOM      3  N   UNL A   1      32.512  34.610  27.824  1.00  0.00    -0.352 N 
ATOM      4  O   UNL A   1      32.874  36.319  29.255  1.00  0.00    -0.269 OA
ATOM      5  C   UNL A   1      33.192  35.209  28.859  1.00  0.00     0.251 C 
ATOM      6  H   UNL A   1      31.846  35.173  27.367  1.00  0.00     0.163 HD
BRANCH   5   7
ATOM      7  C   UNL A   1      34.300  34.473  29.503  1.00  0.00     0.039 A 
ATOM      8  C   UNL A   1      35.600  34.581  29.004  1.00  0.00     0.014 A 
ATOM      9  C   UNL A   1      34.028  33.663  30.607  1.00  0.00     0.014 A 
ATOM     10  C   UNL A   1      36.607  33.785  29.532  1.00  0.00     0.010 A 
ATOM     11  C   UNL A   1      35.061  32.927  31.193  1.00  0.00     0.010 A 
ATOM     12  C   UNL A   1      36.353  32.972  30.649  1.00  0.00    -0.014 A 
BRANCH  12  13
ATOM     13  C   UNL A   1      37.488  32.277  31.300  1.00  0.00     0.031 A 
ATOM     14  C   UNL A   1      38.198  31.136  30.633  1.00  0.00     0.074 A 
ATOM     15  C   UNL A   1      37.875  32.709  32.517  1.00  0.00     0.049 A 
ATOM     16  N   UNL A   1      39.204  30.425  31.077  1.00  0.00    -0.248 NA
ATOM     17  C   UNL A   1      37.719  30.732  29.303  1.00  0.00     0.031 C 
ATOM     18  C   UNL A   1      37.237  33.798  33.262  1.00  0.00     0.029 A 
ATOM     19  N   UNL A   1      38.894  32.300  33.337  1.00  0.00    -0.354 N 
ATOM     20  C   UNL A   1      39.466  29.480  30.094  1.00  0.00     0.074 A 
ATOM     21  C   UNL A   1      38.506  29.697  29.033  1.00  0.00     0.031 C 
ATOM     22  C   UNL A   1      37.898  33.993  34.411  1.00  0.00     0.029 A 
ATOM     23  C   UNL A   1      38.961  33.003  34.514  1.00  0.00     0.049 A 
ATOM     24  H   UNL A   1      39.515  31.573  33.105  1.00  0.00     0.167 HD
ATOM     25  C   UNL A   1      40.427  28.525  30.087  1.00  0.00     0.037 A 
ATOM     26  C   UNL A   1      39.772  32.849  35.575  1.00  0.00     0.037 A 
ATOM     27  C   UNL A   1      41.394  28.338  31.139  1.00  0.00     0.049 A 
ATOM     28  C   UNL A   1      40.812  31.767  35.539  1.00  0.00     0.074 A 
ATOM     29  C   UNL A   1      42.449  27.444  31.191  1.00  0.00     0.029 A 
ATOM     30  N   UNL A   1      41.417  29.052  32.329  1.00  0.00    -0.354 N 
ATOM     31  N   UNL A   1      41.086  30.918  34.579  1.00  0.00    -0.248 NA
ATOM     32  C   UNL A   1      41.650  31.618  36.735  1.00  0.00     0.031 C 
ATOM     33  C   UNL A   1      43.079  27.580  32.433  1.00  0.00     0.029 A 
ATOM     34  C   UNL A   1      42.446  28.591  33.135  1.00  0.00     0.049 A 
ATOM     35  H   UNL A   1      40.794  29.776  32.565  1.00  0.00     0.167 HD
ATOM     36  C   UNL A   1      42.131  30.139  35.049  1.00  0.00     0.074 A 
ATOM     37  C   UNL A   1      42.464  30.637  36.369  1.00  0.00     0.031 C 
ATOM     38  C   UNL A   1      42.754  29.096  34.449  1.00  0.00     0.037 A 
BRANCH  25  39
ATOM     39  C   UNL A   1      40.490  27.589  28.915  1.00  0.00     0.064 A 
ATOM     40  C   UNL A   1      39.683  26.444  28.842  1.00  0.00     0.173 A 
ATOM     41  C   UNL A   1      41.294  27.899  27.807  1.00  0.00     0.173 A 
ATOM     42  F   UNL A   1      38.903  26.101  29.878  1.00  0.00    -0.203 F 
ATOM     43  C   UNL A   1      39.682  25.641  27.703  1.00  0.00     0.198 A 
ATOM     44  C   UNL A   1      41.273  27.107  26.663  1.00  0.00     0.198 A 
ATOM     45  F   UNL A   1      42.078  28.986  27.826  1.00  0.00    -0.203 F 
ATOM     46  F   UNL A   1      38.916  24.542  27.661  1.00  0.00    -0.200 F 
ATOM     47  C   UNL A   1      40.469  25.979  26.612  1.00  0.00     0.200 A 
ATOM     48  F   UNL A   1      42.024  27.442  25.603  1.00  0.00    -0.200 F 
ATOM     49  F   UNL A   1      40.450  25.217  25.509  1.00  0.00    -0.200 F 
ENDBRANCH  25  39
BRANCH  26  50
ATOM     50  C   UNL A   1      39.606  33.718  36.768  1.00  0.00     0.064 A 
ATOM     51  C   UNL A   1      38.793  33.331  37.840  1.00  0.00     0.173 A 
ATOM     52  C   UNL A   1      40.255  34.960  36.855  1.00  0.00     0.173 A 
ATOM     53  F   UNL A   1      38.138  32.161  37.795  1.00  0.00    -0.203 F 
ATOM     54  C   UNL A   1      38.618  34.161  38.945  1.00  0.00     0.198 A 
ATOM     55  C   UNL A   1      40.106  35.773  37.976  1.00  0.00     0.198 A 
ATOM     56  F   UNL A   1      41.050  35.374  35.858  1.00  0.00    -0.203 F 
ATOM     57  F   UNL A   1      37.794  33.788  39.935  1.00  0.00    -0.200 F 
ATOM     58  C   UNL A   1      39.278  35.378  39.015  1.00  0.00     0.200 A 
ATOM     59  F   UNL A   1      40.761  36.940  38.045  1.00  0.00    -0.200 F 
ATOM     60  F   UNL A   1      39.112  36.174  40.079  1.00  0.00    -0.200 F 
ENDBRANCH  26  50
BRANCH  38  61
ATOM     61  C   UNL A   1      43.860  28.436  35.216  1.00  0.00     0.064 A 
ATOM     62  C   UNL A   1      45.182  28.897  35.132  1.00  0.00     0.173 A 
ATOM     63  C   UNL A   1      43.593  27.345  36.056  1.00  0.00     0.173 A 
ATOM     64  F   UNL A   1      45.488  29.926  34.326  1.00  0.00    -0.203 F 
ATOM     65  C   UNL A   1      46.202  28.271  35.840  1.00  0.00     0.198 A 
ATOM     66  C   UNL A   1      44.613  26.740  36.785  1.00  0.00     0.198 A 
ATOM     67  F   UNL A   1      42.345  26.870  36.172  1.00  0.00    -0.203 F 
ATOM     68  F   UNL A   1      47.467  28.695  35.705  1.00  0.00    -0.200 F 
ATOM     69  C   UNL A   1      45.917  27.198  36.671  1.00  0.00     0.200 A 
ATOM     70  F   UNL A   1      44.333  25.711  37.596  1.00  0.00    -0.200 F 
ATOM     71  F   UNL A   1      46.901  26.598  37.354  1.00  0.00    -0.200 F 
ENDBRANCH  38  61
ENDBRANCH  12  13
ENDBRANCH   5   7
ENDBRANCH   2   3
ENDBRANCH   1   2
BRANCH   1  72
ATOM     72  C   UNL A   1      31.475  31.319  26.101  1.00  0.00     0.023 C 
BRANCH  72  73
ATOM     73  C   UNL A   1      32.451  30.421  26.860  1.00  0.00     0.116 C 
BRANCH  73  74
ATOM     74  N   UNL A   1      31.782  29.299  27.491  1.00  0.00    -0.356 N 
ATOM     75  C   UNL A   1      31.773  27.980  27.133  1.00  0.00     0.224 C 
ATOM     76  H   UNL A   1      31.258  29.520  28.294  1.00  0.00     0.163 HD
ATOM     77  O   UNL A   1      31.158  27.199  27.856  1.00  0.00    -0.275 OA
BRANCH  75  78
ATOM     78  C   UNL A   1      32.491  27.559  25.852  1.00  0.00     0.098 C 
ATOM     79  C   UNL A   1      31.582  27.726  24.635  1.00  0.00     0.017 C 
ATOM     80  C   UNL A   1      33.048  26.131  25.933  1.00  0.00     0.134 C 
ATOM     81  C   UNL A   1      30.484  26.680  24.650  1.00  0.00     0.022 C 
ATOM     82  N   UNL A   1      32.069  25.057  25.724  1.00  0.00    -0.324 N 
ATOM     83  C   UNL A   1      31.071  25.281  24.676  1.00  0.00     0.121 C 
BRANCH  82  84
ATOM     84  C   UNL A   1      32.220  23.914  26.495  1.00  0.00     0.321 C 
ATOM     85  O   UNL A   1      31.502  23.682  27.473  1.00  0.00    -0.248 OA
ATOM     86  N   UNL A   1      33.091  22.933  26.138  1.00  0.00    -0.308 N 
ATOM     87  H   UNL A   1      32.800  22.027  26.396  1.00  0.00     0.171 HD
BRANCH  86  88
ATOM     88  C   UNL A   1      34.321  22.966  25.475  1.00  0.00     0.042 A 
ATOM     89  C   UNL A   1      34.320  22.720  24.100  1.00  0.00     0.026 A 
ATOM     90  C   UNL A   1      35.515  23.288  26.126  1.00  0.00     0.026 A 
ATOM     91  C   UNL A   1      35.482  22.931  23.359  1.00  0.00     0.002 A 
ATOM     92  C   UNL A   1      36.681  23.479  25.383  1.00  0.00     0.002 A 
ATOM     93  C   UNL A   1      36.657  23.327  23.997  1.00  0.00     0.000 A 
ENDBRANCH  86  88
ENDBRANCH  82  84
ENDBRANCH  75  78
ENDBRANCH  73  74
ENDBRANCH  72  73
ENDBRANCH   1  72
TORSDOF 13
ENDMDL
