MODEL 1
REMARK VINA RESULT:     -12.0      0.000      0.000
REMARK SMILES C[C@@H](CC(=O)NCCCCNC(=O)c1ccc(-c2c3nc(c(-c4c(F)c(F)c(F)c(F)c4F)c4ccc([nH]4)c(-c4c(F)c(F)c(F)c(F)c4F)c4nc(c(-c5c(F)c(F)c(F)c(F)c5F)c5ccc2[nH]5)C=C4)C=C3)cc1)NC(=O)/C=C/c1cccnc1
REMARK SMILES IDX 7 1 6 2 4 3 5 4 3 6 2 7 1 8 77 9 78 10 79 12 80 13 81 14
REMARK SMILES IDX 82 15 83 16 87 17 84 18 86 19 85 20 8 21 9 22 10 23 11 24
REMARK SMILES IDX 12 25 13 27 14 28 15 29 76 30 16 31 75 32 17 33 18 34 19 35
REMARK SMILES IDX 69 36 20 37 74 38 68 39 70 40 21 41 73 42 67 43 66 44 22 46
REMARK SMILES IDX 54 47 34 48 53 49 35 50 38 51 52 52 71 53 36 54 37 55 51 57
REMARK SMILES IDX 72 58 39 59 23 60 24 61 32 62 25 63 26 64 30 65 33 66 27 67
REMARK SMILES IDX 28 68 31 69 29 70 55 71 56 72 64 73 57 74 58 75 62 76 65 77
REMARK SMILES IDX 59 78 60 79 63 80 61 81 40 82 41 83 49 84 42 85 43 86 47 87
REMARK SMILES IDX 50 88 44 89 45 90 48 91 46 92
REMARK H PARENT 6 5 77 11 11 26 70 45 38 56
REMARK Flexibility Score: inf
ROOT
ATOM      1  C   UNL A   1      33.090  30.191  26.719  1.00  0.00     0.116 C 
ENDROOT
BRANCH   1   2
ATOM      2  N   UNL A   1      33.554  29.468  25.556  1.00  0.00    -0.356 N 
ATOM      3  C   UNL A   1      33.429  28.146  25.257  1.00  0.00     0.222 C 
ATOM      4  O   UNL A   1      34.137  27.685  24.362  1.00  0.00    -0.275 OA
ATOM      5  H   UNL A   1      34.027  30.009  24.884  1.00  0.00     0.163 HD
BRANCH   3   6
ATOM      6  C   UNL A   1      32.405  27.283  25.963  1.00  0.00     0.124 C 
BRANCH   6   7
ATOM      7  C   UNL A   1      31.168  26.839  25.170  1.00  0.00     0.088 C 
ATOM      8  C   UNL A   1      30.326  25.783  25.881  1.00  0.00     0.031 C 
BRANCH   7   9
ATOM      9  N   UNL A   1      31.457  26.378  23.817  1.00  0.00    -0.350 N 
ATOM     10  C   UNL A   1      31.143  26.915  22.604  1.00  0.00     0.244 C 
ATOM     11  H   UNL A   1      31.966  25.537  23.772  1.00  0.00     0.164 HD
ATOM     12  O   UNL A   1      31.370  26.262  21.586  1.00  0.00    -0.270 OA
BRANCH  10  13
ATOM     13  C   UNL A   1      30.624  28.303  22.453  1.00  0.00     0.072 C 
ATOM     14  C   UNL A   1      29.357  28.717  22.577  1.00  0.00     0.015 C 
BRANCH  14  15
ATOM     15  C   UNL A   1      28.898  30.095  22.493  1.00  0.00    -0.007 A 
ATOM     16  C   UNL A   1      29.069  30.995  23.539  1.00  0.00     0.011 A 
ATOM     17  C   UNL A   1      28.415  30.583  21.280  1.00  0.00     0.119 A 
ATOM     18  C   UNL A   1      28.764  32.338  23.331  1.00  0.00     0.021 A 
ATOM     19  N   UNL A   1      28.106  31.878  21.053  1.00  0.00    -0.264 NA
ATOM     20  C   UNL A   1      28.295  32.727  22.085  1.00  0.00     0.111 A 
ENDBRANCH  14  15
ENDBRANCH  10  13
ENDBRANCH   7   9
ENDBRANCH   6   7
ENDBRANCH   3   6
ENDBRANCH   1   2
BRANCH   1  21
ATOM     21  C   UNL A   1      31.657  30.680  26.489  1.00  0.00     0.023 C 
BRANCH  21  22
ATOM     22  C   UNL A   1      31.439  32.164  26.729  1.00  0.00     0.023 C 
BRANCH  22  23
ATOM     23  C   UNL A   1      32.652  32.886  27.266  1.00  0.00     0.116 C 
BRANCH  23  24
ATOM     24  N   UNL A   1      32.373  34.249  27.690  1.00  0.00    -0.352 N 
ATOM     25  C   UNL A   1      33.008  34.973  28.674  1.00  0.00     0.251 C 
ATOM     26  H   UNL A   1      31.642  34.709  27.218  1.00  0.00     0.163 HD
ATOM     27  O   UNL A   1      32.599  36.069  29.013  1.00  0.00    -0.269 OA
BRANCH  25  28
ATOM     28  C   UNL A   1      34.180  34.364  29.336  1.00  0.00     0.039 A 
ATOM     29  C   UNL A   1      33.973  33.433  30.354  1.00  0.00     0.014 A 
ATOM     30  C   UNL A   1      35.469  34.656  28.887  1.00  0.00     0.014 A 
ATOM     31  C   UNL A   1      35.069  32.763  30.893  1.00  0.00     0.010 A 
ATOM     32  C   UNL A   1      36.540  33.901  29.337  1.00  0.00     0.010 A 
ATOM     33  C   UNL A   1      36.357  32.974  30.371  1.00  0.00    -0.014 A 
BRANCH  33  34
ATOM     34  C   UNL A   1      37.538  32.286  30.943  1.00  0.00     0.031 A 
ATOM     35  C   UNL A   1      38.013  32.656  32.322  1.00  0.00     0.074 A 
ATOM     36  C   UNL A   1      38.198  31.368  30.214  1.00  0.00     0.049 A 
ATOM     37  N   UNL A   1      39.027  32.189  33.003  1.00  0.00    -0.248 NA
ATOM     38  C   UNL A   1      37.273  33.726  33.015  1.00  0.00     0.031 C 
ATOM     39  C   UNL A   1      37.878  30.983  28.839  1.00  0.00     0.029 A 
ATOM     40  N   UNL A   1      39.280  30.587  30.533  1.00  0.00    -0.354 N 
ATOM     41  C   UNL A   1      39.054  32.918  34.185  1.00  0.00     0.074 A 
ATOM     42  C   UNL A   1      38.010  33.911  34.098  1.00  0.00     0.031 C 
ATOM     43  C   UNL A   1      38.716  30.009  28.447  1.00  0.00     0.029 A 
ATOM     44  C   UNL A   1      39.647  29.721  29.532  1.00  0.00     0.049 A 
ATOM     45  H   UNL A   1      39.749  30.643  31.398  1.00  0.00     0.167 HD
ATOM     46  C   UNL A   1      39.849  32.745  35.266  1.00  0.00     0.037 A 
ATOM     47  C   UNL A   1      40.618  28.789  29.508  1.00  0.00     0.037 A 
ATOM     48  C   UNL A   1      40.855  31.724  35.364  1.00  0.00     0.049 A 
ATOM     49  C   UNL A   1      41.463  28.590  30.739  1.00  0.00     0.074 A 
ATOM     50  C   UNL A   1      41.672  31.415  36.434  1.00  0.00     0.029 A 
ATOM     51  N   UNL A   1      41.174  30.838  34.344  1.00  0.00    -0.354 N 
ATOM     52  N   UNL A   1      41.425  29.227  31.884  1.00  0.00    -0.248 NA
ATOM     53  C   UNL A   1      42.476  27.527  30.677  1.00  0.00     0.031 C 
ATOM     54  C   UNL A   1      42.515  30.367  36.048  1.00  0.00     0.029 A 
ATOM     55  C   UNL A   1      42.187  29.990  34.755  1.00  0.00     0.049 A 
ATOM     56  H   UNL A   1      40.743  30.816  33.458  1.00  0.00     0.167 HD
ATOM     57  C   UNL A   1      42.384  28.627  32.687  1.00  0.00     0.074 A 
ATOM     58  C   UNL A   1      42.973  27.560  31.904  1.00  0.00     0.031 C 
ATOM     59  C   UNL A   1      42.751  28.931  33.958  1.00  0.00     0.037 A 
BRANCH  46  60
ATOM     60  C   UNL A   1      39.644  33.673  36.429  1.00  0.00     0.064 A 
ATOM     61  C   UNL A   1      38.831  33.321  37.519  1.00  0.00     0.173 A 
ATOM     62  C   UNL A   1      40.273  34.926  36.461  1.00  0.00     0.173 A 
ATOM     63  F   UNL A   1      38.190  32.142  37.530  1.00  0.00    -0.203 F 
ATOM     64  C   UNL A   1      38.626  34.202  38.577  1.00  0.00     0.198 A 
ATOM     65  C   UNL A   1      40.095  35.791  37.539  1.00  0.00     0.198 A 
ATOM     66  F   UNL A   1      41.061  35.314  35.448  1.00  0.00    -0.203 F 
ATOM     67  F   UNL A   1      37.796  33.868  39.574  1.00  0.00    -0.200 F 
ATOM     68  C   UNL A   1      39.265  35.433  38.590  1.00  0.00     0.200 A 
ATOM     69  F   UNL A   1      40.720  36.976  37.555  1.00  0.00    -0.200 F 
ATOM     70  F   UNL A   1      39.071  36.278  39.611  1.00  0.00    -0.200 F 
ENDBRANCH  46  60
BRANCH  47  71
ATOM     71  C   UNL A   1      40.807  27.940  28.303  1.00  0.00     0.064 A 
ATOM     72  C   UNL A   1      41.607  28.372  27.236  1.00  0.00     0.173 A 
ATOM     73  C   UNL A   1      40.189  26.686  28.188  1.00  0.00     0.173 A 
ATOM     74  F   UNL A   1      42.206  29.572  27.292  1.00  0.00    -0.203 F 
ATOM     75  C   UNL A   1      41.761  27.597  26.089  1.00  0.00     0.198 A 
ATOM     76  C   UNL A   1      40.367  25.898  27.053  1.00  0.00     0.198 A 
ATOM     77  F   UNL A   1      39.422  26.222  29.184  1.00  0.00    -0.203 F 
ATOM     78  F   UNL A   1      42.491  28.057  25.064  1.00  0.00    -0.200 F 
ATOM     79  C   UNL A   1      41.145  26.358  26.000  1.00  0.00     0.200 A 
ATOM     80  F   UNL A   1      39.783  24.695  26.977  1.00  0.00    -0.200 F 
ATOM     81  F   UNL A   1      41.295  25.611  24.898  1.00  0.00    -0.200 F 
ENDBRANCH  47  71
BRANCH  59  82
ATOM     82  C   UNL A   1      43.814  28.076  34.584  1.00  0.00     0.064 A 
ATOM     83  C   UNL A   1      43.502  26.881  35.248  1.00  0.00     0.173 A 
ATOM     84  C   UNL A   1      45.164  28.448  34.496  1.00  0.00     0.173 A 
ATOM     85  F   UNL A   1      42.224  26.491  35.370  1.00  0.00    -0.203 F 
ATOM     86  C   UNL A   1      44.499  26.109  35.835  1.00  0.00     0.198 A 
ATOM     87  C   UNL A   1      46.163  27.655  35.054  1.00  0.00     0.198 A 
ATOM     88  F   UNL A   1      45.516  29.576  33.861  1.00  0.00    -0.203 F 
ATOM     89  F   UNL A   1      44.172  25.003  36.517  1.00  0.00    -0.200 F 
ATOM     90  C   UNL A   1      45.828  26.493  35.733  1.00  0.00     0.200 A 
ATOM     91  F   UNL A   1      47.446  28.019  34.941  1.00  0.00    -0.200 F 
ATOM     92  F   UNL A   1      46.787  25.746  36.297  1.00  0.00    -0.200 F 
ENDBRANCH  59  82
ENDBRANCH  33  34
ENDBRANCH  25  28
ENDBRANCH  23  24
ENDBRANCH  22  23
ENDBRANCH  21  22
ENDBRANCH   1  21
TORSDOF 15
ENDMDL
MODEL 2
REMARK VINA RESULT:     -11.9      6.150     10.451
REMARK SMILES C[C@@H](CC(=O)NCCCCNC(=O)c1ccc(-c2c3nc(c(-c4c(F)c(F)c(F)c(F)c4F)c4ccc([nH]4)c(-c4c(F)c(F)c(F)c(F)c4F)c4nc(c(-c5c(F)c(F)c(F)c(F)c5F)c5ccc2[nH]5)C=C4)C=C3)cc1)NC(=O)/C=C/c1cccnc1
REMARK SMILES IDX 7 1 6 2 4 3 5 4 3 6 2 7 1 8 77 9 78 10 79 12 80 13 81 14
REMARK SMILES IDX 82 15 83 16 87 17 84 18 86 19 85 20 8 21 9 22 10 23 11 24
REMARK SMILES IDX 12 25 13 27 14 28 15 29 76 30 16 31 75 32 17 33 18 34 19 35
REMARK SMILES IDX 69 36 20 37 74 38 68 39 70 40 21 41 73 42 67 43 66 44 22 46
REMARK SMILES IDX 54 47 34 48 53 49 35 50 38 51 52 52 71 53 36 54 37 55 51 57
REMARK SMILES IDX 72 58 39 59 23 60 24 61 32 62 25 63 26 64 30 65 33 66 27 67
REMARK SMILES IDX 28 68 31 69 29 70 55 71 56 72 64 73 57 74 58 75 62 76 65 77
REMARK SMILES IDX 59 78 60 79 63 80 61 81 40 82 41 83 49 84 42 85 43 86 47 87
REMARK SMILES IDX 50 88 44 89 45 90 48 91 46 92
REMARK H PARENT 6 5 77 11 11 26 70 45 38 56
REMARK Flexibility Score: inf
ROOT
ATOM      1  C   UNL A   1      37.235  22.171  25.695  1.00  0.00     0.116 C 
ENDROOT
BRANCH   1   2
ATOM      2  N   UNL A   1      35.963  22.225  26.383  1.00  0.00    -0.356 N 
ATOM      3  C   UNL A   1      35.044  23.227  26.415  1.00  0.00     0.222 C 
ATOM      4  O   UNL A   1      34.171  23.186  27.282  1.00  0.00    -0.275 OA
ATOM      5  H   UNL A   1      35.730  21.422  26.902  1.00  0.00     0.163 HD
BRANCH   3   6
ATOM      6  C   UNL A   1      35.057  24.327  25.376  1.00  0.00     0.124 C 
BRANCH   6   7
ATOM      7  C   UNL A   1      33.895  24.386  24.374  1.00  0.00     0.088 C 
ATOM      8  C   UNL A   1      33.716  25.751  23.716  1.00  0.00     0.031 C 
BRANCH   7   9
ATOM      9  N   UNL A   1      32.613  23.953  24.917  1.00  0.00    -0.350 N 
ATOM     10  C   UNL A   1      31.935  22.779  24.780  1.00  0.00     0.244 C 
ATOM     11  H   UNL A   1      32.161  24.623  25.479  1.00  0.00     0.164 HD
ATOM     12  O   UNL A   1      30.788  22.698  25.218  1.00  0.00    -0.270 OA
BRANCH  10  13
ATOM     13  C   UNL A   1      32.561  21.555  24.206  1.00  0.00     0.072 C 
ATOM     14  C   UNL A   1      32.692  20.357  24.789  1.00  0.00     0.015 C 
BRANCH  14  15
ATOM     15  C   UNL A   1      33.246  19.163  24.170  1.00  0.00    -0.007 A 
ATOM     16  C   UNL A   1      34.394  18.546  24.657  1.00  0.00     0.011 A 
ATOM     17  C   UNL A   1      32.532  18.520  23.161  1.00  0.00     0.119 A 
ATOM     18  C   UNL A   1      34.773  17.315  24.128  1.00  0.00     0.021 A 
ATOM     19  N   UNL A   1      32.880  17.330  22.627  1.00  0.00    -0.264 NA
ATOM     20  C   UNL A   1      33.992  16.752  23.129  1.00  0.00     0.111 A 
ENDBRANCH  14  15
ENDBRANCH  10  13
ENDBRANCH   7   9
ENDBRANCH   6   7
ENDBRANCH   3   6
ENDBRANCH   1   2
BRANCH   1  21
ATOM     21  C   UNL A   1      37.219  21.037  24.665  1.00  0.00     0.023 C 
BRANCH  21  22
ATOM     22  C   UNL A   1      38.113  19.855  24.997  1.00  0.00     0.023 C 
BRANCH  22  23
ATOM     23  C   UNL A   1      39.339  20.217  25.803  1.00  0.00     0.116 C 
BRANCH  23  24
ATOM     24  N   UNL A   1      40.292  19.126  25.926  1.00  0.00    -0.352 N 
ATOM     25  C   UNL A   1      41.651  19.211  26.127  1.00  0.00     0.251 C 
ATOM     26  H   UNL A   1      39.922  18.216  25.857  1.00  0.00     0.163 HD
ATOM     27  O   UNL A   1      42.358  18.219  26.094  1.00  0.00    -0.269 OA
BRANCH  25  28
ATOM     28  C   UNL A   1      42.236  20.550  26.345  1.00  0.00     0.039 A 
ATOM     29  C   UNL A   1      42.622  21.308  25.238  1.00  0.00     0.014 A 
ATOM     30  C   UNL A   1      42.321  21.077  27.636  1.00  0.00     0.014 A 
ATOM     31  C   UNL A   1      43.055  22.618  25.431  1.00  0.00     0.010 A 
ATOM     32  C   UNL A   1      42.633  22.416  27.811  1.00  0.00     0.010 A 
ATOM     33  C   UNL A   1      43.039  23.189  26.716  1.00  0.00    -0.014 A 
BRANCH  33  34
ATOM     34  C   UNL A   1      43.514  24.574  26.944  1.00  0.00     0.031 A 
ATOM     35  C   UNL A   1      42.562  25.601  27.493  1.00  0.00     0.074 A 
ATOM     36  C   UNL A   1      44.777  24.912  26.623  1.00  0.00     0.049 A 
ATOM     37  N   UNL A   1      42.767  26.866  27.756  1.00  0.00    -0.248 NA
ATOM     38  C   UNL A   1      41.179  25.158  27.744  1.00  0.00     0.031 C 
ATOM     39  C   UNL A   1      45.766  24.022  26.013  1.00  0.00     0.029 A 
ATOM     40  N   UNL A   1      45.445  26.100  26.769  1.00  0.00    -0.354 N 
ATOM     41  C   UNL A   1      41.543  27.365  28.180  1.00  0.00     0.074 A 
ATOM     42  C   UNL A   1      40.581  26.294  28.064  1.00  0.00     0.031 C 
ATOM     43  C   UNL A   1      46.928  24.683  25.877  1.00  0.00     0.029 A 
ATOM     44  C   UNL A   1      46.757  26.046  26.365  1.00  0.00     0.049 A 
ATOM     45  H   UNL A   1      45.024  26.915  27.130  1.00  0.00     0.167 HD
ATOM     46  C   UNL A   1      41.254  28.594  28.665  1.00  0.00     0.037 A 
ATOM     47  C   UNL A   1      47.713  26.994  26.403  1.00  0.00     0.037 A 
ATOM     48  C   UNL A   1      42.226  29.641  28.821  1.00  0.00     0.049 A 
ATOM     49  C   UNL A   1      47.376  28.341  26.985  1.00  0.00     0.074 A 
ATOM     50  C   UNL A   1      42.061  30.901  29.363  1.00  0.00     0.029 A 
ATOM     51  N   UNL A   1      43.556  29.539  28.436  1.00  0.00    -0.354 N 
ATOM     52  N   UNL A   1      46.236  28.777  27.463  1.00  0.00    -0.248 NA
ATOM     53  C   UNL A   1      48.468  29.322  27.047  1.00  0.00     0.031 C 
ATOM     54  C   UNL A   1      43.282  31.578  29.269  1.00  0.00     0.029 A 
ATOM     55  C   UNL A   1      44.220  30.720  28.716  1.00  0.00     0.049 A 
ATOM     56  H   UNL A   1      43.966  28.743  28.025  1.00  0.00     0.167 HD
ATOM     57  C   UNL A   1      46.478  30.069  27.908  1.00  0.00     0.074 A 
ATOM     58  C   UNL A   1      47.880  30.337  27.663  1.00  0.00     0.031 C 
ATOM     59  C   UNL A   1      45.619  30.959  28.467  1.00  0.00     0.037 A 
BRANCH  46  60
ATOM     60  C   UNL A   1      39.834  28.859  29.076  1.00  0.00     0.064 A 
ATOM     61  C   UNL A   1      39.395  28.648  30.394  1.00  0.00     0.173 A 
ATOM     62  C   UNL A   1      38.900  29.337  28.145  1.00  0.00     0.173 A 
ATOM     63  F   UNL A   1      40.243  28.173  31.319  1.00  0.00    -0.203 F 
ATOM     64  C   UNL A   1      38.069  28.870  30.754  1.00  0.00     0.198 A 
ATOM     65  C   UNL A   1      37.582  29.592  28.517  1.00  0.00     0.198 A 
ATOM     66  F   UNL A   1      39.264  29.557  26.873  1.00  0.00    -0.203 F 
ATOM     67  F   UNL A   1      37.662  28.600  32.002  1.00  0.00    -0.200 F 
ATOM     68  C   UNL A   1      37.166  29.349  29.817  1.00  0.00     0.200 A 
ATOM     69  F   UNL A   1      36.712  30.065  27.614  1.00  0.00    -0.200 F 
ATOM     70  F   UNL A   1      35.891  29.567  30.167  1.00  0.00    -0.200 F 
ENDBRANCH  46  60
BRANCH  47  71
ATOM     71  C   UNL A   1      49.087  26.685  25.928  1.00  0.00     0.064 A 
ATOM     72  C   UNL A   1      49.484  27.000  24.621  1.00  0.00     0.173 A 
ATOM     73  C   UNL A   1      50.028  26.066  26.764  1.00  0.00     0.173 A 
ATOM     74  F   UNL A   1      48.614  27.579  23.778  1.00  0.00    -0.203 F 
ATOM     75  C   UNL A   1      50.760  26.683  24.158  1.00  0.00     0.198 A 
ATOM     76  C   UNL A   1      51.312  25.776  26.309  1.00  0.00     0.198 A 
ATOM     77  F   UNL A   1      49.701  25.753  28.025  1.00  0.00    -0.203 F 
ATOM     78  F   UNL A   1      51.095  26.950  22.888  1.00  0.00    -0.200 F 
ATOM     79  C   UNL A   1      51.674  26.076  25.004  1.00  0.00     0.200 A 
ATOM     80  F   UNL A   1      52.199  25.203  27.134  1.00  0.00    -0.200 F 
ATOM     81  F   UNL A   1      52.902  25.772  24.560  1.00  0.00    -0.200 F 
ENDBRANCH  47  71
BRANCH  59  82
ATOM     82  C   UNL A   1      46.184  32.287  28.878  1.00  0.00     0.064 A 
ATOM     83  C   UNL A   1      46.186  33.388  28.010  1.00  0.00     0.173 A 
ATOM     84  C   UNL A   1      46.710  32.464  30.168  1.00  0.00     0.173 A 
ATOM     85  F   UNL A   1      45.708  33.264  26.763  1.00  0.00    -0.203 F 
ATOM     86  C   UNL A   1      46.728  34.607  28.403  1.00  0.00     0.198 A 
ATOM     87  C   UNL A   1      47.219  33.695  30.570  1.00  0.00     0.198 A 
ATOM     88  F   UNL A   1      46.720  31.445  31.040  1.00  0.00    -0.203 F 
ATOM     89  F   UNL A   1      46.776  35.628  27.536  1.00  0.00    -0.200 F 
ATOM     90  C   UNL A   1      47.239  34.761  29.685  1.00  0.00     0.200 A 
ATOM     91  F   UNL A   1      47.696  33.846  31.812  1.00  0.00    -0.200 F 
ATOM     92  F   UNL A   1      47.759  35.937  30.062  1.00  0.00    -0.200 F 
ENDBRANCH  59  82
ENDBRANCH  33  34
ENDBRANCH  25  28
ENDBRANCH  23  24
ENDBRANCH  22  23
ENDBRANCH  21  22
ENDBRANCH   1  21
TORSDOF 15
ENDMDL
MODEL 3
REMARK VINA RESULT:     -11.8      1.195      7.691
REMARK SMILES C[C@@H](CC(=O)NCCCCNC(=O)c1ccc(-c2c3nc(c(-c4c(F)c(F)c(F)c(F)c4F)c4ccc([nH]4)c(-c4c(F)c(F)c(F)c(F)c4F)c4nc(c(-c5c(F)c(F)c(F)c(F)c5F)c5ccc2[nH]5)C=C4)C=C3)cc1)NC(=O)/C=C/c1cccnc1
REMARK SMILES IDX 7 1 6 2 4 3 5 4 3 6 2 7 1 8 77 9 78 10 79 12 80 13 81 14
REMARK SMILES IDX 82 15 83 16 87 17 84 18 86 19 85 20 8 21 9 22 10 23 11 24
REMARK SMILES IDX 12 25 13 27 14 28 15 29 76 30 16 31 75 32 17 33 18 34 19 35
REMARK SMILES IDX 69 36 20 37 74 38 68 39 70 40 21 41 73 42 67 43 66 44 22 46
REMARK SMILES IDX 54 47 34 48 53 49 35 50 38 51 52 52 71 53 36 54 37 55 51 57
REMARK SMILES IDX 72 58 39 59 23 60 24 61 32 62 25 63 26 64 30 65 33 66 27 67
REMARK SMILES IDX 28 68 31 69 29 70 55 71 56 72 64 73 57 74 58 75 62 76 65 77
REMARK SMILES IDX 59 78 60 79 63 80 61 81 40 82 41 83 49 84 42 85 43 86 47 87
REMARK SMILES IDX 50 88 44 89 45 90 48 91 46 92
REMARK H PARENT 6 5 77 11 11 26 70 45 38 56
REMARK Flexibility Score: inf
ROOT
ATOM      1  C   UNL A   1      32.731  30.053  27.279  1.00  0.00     0.116 C 
ENDROOT
BRANCH   1   2
ATOM      2  N   UNL A   1      32.082  28.802  27.606  1.00  0.00    -0.356 N 
ATOM      3  C   UNL A   1      32.162  27.600  26.973  1.00  0.00     0.222 C 
ATOM      4  O   UNL A   1      31.316  26.747  27.240  1.00  0.00    -0.275 OA
ATOM      5  H   UNL A   1      31.500  28.823  28.399  1.00  0.00     0.163 HD
BRANCH   3   6
ATOM      6  C   UNL A   1      33.293  27.300  26.013  1.00  0.00     0.124 C 
BRANCH   6   7
ATOM      7  C   UNL A   1      33.131  26.107  25.059  1.00  0.00     0.088 C 
ATOM      8  C   UNL A   1      33.765  24.817  25.573  1.00  0.00     0.031 C 
BRANCH   7   9
ATOM      9  N   UNL A   1      33.604  26.357  23.703  1.00  0.00    -0.350 N 
ATOM     10  C   UNL A   1      33.071  27.101  22.694  1.00  0.00     0.244 C 
ATOM     11  H   UNL A   1      34.452  25.911  23.478  1.00  0.00     0.164 HD
ATOM     12  O   UNL A   1      33.581  27.043  21.575  1.00  0.00    -0.270 OA
BRANCH  10  13
ATOM     13  C   UNL A   1      31.953  28.062  22.911  1.00  0.00     0.072 C 
ATOM     14  C   UNL A   1      30.640  27.812  22.845  1.00  0.00     0.015 C 
BRANCH  14  15
ATOM     15  C   UNL A   1      29.575  28.760  23.135  1.00  0.00    -0.007 A 
ATOM     16  C   UNL A   1      29.835  30.097  23.414  1.00  0.00     0.011 A 
ATOM     17  C   UNL A   1      28.247  28.368  22.977  1.00  0.00     0.119 A 
ATOM     18  C   UNL A   1      28.768  30.986  23.512  1.00  0.00     0.021 A 
ATOM     19  N   UNL A   1      27.193  29.207  23.072  1.00  0.00    -0.264 NA
ATOM     20  C   UNL A   1      27.481  30.500  23.332  1.00  0.00     0.111 A 
ENDBRANCH  14  15
ENDBRANCH  10  13
ENDBRANCH   7   9
ENDBRANCH   6   7
ENDBRANCH   3   6
ENDBRANCH   1   2
BRANCH   1  21
ATOM     21  C   UNL A   1      31.858  30.852  26.307  1.00  0.00     0.023 C 
BRANCH  21  22
ATOM     22  C   UNL A   1      31.546  32.273  26.744  1.00  0.00     0.023 C 
BRANCH  22  23
ATOM     23  C   UNL A   1      32.686  32.964  27.455  1.00  0.00     0.116 C 
BRANCH  23  24
ATOM     24  N   UNL A   1      32.425  34.366  27.738  1.00  0.00    -0.352 N 
ATOM     25  C   UNL A   1      33.030  35.162  28.685  1.00  0.00     0.251 C 
ATOM     26  H   UNL A   1      31.733  34.798  27.188  1.00  0.00     0.163 HD
ATOM     27  O   UNL A   1      32.636  36.294  28.902  1.00  0.00    -0.269 OA
BRANCH  25  28
ATOM     28  C   UNL A   1      34.148  34.588  29.460  1.00  0.00     0.039 A 
ATOM     29  C   UNL A   1      33.876  33.960  30.676  1.00  0.00     0.014 A 
ATOM     30  C   UNL A   1      35.444  34.604  28.939  1.00  0.00     0.014 A 
ATOM     31  C   UNL A   1      34.908  33.306  31.348  1.00  0.00     0.010 A 
ATOM     32  C   UNL A   1      36.437  33.851  29.546  1.00  0.00     0.010 A 
ATOM     33  C   UNL A   1      36.189  33.227  30.775  1.00  0.00    -0.014 A 
BRANCH  33  34
ATOM     34  C   UNL A   1      37.304  32.554  31.483  1.00  0.00     0.031 A 
ATOM     35  C   UNL A   1      38.029  31.421  30.811  1.00  0.00     0.074 A 
ATOM     36  C   UNL A   1      37.632  32.934  32.731  1.00  0.00     0.049 A 
ATOM     37  N   UNL A   1      39.020  30.691  31.255  1.00  0.00    -0.248 NA
ATOM     38  C   UNL A   1      37.551  31.025  29.474  1.00  0.00     0.031 C 
ATOM     39  C   UNL A   1      36.951  33.967  33.512  1.00  0.00     0.029 A 
ATOM     40  N   UNL A   1      38.629  32.493  33.563  1.00  0.00    -0.354 N 
ATOM     41  C   UNL A   1      39.264  29.748  30.266  1.00  0.00     0.074 A 
ATOM     42  C   UNL A   1      38.271  29.941  29.236  1.00  0.00     0.031 C 
ATOM     43  C   UNL A   1      37.576  34.111  34.693  1.00  0.00     0.029 A 
ATOM     44  C   UNL A   1      38.683  33.164  34.761  1.00  0.00     0.049 A 
ATOM     45  H   UNL A   1      39.247  31.764  33.325  1.00  0.00     0.167 HD
ATOM     46  C   UNL A   1      40.256  28.830  30.200  1.00  0.00     0.037 A 
ATOM     47  C   UNL A   1      39.544  33.033  35.787  1.00  0.00     0.037 A 
ATOM     48  C   UNL A   1      41.270  28.674  31.207  1.00  0.00     0.049 A 
ATOM     49  C   UNL A   1      40.663  32.032  35.673  1.00  0.00     0.074 A 
ATOM     50  C   UNL A   1      42.359  27.824  31.214  1.00  0.00     0.029 A 
ATOM     51  N   UNL A   1      41.315  29.398  32.391  1.00  0.00    -0.354 N 
ATOM     52  N   UNL A   1      40.937  31.203  34.695  1.00  0.00    -0.248 NA
ATOM     53  C   UNL A   1      41.603  31.964  36.800  1.00  0.00     0.031 C 
ATOM     54  C   UNL A   1      43.043  28.005  32.421  1.00  0.00     0.029 A 
ATOM     55  C   UNL A   1      42.408  29.004  33.143  1.00  0.00     0.049 A 
ATOM     56  H   UNL A   1      40.666  30.090  32.656  1.00  0.00     0.167 HD
ATOM     57  C   UNL A   1      42.093  30.535  35.073  1.00  0.00     0.074 A 
ATOM     58  C   UNL A   1      42.481  31.074  36.362  1.00  0.00     0.031 C 
ATOM     59  C   UNL A   1      42.775  29.561  34.419  1.00  0.00     0.037 A 
BRANCH  46  60
ATOM     60  C   UNL A   1      40.297  27.942  28.990  1.00  0.00     0.064 A 
ATOM     61  C   UNL A   1      41.007  28.303  27.833  1.00  0.00     0.173 A 
ATOM     62  C   UNL A   1      39.625  26.710  28.986  1.00  0.00     0.173 A 
ATOM     63  F   UNL A   1      41.651  29.478  27.775  1.00  0.00    -0.203 F 
ATOM     64  C   UNL A   1      41.012  27.483  26.708  1.00  0.00     0.198 A 
ATOM     65  C   UNL A   1      39.662  25.875  27.872  1.00  0.00     0.198 A 
ATOM     66  F   UNL A   1      38.932  26.314  30.064  1.00  0.00    -0.203 F 
ATOM     67  F   UNL A   1      41.644  27.880  25.595  1.00  0.00    -0.200 F 
ATOM     68  C   UNL A   1      40.346  26.267  26.731  1.00  0.00     0.200 A 
ATOM     69  F   UNL A   1      39.026  24.696  27.898  1.00  0.00    -0.200 F 
ATOM     70  F   UNL A   1      40.356  25.477  25.649  1.00  0.00    -0.200 F 
ENDBRANCH  46  60
BRANCH  47  71
ATOM     71  C   UNL A   1      39.416  33.906  36.984  1.00  0.00     0.064 A 
ATOM     72  C   UNL A   1      38.729  33.466  38.125  1.00  0.00     0.173 A 
ATOM     73  C   UNL A   1      39.968  35.194  37.011  1.00  0.00     0.173 A 
ATOM     74  F   UNL A   1      38.168  32.247  38.140  1.00  0.00    -0.203 F 
ATOM     75  C   UNL A   1      38.575  34.292  39.237  1.00  0.00     0.198 A 
ATOM     76  C   UNL A   1      39.839  36.008  38.135  1.00  0.00     0.198 A 
ATOM     77  F   UNL A   1      40.643  35.658  35.950  1.00  0.00    -0.203 F 
ATOM     78  F   UNL A   1      37.871  33.864  40.293  1.00  0.00    -0.200 F 
ATOM     79  C   UNL A   1      39.135  35.560  39.243  1.00  0.00     0.200 A 
ATOM     80  F   UNL A   1      40.395  37.227  38.144  1.00  0.00    -0.200 F 
ATOM     81  F   UNL A   1      38.989  36.353  40.313  1.00  0.00    -0.200 F 
ENDBRANCH  47  71
BRANCH  59  82
ATOM     82  C   UNL A   1      44.022  29.044  35.074  1.00  0.00     0.064 A 
ATOM     83  C   UNL A   1      45.272  29.639  34.851  1.00  0.00     0.173 A 
ATOM     84  C   UNL A   1      43.960  27.953  35.955  1.00  0.00     0.173 A 
ATOM     85  F   UNL A   1      45.385  30.675  34.006  1.00  0.00    -0.203 F 
ATOM     86  C   UNL A   1      46.421  29.137  35.454  1.00  0.00     0.198 A 
ATOM     87  C   UNL A   1      45.106  27.476  36.585  1.00  0.00     0.198 A 
ATOM     88  F   UNL A   1      42.786  27.356  36.211  1.00  0.00    -0.203 F 
ATOM     89  F   UNL A   1      47.613  29.683  35.179  1.00  0.00    -0.200 F 
ATOM     90  C   UNL A   1      46.336  28.060  36.325  1.00  0.00     0.200 A 
ATOM     91  F   UNL A   1      45.019  26.446  37.437  1.00  0.00    -0.200 F 
ATOM     92  F   UNL A   1      47.443  27.580  36.908  1.00  0.00    -0.200 F 
ENDBRANCH  59  82
ENDBRANCH  33  34
ENDBRANCH  25  28
ENDBRANCH  23  24
ENDBRANCH  22  23
ENDBRANCH  21  22
ENDBRANCH   1  21
TORSDOF 15
ENDMDL
