MODEL 1
REMARK VINA RESULT:     -13.2      0.000      0.000
REMARK SMILES Cc1ccc(C(C)C)c(OCC(=O)Nc2nc(CC(=O)NCCCCNC(=O)c3ccc(-c4c5nc(c(-c6c(F)c(F)c(F)c(F)c6F)c6ccc([nH]6)c(-c6c(F)c(F)c(F)c(F)c6F)c6nc(c(-c7c(F)c(F)c(F)c(F)c7F)c7ccc4[nH]7)C=C6)C=C5)cc3)cs2)c1
REMARK SMILES IDX 19 1 20 2 21 3 18 5 17 6 15 7 16 8 93 9 92 10 14 11 12 12
REMARK SMILES IDX 13 13 11 15 10 16 9 17 1 18 2 19 3 20 94 21 4 22 5 23 6 24
REMARK SMILES IDX 7 25 8 26 22 27 23 28 24 29 25 30 26 31 27 32 28 34 29 35
REMARK SMILES IDX 30 36 91 37 31 38 90 39 32 40 33 41 34 42 84 43 35 44 89 45
REMARK SMILES IDX 83 46 85 47 36 48 88 49 82 50 81 51 37 53 69 54 49 55 68 56
REMARK SMILES IDX 50 57 53 58 67 59 86 60 51 61 52 62 66 64 87 65 54 66 38 67
REMARK SMILES IDX 39 68 47 69 40 70 41 71 45 72 48 73 42 74 43 75 46 76 44 77
REMARK SMILES IDX 70 78 71 79 79 80 72 81 73 82 77 83 80 84 74 85 75 86 78 87
REMARK SMILES IDX 76 88 55 89 56 90 64 91 57 92 58 93 62 94 65 95 59 96 60 97
REMARK SMILES IDX 63 98 61 99
REMARK H PARENT 21 4 14 14 26 33 85 52 53 63
REMARK Flexibility Score: inf
ROOT
ATOM      1  C   UNL A   1      33.635  22.742  27.156  1.00  0.00     0.226 C 
ATOM      2  O   UNL A   1      32.881  22.286  28.020  1.00  0.00    -0.275 OA
ATOM      3  N   UNL A   1      34.689  21.968  26.757  1.00  0.00    -0.356 N 
ATOM      4  H   UNL A   1      34.781  21.110  27.231  1.00  0.00     0.163 HD
ENDROOT
BRANCH   1   5
ATOM      5  C   UNL A   1      33.376  24.100  26.531  1.00  0.00     0.157 C 
BRANCH   5   6
ATOM      6  C   UNL A   1      32.548  24.014  25.294  1.00  0.00     0.063 A 
ATOM      7  C   UNL A   1      32.341  24.159  23.107  1.00  0.00     0.189 A 
ATOM      8  N   UNL A   1      33.205  24.043  24.076  1.00  0.00    -0.224 NA
ATOM      9  S   UNL A   1      30.697  24.100  23.550  1.00  0.00    -0.105 S 
ATOM     10  C   UNL A   1      31.170  23.952  25.196  1.00  0.00     0.093 A 
BRANCH   7  11
ATOM     11  N   UNL A   1      32.578  24.364  21.784  1.00  0.00    -0.299 N 
ATOM     12  C   UNL A   1      32.936  25.546  21.209  1.00  0.00     0.264 C 
ATOM     13  O   UNL A   1      32.994  25.589  19.973  1.00  0.00    -0.271 OA
ATOM     14  H   UNL A   1      32.482  23.587  21.187  1.00  0.00     0.172 HD
BRANCH  12  15
ATOM     15  C   UNL A   1      33.363  26.755  22.057  1.00  0.00     0.329 C 
BRANCH  15  16
ATOM     16  O   UNL A   1      32.354  27.684  22.409  1.00  0.00    -0.483 OA
BRANCH  16  17
ATOM     17  C   UNL A   1      32.371  28.239  23.658  1.00  0.00     0.123 A 
ATOM     18  C   UNL A   1      34.680  28.844  26.624  1.00  0.00     0.044 C 
ATOM     19  C   UNL A   1      33.450  28.800  25.768  1.00  0.00    -0.047 A 
ATOM     20  C   UNL A   1      32.291  29.459  26.171  1.00  0.00     0.004 A 
ATOM     21  C   UNL A   1      33.477  28.181  24.514  1.00  0.00     0.050 A 
ATOM     22  C   UNL A   1      31.193  29.550  25.317  1.00  0.00     0.008 A 
ATOM     23  C   UNL A   1      31.218  28.956  24.046  1.00  0.00    -0.003 A 
BRANCH  23  24
ATOM     24  C   UNL A   1      30.032  29.136  23.105  1.00  0.00     0.017 C 
ATOM     25  C   UNL A   1      28.996  28.016  23.237  1.00  0.00     0.012 C 
ATOM     26  C   UNL A   1      29.368  30.497  23.336  1.00  0.00     0.012 C 
ENDBRANCH  23  24
ENDBRANCH  16  17
ENDBRANCH  15  16
ENDBRANCH  12  15
ENDBRANCH   7  11
ENDBRANCH   5   6
ENDBRANCH   1   5
BRANCH   3  27
ATOM     27  C   UNL A   1      35.694  22.221  25.737  1.00  0.00     0.116 C 
BRANCH  27  28
ATOM     28  C   UNL A   1      36.449  20.963  25.285  1.00  0.00     0.023 C 
BRANCH  28  29
ATOM     29  C   UNL A   1      37.973  21.081  25.232  1.00  0.00     0.023 C 
BRANCH  29  30
ATOM     30  C   UNL A   1      38.527  22.360  25.841  1.00  0.00     0.116 C 
BRANCH  30  31
ATOM     31  N   UNL A   1      39.939  22.331  26.182  1.00  0.00    -0.352 N 
ATOM     32  C   UNL A   1      40.786  23.367  26.552  1.00  0.00     0.251 C 
ATOM     33  H   UNL A   1      40.359  21.442  26.145  1.00  0.00     0.163 HD
ATOM     34  O   UNL A   1      41.980  23.154  26.660  1.00  0.00    -0.269 OA
BRANCH  32  35
ATOM     35  C   UNL A   1      40.234  24.694  26.956  1.00  0.00     0.039 A 
ATOM     36  C   UNL A   1      40.563  25.812  26.174  1.00  0.00     0.014 A 
ATOM     37  C   UNL A   1      39.574  24.883  28.163  1.00  0.00     0.014 A 
ATOM     38  C   UNL A   1      40.468  27.091  26.721  1.00  0.00     0.010 A 
ATOM     39  C   UNL A   1      39.606  26.123  28.759  1.00  0.00     0.010 A 
ATOM     40  C   UNL A   1      40.114  27.217  28.059  1.00  0.00    -0.014 A 
BRANCH  40  41
ATOM     41  C   UNL A   1      40.327  28.413  28.858  1.00  0.00     0.031 A 
ATOM     42  C   UNL A   1      39.263  29.429  28.980  1.00  0.00     0.074 A 
ATOM     43  C   UNL A   1      41.431  28.474  29.636  1.00  0.00     0.049 A 
ATOM     44  N   UNL A   1      39.457  30.635  29.391  1.00  0.00    -0.248 NA
ATOM     45  C   UNL A   1      37.875  29.161  28.622  1.00  0.00     0.031 C 
ATOM     46  C   UNL A   1      41.678  29.370  30.763  1.00  0.00     0.029 A 
ATOM     47  N   UNL A   1      42.665  27.834  29.423  1.00  0.00    -0.354 N 
ATOM     48  C   UNL A   1      38.226  31.207  29.611  1.00  0.00     0.074 A 
ATOM     49  C   UNL A   1      37.273  30.269  29.064  1.00  0.00     0.031 C 
ATOM     50  C   UNL A   1      43.003  29.467  30.954  1.00  0.00     0.029 A 
ATOM     51  C   UNL A   1      43.638  28.766  29.851  1.00  0.00     0.049 A 
ATOM     52  H   UNL A   1      42.818  26.933  29.056  1.00  0.00     0.167 HD
ATOM     53  C   UNL A   1      38.150  32.351  30.351  1.00  0.00     0.037 A 
ATOM     54  C   UNL A   1      44.505  29.341  28.968  1.00  0.00     0.037 A 
ATOM     55  C   UNL A   1      39.481  32.807  30.744  1.00  0.00     0.049 A 
ATOM     56  C   UNL A   1      44.453  30.844  28.957  1.00  0.00     0.074 A 
ATOM     57  C   UNL A   1      40.214  32.655  31.911  1.00  0.00     0.029 A 
ATOM     58  N   UNL A   1      40.373  33.242  29.771  1.00  0.00    -0.354 N 
ATOM     59  N   UNL A   1      43.398  31.536  29.286  1.00  0.00    -0.248 NA
ATOM     60  C   UNL A   1      45.588  31.682  28.591  1.00  0.00     0.031 C 
ATOM     61  C   UNL A   1      41.562  32.983  31.629  1.00  0.00     0.029 A 
ATOM     62  C   UNL A   1      41.646  33.349  30.296  1.00  0.00     0.049 A 
ATOM     63  H   UNL A   1      40.132  33.446  28.839  1.00  0.00     0.167 HD
ATOM     64  C   UNL A   1      43.690  32.875  29.197  1.00  0.00     0.074 A 
ATOM     65  C   UNL A   1      45.075  32.911  28.768  1.00  0.00     0.031 C 
ATOM     66  C   UNL A   1      42.757  33.832  29.491  1.00  0.00     0.037 A 
BRANCH  53  67
ATOM     67  C   UNL A   1      36.872  32.881  30.964  1.00  0.00     0.064 A 
ATOM     68  C   UNL A   1      35.954  33.632  30.194  1.00  0.00     0.173 A 
ATOM     69  C   UNL A   1      36.513  32.727  32.314  1.00  0.00     0.173 A 
ATOM     70  F   UNL A   1      36.094  33.769  28.869  1.00  0.00    -0.203 F 
ATOM     71  C   UNL A   1      34.851  34.279  30.757  1.00  0.00     0.198 A 
ATOM     72  C   UNL A   1      35.441  33.418  32.891  1.00  0.00     0.198 A 
ATOM     73  F   UNL A   1      37.153  31.859  33.108  1.00  0.00    -0.203 F 
ATOM     74  F   UNL A   1      34.025  34.988  29.973  1.00  0.00    -0.200 F 
ATOM     75  C   UNL A   1      34.617  34.207  32.113  1.00  0.00     0.200 A 
ATOM     76  F   UNL A   1      35.212  33.313  34.208  1.00  0.00    -0.200 F 
ATOM     77  F   UNL A   1      33.590  34.868  32.663  1.00  0.00    -0.200 F 
ENDBRANCH  53  67
BRANCH  54  78
ATOM     78  C   UNL A   1      44.821  28.477  27.802  1.00  0.00     0.064 A 
ATOM     79  C   UNL A   1      45.662  27.374  28.025  1.00  0.00     0.173 A 
ATOM     80  C   UNL A   1      44.032  28.458  26.649  1.00  0.00     0.173 A 
ATOM     81  F   UNL A   1      46.460  27.371  29.098  1.00  0.00    -0.203 F 
ATOM     82  C   UNL A   1      45.613  26.238  27.222  1.00  0.00     0.198 A 
ATOM     83  C   UNL A   1      44.003  27.329  25.824  1.00  0.00     0.198 A 
ATOM     84  F   UNL A   1      43.199  29.473  26.381  1.00  0.00    -0.203 F 
ATOM     85  F   UNL A   1      46.339  25.159  27.542  1.00  0.00    -0.200 F 
ATOM     86  C   UNL A   1      44.757  26.206  26.137  1.00  0.00     0.200 A 
ATOM     87  F   UNL A   1      43.165  27.289  24.778  1.00  0.00    -0.200 F 
ATOM     88  F   UNL A   1      44.630  25.084  25.414  1.00  0.00    -0.200 F 
ENDBRANCH  54  78
BRANCH  66  89
ATOM     89  C   UNL A   1      42.821  35.312  29.165  1.00  0.00     0.064 A 
ATOM     90  C   UNL A   1      42.101  35.930  28.130  1.00  0.00     0.173 A 
ATOM     91  C   UNL A   1      43.520  36.204  30.022  1.00  0.00     0.173 A 
ATOM     92  F   UNL A   1      41.299  35.234  27.317  1.00  0.00    -0.203 F 
ATOM     93  C   UNL A   1      42.123  37.315  27.931  1.00  0.00     0.198 A 
ATOM     94  C   UNL A   1      43.487  37.589  29.859  1.00  0.00     0.198 A 
ATOM     95  F   UNL A   1      44.234  35.769  31.070  1.00  0.00    -0.203 F 
ATOM     96  F   UNL A   1      41.448  37.845  26.902  1.00  0.00    -0.200 F 
ATOM     97  C   UNL A   1      42.801  38.144  28.803  1.00  0.00     0.200 A 
ATOM     98  F   UNL A   1      44.105  38.378  30.750  1.00  0.00    -0.200 F 
ATOM     99  F   UNL A   1      42.770  39.474  28.642  1.00  0.00    -0.200 F 
ENDBRANCH  66  89
ENDBRANCH  40  41
ENDBRANCH  32  35
ENDBRANCH  30  31
ENDBRANCH  29  30
ENDBRANCH  28  29
ENDBRANCH  27  28
ENDBRANCH   3  27
TORSDOF 17
ENDMDL
MODEL 2
REMARK VINA RESULT:     -13.0      3.775     10.104
REMARK SMILES Cc1ccc(C(C)C)c(OCC(=O)Nc2nc(CC(=O)NCCCCNC(=O)c3ccc(-c4c5nc(c(-c6c(F)c(F)c(F)c(F)c6F)c6ccc([nH]6)c(-c6c(F)c(F)c(F)c(F)c6F)c6nc(c(-c7c(F)c(F)c(F)c(F)c7F)c7ccc4[nH]7)C=C6)C=C5)cc3)cs2)c1
REMARK SMILES IDX 19 1 20 2 21 3 18 5 17 6 15 7 16 8 93 9 92 10 14 11 12 12
REMARK SMILES IDX 13 13 11 15 10 16 9 17 1 18 2 19 3 20 94 21 4 22 5 23 6 24
REMARK SMILES IDX 7 25 8 26 22 27 23 28 24 29 25 30 26 31 27 32 28 34 29 35
REMARK SMILES IDX 30 36 91 37 31 38 90 39 32 40 33 41 34 42 84 43 35 44 89 45
REMARK SMILES IDX 83 46 85 47 36 48 88 49 82 50 81 51 37 53 69 54 49 55 68 56
REMARK SMILES IDX 50 57 53 58 67 59 86 60 51 61 52 62 66 64 87 65 54 66 38 67
REMARK SMILES IDX 39 68 47 69 40 70 41 71 45 72 48 73 42 74 43 75 46 76 44 77
REMARK SMILES IDX 70 78 71 79 79 80 72 81 73 82 77 83 80 84 74 85 75 86 78 87
REMARK SMILES IDX 76 88 55 89 56 90 64 91 57 92 58 93 62 94 65 95 59 96 60 97
REMARK SMILES IDX 63 98 61 99
REMARK H PARENT 21 4 14 14 26 33 85 52 53 63
REMARK Flexibility Score: inf
ROOT
ATOM      1  C   UNL A   1      33.157  28.812  23.491  1.00  0.00     0.226 C 
ATOM      2  O   UNL A   1      34.301  28.588  23.087  1.00  0.00    -0.275 OA
ATOM      3  N   UNL A   1      33.019  29.498  24.665  1.00  0.00    -0.356 N 
ATOM      4  H   UNL A   1      33.862  29.726  25.118  1.00  0.00     0.163 HD
ENDROOT
BRANCH   1   5
ATOM      5  C   UNL A   1      31.945  28.374  22.688  1.00  0.00     0.157 C 
BRANCH   5   6
ATOM      6  C   UNL A   1      31.479  27.006  23.053  1.00  0.00     0.063 A 
ATOM      7  C   UNL A   1      30.923  25.506  24.565  1.00  0.00     0.189 A 
ATOM      8  N   UNL A   1      31.112  26.780  24.368  1.00  0.00    -0.224 NA
ATOM      9  S   UNL A   1      31.025  24.506  23.189  1.00  0.00    -0.105 S 
ATOM     10  C   UNL A   1      31.404  25.889  22.241  1.00  0.00     0.093 A 
BRANCH   7  11
ATOM     11  N   UNL A   1      30.694  24.856  25.738  1.00  0.00    -0.299 N 
ATOM     12  C   UNL A   1      31.617  24.162  26.461  1.00  0.00     0.264 C 
ATOM     13  O   UNL A   1      31.215  23.525  27.444  1.00  0.00    -0.271 OA
ATOM     14  H   UNL A   1      29.778  24.891  26.096  1.00  0.00     0.172 HD
BRANCH  12  15
ATOM     15  C   UNL A   1      33.118  24.249  26.143  1.00  0.00     0.329 C 
BRANCH  15  16
ATOM     16  O   UNL A   1      33.559  23.642  24.942  1.00  0.00    -0.483 OA
BRANCH  16  17
ATOM     17  C   UNL A   1      33.926  22.325  24.962  1.00  0.00     0.123 A 
ATOM     18  C   UNL A   1      32.453  18.815  24.899  1.00  0.00     0.044 C 
ATOM     19  C   UNL A   1      33.442  19.939  24.985  1.00  0.00    -0.047 A 
ATOM     20  C   UNL A   1      34.809  19.674  24.949  1.00  0.00     0.004 A 
ATOM     21  C   UNL A   1      33.009  21.268  25.004  1.00  0.00     0.050 A 
ATOM     22  C   UNL A   1      35.732  20.716  24.877  1.00  0.00     0.008 A 
ATOM     23  C   UNL A   1      35.308  22.054  24.869  1.00  0.00    -0.003 A 
BRANCH  23  24
ATOM     24  C   UNL A   1      36.335  23.170  24.713  1.00  0.00     0.017 C 
ATOM     25  C   UNL A   1      37.489  23.056  25.714  1.00  0.00     0.012 C 
ATOM     26  C   UNL A   1      36.881  23.198  23.282  1.00  0.00     0.012 C 
ENDBRANCH  23  24
ENDBRANCH  16  17
ENDBRANCH  15  16
ENDBRANCH  12  15
ENDBRANCH   7  11
ENDBRANCH   5   6
ENDBRANCH   1   5
BRANCH   3  27
ATOM     27  C   UNL A   1      31.813  29.943  25.345  1.00  0.00     0.116 C 
BRANCH  27  28
ATOM     28  C   UNL A   1      32.005  30.195  26.847  1.00  0.00     0.023 C 
BRANCH  28  29
ATOM     29  C   UNL A   1      33.021  31.277  27.218  1.00  0.00     0.023 C 
BRANCH  29  30
ATOM     30  C   UNL A   1      34.345  30.745  27.742  1.00  0.00     0.116 C 
BRANCH  30  31
ATOM     31  N   UNL A   1      35.265  31.747  28.253  1.00  0.00    -0.352 N 
ATOM     32  C   UNL A   1      36.527  31.594  28.812  1.00  0.00     0.251 C 
ATOM     33  H   UNL A   1      34.945  32.676  28.194  1.00  0.00     0.163 HD
ATOM     34  O   UNL A   1      37.081  32.557  29.311  1.00  0.00    -0.269 OA
BRANCH  32  35
ATOM     35  C   UNL A   1      37.267  30.304  28.678  1.00  0.00     0.039 A 
ATOM     36  C   UNL A   1      37.326  29.458  29.796  1.00  0.00     0.014 A 
ATOM     37  C   UNL A   1      38.041  30.008  27.563  1.00  0.00     0.014 A 
ATOM     38  C   UNL A   1      38.336  28.500  29.885  1.00  0.00     0.010 A 
ATOM     39  C   UNL A   1      39.119  29.164  27.700  1.00  0.00     0.010 A 
ATOM     40  C   UNL A   1      39.302  28.458  28.887  1.00  0.00    -0.014 A 
BRANCH  40  41
ATOM     41  C   UNL A   1      40.589  27.792  29.015  1.00  0.00     0.031 A 
ATOM     42  C   UNL A   1      40.729  26.364  28.672  1.00  0.00     0.074 A 
ATOM     43  C   UNL A   1      41.680  28.552  29.261  1.00  0.00     0.049 A 
ATOM     44  N   UNL A   1      41.718  25.624  29.040  1.00  0.00    -0.248 NA
ATOM     45  C   UNL A   1      39.732  25.642  27.890  1.00  0.00     0.031 C 
ATOM     46  C   UNL A   1      43.081  28.184  29.076  1.00  0.00     0.029 A 
ATOM     47  N   UNL A   1      41.729  29.790  29.928  1.00  0.00    -0.354 N 
ATOM     48  C   UNL A   1      41.642  24.442  28.341  1.00  0.00     0.074 A 
ATOM     49  C   UNL A   1      40.357  24.479  27.680  1.00  0.00     0.031 C 
ATOM     50  C   UNL A   1      43.840  28.974  29.853  1.00  0.00     0.029 A 
ATOM     51  C   UNL A   1      42.929  29.752  30.675  1.00  0.00     0.049 A 
ATOM     52  H   UNL A   1      41.072  30.521  29.885  1.00  0.00     0.167 HD
ATOM     53  C   UNL A   1      42.735  23.627  28.297  1.00  0.00     0.037 A 
ATOM     54  C   UNL A   1      42.914  29.735  32.039  1.00  0.00     0.037 A 
ATOM     55  C   UNL A   1      43.826  24.174  29.100  1.00  0.00     0.049 A 
ATOM     56  C   UNL A   1      43.626  28.554  32.640  1.00  0.00     0.074 A 
ATOM     57  C   UNL A   1      44.948  24.918  28.767  1.00  0.00     0.029 A 
ATOM     58  N   UNL A   1      43.685  24.267  30.479  1.00  0.00    -0.354 N 
ATOM     59  N   UNL A   1      43.767  27.407  32.036  1.00  0.00    -0.248 NA
ATOM     60  C   UNL A   1      44.247  28.580  33.958  1.00  0.00     0.031 C 
ATOM     61  C   UNL A   1      45.472  25.478  29.957  1.00  0.00     0.029 A 
ATOM     62  C   UNL A   1      44.679  25.063  31.013  1.00  0.00     0.049 A 
ATOM     63  H   UNL A   1      42.976  23.827  31.002  1.00  0.00     0.167 HD
ATOM     64  C   UNL A   1      44.485  26.558  32.840  1.00  0.00     0.074 A 
ATOM     65  C   UNL A   1      44.769  27.344  34.026  1.00  0.00     0.031 C 
ATOM     66  C   UNL A   1      44.782  25.282  32.448  1.00  0.00     0.037 A 
BRANCH  53  67
ATOM     67  C   UNL A   1      42.915  22.503  27.300  1.00  0.00     0.064 A 
ATOM     68  C   UNL A   1      42.141  21.323  27.388  1.00  0.00     0.173 A 
ATOM     69  C   UNL A   1      43.865  22.502  26.264  1.00  0.00     0.173 A 
ATOM     70  F   UNL A   1      41.119  21.214  28.246  1.00  0.00    -0.203 F 
ATOM     71  C   UNL A   1      42.389  20.199  26.596  1.00  0.00     0.198 A 
ATOM     72  C   UNL A   1      44.152  21.360  25.507  1.00  0.00     0.198 A 
ATOM     73  F   UNL A   1      44.506  23.623  25.910  1.00  0.00    -0.203 F 
ATOM     74  F   UNL A   1      41.627  19.104  26.737  1.00  0.00    -0.200 F 
ATOM     75  C   UNL A   1      43.422  20.202  25.684  1.00  0.00     0.200 A 
ATOM     76  F   UNL A   1      45.143  21.392  24.604  1.00  0.00    -0.200 F 
ATOM     77  F   UNL A   1      43.695  19.109  24.959  1.00  0.00    -0.200 F 
ENDBRANCH  53  67
BRANCH  54  78
ATOM     78  C   UNL A   1      41.739  30.429  32.627  1.00  0.00     0.064 A 
ATOM     79  C   UNL A   1      41.733  31.833  32.589  1.00  0.00     0.173 A 
ATOM     80  C   UNL A   1      40.513  29.788  32.823  1.00  0.00     0.173 A 
ATOM     81  F   UNL A   1      42.892  32.485  32.440  1.00  0.00    -0.203 F 
ATOM     82  C   UNL A   1      40.548  32.563  32.595  1.00  0.00     0.198 A 
ATOM     83  C   UNL A   1      39.324  30.523  32.859  1.00  0.00     0.198 A 
ATOM     84  F   UNL A   1      40.446  28.450  32.858  1.00  0.00    -0.203 F 
ATOM     85  F   UNL A   1      40.579  33.893  32.431  1.00  0.00    -0.200 F 
ATOM     86  C   UNL A   1      39.339  31.902  32.699  1.00  0.00     0.200 A 
ATOM     87  F   UNL A   1      38.148  29.883  32.946  1.00  0.00    -0.200 F 
ATOM     88  F   UNL A   1      38.189  32.584  32.609  1.00  0.00    -0.200 F 
ENDBRANCH  54  78
BRANCH  66  89
ATOM     89  C   UNL A   1      45.293  24.147  33.315  1.00  0.00     0.064 A 
ATOM     90  C   UNL A   1      44.567  22.981  33.609  1.00  0.00     0.173 A 
ATOM     91  C   UNL A   1      46.642  24.139  33.762  1.00  0.00     0.173 A 
ATOM     92  F   UNL A   1      43.326  22.791  33.150  1.00  0.00    -0.203 F 
ATOM     93  C   UNL A   1      45.122  21.922  34.336  1.00  0.00     0.198 A 
ATOM     94  C   UNL A   1      47.210  23.054  34.429  1.00  0.00     0.198 A 
ATOM     95  F   UNL A   1      47.471  25.168  33.536  1.00  0.00    -0.203 F 
ATOM     96  F   UNL A   1      44.367  20.851  34.621  1.00  0.00    -0.200 F 
ATOM     97  C   UNL A   1      46.444  21.951  34.731  1.00  0.00     0.200 A 
ATOM     98  F   UNL A   1      48.510  23.080  34.754  1.00  0.00    -0.200 F 
ATOM     99  F   UNL A   1      46.986  20.909  35.377  1.00  0.00    -0.200 F 
ENDBRANCH  66  89
ENDBRANCH  40  41
ENDBRANCH  32  35
ENDBRANCH  30  31
ENDBRANCH  29  30
ENDBRANCH  28  29
ENDBRANCH  27  28
ENDBRANCH   3  27
TORSDOF 17
ENDMDL
MODEL 3
REMARK VINA RESULT:     -12.9      0.925      2.015
REMARK SMILES Cc1ccc(C(C)C)c(OCC(=O)Nc2nc(CC(=O)NCCCCNC(=O)c3ccc(-c4c5nc(c(-c6c(F)c(F)c(F)c(F)c6F)c6ccc([nH]6)c(-c6c(F)c(F)c(F)c(F)c6F)c6nc(c(-c7c(F)c(F)c(F)c(F)c7F)c7ccc4[nH]7)C=C6)C=C5)cc3)cs2)c1
REMARK SMILES IDX 19 1 20 2 21 3 18 5 17 6 15 7 16 8 93 9 92 10 14 11 12 12
REMARK SMILES IDX 13 13 11 15 10 16 9 17 1 18 2 19 3 20 94 21 4 22 5 23 6 24
REMARK SMILES IDX 7 25 8 26 22 27 23 28 24 29 25 30 26 31 27 32 28 34 29 35
REMARK SMILES IDX 30 36 91 37 31 38 90 39 32 40 33 41 34 42 84 43 35 44 89 45
REMARK SMILES IDX 83 46 85 47 36 48 88 49 82 50 81 51 37 53 69 54 49 55 68 56
REMARK SMILES IDX 50 57 53 58 67 59 86 60 51 61 52 62 66 64 87 65 54 66 38 67
REMARK SMILES IDX 39 68 47 69 40 70 41 71 45 72 48 73 42 74 43 75 46 76 44 77
REMARK SMILES IDX 70 78 71 79 79 80 72 81 73 82 77 83 80 84 74 85 75 86 78 87
REMARK SMILES IDX 76 88 55 89 56 90 64 91 57 92 58 93 62 94 65 95 59 96 60 97
REMARK SMILES IDX 63 98 61 99
REMARK H PARENT 21 4 14 14 26 33 85 52 53 63
REMARK Flexibility Score: inf
ROOT
ATOM      1  C   UNL A   1      32.853  20.587  25.386  1.00  0.00     0.226 C 
ATOM      2  O   UNL A   1      32.073  19.800  24.842  1.00  0.00    -0.275 OA
ATOM      3  N   UNL A   1      34.192  20.323  25.295  1.00  0.00    -0.356 N 
ATOM      4  H   UNL A   1      34.422  19.489  24.826  1.00  0.00     0.163 HD
ENDROOT
BRANCH   1   5
ATOM      5  C   UNL A   1      32.343  21.826  26.097  1.00  0.00     0.157 C 
BRANCH   5   6
ATOM      6  C   UNL A   1      32.824  23.089  25.468  1.00  0.00     0.063 A 
ATOM      7  C   UNL A   1      33.360  24.264  23.685  1.00  0.00     0.189 A 
ATOM      8  N   UNL A   1      32.723  23.202  24.092  1.00  0.00    -0.224 NA
ATOM      9  S   UNL A   1      33.998  25.274  24.899  1.00  0.00    -0.105 S 
ATOM     10  C   UNL A   1      33.415  24.176  26.087  1.00  0.00     0.093 A 
BRANCH   7  11
ATOM     11  N   UNL A   1      33.621  24.656  22.409  1.00  0.00    -0.299 N 
ATOM     12  C   UNL A   1      32.858  25.499  21.659  1.00  0.00     0.264 C 
ATOM     13  O   UNL A   1      33.173  25.656  20.472  1.00  0.00    -0.271 OA
ATOM     14  H   UNL A   1      34.436  24.297  21.989  1.00  0.00     0.172 HD
BRANCH  12  15
ATOM     15  C   UNL A   1      31.715  26.316  22.282  1.00  0.00     0.329 C 
BRANCH  15  16
ATOM     16  O   UNL A   1      32.077  27.421  23.089  1.00  0.00    -0.483 OA
BRANCH  16  17
ATOM     17  C   UNL A   1      31.197  28.457  23.229  1.00  0.00     0.123 A 
ATOM     18  C   UNL A   1      28.152  30.031  21.572  1.00  0.00     0.044 C 
ATOM     19  C   UNL A   1      29.299  29.803  22.510  1.00  0.00    -0.047 A 
ATOM     20  C   UNL A   1      29.429  30.577  23.660  1.00  0.00     0.004 A 
ATOM     21  C   UNL A   1      30.196  28.752  22.296  1.00  0.00     0.050 A 
ATOM     22  C   UNL A   1      30.401  30.277  24.613  1.00  0.00     0.008 A 
ATOM     23  C   UNL A   1      31.290  29.208  24.421  1.00  0.00    -0.003 A 
BRANCH  23  24
ATOM     24  C   UNL A   1      32.294  28.856  25.513  1.00  0.00     0.017 C 
ATOM     25  C   UNL A   1      33.008  30.087  26.080  1.00  0.00     0.012 C 
ATOM     26  C   UNL A   1      31.606  28.080  26.642  1.00  0.00     0.012 C 
ENDBRANCH  23  24
ENDBRANCH  16  17
ENDBRANCH  15  16
ENDBRANCH  12  15
ENDBRANCH   7  11
ENDBRANCH   5   6
ENDBRANCH   1   5
BRANCH   3  27
ATOM     27  C   UNL A   1      35.326  21.090  25.786  1.00  0.00     0.116 C 
BRANCH  27  28
ATOM     28  C   UNL A   1      36.288  21.549  24.681  1.00  0.00     0.023 C 
BRANCH  28  29
ATOM     29  C   UNL A   1      37.778  21.468  25.017  1.00  0.00     0.023 C 
BRANCH  29  30
ATOM     30  C   UNL A   1      38.306  22.644  25.823  1.00  0.00     0.116 C 
BRANCH  30  31
ATOM     31  N   UNL A   1      39.684  22.528  26.270  1.00  0.00    -0.352 N 
ATOM     32  C   UNL A   1      40.561  23.510  26.714  1.00  0.00     0.251 C 
ATOM     33  H   UNL A   1      40.052  21.616  26.257  1.00  0.00     0.163 HD
ATOM     34  O   UNL A   1      41.728  23.224  26.911  1.00  0.00    -0.269 OA
BRANCH  32  35
ATOM     35  C   UNL A   1      40.060  24.865  27.088  1.00  0.00     0.039 A 
ATOM     36  C   UNL A   1      40.425  25.951  26.278  1.00  0.00     0.014 A 
ATOM     37  C   UNL A   1      39.413  25.107  28.294  1.00  0.00     0.014 A 
ATOM     38  C   UNL A   1      40.380  27.245  26.795  1.00  0.00     0.010 A 
ATOM     39  C   UNL A   1      39.493  26.359  28.860  1.00  0.00     0.010 A 
ATOM     40  C   UNL A   1      40.037  27.416  28.131  1.00  0.00    -0.014 A 
BRANCH  40  41
ATOM     41  C   UNL A   1      40.297  28.623  28.900  1.00  0.00     0.031 A 
ATOM     42  C   UNL A   1      39.251  29.652  29.052  1.00  0.00     0.074 A 
ATOM     43  C   UNL A   1      41.435  28.684  29.628  1.00  0.00     0.049 A 
ATOM     44  N   UNL A   1      39.475  30.862  29.434  1.00  0.00    -0.248 NA
ATOM     45  C   UNL A   1      37.846  29.394  28.759  1.00  0.00     0.031 C 
ATOM     46  C   UNL A   1      41.741  29.595  30.728  1.00  0.00     0.029 A 
ATOM     47  N   UNL A   1      42.652  28.026  29.372  1.00  0.00    -0.354 N 
ATOM     48  C   UNL A   1      38.261  31.452  29.698  1.00  0.00     0.074 A 
ATOM     49  C   UNL A   1      37.275  30.516  29.209  1.00  0.00     0.031 C 
ATOM     50  C   UNL A   1      43.074  29.680  30.859  1.00  0.00     0.029 A 
ATOM     51  C   UNL A   1      43.652  28.954  29.741  1.00  0.00     0.049 A 
ATOM     52  H   UNL A   1      42.779  27.118  29.014  1.00  0.00     0.167 HD
ATOM     53  C   UNL A   1      38.230  32.608  30.422  1.00  0.00     0.037 A 
ATOM     54  C   UNL A   1      44.486  29.505  28.812  1.00  0.00     0.037 A 
ATOM     55  C   UNL A   1      39.582  33.056  30.748  1.00  0.00     0.049 A 
ATOM     56  C   UNL A   1      44.449  31.008  28.778  1.00  0.00     0.074 A 
ATOM     57  C   UNL A   1      40.364  32.914  31.884  1.00  0.00     0.029 A 
ATOM     58  N   UNL A   1      40.435  33.465  29.730  1.00  0.00    -0.354 N 
ATOM     59  N   UNL A   1      43.417  31.718  29.141  1.00  0.00    -0.248 NA
ATOM     60  C   UNL A   1      45.575  31.827  28.349  1.00  0.00     0.031 C 
ATOM     61  C   UNL A   1      41.701  33.222  31.538  1.00  0.00     0.029 A 
ATOM     62  C   UNL A   1      41.730  33.566  30.197  1.00  0.00     0.049 A 
ATOM     63  H   UNL A   1      40.155  33.656  28.806  1.00  0.00     0.167 HD
ATOM     64  C   UNL A   1      43.719  33.052  29.017  1.00  0.00     0.074 A 
ATOM     65  C   UNL A   1      45.084  33.065  28.528  1.00  0.00     0.031 C 
ATOM     66  C   UNL A   1      42.810  34.023  29.336  1.00  0.00     0.037 A 
BRANCH  53  67
ATOM     67  C   UNL A   1      36.986  33.162  31.081  1.00  0.00     0.064 A 
ATOM     68  C   UNL A   1      36.748  32.973  32.461  1.00  0.00     0.173 A 
ATOM     69  C   UNL A   1      35.963  33.848  30.401  1.00  0.00     0.173 A 
ATOM     70  F   UNL A   1      37.675  32.442  33.268  1.00  0.00    -0.203 F 
ATOM     71  C   UNL A   1      35.540  33.319  33.072  1.00  0.00     0.198 A 
ATOM     72  C   UNL A   1      34.733  34.147  30.997  1.00  0.00     0.198 A 
ATOM     73  F   UNL A   1      36.143  34.303  29.154  1.00  0.00    -0.203 F 
ATOM     74  F   UNL A   1      35.372  33.101  34.385  1.00  0.00    -0.200 F 
ATOM     75  C   UNL A   1      34.516  33.869  32.331  1.00  0.00     0.200 A 
ATOM     76  F   UNL A   1      33.758  34.707  30.267  1.00  0.00    -0.200 F 
ATOM     77  F   UNL A   1      33.339  34.156  32.904  1.00  0.00    -0.200 F 
ENDBRANCH  53  67
BRANCH  54  78
ATOM     78  C   UNL A   1      44.741  28.619  27.647  1.00  0.00     0.064 A 
ATOM     79  C   UNL A   1      45.584  27.513  27.851  1.00  0.00     0.173 A 
ATOM     80  C   UNL A   1      43.899  28.587  26.533  1.00  0.00     0.173 A 
ATOM     81  F   UNL A   1      46.431  27.522  28.885  1.00  0.00    -0.203 F 
ATOM     82  C   UNL A   1      45.489  26.364  27.070  1.00  0.00     0.198 A 
ATOM     83  C   UNL A   1      43.824  27.444  25.730  1.00  0.00     0.198 A 
ATOM     84  F   UNL A   1      43.062  29.604  26.286  1.00  0.00    -0.203 F 
ATOM     85  F   UNL A   1      46.222  25.285  27.375  1.00  0.00    -0.200 F 
ATOM     86  C   UNL A   1      44.584  26.320  26.027  1.00  0.00     0.200 A 
ATOM     87  F   UNL A   1      42.938  27.393  24.725  1.00  0.00    -0.200 F 
ATOM     88  F   UNL A   1      44.415  25.187  25.330  1.00  0.00    -0.200 F 
ENDBRANCH  54  78
BRANCH  66  89
ATOM     89  C   UNL A   1      42.875  35.496  28.983  1.00  0.00     0.064 A 
ATOM     90  C   UNL A   1      42.242  36.077  27.873  1.00  0.00     0.173 A 
ATOM     91  C   UNL A   1      43.475  36.422  29.879  1.00  0.00     0.173 A 
ATOM     92  F   UNL A   1      41.532  35.347  27.006  1.00  0.00    -0.203 F 
ATOM     93  C   UNL A   1      42.255  37.458  27.644  1.00  0.00     0.198 A 
ATOM     94  C   UNL A   1      43.430  37.802  29.682  1.00  0.00     0.198 A 
ATOM     95  F   UNL A   1      44.097  36.024  30.999  1.00  0.00    -0.203 F 
ATOM     96  F   UNL A   1      41.668  37.952  26.545  1.00  0.00    -0.200 F 
ATOM     97  C   UNL A   1      42.834  38.320  28.555  1.00  0.00     0.200 A 
ATOM     98  F   UNL A   1      43.948  38.622  30.607  1.00  0.00    -0.200 F 
ATOM     99  F   UNL A   1      42.793  39.645  28.361  1.00  0.00    -0.200 F 
ENDBRANCH  66  89
ENDBRANCH  40  41
ENDBRANCH  32  35
ENDBRANCH  30  31
ENDBRANCH  29  30
ENDBRANCH  28  29
ENDBRANCH  27  28
ENDBRANCH   3  27
TORSDOF 17
ENDMDL
