MODEL 1
REMARK VINA RESULT:     -12.8      0.000      0.000
REMARK SMILES CC(C)=CC(=O)Nc1ccc(C(=O)NCCCCNC(=O)c2ccc(-c3c4nc(c(-c5c(F)c(F)c(F)c(F)c5F)c5ccc([nH]5)c(-c5c(F)c(F)c(F)c(F)c5F)c5nc(c(-c6c(F)c(F)c(F)c(F)c6F)c6ccc3[nH]6)C=C5)C=C4)cc2)cc1
REMARK SMILES IDX 16 1 15 2 14 3 12 4 13 5 11 7 8 8 9 9 86 10 10 11 85 12 7 13
REMARK SMILES IDX 5 14 6 15 4 17 1 18 2 19 3 20 17 21 18 22 19 23 20 24 21 26
REMARK SMILES IDX 22 27 23 28 84 29 24 30 83 31 25 32 26 33 27 34 77 35 28 36
REMARK SMILES IDX 82 37 76 38 78 39 29 40 81 41 75 42 74 43 30 45 62 46 42 47
REMARK SMILES IDX 61 48 43 49 46 50 60 51 79 52 44 53 45 54 59 56 80 57 47 58
REMARK SMILES IDX 31 59 32 60 40 61 33 62 34 63 38 64 41 65 35 66 36 67 39 68
REMARK SMILES IDX 37 69 63 70 64 71 72 72 65 73 66 74 70 75 73 76 67 77 68 78
REMARK SMILES IDX 71 79 69 80 48 81 49 82 57 83 50 84 51 85 55 86 58 87 52 88
REMARK SMILES IDX 53 89 56 90 54 91
REMARK H PARENT 14 6 7 16 19 25 78 44 46 55
REMARK Flexibility Score: inf
ROOT
ATOM      1  C   UNL A   1      32.073  30.244  26.821  1.00  0.00     0.023 C 
ENDROOT
BRANCH   1   2
ATOM      2  C   UNL A   1      33.456  29.928  26.248  1.00  0.00     0.116 C 
BRANCH   2   3
ATOM      3  N   UNL A   1      33.390  29.806  24.803  1.00  0.00    -0.352 N 
ATOM      4  C   UNL A   1      33.009  28.767  23.989  1.00  0.00     0.251 C 
ATOM      5  O   UNL A   1      33.040  28.937  22.771  1.00  0.00    -0.269 OA
ATOM      6  H   UNL A   1      33.669  30.616  24.317  1.00  0.00     0.163 HD
BRANCH   4   7
ATOM      7  C   UNL A   1      32.462  27.499  24.535  1.00  0.00     0.039 A 
ATOM      8  C   UNL A   1      31.303  25.429  25.997  1.00  0.00     0.041 A 
ATOM      9  C   UNL A   1      30.485  26.330  25.314  1.00  0.00     0.027 A 
ATOM     10  C   UNL A   1      32.680  25.441  25.785  1.00  0.00     0.027 A 
ATOM     11  C   UNL A   1      31.068  27.389  24.618  1.00  0.00     0.016 A 
ATOM     12  C   UNL A   1      33.253  26.454  25.017  1.00  0.00     0.016 A 
BRANCH   8  13
ATOM     13  N   UNL A   1      30.696  24.584  26.929  1.00  0.00    -0.323 N 
ATOM     14  C   UNL A   1      30.360  23.266  26.821  1.00  0.00     0.248 C 
ATOM     15  O   UNL A   1      29.645  22.748  27.681  1.00  0.00    -0.270 OA
ATOM     16  H   UNL A   1      30.478  25.002  27.794  1.00  0.00     0.170 HD
BRANCH  14  17
ATOM     17  C   UNL A   1      30.868  22.399  25.718  1.00  0.00     0.070 C 
ATOM     18  C   UNL A   1      33.214  21.822  26.542  1.00  0.00     0.039 C 
ATOM     19  C   UNL A   1      32.050  21.757  25.592  1.00  0.00    -0.071 C 
ATOM     20  C   UNL A   1      32.279  20.815  24.437  1.00  0.00     0.039 C 
ENDBRANCH  14  17
ENDBRANCH   8  13
ENDBRANCH   4   7
ENDBRANCH   2   3
ENDBRANCH   1   2
BRANCH   1  21
ATOM     21  C   UNL A   1      31.764  31.741  26.896  1.00  0.00     0.023 C 
BRANCH  21  22
ATOM     22  C   UNL A   1      32.915  32.607  27.399  1.00  0.00     0.116 C 
BRANCH  22  23
ATOM     23  N   UNL A   1      32.518  33.986  27.645  1.00  0.00    -0.352 N 
ATOM     24  C   UNL A   1      33.034  34.887  28.544  1.00  0.00     0.251 C 
ATOM     25  H   UNL A   1      31.775  34.319  27.091  1.00  0.00     0.163 HD
ATOM     26  O   UNL A   1      32.494  35.976  28.714  1.00  0.00    -0.269 OA
BRANCH  24  27
ATOM     27  C   UNL A   1      34.224  34.521  29.338  1.00  0.00     0.039 A 
ATOM     28  C   UNL A   1      34.043  33.976  30.612  1.00  0.00     0.014 A 
ATOM     29  C   UNL A   1      35.507  34.672  28.807  1.00  0.00     0.014 A 
ATOM     30  C   UNL A   1      35.145  33.492  31.316  1.00  0.00     0.010 A 
ATOM     31  C   UNL A   1      36.598  34.136  29.485  1.00  0.00     0.010 A 
ATOM     32  C   UNL A   1      36.423  33.522  30.735  1.00  0.00    -0.014 A 
BRANCH  32  33
ATOM     33  C   UNL A   1      37.584  32.865  31.384  1.00  0.00     0.031 A 
ATOM     34  C   UNL A   1      38.248  31.687  30.737  1.00  0.00     0.074 A 
ATOM     35  C   UNL A   1      37.970  33.274  32.609  1.00  0.00     0.049 A 
ATOM     36  N   UNL A   1      39.189  30.907  31.208  1.00  0.00    -0.248 NA
ATOM     37  C   UNL A   1      37.778  31.321  29.393  1.00  0.00     0.031 C 
ATOM     38  C   UNL A   1      37.375  34.383  33.357  1.00  0.00     0.029 A 
ATOM     39  N   UNL A   1      38.940  32.790  33.451  1.00  0.00    -0.354 N 
ATOM     40  C   UNL A   1      39.413  29.953  30.226  1.00  0.00     0.074 A 
ATOM     41  C   UNL A   1      38.484  30.226  29.150  1.00  0.00     0.031 C 
ATOM     42  C   UNL A   1      37.995  34.499  34.540  1.00  0.00     0.029 A 
ATOM     43  C   UNL A   1      39.000  33.447  34.655  1.00  0.00     0.049 A 
ATOM     44  H   UNL A   1      39.535  32.042  33.214  1.00  0.00     0.167 HD
ATOM     45  C   UNL A   1      40.327  28.954  30.217  1.00  0.00     0.037 A 
ATOM     46  C   UNL A   1      39.763  33.214  35.740  1.00  0.00     0.037 A 
ATOM     47  C   UNL A   1      41.262  28.700  31.281  1.00  0.00     0.049 A 
ATOM     48  C   UNL A   1      40.741  32.071  35.719  1.00  0.00     0.074 A 
ATOM     49  C   UNL A   1      42.280  27.763  31.329  1.00  0.00     0.029 A 
ATOM     50  N   UNL A   1      41.288  29.382  32.488  1.00  0.00    -0.354 N 
ATOM     51  N   UNL A   1      40.995  31.220  34.756  1.00  0.00    -0.248 NA
ATOM     52  C   UNL A   1      41.531  31.852  36.939  1.00  0.00     0.031 C 
ATOM     53  C   UNL A   1      42.891  27.846  32.585  1.00  0.00     0.029 A 
ATOM     54  C   UNL A   1      42.282  28.862  33.303  1.00  0.00     0.049 A 
ATOM     55  H   UNL A   1      40.691  30.126  32.731  1.00  0.00     0.167 HD
ATOM     56  C   UNL A   1      41.982  30.375  35.244  1.00  0.00     0.074 A 
ATOM     57  C   UNL A   1      42.293  30.827  36.586  1.00  0.00     0.031 C 
ATOM     58  C   UNL A   1      42.573  29.317  34.638  1.00  0.00     0.037 A 
BRANCH  45  59
ATOM     59  C   UNL A   1      40.359  28.055  29.017  1.00  0.00     0.064 A 
ATOM     60  C   UNL A   1      39.617  26.865  28.971  1.00  0.00     0.173 A 
ATOM     61  C   UNL A   1      41.104  28.409  27.882  1.00  0.00     0.173 A 
ATOM     62  F   UNL A   1      38.897  26.478  30.034  1.00  0.00    -0.203 F 
ATOM     63  C   UNL A   1      39.641  26.050  27.842  1.00  0.00     0.198 A 
ATOM     64  C   UNL A   1      41.104  27.605  26.745  1.00  0.00     0.198 A 
ATOM     65  F   UNL A   1      41.826  29.540  27.872  1.00  0.00    -0.203 F 
ATOM     66  F   UNL A   1      38.959  24.896  27.837  1.00  0.00    -0.200 F 
ATOM     67  C   UNL A   1      40.379  26.423  26.729  1.00  0.00     0.200 A 
ATOM     68  F   UNL A   1      41.809  27.972  25.666  1.00  0.00    -0.200 F 
ATOM     69  F   UNL A   1      40.395  25.641  25.641  1.00  0.00    -0.200 F 
ENDBRANCH  45  59
BRANCH  46  70
ATOM     70  C   UNL A   1      39.631  34.081  36.939  1.00  0.00     0.064 A 
ATOM     71  C   UNL A   1      38.820  33.696  38.016  1.00  0.00     0.173 A 
ATOM     72  C   UNL A   1      40.310  35.303  37.035  1.00  0.00     0.173 A 
ATOM     73  F   UNL A   1      38.133  32.546  37.958  1.00  0.00    -0.203 F 
ATOM     74  C   UNL A   1      38.685  34.508  39.139  1.00  0.00     0.198 A 
ATOM     75  C   UNL A   1      40.194  36.102  38.171  1.00  0.00     0.198 A 
ATOM     76  F   UNL A   1      41.100  35.714  36.032  1.00  0.00    -0.203 F 
ATOM     77  F   UNL A   1      37.874  34.136  40.138  1.00  0.00    -0.200 F 
ATOM     78  C   UNL A   1      39.376  35.707  39.218  1.00  0.00     0.200 A 
ATOM     79  F   UNL A   1      40.874  37.255  38.249  1.00  0.00    -0.200 F 
ATOM     80  F   UNL A   1      39.250  36.486  40.302  1.00  0.00    -0.200 F 
ENDBRANCH  46  70
BRANCH  58  81
ATOM     81  C   UNL A   1      43.620  28.577  35.416  1.00  0.00     0.064 A 
ATOM     82  C   UNL A   1      44.977  28.908  35.308  1.00  0.00     0.173 A 
ATOM     83  C   UNL A   1      43.258  27.564  36.316  1.00  0.00     0.173 A 
ATOM     84  F   UNL A   1      45.374  29.858  34.447  1.00  0.00    -0.203 F 
ATOM     85  C   UNL A   1      45.939  28.242  36.063  1.00  0.00     0.198 A 
ATOM     86  C   UNL A   1      44.217  26.917  37.089  1.00  0.00     0.198 A 
ATOM     87  F   UNL A   1      41.971  27.213  36.457  1.00  0.00    -0.203 F 
ATOM     88  F   UNL A   1      47.234  28.550  35.919  1.00  0.00    -0.200 F 
ATOM     89  C   UNL A   1      45.557  27.253  36.960  1.00  0.00     0.200 A 
ATOM     90  F   UNL A   1      43.847  25.970  37.962  1.00  0.00    -0.200 F 
ATOM     91  F   UNL A   1      46.482  26.621  37.694  1.00  0.00    -0.200 F 
ENDBRANCH  58  81
ENDBRANCH  32  33
ENDBRANCH  24  27
ENDBRANCH  22  23
ENDBRANCH  21  22
ENDBRANCH   1  21
TORSDOF 13
ENDMDL
MODEL 2
REMARK VINA RESULT:     -12.4      0.848      7.644
REMARK SMILES CC(C)=CC(=O)Nc1ccc(C(=O)NCCCCNC(=O)c2ccc(-c3c4nc(c(-c5c(F)c(F)c(F)c(F)c5F)c5ccc([nH]5)c(-c5c(F)c(F)c(F)c(F)c5F)c5nc(c(-c6c(F)c(F)c(F)c(F)c6F)c6ccc3[nH]6)C=C5)C=C4)cc2)cc1
REMARK SMILES IDX 16 1 15 2 14 3 12 4 13 5 11 7 8 8 9 9 86 10 10 11 85 12 7 13
REMARK SMILES IDX 5 14 6 15 4 17 1 18 2 19 3 20 17 21 18 22 19 23 20 24 21 26
REMARK SMILES IDX 22 27 23 28 84 29 24 30 83 31 25 32 26 33 27 34 77 35 28 36
REMARK SMILES IDX 82 37 76 38 78 39 29 40 81 41 75 42 74 43 30 45 62 46 42 47
REMARK SMILES IDX 61 48 43 49 46 50 60 51 79 52 44 53 45 54 59 56 80 57 47 58
REMARK SMILES IDX 31 59 32 60 40 61 33 62 34 63 38 64 41 65 35 66 36 67 39 68
REMARK SMILES IDX 37 69 63 70 64 71 72 72 65 73 66 74 70 75 73 76 67 77 68 78
REMARK SMILES IDX 71 79 69 80 48 81 49 82 57 83 50 84 51 85 55 86 58 87 52 88
REMARK SMILES IDX 53 89 56 90 54 91
REMARK H PARENT 14 6 7 16 19 25 78 44 46 55
REMARK Flexibility Score: inf
ROOT
ATOM      1  C   UNL A   1      31.784  30.377  26.253  1.00  0.00     0.023 C 
ENDROOT
BRANCH   1   2
ATOM      2  C   UNL A   1      33.265  30.019  26.119  1.00  0.00     0.116 C 
BRANCH   2   3
ATOM      3  N   UNL A   1      33.592  29.723  24.736  1.00  0.00    -0.352 N 
ATOM      4  C   UNL A   1      33.498  28.567  24.001  1.00  0.00     0.251 C 
ATOM      5  O   UNL A   1      33.842  28.595  22.820  1.00  0.00    -0.269 OA
ATOM      6  H   UNL A   1      33.945  30.493  24.232  1.00  0.00     0.163 HD
BRANCH   4   7
ATOM      7  C   UNL A   1      32.895  27.328  24.557  1.00  0.00     0.039 A 
ATOM      8  C   UNL A   1      31.560  25.342  25.985  1.00  0.00     0.041 A 
ATOM      9  C   UNL A   1      30.842  26.164  25.115  1.00  0.00     0.027 A 
ATOM     10  C   UNL A   1      32.953  25.379  25.986  1.00  0.00     0.027 A 
ATOM     11  C   UNL A   1      31.507  27.183  24.433  1.00  0.00     0.016 A 
ATOM     12  C   UNL A   1      33.620  26.347  25.236  1.00  0.00     0.016 A 
BRANCH   8  13
ATOM     13  N   UNL A   1      30.831  24.553  26.878  1.00  0.00    -0.323 N 
ATOM     14  C   UNL A   1      30.448  23.248  26.774  1.00  0.00     0.248 C 
ATOM     15  O   UNL A   1      29.632  22.788  27.575  1.00  0.00    -0.270 OA
ATOM     16  H   UNL A   1      30.552  25.007  27.706  1.00  0.00     0.170 HD
BRANCH  14  17
ATOM     17  C   UNL A   1      31.018  22.326  25.748  1.00  0.00     0.070 C 
ATOM     18  C   UNL A   1      33.321  21.815  26.723  1.00  0.00     0.039 C 
ATOM     19  C   UNL A   1      32.208  21.689  25.719  1.00  0.00    -0.071 C 
ATOM     20  C   UNL A   1      32.503  20.686  24.631  1.00  0.00     0.039 C 
ENDBRANCH  14  17
ENDBRANCH   8  13
ENDBRANCH   4   7
ENDBRANCH   2   3
ENDBRANCH   1   2
BRANCH   1  21
ATOM     21  C   UNL A   1      31.536  31.788  26.791  1.00  0.00     0.023 C 
BRANCH  21  22
ATOM     22  C   UNL A   1      32.785  32.514  27.280  1.00  0.00     0.116 C 
BRANCH  22  23
ATOM     23  N   UNL A   1      32.540  33.918  27.582  1.00  0.00    -0.352 N 
ATOM     24  C   UNL A   1      33.137  34.716  28.527  1.00  0.00     0.251 C 
ATOM     25  H   UNL A   1      31.850  34.355  27.033  1.00  0.00     0.163 HD
ATOM     26  O   UNL A   1      32.718  35.851  28.738  1.00  0.00    -0.269 OA
BRANCH  24  27
ATOM     27  C   UNL A   1      34.262  34.185  29.320  1.00  0.00     0.039 A 
ATOM     28  C   UNL A   1      33.988  33.506  30.510  1.00  0.00     0.014 A 
ATOM     29  C   UNL A   1      35.577  34.316  28.865  1.00  0.00     0.014 A 
ATOM     30  C   UNL A   1      35.025  32.875  31.197  1.00  0.00     0.010 A 
ATOM     31  C   UNL A   1      36.601  33.637  29.519  1.00  0.00     0.010 A 
ATOM     32  C   UNL A   1      36.330  32.892  30.677  1.00  0.00    -0.014 A 
BRANCH  32  33
ATOM     33  C   UNL A   1      37.418  32.092  31.291  1.00  0.00     0.031 A 
ATOM     34  C   UNL A   1      37.930  32.432  32.658  1.00  0.00     0.074 A 
ATOM     35  C   UNL A   1      38.009  31.122  30.567  1.00  0.00     0.049 A 
ATOM     36  N   UNL A   1      38.953  31.932  33.306  1.00  0.00    -0.248 NA
ATOM     37  C   UNL A   1      37.214  33.490  33.387  1.00  0.00     0.031 C 
ATOM     38  C   UNL A   1      37.625  30.726  29.210  1.00  0.00     0.029 A 
ATOM     39  N   UNL A   1      39.074  30.307  30.860  1.00  0.00    -0.354 N 
ATOM     40  C   UNL A   1      39.010  32.622  34.509  1.00  0.00     0.074 A 
ATOM     41  C   UNL A   1      37.946  33.603  34.486  1.00  0.00     0.031 C 
ATOM     42  C   UNL A   1      38.435  29.742  28.793  1.00  0.00     0.029 A 
ATOM     43  C   UNL A   1      39.423  29.467  29.832  1.00  0.00     0.049 A 
ATOM     44  H   UNL A   1      39.543  30.323  31.726  1.00  0.00     0.167 HD
ATOM     45  C   UNL A   1      39.863  32.437  35.544  1.00  0.00     0.037 A 
ATOM     46  C   UNL A   1      40.440  28.591  29.727  1.00  0.00     0.037 A 
ATOM     47  C   UNL A   1      40.906  31.446  35.569  1.00  0.00     0.049 A 
ATOM     48  C   UNL A   1      41.397  28.435  30.876  1.00  0.00     0.074 A 
ATOM     49  C   UNL A   1      41.768  31.127  36.604  1.00  0.00     0.029 A 
ATOM     50  N   UNL A   1      41.235  30.619  34.506  1.00  0.00    -0.354 N 
ATOM     51  N   UNL A   1      41.398  29.041  32.038  1.00  0.00    -0.248 NA
ATOM     52  C   UNL A   1      42.499  27.479  30.696  1.00  0.00     0.031 C 
ATOM     53  C   UNL A   1      42.650  30.140  36.151  1.00  0.00     0.029 A 
ATOM     54  C   UNL A   1      42.310  29.814  34.848  1.00  0.00     0.049 A 
ATOM     55  H   UNL A   1      40.772  30.604  33.637  1.00  0.00     0.167 HD
ATOM     56  C   UNL A   1      42.487  28.532  32.733  1.00  0.00     0.074 A 
ATOM     57  C   UNL A   1      43.115  27.554  31.868  1.00  0.00     0.031 C 
ATOM     58  C   UNL A   1      42.929  28.851  33.973  1.00  0.00     0.037 A 
BRANCH  45  59
ATOM     59  C   UNL A   1      39.704  33.328  36.740  1.00  0.00     0.064 A 
ATOM     60  C   UNL A   1      40.392  34.547  36.843  1.00  0.00     0.173 A 
ATOM     61  C   UNL A   1      38.821  32.983  37.774  1.00  0.00     0.173 A 
ATOM     62  F   UNL A   1      41.254  34.918  35.886  1.00  0.00    -0.203 F 
ATOM     63  C   UNL A   1      40.220  35.374  37.950  1.00  0.00     0.198 A 
ATOM     64  C   UNL A   1      38.632  33.825  38.866  1.00  0.00     0.198 A 
ATOM     65  F   UNL A   1      38.134  31.830  37.720  1.00  0.00    -0.203 F 
ATOM     66  F   UNL A   1      40.920  36.512  38.047  1.00  0.00    -0.200 F 
ATOM     67  C   UNL A   1      39.336  35.016  38.957  1.00  0.00     0.200 A 
ATOM     68  F   UNL A   1      37.769  33.482  39.833  1.00  0.00    -0.200 F 
ATOM     69  F   UNL A   1      39.167  35.816  40.018  1.00  0.00    -0.200 F 
ENDBRANCH  45  59
BRANCH  46  70
ATOM     70  C   UNL A   1      40.606  27.793  28.485  1.00  0.00     0.064 A 
ATOM     71  C   UNL A   1      41.364  28.285  27.413  1.00  0.00     0.173 A 
ATOM     72  C   UNL A   1      40.017  26.529  28.344  1.00  0.00     0.173 A 
ATOM     73  F   UNL A   1      41.925  29.500  27.493  1.00  0.00    -0.203 F 
ATOM     74  C   UNL A   1      41.515  27.546  26.242  1.00  0.00     0.198 A 
ATOM     75  C   UNL A   1      40.192  25.780  27.182  1.00  0.00     0.198 A 
ATOM     76  F   UNL A   1      39.285  26.013  29.343  1.00  0.00    -0.203 F 
ATOM     77  F   UNL A   1      42.212  28.055  25.217  1.00  0.00    -0.200 F 
ATOM     78  C   UNL A   1      40.935  26.292  26.130  1.00  0.00     0.200 A 
ATOM     79  F   UNL A   1      39.639  24.563  27.083  1.00  0.00    -0.200 F 
ATOM     80  F   UNL A   1      41.086  25.579  25.005  1.00  0.00    -0.200 F 
ENDBRANCH  46  70
BRANCH  58  81
ATOM     81  C   UNL A   1      44.146  28.133  34.474  1.00  0.00     0.064 A 
ATOM     82  C   UNL A   1      44.048  26.886  35.106  1.00  0.00     0.173 A 
ATOM     83  C   UNL A   1      45.426  28.672  34.274  1.00  0.00     0.173 A 
ATOM     84  F   UNL A   1      42.845  26.339  35.335  1.00  0.00    -0.203 F 
ATOM     85  C   UNL A   1      45.187  26.208  35.532  1.00  0.00     0.198 A 
ATOM     86  C   UNL A   1      46.564  27.981  34.678  1.00  0.00     0.198 A 
ATOM     87  F   UNL A   1      45.572  29.862  33.671  1.00  0.00    -0.203 F 
ATOM     88  F   UNL A   1      45.068  25.033  36.165  1.00  0.00    -0.200 F 
ATOM     89  C   UNL A   1      46.444  26.752  35.310  1.00  0.00     0.200 A 
ATOM     90  F   UNL A   1      47.778  28.501  34.453  1.00  0.00    -0.200 F 
ATOM     91  F   UNL A   1      47.540  26.093  35.710  1.00  0.00    -0.200 F 
ENDBRANCH  58  81
ENDBRANCH  32  33
ENDBRANCH  24  27
ENDBRANCH  22  23
ENDBRANCH  21  22
ENDBRANCH   1  21
TORSDOF 13
ENDMDL
MODEL 3
REMARK VINA RESULT:     -12.4      1.230      1.846
REMARK SMILES CC(C)=CC(=O)Nc1ccc(C(=O)NCCCCNC(=O)c2ccc(-c3c4nc(c(-c5c(F)c(F)c(F)c(F)c5F)c5ccc([nH]5)c(-c5c(F)c(F)c(F)c(F)c5F)c5nc(c(-c6c(F)c(F)c(F)c(F)c6F)c6ccc3[nH]6)C=C5)C=C4)cc2)cc1
REMARK SMILES IDX 16 1 15 2 14 3 12 4 13 5 11 7 8 8 9 9 86 10 10 11 85 12 7 13
REMARK SMILES IDX 5 14 6 15 4 17 1 18 2 19 3 20 17 21 18 22 19 23 20 24 21 26
REMARK SMILES IDX 22 27 23 28 84 29 24 30 83 31 25 32 26 33 27 34 77 35 28 36
REMARK SMILES IDX 82 37 76 38 78 39 29 40 81 41 75 42 74 43 30 45 62 46 42 47
REMARK SMILES IDX 61 48 43 49 46 50 60 51 79 52 44 53 45 54 59 56 80 57 47 58
REMARK SMILES IDX 31 59 32 60 40 61 33 62 34 63 38 64 41 65 35 66 36 67 39 68
REMARK SMILES IDX 37 69 63 70 64 71 72 72 65 73 66 74 70 75 73 76 67 77 68 78
REMARK SMILES IDX 71 79 69 80 48 81 49 82 57 83 50 84 51 85 55 86 58 87 52 88
REMARK SMILES IDX 53 89 56 90 54 91
REMARK H PARENT 14 6 7 16 19 25 78 44 46 55
REMARK Flexibility Score: inf
ROOT
ATOM      1  C   UNL A   1      32.061  30.188  26.775  1.00  0.00     0.023 C 
ENDROOT
BRANCH   1   2
ATOM      2  C   UNL A   1      32.367  29.737  25.346  1.00  0.00     0.116 C 
BRANCH   2   3
ATOM      3  N   UNL A   1      31.192  29.886  24.506  1.00  0.00    -0.352 N 
ATOM      4  C   UNL A   1      30.494  28.983  23.741  1.00  0.00     0.251 C 
ATOM      5  O   UNL A   1      29.508  29.380  23.122  1.00  0.00    -0.269 OA
ATOM      6  H   UNL A   1      30.828  30.801  24.480  1.00  0.00     0.163 HD
BRANCH   4   7
ATOM      7  C   UNL A   1      30.828  27.536  23.731  1.00  0.00     0.039 A 
ATOM      8  C   UNL A   1      31.155  24.811  23.248  1.00  0.00     0.041 A 
ATOM      9  C   UNL A   1      31.928  25.731  22.540  1.00  0.00     0.027 A 
ATOM     10  C   UNL A   1      30.379  25.235  24.324  1.00  0.00     0.027 A 
ATOM     11  C   UNL A   1      31.732  27.096  22.755  1.00  0.00     0.016 A 
ATOM     12  C   UNL A   1      30.252  26.598  24.590  1.00  0.00     0.016 A 
BRANCH   8  13
ATOM     13  N   UNL A   1      31.146  23.490  22.793  1.00  0.00    -0.323 N 
ATOM     14  C   UNL A   1      31.956  22.446  23.132  1.00  0.00     0.248 C 
ATOM     15  O   UNL A   1      31.921  21.408  22.469  1.00  0.00    -0.270 OA
ATOM     16  H   UNL A   1      30.450  23.281  22.128  1.00  0.00     0.170 HD
BRANCH  14  17
ATOM     17  C   UNL A   1      32.860  22.488  24.318  1.00  0.00     0.070 C 
ATOM     18  C   UNL A   1      34.932  23.631  23.360  1.00  0.00     0.039 C 
ATOM     19  C   UNL A   1      34.101  23.006  24.447  1.00  0.00    -0.071 C 
ATOM     20  C   UNL A   1      34.765  23.052  25.801  1.00  0.00     0.039 C 
ENDBRANCH  14  17
ENDBRANCH   8  13
ENDBRANCH   4   7
ENDBRANCH   2   3
ENDBRANCH   1   2
BRANCH   1  21
ATOM     21  C   UNL A   1      31.740  31.680  26.897  1.00  0.00     0.023 C 
BRANCH  21  22
ATOM     22  C   UNL A   1      32.888  32.540  27.417  1.00  0.00     0.116 C 
BRANCH  22  23
ATOM     23  N   UNL A   1      32.496  33.923  27.651  1.00  0.00    -0.352 N 
ATOM     24  C   UNL A   1      33.017  34.831  28.540  1.00  0.00     0.251 C 
ATOM     25  H   UNL A   1      31.753  34.252  27.095  1.00  0.00     0.163 HD
ATOM     26  O   UNL A   1      32.481  35.923  28.700  1.00  0.00    -0.269 OA
BRANCH  24  27
ATOM     27  C   UNL A   1      34.207  34.469  29.334  1.00  0.00     0.039 A 
ATOM     28  C   UNL A   1      34.027  33.911  30.603  1.00  0.00     0.014 A 
ATOM     29  C   UNL A   1      35.492  34.635  28.808  1.00  0.00     0.014 A 
ATOM     30  C   UNL A   1      35.132  33.431  31.307  1.00  0.00     0.010 A 
ATOM     31  C   UNL A   1      36.585  34.103  29.486  1.00  0.00     0.010 A 
ATOM     32  C   UNL A   1      36.411  33.477  30.729  1.00  0.00    -0.014 A 
BRANCH  32  33
ATOM     33  C   UNL A   1      37.576  32.824  31.378  1.00  0.00     0.031 A 
ATOM     34  C   UNL A   1      38.238  31.643  30.734  1.00  0.00     0.074 A 
ATOM     35  C   UNL A   1      37.967  33.240  32.598  1.00  0.00     0.049 A 
ATOM     36  N   UNL A   1      39.182  30.867  31.204  1.00  0.00    -0.248 NA
ATOM     37  C   UNL A   1      37.763  31.270  29.393  1.00  0.00     0.031 C 
ATOM     38  C   UNL A   1      37.373  34.353  33.343  1.00  0.00     0.029 A 
ATOM     39  N   UNL A   1      38.941  32.761  33.438  1.00  0.00    -0.354 N 
ATOM     40  C   UNL A   1      39.403  29.908  30.226  1.00  0.00     0.074 A 
ATOM     41  C   UNL A   1      38.468  30.174  29.153  1.00  0.00     0.031 C 
ATOM     42  C   UNL A   1      37.999  34.476  34.523  1.00  0.00     0.029 A 
ATOM     43  C   UNL A   1      39.006  33.425  34.639  1.00  0.00     0.049 A 
ATOM     44  H   UNL A   1      39.536  32.013  33.203  1.00  0.00     0.167 HD
ATOM     45  C   UNL A   1      40.317  28.909  30.219  1.00  0.00     0.037 A 
ATOM     46  C   UNL A   1      39.774  33.199  35.721  1.00  0.00     0.037 A 
ATOM     47  C   UNL A   1      41.258  28.663  31.280  1.00  0.00     0.049 A 
ATOM     48  C   UNL A   1      40.753  32.057  35.702  1.00  0.00     0.074 A 
ATOM     49  C   UNL A   1      42.276  27.727  31.329  1.00  0.00     0.029 A 
ATOM     50  N   UNL A   1      41.288  29.351  32.483  1.00  0.00    -0.354 N 
ATOM     51  N   UNL A   1      41.004  31.201  34.743  1.00  0.00    -0.248 NA
ATOM     52  C   UNL A   1      41.548  31.846  36.920  1.00  0.00     0.031 C 
ATOM     53  C   UNL A   1      42.893  27.817  32.582  1.00  0.00     0.029 A 
ATOM     54  C   UNL A   1      42.286  28.837  33.297  1.00  0.00     0.049 A 
ATOM     55  H   UNL A   1      40.691  30.096  32.724  1.00  0.00     0.167 HD
ATOM     56  C   UNL A   1      41.993  30.360  35.231  1.00  0.00     0.074 A 
ATOM     57  C   UNL A   1      42.310  30.819  36.569  1.00  0.00     0.031 C 
ATOM     58  C   UNL A   1      42.583  29.299  34.628  1.00  0.00     0.037 A 
BRANCH  45  59
ATOM     59  C   UNL A   1      40.345  28.004  29.023  1.00  0.00     0.064 A 
ATOM     60  C   UNL A   1      39.606  26.812  28.988  1.00  0.00     0.173 A 
ATOM     61  C   UNL A   1      41.082  28.354  27.882  1.00  0.00     0.173 A 
ATOM     62  F   UNL A   1      38.894  26.429  30.058  1.00  0.00    -0.203 F 
ATOM     63  C   UNL A   1      39.626  25.991  27.864  1.00  0.00     0.198 A 
ATOM     64  C   UNL A   1      41.077  27.544  26.750  1.00  0.00     0.198 A 
ATOM     65  F   UNL A   1      41.801  29.488  27.862  1.00  0.00    -0.203 F 
ATOM     66  F   UNL A   1      38.947  24.835  27.870  1.00  0.00    -0.200 F 
ATOM     67  C   UNL A   1      40.356  26.360  26.744  1.00  0.00     0.200 A 
ATOM     68  F   UNL A   1      41.775  27.908  25.664  1.00  0.00    -0.200 F 
ATOM     69  F   UNL A   1      40.368  25.572  25.661  1.00  0.00    -0.200 F 
ENDBRANCH  45  59
BRANCH  46  70
ATOM     70  C   UNL A   1      39.646  34.072  36.916  1.00  0.00     0.064 A 
ATOM     71  C   UNL A   1      40.329  35.294  36.988  1.00  0.00     0.173 A 
ATOM     72  C   UNL A   1      38.840  33.708  38.003  1.00  0.00     0.173 A 
ATOM     73  F   UNL A   1      41.130  35.672  35.981  1.00  0.00    -0.203 F 
ATOM     74  C   UNL A   1      40.220  36.113  38.109  1.00  0.00     0.198 A 
ATOM     75  C   UNL A   1      38.711  34.541  39.113  1.00  0.00     0.198 A 
ATOM     76  F   UNL A   1      38.164  32.550  37.982  1.00  0.00    -0.203 F 
ATOM     77  F   UNL A   1      40.913  37.258  38.169  1.00  0.00    -0.200 F 
ATOM     78  C   UNL A   1      39.407  35.739  39.168  1.00  0.00     0.200 A 
ATOM     79  F   UNL A   1      37.915  34.182  40.130  1.00  0.00    -0.200 F 
ATOM     80  F   UNL A   1      39.298  36.530  40.244  1.00  0.00    -0.200 F 
ENDBRANCH  46  70
BRANCH  58  81
ATOM     81  C   UNL A   1      43.634  28.564  35.405  1.00  0.00     0.064 A 
ATOM     82  C   UNL A   1      44.992  28.882  35.273  1.00  0.00     0.173 A 
ATOM     83  C   UNL A   1      43.276  27.570  36.327  1.00  0.00     0.173 A 
ATOM     84  F   UNL A   1      45.385  29.813  34.391  1.00  0.00    -0.203 F 
ATOM     85  C   UNL A   1      45.958  28.221  36.028  1.00  0.00     0.198 A 
ATOM     86  C   UNL A   1      44.240  26.929  37.099  1.00  0.00     0.198 A 
ATOM     87  F   UNL A   1      41.987  27.233  36.492  1.00  0.00    -0.203 F 
ATOM     88  F   UNL A   1      47.254  28.516  35.861  1.00  0.00    -0.200 F 
ATOM     89  C   UNL A   1      45.580  27.252  36.947  1.00  0.00     0.200 A 
ATOM     90  F   UNL A   1      43.874  26.001  37.994  1.00  0.00    -0.200 F 
ATOM     91  F   UNL A   1      46.510  26.625  37.680  1.00  0.00    -0.200 F 
ENDBRANCH  58  81
ENDBRANCH  32  33
ENDBRANCH  24  27
ENDBRANCH  22  23
ENDBRANCH  21  22
ENDBRANCH   1  21
TORSDOF 13
ENDMDL
