MODEL 1
REMARK VINA RESULT:     -12.3      0.000      0.000
REMARK SMILES O=C(C[C@H](CNC(=O)c1ccccn1)c1ccc(Cl)cc1)NCCCCNC(=O)c1ccc(-c2c3nc(c(-c4c(F)c(F)c(F)c(F)c4F)c4ccc([nH]4)c(-c4c(F)c(F)c(F)c(F)c4F)c4nc(c(-c5c(F)c(F)c(F)c(F)c5F)c5ccc2[nH]5)C=C4)C=C3)cc1
REMARK SMILES IDX 23 1 22 2 1 3 2 4 3 6 4 7 15 8 16 9 21 10 17 11 20 12 18 13
REMARK SMILES IDX 19 14 5 15 6 16 7 17 8 19 9 20 10 21 14 22 11 23 13 24 12 25
REMARK SMILES IDX 24 26 25 27 26 28 27 29 28 30 29 32 30 33 31 34 92 35 32 36
REMARK SMILES IDX 91 37 33 38 34 39 35 40 85 41 36 42 90 43 84 44 86 45 37 46
REMARK SMILES IDX 89 47 83 48 82 49 38 51 70 52 50 53 69 54 51 55 54 56 68 57
REMARK SMILES IDX 87 58 52 59 53 60 67 62 88 63 55 64 39 65 40 66 48 67 41 68
REMARK SMILES IDX 42 69 46 70 49 71 43 72 44 73 47 74 45 75 71 76 72 77 80 78
REMARK SMILES IDX 73 79 74 80 78 81 81 82 75 83 76 84 79 85 77 86 56 87 57 88
REMARK SMILES IDX 65 89 58 90 59 91 63 92 66 93 60 94 61 95 64 96 62 97
REMARK H PARENT 22 5 6 18 27 31 86 50 54 61
REMARK Flexibility Score: inf
ROOT
ATOM      1  C   UNL A   1      31.415  30.170  25.063  1.00  0.00     0.116 C 
ENDROOT
BRANCH   1   2
ATOM      2  N   UNL A   1      32.376  29.111  24.830  1.00  0.00    -0.356 N 
ATOM      3  O   UNL A   1      30.956  27.748  23.646  1.00  0.00    -0.275 OA
ATOM      4  C   UNL A   1      32.061  27.969  24.126  1.00  0.00     0.220 C 
ATOM      5  H   UNL A   1      33.287  29.210  25.190  1.00  0.00     0.163 HD
BRANCH   4   6
ATOM      6  C   UNL A   1      33.229  27.019  23.966  1.00  0.00     0.110 C 
BRANCH   6   7
ATOM      7  C   UNL A   1      33.047  25.676  24.687  1.00  0.00     0.048 C 
BRANCH   7   8
ATOM      8  C   UNL A   1      34.267  24.755  24.566  1.00  0.00    -0.043 A 
ATOM      9  C   UNL A   1      35.183  24.573  25.620  1.00  0.00     0.005 A 
ATOM     10  C   UNL A   1      34.421  23.974  23.410  1.00  0.00     0.005 A 
ATOM     11  C   UNL A   1      36.152  23.569  25.565  1.00  0.00     0.021 A 
ATOM     12  C   UNL A   1      35.409  22.988  23.345  1.00  0.00     0.021 A 
ATOM     13  C   UNL A   1      36.252  22.772  24.431  1.00  0.00     0.041 A 
ATOM     14  Cl  UNL A   1      37.408  21.500  24.385  1.00  0.00    -0.084 Cl
ENDBRANCH   7   8
BRANCH   7  15
ATOM     15  C   UNL A   1      32.618  25.775  26.161  1.00  0.00     0.125 C 
BRANCH  15  16
ATOM     16  N   UNL A   1      31.287  25.316  26.507  1.00  0.00    -0.350 N 
ATOM     17  C   UNL A   1      30.982  23.988  26.787  1.00  0.00     0.269 C 
ATOM     18  H   UNL A   1      30.561  25.980  26.546  1.00  0.00     0.163 HD
ATOM     19  O   UNL A   1      29.864  23.675  27.182  1.00  0.00    -0.268 OA
BRANCH  17  20
ATOM     20  C   UNL A   1      32.067  22.970  26.609  1.00  0.00     0.128 A 
ATOM     21  C   UNL A   1      32.051  22.150  25.483  1.00  0.00     0.034 A 
ATOM     22  N   UNL A   1      32.857  22.754  27.691  1.00  0.00    -0.251 NA
ATOM     23  C   UNL A   1      32.866  21.021  25.485  1.00  0.00     0.004 A 
ATOM     24  C   UNL A   1      33.661  21.669  27.642  1.00  0.00     0.112 A 
ATOM     25  C   UNL A   1      33.684  20.773  26.584  1.00  0.00     0.020 A 
ENDBRANCH  17  20
ENDBRANCH  15  16
ENDBRANCH   7  15
ENDBRANCH   6   7
ENDBRANCH   4   6
ENDBRANCH   1   2
BRANCH   1  26
ATOM     26  C   UNL A   1      31.459  30.684  26.500  1.00  0.00     0.023 C 
BRANCH  26  27
ATOM     27  C   UNL A   1      31.387  32.207  26.654  1.00  0.00     0.023 C 
BRANCH  27  28
ATOM     28  C   UNL A   1      32.633  32.865  27.237  1.00  0.00     0.116 C 
BRANCH  28  29
ATOM     29  N   UNL A   1      32.403  34.247  27.627  1.00  0.00    -0.352 N 
ATOM     30  C   UNL A   1      32.994  34.989  28.620  1.00  0.00     0.251 C 
ATOM     31  H   UNL A   1      31.720  34.722  27.101  1.00  0.00     0.163 HD
ATOM     32  O   UNL A   1      32.533  36.093  28.913  1.00  0.00    -0.269 OA
BRANCH  30  33
ATOM     33  C   UNL A   1      34.164  34.468  29.360  1.00  0.00     0.039 A 
ATOM     34  C   UNL A   1      33.959  33.843  30.593  1.00  0.00     0.014 A 
ATOM     35  C   UNL A   1      35.461  34.604  28.857  1.00  0.00     0.014 A 
ATOM     36  C   UNL A   1      35.042  33.296  31.287  1.00  0.00     0.010 A 
ATOM     37  C   UNL A   1      36.529  33.989  29.510  1.00  0.00     0.010 A 
ATOM     38  C   UNL A   1      36.331  33.329  30.732  1.00  0.00    -0.014 A 
BRANCH  38  39
ATOM     39  C   UNL A   1      37.479  32.671  31.410  1.00  0.00     0.031 A 
ATOM     40  C   UNL A   1      38.175  31.500  30.770  1.00  0.00     0.074 A 
ATOM     41  C   UNL A   1      37.859  33.089  32.634  1.00  0.00     0.049 A 
ATOM     42  N   UNL A   1      39.154  30.763  31.233  1.00  0.00    -0.248 NA
ATOM     43  C   UNL A   1      37.694  31.092  29.442  1.00  0.00     0.031 C 
ATOM     44  C   UNL A   1      37.242  34.185  33.382  1.00  0.00     0.029 A 
ATOM     45  N   UNL A   1      38.849  32.633  33.471  1.00  0.00    -0.354 N 
ATOM     46  C   UNL A   1      39.391  29.796  30.263  1.00  0.00     0.074 A 
ATOM     47  C   UNL A   1      38.425  30.011  29.209  1.00  0.00     0.031 C 
ATOM     48  C   UNL A   1      37.879  34.333  34.554  1.00  0.00     0.029 A 
ATOM     49  C   UNL A   1      38.918  33.314  34.662  1.00  0.00     0.049 A 
ATOM     50  H   UNL A   1      39.451  31.890  33.239  1.00  0.00     0.167 HD
ATOM     51  C   UNL A   1      40.342  28.831  30.246  1.00  0.00     0.037 A 
ATOM     52  C   UNL A   1      39.721  33.130  35.729  1.00  0.00     0.037 A 
ATOM     53  C   UNL A   1      41.313  28.629  31.290  1.00  0.00     0.049 A 
ATOM     54  C   UNL A   1      40.750  32.032  35.693  1.00  0.00     0.074 A 
ATOM     55  C   UNL A   1      42.355  27.719  31.335  1.00  0.00     0.029 A 
ATOM     56  N   UNL A   1      41.352  29.340  32.482  1.00  0.00    -0.354 N 
ATOM     57  N   UNL A   1      41.019  31.176  34.738  1.00  0.00    -0.248 NA
ATOM     58  C   UNL A   1      41.594  31.878  36.888  1.00  0.00     0.031 C 
ATOM     59  C   UNL A   1      42.986  27.837  32.578  1.00  0.00     0.029 A 
ATOM     60  C   UNL A   1      42.383  28.867  33.280  1.00  0.00     0.049 A 
ATOM     61  H   UNL A   1      40.740  30.071  32.723  1.00  0.00     0.167 HD
ATOM     62  C   UNL A   1      42.080  30.409  35.198  1.00  0.00     0.074 A 
ATOM     63  C   UNL A   1      42.418  30.910  36.513  1.00  0.00     0.031 C 
ATOM     64  C   UNL A   1      42.717  29.380  34.584  1.00  0.00     0.037 A 
BRANCH  51  65
ATOM     65  C   UNL A   1      40.380  27.911  29.058  1.00  0.00     0.064 A 
ATOM     66  C   UNL A   1      39.630  26.724  29.018  1.00  0.00     0.173 A 
ATOM     67  C   UNL A   1      41.138  28.243  27.925  1.00  0.00     0.173 A 
ATOM     68  F   UNL A   1      38.894  26.356  30.077  1.00  0.00    -0.203 F 
ATOM     69  C   UNL A   1      39.665  25.890  27.904  1.00  0.00     0.198 A 
ATOM     70  C   UNL A   1      41.144  27.423  26.798  1.00  0.00     0.198 A 
ATOM     71  F   UNL A   1      41.866  29.369  27.903  1.00  0.00    -0.203 F 
ATOM     72  F   UNL A   1      38.982  24.737  27.910  1.00  0.00    -0.200 F 
ATOM     73  C   UNL A   1      40.414  26.245  26.792  1.00  0.00     0.200 A 
ATOM     74  F   UNL A   1      41.855  27.776  25.718  1.00  0.00    -0.200 F 
ATOM     75  F   UNL A   1      40.438  25.446  25.716  1.00  0.00    -0.200 F 
ENDBRANCH  51  65
BRANCH  52  76
ATOM     76  C   UNL A   1      39.597  34.017  36.917  1.00  0.00     0.064 A 
ATOM     77  C   UNL A   1      40.277  35.242  36.973  1.00  0.00     0.173 A 
ATOM     78  C   UNL A   1      38.818  33.654  38.025  1.00  0.00     0.173 A 
ATOM     79  F   UNL A   1      41.052  35.625  35.948  1.00  0.00    -0.203 F 
ATOM     80  C   UNL A   1      40.201  36.058  38.101  1.00  0.00     0.198 A 
ATOM     81  C   UNL A   1      38.717  34.485  39.139  1.00  0.00     0.198 A 
ATOM     82  F   UNL A   1      38.145  32.494  38.022  1.00  0.00    -0.203 F 
ATOM     83  F   UNL A   1      40.905  37.197  38.149  1.00  0.00    -0.200 F 
ATOM     84  C   UNL A   1      39.417  35.681  39.180  1.00  0.00     0.200 A 
ATOM     85  F   UNL A   1      37.944  34.125  40.172  1.00  0.00    -0.200 F 
ATOM     86  F   UNL A   1      39.343  36.466  40.263  1.00  0.00    -0.200 F 
ENDBRANCH  52  76
BRANCH  64  87
ATOM     87  C   UNL A   1      43.878  28.757  35.307  1.00  0.00     0.064 A 
ATOM     88  C   UNL A   1      45.201  29.157  35.070  1.00  0.00     0.173 A 
ATOM     89  C   UNL A   1      43.656  27.771  36.281  1.00  0.00     0.173 A 
ATOM     90  F   UNL A   1      45.470  30.085  34.138  1.00  0.00    -0.203 F 
ATOM     91  C   UNL A   1      46.261  28.571  35.758  1.00  0.00     0.198 A 
ATOM     92  C   UNL A   1      44.715  27.214  36.994  1.00  0.00     0.198 A 
ATOM     93  F   UNL A   1      42.410  27.356  36.555  1.00  0.00    -0.203 F 
ATOM     94  F   UNL A   1      47.521  28.930  35.475  1.00  0.00    -0.200 F 
ATOM     95  C   UNL A   1      46.016  27.607  36.725  1.00  0.00     0.200 A 
ATOM     96  F   UNL A   1      44.474  26.295  37.939  1.00  0.00    -0.200 F 
ATOM     97  F   UNL A   1      47.037  27.052  37.393  1.00  0.00    -0.200 F 
ENDBRANCH  64  87
ENDBRANCH  38  39
ENDBRANCH  30  33
ENDBRANCH  28  29
ENDBRANCH  27  28
ENDBRANCH  26  27
ENDBRANCH   1  26
TORSDOF 16
ENDMDL
MODEL 2
REMARK VINA RESULT:     -12.3      5.814     11.216
REMARK SMILES O=C(C[C@H](CNC(=O)c1ccccn1)c1ccc(Cl)cc1)NCCCCNC(=O)c1ccc(-c2c3nc(c(-c4c(F)c(F)c(F)c(F)c4F)c4ccc([nH]4)c(-c4c(F)c(F)c(F)c(F)c4F)c4nc(c(-c5c(F)c(F)c(F)c(F)c5F)c5ccc2[nH]5)C=C4)C=C3)cc1
REMARK SMILES IDX 23 1 22 2 1 3 2 4 3 6 4 7 15 8 16 9 21 10 17 11 20 12 18 13
REMARK SMILES IDX 19 14 5 15 6 16 7 17 8 19 9 20 10 21 14 22 11 23 13 24 12 25
REMARK SMILES IDX 24 26 25 27 26 28 27 29 28 30 29 32 30 33 31 34 92 35 32 36
REMARK SMILES IDX 91 37 33 38 34 39 35 40 85 41 36 42 90 43 84 44 86 45 37 46
REMARK SMILES IDX 89 47 83 48 82 49 38 51 70 52 50 53 69 54 51 55 54 56 68 57
REMARK SMILES IDX 87 58 52 59 53 60 67 62 88 63 55 64 39 65 40 66 48 67 41 68
REMARK SMILES IDX 42 69 46 70 49 71 43 72 44 73 47 74 45 75 71 76 72 77 80 78
REMARK SMILES IDX 73 79 74 80 78 81 81 82 75 83 76 84 79 85 77 86 56 87 57 88
REMARK SMILES IDX 65 89 58 90 59 91 63 92 66 93 60 94 61 95 64 96 62 97
REMARK H PARENT 22 5 6 18 27 31 86 50 54 61
REMARK Flexibility Score: inf
ROOT
ATOM      1  C   UNL A   1      36.081  21.171  25.342  1.00  0.00     0.116 C 
ENDROOT
BRANCH   1   2
ATOM      2  N   UNL A   1      35.366  22.305  24.793  1.00  0.00    -0.356 N 
ATOM      3  O   UNL A   1      36.361  23.889  26.126  1.00  0.00    -0.275 OA
ATOM      4  C   UNL A   1      35.572  23.593  25.237  1.00  0.00     0.220 C 
ATOM      5  H   UNL A   1      34.708  22.150  24.078  1.00  0.00     0.163 HD
BRANCH   4   6
ATOM      6  C   UNL A   1      34.750  24.625  24.493  1.00  0.00     0.110 C 
BRANCH   6   7
ATOM      7  C   UNL A   1      33.303  24.750  24.989  1.00  0.00     0.048 C 
BRANCH   7   8
ATOM      8  C   UNL A   1      33.028  26.066  25.727  1.00  0.00    -0.043 A 
ATOM      9  C   UNL A   1      34.048  26.988  26.029  1.00  0.00     0.005 A 
ATOM     10  C   UNL A   1      31.702  26.424  26.014  1.00  0.00     0.005 A 
ATOM     11  C   UNL A   1      33.744  28.267  26.498  1.00  0.00     0.021 A 
ATOM     12  C   UNL A   1      31.401  27.695  26.511  1.00  0.00     0.021 A 
ATOM     13  C   UNL A   1      32.419  28.620  26.725  1.00  0.00     0.041 A 
ATOM     14  Cl  UNL A   1      32.040  30.213  27.251  1.00  0.00    -0.084 Cl
ENDBRANCH   7   8
BRANCH   7  15
ATOM     15  C   UNL A   1      32.220  24.520  23.921  1.00  0.00     0.125 C 
BRANCH  15  16
ATOM     16  N   UNL A   1      32.658  24.257  22.564  1.00  0.00    -0.350 N 
ATOM     17  C   UNL A   1      32.799  25.247  21.597  1.00  0.00     0.269 C 
ATOM     18  H   UNL A   1      32.866  23.328  22.314  1.00  0.00     0.163 HD
ATOM     19  O   UNL A   1      33.278  24.984  20.500  1.00  0.00    -0.268 OA
BRANCH  17  20
ATOM     20  C   UNL A   1      32.366  26.637  21.954  1.00  0.00     0.128 A 
ATOM     21  C   UNL A   1      33.322  27.558  22.377  1.00  0.00     0.034 A 
ATOM     22  N   UNL A   1      31.028  26.826  22.074  1.00  0.00    -0.251 NA
ATOM     23  C   UNL A   1      32.877  28.725  22.993  1.00  0.00     0.004 A 
ATOM     24  C   UNL A   1      30.633  27.985  22.646  1.00  0.00     0.112 A 
ATOM     25  C   UNL A   1      31.509  28.943  23.133  1.00  0.00     0.020 A 
ENDBRANCH  17  20
ENDBRANCH  15  16
ENDBRANCH   7  15
ENDBRANCH   6   7
ENDBRANCH   4   6
ENDBRANCH   1   2
BRANCH   1  26
ATOM     26  C   UNL A   1      37.319  20.816  24.520  1.00  0.00     0.023 C 
BRANCH  26  27
ATOM     27  C   UNL A   1      38.148  19.644  25.057  1.00  0.00     0.023 C 
BRANCH  27  28
ATOM     28  C   UNL A   1      39.280  20.026  26.007  1.00  0.00     0.116 C 
BRANCH  28  29
ATOM     29  N   UNL A   1      40.344  19.035  26.031  1.00  0.00    -0.352 N 
ATOM     30  C   UNL A   1      41.703  19.208  26.125  1.00  0.00     0.251 C 
ATOM     31  H   UNL A   1      40.045  18.098  25.971  1.00  0.00     0.163 HD
ATOM     32  O   UNL A   1      42.453  18.249  25.947  1.00  0.00    -0.269 OA
BRANCH  30  33
ATOM     33  C   UNL A   1      42.277  20.540  26.413  1.00  0.00     0.039 A 
ATOM     34  C   UNL A   1      42.731  21.324  25.348  1.00  0.00     0.014 A 
ATOM     35  C   UNL A   1      42.388  21.017  27.723  1.00  0.00     0.014 A 
ATOM     36  C   UNL A   1      43.230  22.608  25.590  1.00  0.00     0.010 A 
ATOM     37  C   UNL A   1      42.811  22.324  27.955  1.00  0.00     0.010 A 
ATOM     38  C   UNL A   1      43.237  23.134  26.891  1.00  0.00    -0.014 A 
BRANCH  38  39
ATOM     39  C   UNL A   1      43.676  24.530  27.156  1.00  0.00     0.031 A 
ATOM     40  C   UNL A   1      42.689  25.564  27.626  1.00  0.00     0.074 A 
ATOM     41  C   UNL A   1      44.954  24.884  26.913  1.00  0.00     0.049 A 
ATOM     42  N   UNL A   1      42.872  26.842  27.854  1.00  0.00    -0.248 NA
ATOM     43  C   UNL A   1      41.310  25.107  27.853  1.00  0.00     0.031 C 
ATOM     44  C   UNL A   1      45.999  23.988  26.416  1.00  0.00     0.029 A 
ATOM     45  N   UNL A   1      45.590  26.096  27.040  1.00  0.00    -0.354 N 
ATOM     46  C   UNL A   1      41.631  27.340  28.231  1.00  0.00     0.074 A 
ATOM     47  C   UNL A   1      40.695  26.240  28.157  1.00  0.00     0.031 C 
ATOM     48  C   UNL A   1      47.148  24.672  26.302  1.00  0.00     0.029 A 
ATOM     49  C   UNL A   1      46.913  26.064  26.673  1.00  0.00     0.049 A 
ATOM     50  H   UNL A   1      45.139  26.909  27.364  1.00  0.00     0.167 HD
ATOM     51  C   UNL A   1      41.308  28.597  28.623  1.00  0.00     0.037 A 
ATOM     52  C   UNL A   1      47.831  27.048  26.626  1.00  0.00     0.037 A 
ATOM     53  C   UNL A   1      42.246  29.686  28.710  1.00  0.00     0.049 A 
ATOM     54  C   UNL A   1      47.437  28.441  27.041  1.00  0.00     0.074 A 
ATOM     55  C   UNL A   1      42.028  30.978  29.156  1.00  0.00     0.029 A 
ATOM     56  N   UNL A   1      43.579  29.615  28.330  1.00  0.00    -0.354 N 
ATOM     57  N   UNL A   1      46.282  28.883  27.473  1.00  0.00    -0.248 NA
ATOM     58  C   UNL A   1      48.481  29.473  26.967  1.00  0.00     0.031 C 
ATOM     59  C   UNL A   1      43.211  31.705  28.988  1.00  0.00     0.029 A 
ATOM     60  C   UNL A   1      44.187  30.849  28.504  1.00  0.00     0.049 A 
ATOM     61  H   UNL A   1      44.026  28.807  27.989  1.00  0.00     0.167 HD
ATOM     62  C   UNL A   1      46.467  30.230  27.754  1.00  0.00     0.074 A 
ATOM     63  C   UNL A   1      47.851  30.531  27.458  1.00  0.00     0.031 C 
ATOM     64  C   UNL A   1      45.569  31.136  28.216  1.00  0.00     0.037 A 
BRANCH  51  65
ATOM     65  C   UNL A   1      39.875  28.867  28.986  1.00  0.00     0.064 A 
ATOM     66  C   UNL A   1      38.934  29.275  28.028  1.00  0.00     0.173 A 
ATOM     67  C   UNL A   1      39.425  28.669  30.301  1.00  0.00     0.173 A 
ATOM     68  F   UNL A   1      39.312  29.485  26.757  1.00  0.00    -0.203 F 
ATOM     69  C   UNL A   1      37.606  29.507  28.378  1.00  0.00     0.198 A 
ATOM     70  C   UNL A   1      38.088  28.869  30.640  1.00  0.00     0.198 A 
ATOM     71  F   UNL A   1      40.278  28.270  31.256  1.00  0.00    -0.203 F 
ATOM     72  F   UNL A   1      36.739  29.945  27.455  1.00  0.00    -0.200 F 
ATOM     73  C   UNL A   1      37.183  29.295  29.682  1.00  0.00     0.200 A 
ATOM     74  F   UNL A   1      37.678  28.648  31.897  1.00  0.00    -0.200 F 
ATOM     75  F   UNL A   1      35.903  29.508  30.014  1.00  0.00    -0.200 F 
ENDBRANCH  51  65
BRANCH  52  76
ATOM     76  C   UNL A   1      49.221  26.752  26.187  1.00  0.00     0.064 A 
ATOM     77  C   UNL A   1      50.185  26.304  27.102  1.00  0.00     0.173 A 
ATOM     78  C   UNL A   1      49.621  26.927  24.854  1.00  0.00     0.173 A 
ATOM     79  F   UNL A   1      49.858  26.141  28.392  1.00  0.00    -0.203 F 
ATOM     80  C   UNL A   1      51.500  26.066  26.706  1.00  0.00     0.198 A 
ATOM     81  C   UNL A   1      50.928  26.658  24.452  1.00  0.00     0.198 A 
ATOM     82  F   UNL A   1      48.739  27.351  23.937  1.00  0.00    -0.203 F 
ATOM     83  F   UNL A   1      52.412  25.691  27.612  1.00  0.00    -0.200 F 
ATOM     84  C   UNL A   1      51.869  26.238  25.381  1.00  0.00     0.200 A 
ATOM     85  F   UNL A   1      51.277  26.809  23.168  1.00  0.00    -0.200 F 
ATOM     86  F   UNL A   1      53.132  26.008  25.000  1.00  0.00    -0.200 F 
ENDBRANCH  52  76
BRANCH  64  87
ATOM     87  C   UNL A   1      46.066  32.530  28.477  1.00  0.00     0.064 A 
ATOM     88  C   UNL A   1      46.626  32.899  29.709  1.00  0.00     0.173 A 
ATOM     89  C   UNL A   1      46.017  33.499  27.463  1.00  0.00     0.173 A 
ATOM     90  F   UNL A   1      46.683  32.015  30.718  1.00  0.00    -0.203 F 
ATOM     91  C   UNL A   1      47.088  34.195  29.926  1.00  0.00     0.198 A 
ATOM     92  C   UNL A   1      46.514  34.783  27.671  1.00  0.00     0.198 A 
ATOM     93  F   UNL A   1      45.500  33.197  26.262  1.00  0.00    -0.203 F 
ATOM     94  F   UNL A   1      47.567  34.540  31.129  1.00  0.00    -0.200 F 
ATOM     95  C   UNL A   1      47.039  35.132  28.905  1.00  0.00     0.200 A 
ATOM     96  F   UNL A   1      46.482  35.681  26.677  1.00  0.00    -0.200 F 
ATOM     97  F   UNL A   1      47.494  36.376  29.112  1.00  0.00    -0.200 F 
ENDBRANCH  64  87
ENDBRANCH  38  39
ENDBRANCH  30  33
ENDBRANCH  28  29
ENDBRANCH  27  28
ENDBRANCH  26  27
ENDBRANCH   1  26
TORSDOF 16
ENDMDL
MODEL 3
REMARK VINA RESULT:     -12.1      2.398      8.068
REMARK SMILES O=C(C[C@H](CNC(=O)c1ccccn1)c1ccc(Cl)cc1)NCCCCNC(=O)c1ccc(-c2c3nc(c(-c4c(F)c(F)c(F)c(F)c4F)c4ccc([nH]4)c(-c4c(F)c(F)c(F)c(F)c4F)c4nc(c(-c5c(F)c(F)c(F)c(F)c5F)c5ccc2[nH]5)C=C4)C=C3)cc1
REMARK SMILES IDX 23 1 22 2 1 3 2 4 3 6 4 7 15 8 16 9 21 10 17 11 20 12 18 13
REMARK SMILES IDX 19 14 5 15 6 16 7 17 8 19 9 20 10 21 14 22 11 23 13 24 12 25
REMARK SMILES IDX 24 26 25 27 26 28 27 29 28 30 29 32 30 33 31 34 92 35 32 36
REMARK SMILES IDX 91 37 33 38 34 39 35 40 85 41 36 42 90 43 84 44 86 45 37 46
REMARK SMILES IDX 89 47 83 48 82 49 38 51 70 52 50 53 69 54 51 55 54 56 68 57
REMARK SMILES IDX 87 58 52 59 53 60 67 62 88 63 55 64 39 65 40 66 48 67 41 68
REMARK SMILES IDX 42 69 46 70 49 71 43 72 44 73 47 74 45 75 71 76 72 77 80 78
REMARK SMILES IDX 73 79 74 80 78 81 81 82 75 83 76 84 79 85 77 86 56 87 57 88
REMARK SMILES IDX 65 89 58 90 59 91 63 92 66 93 60 94 61 95 64 96 62 97
REMARK H PARENT 22 5 6 18 27 31 86 50 54 61
REMARK Flexibility Score: inf
ROOT
ATOM      1  C   UNL A   1      30.905  26.170  26.107  1.00  0.00     0.116 C 
ENDROOT
BRANCH   1   2
ATOM      2  N   UNL A   1      31.303  24.931  25.470  1.00  0.00    -0.356 N 
ATOM      3  O   UNL A   1      31.017  23.602  27.321  1.00  0.00    -0.275 OA
ATOM      4  C   UNL A   1      31.323  23.729  26.142  1.00  0.00     0.220 C 
ATOM      5  H   UNL A   1      31.570  24.950  24.522  1.00  0.00     0.163 HD
BRANCH   4   6
ATOM      6  C   UNL A   1      31.728  22.558  25.270  1.00  0.00     0.110 C 
BRANCH   6   7
ATOM      7  C   UNL A   1      33.084  21.942  25.639  1.00  0.00     0.048 C 
BRANCH   7   8
ATOM      8  C   UNL A   1      33.371  20.628  24.903  1.00  0.00    -0.043 A 
ATOM      9  C   UNL A   1      34.577  19.919  25.066  1.00  0.00     0.005 A 
ATOM     10  C   UNL A   1      32.358  20.045  24.126  1.00  0.00     0.005 A 
ATOM     11  C   UNL A   1      34.723  18.625  24.564  1.00  0.00     0.021 A 
ATOM     12  C   UNL A   1      32.516  18.760  23.599  1.00  0.00     0.021 A 
ATOM     13  C   UNL A   1      33.686  18.046  23.843  1.00  0.00     0.041 A 
ATOM     14  Cl  UNL A   1      33.845  16.432  23.270  1.00  0.00    -0.084 Cl
ENDBRANCH   7   8
BRANCH   7  15
ATOM     15  C   UNL A   1      34.293  22.885  25.504  1.00  0.00     0.125 C 
BRANCH  15  16
ATOM     16  N   UNL A   1      34.803  23.139  24.171  1.00  0.00    -0.350 N 
ATOM     17  C   UNL A   1      36.156  23.099  23.847  1.00  0.00     0.269 C 
ATOM     18  H   UNL A   1      34.158  23.350  23.458  1.00  0.00     0.163 HD
ATOM     19  O   UNL A   1      36.521  23.213  22.682  1.00  0.00    -0.268 OA
BRANCH  17  20
ATOM     20  C   UNL A   1      37.135  22.895  24.963  1.00  0.00     0.128 A 
ATOM     21  C   UNL A   1      37.536  23.991  25.724  1.00  0.00     0.034 A 
ATOM     22  N   UNL A   1      37.751  21.686  24.993  1.00  0.00    -0.251 NA
ATOM     23  C   UNL A   1      38.659  23.847  26.534  1.00  0.00     0.004 A 
ATOM     24  C   UNL A   1      38.816  21.574  25.817  1.00  0.00     0.112 A 
ATOM     25  C   UNL A   1      39.313  22.619  26.581  1.00  0.00     0.020 A 
ENDBRANCH  17  20
ENDBRANCH  15  16
ENDBRANCH   7  15
ENDBRANCH   6   7
ENDBRANCH   4   6
ENDBRANCH   1   2
BRANCH   1  26
ATOM     26  C   UNL A   1      32.094  27.090  26.374  1.00  0.00     0.023 C 
BRANCH  26  27
ATOM     27  C   UNL A   1      31.802  28.591  26.259  1.00  0.00     0.023 C 
BRANCH  27  28
ATOM     28  C   UNL A   1      33.010  29.470  25.948  1.00  0.00     0.116 C 
BRANCH  28  29
ATOM     29  N   UNL A   1      32.804  30.855  26.339  1.00  0.00    -0.352 N 
ATOM     30  C   UNL A   1      33.486  31.620  27.254  1.00  0.00     0.251 C 
ATOM     31  H   UNL A   1      32.065  31.315  25.878  1.00  0.00     0.163 HD
ATOM     32  O   UNL A   1      33.045  32.723  27.576  1.00  0.00    -0.269 OA
BRANCH  30  33
ATOM     33  C   UNL A   1      34.733  31.122  27.876  1.00  0.00     0.039 A 
ATOM     34  C   UNL A   1      35.828  31.985  27.976  1.00  0.00     0.014 A 
ATOM     35  C   UNL A   1      34.837  29.811  28.347  1.00  0.00     0.014 A 
ATOM     36  C   UNL A   1      36.999  31.556  28.607  1.00  0.00     0.010 A 
ATOM     37  C   UNL A   1      35.974  29.409  29.046  1.00  0.00     0.010 A 
ATOM     38  C   UNL A   1      37.069  30.277  29.182  1.00  0.00    -0.014 A 
BRANCH  38  39
ATOM     39  C   UNL A   1      38.271  29.836  29.939  1.00  0.00     0.031 A 
ATOM     40  C   UNL A   1      38.541  30.367  31.320  1.00  0.00     0.074 A 
ATOM     41  C   UNL A   1      39.155  29.001  29.356  1.00  0.00     0.049 A 
ATOM     42  N   UNL A   1      39.562  30.145  32.110  1.00  0.00    -0.248 NA
ATOM     43  C   UNL A   1      37.539  31.286  31.882  1.00  0.00     0.031 C 
ATOM     44  C   UNL A   1      39.032  28.448  28.008  1.00  0.00     0.029 A 
ATOM     45  N   UNL A   1      40.339  28.482  29.821  1.00  0.00    -0.354 N 
ATOM     46  C   UNL A   1      39.335  30.907  33.248  1.00  0.00     0.074 A 
ATOM     47  C   UNL A   1      38.103  31.634  33.029  1.00  0.00     0.031 C 
ATOM     48  C   UNL A   1      40.083  27.650  27.761  1.00  0.00     0.029 A 
ATOM     49  C   UNL A   1      40.977  27.671  28.914  1.00  0.00     0.049 A 
ATOM     50  H   UNL A   1      40.696  28.674  30.718  1.00  0.00     0.167 HD
ATOM     51  C   UNL A   1      40.075  30.978  34.381  1.00  0.00     0.037 A 
ATOM     52  C   UNL A   1      42.158  27.027  28.997  1.00  0.00     0.037 A 
ATOM     53  C   UNL A   1      41.293  30.241  34.602  1.00  0.00     0.049 A 
ATOM     54  C   UNL A   1      42.973  27.146  30.257  1.00  0.00     0.074 A 
ATOM     55  C   UNL A   1      42.080  30.198  35.739  1.00  0.00     0.029 A 
ATOM     56  N   UNL A   1      41.907  29.428  33.660  1.00  0.00    -0.354 N 
ATOM     57  N   UNL A   1      42.708  27.805  31.358  1.00  0.00    -0.248 NA
ATOM     58  C   UNL A   1      44.253  26.423  30.287  1.00  0.00     0.031 C 
ATOM     59  C   UNL A   1      43.203  29.409  35.466  1.00  0.00     0.029 A 
ATOM     60  C   UNL A   1      43.080  28.903  34.182  1.00  0.00     0.049 A 
ATOM     61  H   UNL A   1      41.562  29.250  32.756  1.00  0.00     0.167 HD
ATOM     62  C   UNL A   1      43.766  27.550  32.221  1.00  0.00     0.074 A 
ATOM     63  C   UNL A   1      44.670  26.663  31.521  1.00  0.00     0.031 C 
ATOM     64  C   UNL A   1      43.968  28.011  33.480  1.00  0.00     0.037 A 
BRANCH  51  65
ATOM     65  C   UNL A   1      39.592  31.889  35.474  1.00  0.00     0.064 A 
ATOM     66  C   UNL A   1      40.044  33.214  35.585  1.00  0.00     0.173 A 
ATOM     67  C   UNL A   1      38.629  31.448  36.395  1.00  0.00     0.173 A 
ATOM     68  F   UNL A   1      40.969  33.685  34.736  1.00  0.00    -0.203 F 
ATOM     69  C   UNL A   1      39.575  34.050  36.595  1.00  0.00     0.198 A 
ATOM     70  C   UNL A   1      38.137  32.298  37.383  1.00  0.00     0.198 A 
ATOM     71  F   UNL A   1      38.155  30.195  36.330  1.00  0.00    -0.203 F 
ATOM     72  F   UNL A   1      40.059  35.294  36.712  1.00  0.00    -0.200 F 
ATOM     73  C   UNL A   1      38.616  33.594  37.487  1.00  0.00     0.200 A 
ATOM     74  F   UNL A   1      37.198  31.861  38.234  1.00  0.00    -0.200 F 
ATOM     75  F   UNL A   1      38.158  34.404  38.452  1.00  0.00    -0.200 F 
ENDBRANCH  51  65
BRANCH  52  76
ATOM     76  C   UNL A   1      42.635  26.196  27.860  1.00  0.00     0.064 A 
ATOM     77  C   UNL A   1      42.329  24.829  27.790  1.00  0.00     0.173 A 
ATOM     78  C   UNL A   1      43.418  26.740  26.832  1.00  0.00     0.173 A 
ATOM     79  F   UNL A   1      41.601  24.256  28.759  1.00  0.00    -0.203 F 
ATOM     80  C   UNL A   1      42.810  24.034  26.750  1.00  0.00     0.198 A 
ATOM     81  C   UNL A   1      43.871  25.952  25.775  1.00  0.00     0.198 A 
ATOM     82  F   UNL A   1      43.737  28.043  26.848  1.00  0.00    -0.203 F 
ATOM     83  F   UNL A   1      42.548  22.721  26.739  1.00  0.00    -0.200 F 
ATOM     84  C   UNL A   1      43.576  24.598  25.741  1.00  0.00     0.200 A 
ATOM     85  F   UNL A   1      44.596  26.504  24.793  1.00  0.00    -0.200 F 
ATOM     86  F   UNL A   1      44.035  23.834  24.741  1.00  0.00    -0.200 F 
ENDBRANCH  52  76
BRANCH  64  87
ATOM     87  C   UNL A   1      45.193  27.527  34.205  1.00  0.00     0.064 A 
ATOM     88  C   UNL A   1      46.405  28.232  34.167  1.00  0.00     0.173 A 
ATOM     89  C   UNL A   1      45.139  26.359  34.981  1.00  0.00     0.173 A 
ATOM     90  F   UNL A   1      46.515  29.348  33.427  1.00  0.00    -0.203 F 
ATOM     91  C   UNL A   1      47.525  27.770  34.853  1.00  0.00     0.198 A 
ATOM     92  C   UNL A   1      46.251  25.919  35.695  1.00  0.00     0.198 A 
ATOM     93  F   UNL A   1      44.003  25.649  35.060  1.00  0.00    -0.203 F 
ATOM     94  F   UNL A   1      48.687  28.430  34.757  1.00  0.00    -0.200 F 
ATOM     95  C   UNL A   1      47.444  26.619  35.622  1.00  0.00     0.200 A 
ATOM     96  F   UNL A   1      46.165  24.816  36.452  1.00  0.00    -0.200 F 
ATOM     97  F   UNL A   1      48.521  26.181  36.290  1.00  0.00    -0.200 F 
ENDBRANCH  64  87
ENDBRANCH  38  39
ENDBRANCH  30  33
ENDBRANCH  28  29
ENDBRANCH  27  28
ENDBRANCH  26  27
ENDBRANCH   1  26
TORSDOF 16
ENDMDL
