MODEL 1
REMARK VINA RESULT:     -10.9      0.000      0.000
REMARK SMILES CC(C)[C@H](NC(=O)CC[NH3+])C(=O)NCCCCNC(=O)c1ccc(-c2c3nc(c(-c4c(F)c(F)c(F)c(F)c4F)c4ccc([nH]4)c(-c4c(F)c(F)c(F)c(F)c4F)c4nc(c(-c5c(F)c(F)c(F)c(F)c5F)c5ccc2[nH]5)C=C4)C=C3)cc1
REMARK SMILES IDX 14 1 13 2 11 3 12 4 4 6 2 7 1 8 3 9 5 10 6 11 7 13 8 14 9 15
REMARK SMILES IDX 10 16 15 20 16 21 17 22 18 23 19 24 20 26 21 27 22 28 83 29
REMARK SMILES IDX 23 30 82 31 24 32 25 33 26 34 76 35 27 36 81 37 75 38 77 39
REMARK SMILES IDX 28 40 80 41 74 42 73 43 29 45 61 46 41 47 60 48 42 49 45 50
REMARK SMILES IDX 59 51 78 52 43 53 44 54 58 56 79 57 46 58 30 59 31 60 39 61
REMARK SMILES IDX 32 62 33 63 37 64 40 65 34 66 35 67 38 68 36 69 62 70 63 71
REMARK SMILES IDX 71 72 64 73 65 74 69 75 72 76 66 77 67 78 70 79 68 80 47 81
REMARK SMILES IDX 48 82 56 83 49 84 50 85 54 86 57 87 51 88 52 89 55 90 53 91
REMARK H PARENT 13 5 5 12 10 17 10 18 10 19 18 25 77 44 45 55
REMARK Flexibility Score: inf
ROOT
ATOM      1  C   UNL A   1      36.832  21.896  25.414  1.00  0.00     0.116 C 
ENDROOT
BRANCH   1   2
ATOM      2  N   UNL A   1      35.937  21.961  26.547  1.00  0.00    -0.354 N 
ATOM      3  C   UNL A   1      34.641  21.577  26.694  1.00  0.00     0.242 C 
ATOM      4  O   UNL A   1      34.201  21.587  27.850  1.00  0.00    -0.273 OA
ATOM      5  H   UNL A   1      36.337  22.355  27.356  1.00  0.00     0.163 HD
BRANCH   3   6
ATOM      6  C   UNL A   1      33.772  21.034  25.533  1.00  0.00     0.173 C 
BRANCH   6   7
ATOM      7  C   UNL A   1      32.959  22.097  24.751  1.00  0.00     0.015 C 
ATOM      8  C   UNL A   1      32.804  21.871  23.250  1.00  0.00     0.010 C 
ATOM      9  C   UNL A   1      31.578  22.304  25.379  1.00  0.00     0.010 C 
ENDBRANCH   6   7
BRANCH   6  10
ATOM     10  N   UNL A   1      32.956  19.872  25.906  1.00  0.00    -0.344 N 
ATOM     11  C   UNL A   1      32.910  18.639  25.329  1.00  0.00     0.226 C 
ATOM     12  H   UNL A   1      32.361  20.002  26.680  1.00  0.00     0.164 HD
ATOM     13  O   UNL A   1      32.248  17.763  25.887  1.00  0.00    -0.275 OA
BRANCH  11  14
ATOM     14  C   UNL A   1      33.597  18.380  24.008  1.00  0.00     0.161 C 
BRANCH  14  15
ATOM     15  C   UNL A   1      34.725  17.359  24.144  1.00  0.00     0.268 C 
BRANCH  15  16
ATOM     16  N   UNL A   1      34.842  16.783  25.484  1.00  0.00    -0.357 N 
ATOM     17  H   UNL A   1      35.150  17.503  26.138  1.00  0.00     0.344 HD
ATOM     18  H   UNL A   1      35.522  16.023  25.470  1.00  0.00     0.344 HD
ATOM     19  H   UNL A   1      33.935  16.421  25.779  1.00  0.00     0.344 HD
ENDBRANCH  15  16
ENDBRANCH  14  15
ENDBRANCH  11  14
ENDBRANCH   6  10
ENDBRANCH   3   6
ENDBRANCH   1   2
BRANCH   1  20
ATOM     20  C   UNL A   1      36.725  20.585  24.650  1.00  0.00     0.023 C 
BRANCH  20  21
ATOM     21  C   UNL A   1      37.790  19.550  25.008  1.00  0.00     0.023 C 
BRANCH  21  22
ATOM     22  C   UNL A   1      39.014  20.101  25.728  1.00  0.00     0.116 C 
BRANCH  22  23
ATOM     23  N   UNL A   1      40.095  19.134  25.843  1.00  0.00    -0.352 N 
ATOM     24  C   UNL A   1      41.427  19.353  26.108  1.00  0.00     0.251 C 
ATOM     25  H   UNL A   1      39.838  18.192  25.714  1.00  0.00     0.163 HD
ATOM     26  O   UNL A   1      42.233  18.438  26.052  1.00  0.00    -0.269 OA
BRANCH  24  27
ATOM     27  C   UNL A   1      41.874  20.723  26.434  1.00  0.00     0.039 A 
ATOM     28  C   UNL A   1      42.115  21.619  25.392  1.00  0.00     0.014 A 
ATOM     29  C   UNL A   1      42.023  21.122  27.764  1.00  0.00     0.014 A 
ATOM     30  C   UNL A   1      42.464  22.938  25.688  1.00  0.00     0.010 A 
ATOM     31  C   UNL A   1      42.275  22.456  28.057  1.00  0.00     0.010 A 
ATOM     32  C   UNL A   1      42.524  23.371  27.023  1.00  0.00    -0.014 A 
BRANCH  32  33
ATOM     33  C   UNL A   1      42.907  24.765  27.361  1.00  0.00     0.031 A 
ATOM     34  C   UNL A   1      44.317  25.227  27.112  1.00  0.00     0.074 A 
ATOM     35  C   UNL A   1      42.011  25.594  27.930  1.00  0.00     0.049 A 
ATOM     36  N   UNL A   1      44.872  26.382  27.379  1.00  0.00    -0.248 NA
ATOM     37  C   UNL A   1      45.238  24.246  26.512  1.00  0.00     0.031 C 
ATOM     38  C   UNL A   1      40.629  25.247  28.267  1.00  0.00     0.029 A 
ATOM     39  N   UNL A   1      42.132  26.902  28.327  1.00  0.00    -0.354 N 
ATOM     40  C   UNL A   1      46.202  26.256  26.998  1.00  0.00     0.074 A 
ATOM     41  C   UNL A   1      46.390  24.896  26.549  1.00  0.00     0.031 C 
ATOM     42  C   UNL A   1      40.022  26.323  28.793  1.00  0.00     0.029 A 
ATOM     43  C   UNL A   1      40.979  27.423  28.862  1.00  0.00     0.049 A 
ATOM     44  H   UNL A   1      42.966  27.417  28.238  1.00  0.00     0.167 HD
ATOM     45  C   UNL A   1      47.172  27.200  26.990  1.00  0.00     0.037 A 
ATOM     46  C   UNL A   1      40.728  28.652  29.352  1.00  0.00     0.037 A 
ATOM     47  C   UNL A   1      46.971  28.562  27.408  1.00  0.00     0.049 A 
ATOM     48  C   UNL A   1      41.822  29.687  29.327  1.00  0.00     0.074 A 
ATOM     49  C   UNL A   1      47.871  29.612  27.390  1.00  0.00     0.029 A 
ATOM     50  N   UNL A   1      45.782  29.061  27.917  1.00  0.00    -0.354 N 
ATOM     51  N   UNL A   1      43.057  29.579  28.899  1.00  0.00    -0.248 NA
ATOM     52  C   UNL A   1      41.483  31.021  29.841  1.00  0.00     0.031 C 
ATOM     53  C   UNL A   1      47.241  30.735  27.935  1.00  0.00     0.029 A 
ATOM     54  C   UNL A   1      45.930  30.400  28.234  1.00  0.00     0.049 A 
ATOM     55  H   UNL A   1      44.955  28.540  28.037  1.00  0.00     0.167 HD
ATOM     56  C   UNL A   1      43.628  30.835  29.055  1.00  0.00     0.074 A 
ATOM     57  C   UNL A   1      42.599  31.693  29.606  1.00  0.00     0.031 C 
ATOM     58  C   UNL A   1      44.888  31.243  28.764  1.00  0.00     0.037 A 
BRANCH  45  59
ATOM     59  C   UNL A   1      48.535  26.790  26.508  1.00  0.00     0.064 A 
ATOM     60  C   UNL A   1      49.468  26.181  27.362  1.00  0.00     0.173 A 
ATOM     61  C   UNL A   1      48.908  26.991  25.170  1.00  0.00     0.173 A 
ATOM     62  F   UNL A   1      49.169  25.979  28.655  1.00  0.00    -0.203 F 
ATOM     63  C   UNL A   1      50.733  25.822  26.906  1.00  0.00     0.198 A 
ATOM     64  C   UNL A   1      50.161  26.597  24.708  1.00  0.00     0.198 A 
ATOM     65  F   UNL A   1      48.055  27.565  24.309  1.00  0.00    -0.203 F 
ATOM     66  F   UNL A   1      51.627  25.298  27.756  1.00  0.00    -0.200 F 
ATOM     67  C   UNL A   1      51.076  26.023  25.577  1.00  0.00     0.200 A 
ATOM     68  F   UNL A   1      50.485  26.779  23.420  1.00  0.00    -0.200 F 
ATOM     69  F   UNL A   1      52.292  25.671  25.137  1.00  0.00    -0.200 F 
ENDBRANCH  45  59
BRANCH  46  70
ATOM     70  C   UNL A   1      39.375  28.987  29.871  1.00  0.00     0.064 A 
ATOM     71  C   UNL A   1      38.412  29.582  29.042  1.00  0.00     0.173 A 
ATOM     72  C   UNL A   1      39.021  28.737  31.204  1.00  0.00     0.173 A 
ATOM     73  F   UNL A   1      38.707  29.859  27.764  1.00  0.00    -0.203 F 
ATOM     74  C   UNL A   1      37.157  29.937  29.535  1.00  0.00     0.198 A 
ATOM     75  C   UNL A   1      37.755  29.063  31.687  1.00  0.00     0.198 A 
ATOM     76  F   UNL A   1      39.902  28.164  32.038  1.00  0.00    -0.203 F 
ATOM     77  F   UNL A   1      36.276  30.552  28.734  1.00  0.00    -0.200 F 
ATOM     78  C   UNL A   1      36.828  29.674  30.855  1.00  0.00     0.200 A 
ATOM     79  F   UNL A   1      37.436  28.793  32.960  1.00  0.00    -0.200 F 
ATOM     80  F   UNL A   1      35.622  30.014  31.328  1.00  0.00    -0.200 F 
ENDBRANCH  46  70
BRANCH  58  81
ATOM     81  C   UNL A   1      45.210  32.695  28.980  1.00  0.00     0.064 A 
ATOM     82  C   UNL A   1      45.800  33.155  30.165  1.00  0.00     0.173 A 
ATOM     83  C   UNL A   1      44.959  33.631  27.964  1.00  0.00     0.173 A 
ATOM     84  F   UNL A   1      46.050  32.304  31.172  1.00  0.00    -0.203 F 
ATOM     85  C   UNL A   1      46.096  34.506  30.339  1.00  0.00     0.198 A 
ATOM     86  C   UNL A   1      45.288  34.973  28.127  1.00  0.00     0.198 A 
ATOM     87  F   UNL A   1      44.406  33.240  26.806  1.00  0.00    -0.203 F 
ATOM     88  F   UNL A   1      46.607  34.932  31.502  1.00  0.00    -0.200 F 
ATOM     89  C   UNL A   1      45.846  35.411  29.318  1.00  0.00     0.200 A 
ATOM     90  F   UNL A   1      45.064  35.842  27.133  1.00  0.00    -0.200 F 
ATOM     91  F   UNL A   1      46.139  36.708  29.485  1.00  0.00    -0.200 F 
ENDBRANCH  58  81
ENDBRANCH  32  33
ENDBRANCH  24  27
ENDBRANCH  22  23
ENDBRANCH  21  22
ENDBRANCH  20  21
ENDBRANCH   1  20
TORSDOF 16
ENDMDL
MODEL 2
REMARK VINA RESULT:     -10.8      6.411     10.280
REMARK SMILES CC(C)[C@H](NC(=O)CC[NH3+])C(=O)NCCCCNC(=O)c1ccc(-c2c3nc(c(-c4c(F)c(F)c(F)c(F)c4F)c4ccc([nH]4)c(-c4c(F)c(F)c(F)c(F)c4F)c4nc(c(-c5c(F)c(F)c(F)c(F)c5F)c5ccc2[nH]5)C=C4)C=C3)cc1
REMARK SMILES IDX 14 1 13 2 11 3 12 4 4 6 2 7 1 8 3 9 5 10 6 11 7 13 8 14 9 15
REMARK SMILES IDX 10 16 15 20 16 21 17 22 18 23 19 24 20 26 21 27 22 28 83 29
REMARK SMILES IDX 23 30 82 31 24 32 25 33 26 34 76 35 27 36 81 37 75 38 77 39
REMARK SMILES IDX 28 40 80 41 74 42 73 43 29 45 61 46 41 47 60 48 42 49 45 50
REMARK SMILES IDX 59 51 78 52 43 53 44 54 58 56 79 57 46 58 30 59 31 60 39 61
REMARK SMILES IDX 32 62 33 63 37 64 40 65 34 66 35 67 38 68 36 69 62 70 63 71
REMARK SMILES IDX 71 72 64 73 65 74 69 75 72 76 66 77 67 78 70 79 68 80 47 81
REMARK SMILES IDX 48 82 56 83 49 84 50 85 54 86 57 87 51 88 52 89 55 90 53 91
REMARK H PARENT 13 5 5 12 10 17 10 18 10 19 18 25 77 44 45 55
REMARK Flexibility Score: inf
ROOT
ATOM      1  C   UNL A   1      32.891  30.170  26.433  1.00  0.00     0.116 C 
ENDROOT
BRANCH   1   2
ATOM      2  N   UNL A   1      33.512  29.698  25.216  1.00  0.00    -0.354 N 
ATOM      3  C   UNL A   1      33.004  29.028  24.148  1.00  0.00     0.242 C 
ATOM      4  O   UNL A   1      33.749  28.930  23.166  1.00  0.00    -0.273 OA
ATOM      5  H   UNL A   1      34.474  29.897  25.150  1.00  0.00     0.163 HD
BRANCH   3   6
ATOM      6  C   UNL A   1      31.545  28.511  24.075  1.00  0.00     0.173 C 
BRANCH   6   7
ATOM      7  C   UNL A   1      31.316  27.074  24.609  1.00  0.00     0.015 C 
ATOM      8  C   UNL A   1      31.667  26.824  26.072  1.00  0.00     0.010 C 
ATOM      9  C   UNL A   1      29.880  26.612  24.344  1.00  0.00     0.010 C 
ENDBRANCH   6   7
BRANCH   6  10
ATOM     10  N   UNL A   1      30.912  28.729  22.770  1.00  0.00    -0.344 N 
ATOM     11  C   UNL A   1      29.904  29.584  22.441  1.00  0.00     0.226 C 
ATOM     12  H   UNL A   1      31.265  28.182  22.030  1.00  0.00     0.164 HD
ATOM     13  O   UNL A   1      29.611  29.703  21.249  1.00  0.00    -0.275 OA
BRANCH  11  14
ATOM     14  C   UNL A   1      29.127  30.309  23.514  1.00  0.00     0.161 C 
BRANCH  14  15
ATOM     15  C   UNL A   1      27.643  30.416  23.170  1.00  0.00     0.268 C 
BRANCH  15  16
ATOM     16  N   UNL A   1      27.036  29.145  22.773  1.00  0.00    -0.357 N 
ATOM     17  H   UNL A   1      26.430  28.809  23.522  1.00  0.00     0.344 HD
ATOM     18  H   UNL A   1      27.768  28.459  22.594  1.00  0.00     0.344 HD
ATOM     19  H   UNL A   1      26.484  29.282  21.925  1.00  0.00     0.344 HD
ENDBRANCH  15  16
ENDBRANCH  14  15
ENDBRANCH  11  14
ENDBRANCH   6  10
ENDBRANCH   3   6
ENDBRANCH   1   2
BRANCH   1  20
ATOM     20  C   UNL A   1      31.510  30.765  26.202  1.00  0.00     0.023 C 
BRANCH  20  21
ATOM     21  C   UNL A   1      31.359  32.218  26.647  1.00  0.00     0.023 C 
BRANCH  21  22
ATOM     22  C   UNL A   1      32.650  32.901  27.080  1.00  0.00     0.116 C 
BRANCH  22  23
ATOM     23  N   UNL A   1      32.439  34.234  27.622  1.00  0.00    -0.352 N 
ATOM     24  C   UNL A   1      33.082  34.854  28.669  1.00  0.00     0.251 C 
ATOM     25  H   UNL A   1      31.740  34.768  27.178  1.00  0.00     0.163 HD
ATOM     26  O   UNL A   1      32.702  35.939  29.079  1.00  0.00    -0.269 OA
BRANCH  24  27
ATOM     27  C   UNL A   1      34.224  34.171  29.310  1.00  0.00     0.039 A 
ATOM     28  C   UNL A   1      35.520  34.519  28.925  1.00  0.00     0.014 A 
ATOM     29  C   UNL A   1      34.011  33.216  30.306  1.00  0.00     0.014 A 
ATOM     30  C   UNL A   1      36.608  33.938  29.577  1.00  0.00     0.010 A 
ATOM     31  C   UNL A   1      35.092  32.711  31.017  1.00  0.00     0.010 A 
ATOM     32  C   UNL A   1      36.401  33.047  30.643  1.00  0.00    -0.014 A 
BRANCH  32  33
ATOM     33  C   UNL A   1      37.544  32.406  31.340  1.00  0.00     0.031 A 
ATOM     34  C   UNL A   1      38.299  31.297  30.660  1.00  0.00     0.074 A 
ATOM     35  C   UNL A   1      37.873  32.784  32.590  1.00  0.00     0.049 A 
ATOM     36  N   UNL A   1      39.292  30.571  31.108  1.00  0.00    -0.248 NA
ATOM     37  C   UNL A   1      37.856  30.929  29.304  1.00  0.00     0.031 C 
ATOM     38  C   UNL A   1      37.185  33.812  33.374  1.00  0.00     0.029 A 
ATOM     39  N   UNL A   1      38.870  32.342  33.423  1.00  0.00    -0.354 N 
ATOM     40  C   UNL A   1      39.574  29.657  30.100  1.00  0.00     0.074 A 
ATOM     41  C   UNL A   1      38.606  29.870  29.049  1.00  0.00     0.031 C 
ATOM     42  C   UNL A   1      37.798  33.942  34.561  1.00  0.00     0.029 A 
ATOM     43  C   UNL A   1      38.898  32.985  34.637  1.00  0.00     0.049 A 
ATOM     44  H   UNL A   1      39.504  31.631  33.176  1.00  0.00     0.167 HD
ATOM     45  C   UNL A   1      40.573  28.745  30.040  1.00  0.00     0.037 A 
ATOM     46  C   UNL A   1      39.723  32.819  35.688  1.00  0.00     0.037 A 
ATOM     47  C   UNL A   1      41.554  28.560  31.076  1.00  0.00     0.049 A 
ATOM     48  C   UNL A   1      40.829  31.801  35.596  1.00  0.00     0.074 A 
ATOM     49  C   UNL A   1      42.638  27.702  31.094  1.00  0.00     0.029 A 
ATOM     50  N   UNL A   1      41.568  29.250  32.279  1.00  0.00    -0.354 N 
ATOM     51  N   UNL A   1      41.131  30.991  34.610  1.00  0.00    -0.248 NA
ATOM     52  C   UNL A   1      41.720  31.686  36.759  1.00  0.00     0.031 C 
ATOM     53  C   UNL A   1      43.281  27.837  32.329  1.00  0.00     0.029 A 
ATOM     54  C   UNL A   1      42.633  28.825  33.055  1.00  0.00     0.049 A 
ATOM     55  H   UNL A   1      40.917  29.940  32.543  1.00  0.00     0.167 HD
ATOM     56  C   UNL A   1      42.266  30.300  35.016  1.00  0.00     0.074 A 
ATOM     57  C   UNL A   1      42.604  30.796  36.335  1.00  0.00     0.031 C 
ATOM     58  C   UNL A   1      42.966  29.345  34.357  1.00  0.00     0.037 A 
BRANCH  45  59
ATOM     59  C   UNL A   1      40.654  27.885  28.812  1.00  0.00     0.064 A 
ATOM     60  C   UNL A   1      39.911  26.700  28.689  1.00  0.00     0.173 A 
ATOM     61  C   UNL A   1      41.471  28.258  27.734  1.00  0.00     0.173 A 
ATOM     62  F   UNL A   1      39.126  26.288  29.696  1.00  0.00    -0.203 F 
ATOM     63  C   UNL A   1      40.010  25.904  27.552  1.00  0.00     0.198 A 
ATOM     64  C   UNL A   1      41.539  27.478  26.582  1.00  0.00     0.198 A 
ATOM     65  F   UNL A   1      42.200  29.382  27.794  1.00  0.00    -0.203 F 
ATOM     66  F   UNL A   1      39.337  24.747  27.484  1.00  0.00    -0.200 F 
ATOM     67  C   UNL A   1      40.817  26.298  26.495  1.00  0.00     0.200 A 
ATOM     68  F   UNL A   1      42.310  27.868  25.556  1.00  0.00    -0.200 F 
ATOM     69  F   UNL A   1      40.907  25.535  25.397  1.00  0.00    -0.200 F 
ENDBRANCH  45  59
BRANCH  46  70
ATOM     70  C   UNL A   1      39.560  33.659  36.905  1.00  0.00     0.064 A 
ATOM     71  C   UNL A   1      38.752  33.236  37.970  1.00  0.00     0.173 A 
ATOM     72  C   UNL A   1      40.191  34.905  37.023  1.00  0.00     0.173 A 
ATOM     73  F   UNL A   1      38.111  32.060  37.899  1.00  0.00    -0.203 F 
ATOM     74  C   UNL A   1      38.561  34.038  39.094  1.00  0.00     0.198 A 
ATOM     75  C   UNL A   1      40.026  35.693  38.160  1.00  0.00     0.198 A 
ATOM     76  F   UNL A   1      40.981  35.355  36.036  1.00  0.00    -0.203 F 
ATOM     77  F   UNL A   1      37.740  33.632  40.073  1.00  0.00    -0.200 F 
ATOM     78  C   UNL A   1      39.201  35.264  39.191  1.00  0.00     0.200 A 
ATOM     79  F   UNL A   1      40.658  36.870  38.257  1.00  0.00    -0.200 F 
ATOM     80  F   UNL A   1      39.018  36.035  40.271  1.00  0.00    -0.200 F 
ENDBRANCH  46  70
BRANCH  58  81
ATOM     81  C   UNL A   1      44.203  28.813  35.023  1.00  0.00     0.064 A 
ATOM     82  C   UNL A   1      44.175  27.678  35.844  1.00  0.00     0.173 A 
ATOM     83  C   UNL A   1      45.444  29.431  34.799  1.00  0.00     0.173 A 
ATOM     84  F   UNL A   1      43.013  27.056  36.098  1.00  0.00    -0.203 F 
ATOM     85  C   UNL A   1      45.337  27.200  36.444  1.00  0.00     0.198 A 
ATOM     86  C   UNL A   1      46.609  28.931  35.372  1.00  0.00     0.198 A 
ATOM     87  F   UNL A   1      45.528  30.515  34.013  1.00  0.00    -0.203 F 
ATOM     88  F   UNL A   1      45.277  26.147  37.271  1.00  0.00    -0.200 F 
ATOM     89  C   UNL A   1      46.553  27.822  36.202  1.00  0.00     0.200 A 
ATOM     90  F   UNL A   1      47.785  29.522  35.122  1.00  0.00    -0.200 F 
ATOM     91  F   UNL A   1      47.671  27.356  36.775  1.00  0.00    -0.200 F 
ENDBRANCH  58  81
ENDBRANCH  32  33
ENDBRANCH  24  27
ENDBRANCH  22  23
ENDBRANCH  21  22
ENDBRANCH  20  21
ENDBRANCH   1  20
TORSDOF 16
ENDMDL
MODEL 3
REMARK VINA RESULT:     -10.7      6.390     11.577
REMARK SMILES CC(C)[C@H](NC(=O)CC[NH3+])C(=O)NCCCCNC(=O)c1ccc(-c2c3nc(c(-c4c(F)c(F)c(F)c(F)c4F)c4ccc([nH]4)c(-c4c(F)c(F)c(F)c(F)c4F)c4nc(c(-c5c(F)c(F)c(F)c(F)c5F)c5ccc2[nH]5)C=C4)C=C3)cc1
REMARK SMILES IDX 14 1 13 2 11 3 12 4 4 6 2 7 1 8 3 9 5 10 6 11 7 13 8 14 9 15
REMARK SMILES IDX 10 16 15 20 16 21 17 22 18 23 19 24 20 26 21 27 22 28 83 29
REMARK SMILES IDX 23 30 82 31 24 32 25 33 26 34 76 35 27 36 81 37 75 38 77 39
REMARK SMILES IDX 28 40 80 41 74 42 73 43 29 45 61 46 41 47 60 48 42 49 45 50
REMARK SMILES IDX 59 51 78 52 43 53 44 54 58 56 79 57 46 58 30 59 31 60 39 61
REMARK SMILES IDX 32 62 33 63 37 64 40 65 34 66 35 67 38 68 36 69 62 70 63 71
REMARK SMILES IDX 71 72 64 73 65 74 69 75 72 76 66 77 67 78 70 79 68 80 47 81
REMARK SMILES IDX 48 82 56 83 49 84 50 85 54 86 57 87 51 88 52 89 55 90 53 91
REMARK H PARENT 13 5 5 12 10 17 10 18 10 19 18 25 77 44 45 55
REMARK Flexibility Score: inf
ROOT
ATOM      1  C   UNL A   1      32.755  30.129  26.390  1.00  0.00     0.116 C 
ENDROOT
BRANCH   1   2
ATOM      2  N   UNL A   1      33.376  29.692  25.159  1.00  0.00    -0.354 N 
ATOM      3  C   UNL A   1      32.855  29.116  24.044  1.00  0.00     0.242 C 
ATOM      4  O   UNL A   1      33.616  29.031  23.072  1.00  0.00    -0.273 OA
ATOM      5  H   UNL A   1      34.349  29.837  25.124  1.00  0.00     0.163 HD
BRANCH   3   6
ATOM      6  C   UNL A   1      31.371  28.692  23.911  1.00  0.00     0.173 C 
BRANCH   6   7
ATOM      7  C   UNL A   1      31.050  27.236  24.336  1.00  0.00     0.015 C 
ATOM      8  C   UNL A   1      30.742  26.249  23.214  1.00  0.00     0.010 C 
ATOM      9  C   UNL A   1      32.160  26.666  25.224  1.00  0.00     0.010 C 
ENDBRANCH   6   7
BRANCH   6  10
ATOM     10  N   UNL A   1      30.776  29.039  22.616  1.00  0.00    -0.344 N 
ATOM     11  C   UNL A   1      29.710  29.844  22.353  1.00  0.00     0.226 C 
ATOM     12  H   UNL A   1      31.208  28.634  21.828  1.00  0.00     0.164 HD
ATOM     13  O   UNL A   1      29.458  30.107  21.175  1.00  0.00    -0.275 OA
BRANCH  11  14
ATOM     14  C   UNL A   1      28.825  30.342  23.472  1.00  0.00     0.161 C 
BRANCH  14  15
ATOM     15  C   UNL A   1      28.263  31.732  23.179  1.00  0.00     0.268 C 
BRANCH  15  16
ATOM     16  N   UNL A   1      29.259  32.677  22.676  1.00  0.00    -0.357 N 
ATOM     17  H   UNL A   1      28.837  33.266  21.957  1.00  0.00     0.344 HD
ATOM     18  H   UNL A   1      30.045  32.164  22.276  1.00  0.00     0.344 HD
ATOM     19  H   UNL A   1      29.591  33.263  23.443  1.00  0.00     0.344 HD
ENDBRANCH  15  16
ENDBRANCH  14  15
ENDBRANCH  11  14
ENDBRANCH   6  10
ENDBRANCH   3   6
ENDBRANCH   1   2
BRANCH   1  20
ATOM     20  C   UNL A   1      31.410  30.803  26.168  1.00  0.00     0.023 C 
BRANCH  20  21
ATOM     21  C   UNL A   1      31.380  32.291  26.506  1.00  0.00     0.023 C 
BRANCH  21  22
ATOM     22  C   UNL A   1      32.609  32.816  27.237  1.00  0.00     0.116 C 
BRANCH  22  23
ATOM     23  N   UNL A   1      32.486  34.208  27.641  1.00  0.00    -0.352 N 
ATOM     24  C   UNL A   1      33.211  34.903  28.580  1.00  0.00     0.251 C 
ATOM     25  H   UNL A   1      31.789  34.725  27.176  1.00  0.00     0.163 HD
ATOM     26  O   UNL A   1      32.901  36.043  28.888  1.00  0.00    -0.269 OA
BRANCH  24  27
ATOM     27  C   UNL A   1      34.356  34.238  29.235  1.00  0.00     0.039 A 
ATOM     28  C   UNL A   1      34.106  33.281  30.220  1.00  0.00     0.014 A 
ATOM     29  C   UNL A   1      35.665  34.540  28.853  1.00  0.00     0.014 A 
ATOM     30  C   UNL A   1      35.175  32.590  30.791  1.00  0.00     0.010 A 
ATOM     31  C   UNL A   1      36.718  33.785  29.352  1.00  0.00     0.010 A 
ATOM     32  C   UNL A   1      36.487  32.821  30.345  1.00  0.00    -0.014 A 
BRANCH  32  33
ATOM     33  C   UNL A   1      37.640  32.108  30.949  1.00  0.00     0.031 A 
ATOM     34  C   UNL A   1      38.092  32.473  32.337  1.00  0.00     0.074 A 
ATOM     35  C   UNL A   1      38.304  31.174  30.243  1.00  0.00     0.049 A 
ATOM     36  N   UNL A   1      39.103  32.013  33.030  1.00  0.00    -0.248 NA
ATOM     37  C   UNL A   1      37.325  33.524  33.028  1.00  0.00     0.031 C 
ATOM     38  C   UNL A   1      37.994  30.769  28.871  1.00  0.00     0.029 A 
ATOM     39  N   UNL A   1      39.384  30.398  30.582  1.00  0.00    -0.354 N 
ATOM     40  C   UNL A   1      39.099  32.729  34.221  1.00  0.00     0.074 A 
ATOM     41  C   UNL A   1      38.035  33.701  34.130  1.00  0.00     0.031 C 
ATOM     42  C   UNL A   1      38.843  29.799  28.496  1.00  0.00     0.029 A 
ATOM     43  C   UNL A   1      39.779  29.538  29.586  1.00  0.00     0.049 A 
ATOM     44  H   UNL A   1      39.833  30.452  31.456  1.00  0.00     0.167 HD
ATOM     45  C   UNL A   1      39.890  32.567  35.307  1.00  0.00     0.037 A 
ATOM     46  C   UNL A   1      40.783  28.642  29.561  1.00  0.00     0.037 A 
ATOM     47  C   UNL A   1      40.928  31.575  35.405  1.00  0.00     0.049 A 
ATOM     48  C   UNL A   1      41.647  28.476  30.784  1.00  0.00     0.074 A 
ATOM     49  C   UNL A   1      41.751  31.290  36.478  1.00  0.00     0.029 A 
ATOM     50  N   UNL A   1      41.280  30.702  34.385  1.00  0.00    -0.354 N 
ATOM     51  N   UNL A   1      41.590  29.109  31.932  1.00  0.00    -0.248 NA
ATOM     52  C   UNL A   1      42.706  27.460  30.713  1.00  0.00     0.031 C 
ATOM     53  C   UNL A   1      42.636  30.278  36.092  1.00  0.00     0.029 A 
ATOM     54  C   UNL A   1      42.322  29.889  34.799  1.00  0.00     0.049 A 
ATOM     55  H   UNL A   1      40.853  30.667  33.499  1.00  0.00     0.167 HD
ATOM     56  C   UNL A   1      42.575  28.543  32.730  1.00  0.00     0.074 A 
ATOM     57  C   UNL A   1      43.207  27.507  31.938  1.00  0.00     0.031 C 
ATOM     58  C   UNL A   1      42.924  28.850  34.003  1.00  0.00     0.037 A 
BRANCH  45  59
ATOM     59  C   UNL A   1      39.657  33.479  36.477  1.00  0.00     0.064 A 
ATOM     60  C   UNL A   1      38.796  33.126  37.529  1.00  0.00     0.173 A 
ATOM     61  C   UNL A   1      40.317  34.715  36.560  1.00  0.00     0.173 A 
ATOM     62  F   UNL A   1      38.129  31.963  37.493  1.00  0.00    -0.203 F 
ATOM     63  C   UNL A   1      38.577  33.990  38.599  1.00  0.00     0.198 A 
ATOM     64  C   UNL A   1      40.123  35.560  37.649  1.00  0.00     0.198 A 
ATOM     65  F   UNL A   1      41.154  35.102  35.585  1.00  0.00    -0.203 F 
ATOM     66  F   UNL A   1      37.704  33.656  39.559  1.00  0.00    -0.200 F 
ATOM     67  C   UNL A   1      39.247  35.202  38.663  1.00  0.00     0.200 A 
ATOM     68  F   UNL A   1      40.782  36.726  37.716  1.00  0.00    -0.200 F 
ATOM     69  F   UNL A   1      39.041  36.030  39.696  1.00  0.00    -0.200 F 
ENDBRANCH  45  59
BRANCH  46  70
ATOM     70  C   UNL A   1      41.006  27.804  28.353  1.00  0.00     0.064 A 
ATOM     71  C   UNL A   1      41.843  28.242  27.316  1.00  0.00     0.173 A 
ATOM     72  C   UNL A   1      40.377  26.560  28.199  1.00  0.00     0.173 A 
ATOM     73  F   UNL A   1      42.453  29.432  27.405  1.00  0.00    -0.203 F 
ATOM     74  C   UNL A   1      42.021  27.480  26.162  1.00  0.00     0.198 A 
ATOM     75  C   UNL A   1      40.580  25.785  27.060  1.00  0.00     0.198 A 
ATOM     76  F   UNL A   1      39.571  26.090  29.164  1.00  0.00    -0.203 F 
ATOM     77  F   UNL A   1      42.784  27.948  25.165  1.00  0.00    -0.200 F 
ATOM     78  C   UNL A   1      41.393  26.251  26.036  1.00  0.00     0.200 A 
ATOM     79  F   UNL A   1      39.984  24.590  26.949  1.00  0.00    -0.200 F 
ATOM     80  F   UNL A   1      41.565  25.518  24.927  1.00  0.00    -0.200 F 
ENDBRANCH  46  70
BRANCH  58  81
ATOM     81  C   UNL A   1      43.998  28.017  34.645  1.00  0.00     0.064 A 
ATOM     82  C   UNL A   1      45.344  28.409  34.637  1.00  0.00     0.173 A 
ATOM     83  C   UNL A   1      43.663  26.828  35.312  1.00  0.00     0.173 A 
ATOM     84  F   UNL A   1      45.718  29.531  34.004  1.00  0.00    -0.203 F 
ATOM     85  C   UNL A   1      46.321  27.623  35.245  1.00  0.00     0.198 A 
ATOM     86  C   UNL A   1      44.636  26.064  35.948  1.00  0.00     0.198 A 
ATOM     87  F   UNL A   1      42.388  26.414  35.357  1.00  0.00    -0.203 F 
ATOM     88  F   UNL A   1      47.608  27.987  35.176  1.00  0.00    -0.200 F 
ATOM     89  C   UNL A   1      45.965  26.456  35.905  1.00  0.00     0.200 A 
ATOM     90  F   UNL A   1      44.288  24.947  36.601  1.00  0.00    -0.200 F 
ATOM     91  F   UNL A   1      46.906  25.706  36.496  1.00  0.00    -0.200 F 
ENDBRANCH  58  81
ENDBRANCH  32  33
ENDBRANCH  24  27
ENDBRANCH  22  23
ENDBRANCH  21  22
ENDBRANCH  20  21
ENDBRANCH   1  20
TORSDOF 16
ENDMDL
