MODEL 1
REMARK VINA RESULT:     -11.4      0.000      0.000
REMARK SMILES CN(CC(N)=O)C(=O)c1csc(/C=C/C(=O)NCCCCNC(=O)c2ccc(-c3c4nc(c(-c5c(F)c(F)c(F)c(F)c5F)c5ccc([nH]5)c(-c5c(F)c(F)c(F)c(F)c5F)c5nc(c(-c6c(F)c(F)c(F)c(F)c6F)c6ccc3[nH]6)C=C5)C=C4)cc2)c1
REMARK SMILES IDX 18 1 17 2 15 3 16 4 14 6 13 7 12 8 9 9 10 10 88 11 11 12
REMARK SMILES IDX 7 13 8 14 2 15 1 16 3 17 4 18 5 19 6 20 19 23 20 24 21 25
REMARK SMILES IDX 22 26 23 27 24 29 25 30 26 31 87 32 27 33 86 34 28 35 29 36
REMARK SMILES IDX 30 37 80 38 31 39 85 40 79 41 81 42 32 43 84 44 78 45 77 46
REMARK SMILES IDX 33 48 65 49 45 50 64 51 46 52 49 53 63 54 82 55 47 56 48 57
REMARK SMILES IDX 62 59 83 60 50 61 34 62 35 63 43 64 36 65 37 66 41 67 44 68
REMARK SMILES IDX 38 69 39 70 42 71 40 72 66 73 67 74 75 75 68 76 69 77 73 78
REMARK SMILES IDX 76 79 70 80 71 81 74 82 72 83 51 84 52 85 60 86 53 87 54 88
REMARK SMILES IDX 58 89 61 90 55 91 56 92 59 93 57 94
REMARK H PARENT 17 5 5 21 5 22 22 28 81 47 49 58
REMARK Flexibility Score: inf
ROOT
ATOM      1  C   UNL A   1      31.518  29.535  25.333  1.00  0.00     0.116 C 
ENDROOT
BRANCH   1   2
ATOM      2  N   UNL A   1      32.676  29.646  24.461  1.00  0.00    -0.353 N 
ATOM      3  C   UNL A   1      33.329  28.668  23.769  1.00  0.00     0.244 C 
ATOM      4  O   UNL A   1      34.224  28.950  22.980  1.00  0.00    -0.270 OA
ATOM      5  H   UNL A   1      33.040  30.555  24.355  1.00  0.00     0.163 HD
BRANCH   3   6
ATOM      6  C   UNL A   1      32.898  27.268  23.940  1.00  0.00     0.072 C 
ATOM      7  C   UNL A   1      33.806  26.314  24.193  1.00  0.00     0.024 C 
BRANCH   7   8
ATOM      8  C   UNL A   1      33.462  24.953  24.432  1.00  0.00     0.028 A 
ATOM      9  C   UNL A   1      33.592  22.733  25.216  1.00  0.00     0.051 A 
ATOM     10  C   UNL A   1      32.405  22.711  24.514  1.00  0.00     0.079 A 
ATOM     11  C   UNL A   1      34.186  24.036  25.175  1.00  0.00     0.033 A 
ATOM     12  S   UNL A   1      32.057  24.209  23.774  1.00  0.00    -0.144 S 
BRANCH   9  13
ATOM     13  C   UNL A   1      34.115  21.587  25.947  1.00  0.00     0.254 C 
ATOM     14  O   UNL A   1      33.878  21.468  27.149  1.00  0.00    -0.269 OA
BRANCH  13  15
ATOM     15  N   UNL A   1      34.894  20.683  25.233  1.00  0.00    -0.332 N 
ATOM     16  C   UNL A   1      36.210  21.093  24.777  1.00  0.00     0.147 C 
BRANCH  15  17
ATOM     17  C   UNL A   1      34.475  19.319  24.901  1.00  0.00     0.219 C 
BRANCH  17  18
ATOM     18  C   UNL A   1      33.013  19.044  25.258  1.00  0.00     0.237 C 
ATOM     19  N   UNL A   1      32.805  18.472  26.482  1.00  0.00    -0.368 N 
ATOM     20  O   UNL A   1      32.060  19.332  24.540  1.00  0.00    -0.273 OA
ATOM     21  H   UNL A   1      33.573  18.243  27.054  1.00  0.00     0.159 HD
ATOM     22  H   UNL A   1      31.888  18.289  26.791  1.00  0.00     0.159 HD
ENDBRANCH  17  18
ENDBRANCH  15  17
ENDBRANCH  13  15
ENDBRANCH   9  13
ENDBRANCH   7   8
ENDBRANCH   3   6
ENDBRANCH   1   2
BRANCH   1  23
ATOM     23  C   UNL A   1      31.732  30.262  26.660  1.00  0.00     0.023 C 
BRANCH  23  24
ATOM     24  C   UNL A   1      31.541  31.784  26.600  1.00  0.00     0.023 C 
BRANCH  24  25
ATOM     25  C   UNL A   1      32.767  32.612  26.989  1.00  0.00     0.116 C 
BRANCH  25  26
ATOM     26  N   UNL A   1      32.426  33.934  27.485  1.00  0.00    -0.352 N 
ATOM     27  C   UNL A   1      33.006  34.661  28.493  1.00  0.00     0.251 C 
ATOM     28  H   UNL A   1      31.669  34.372  27.032  1.00  0.00     0.163 HD
ATOM     29  O   UNL A   1      32.506  35.724  28.846  1.00  0.00    -0.269 OA
BRANCH  27  30
ATOM     30  C   UNL A   1      34.207  34.153  29.192  1.00  0.00     0.039 A 
ATOM     31  C   UNL A   1      34.023  33.282  30.271  1.00  0.00     0.014 A 
ATOM     32  C   UNL A   1      35.495  34.551  28.825  1.00  0.00     0.014 A 
ATOM     33  C   UNL A   1      35.129  32.759  30.943  1.00  0.00     0.010 A 
ATOM     34  C   UNL A   1      36.602  34.009  29.477  1.00  0.00     0.010 A 
ATOM     35  C   UNL A   1      36.426  33.101  30.533  1.00  0.00    -0.014 A 
BRANCH  35  36
ATOM     36  C   UNL A   1      37.610  32.488  31.176  1.00  0.00     0.031 A 
ATOM     37  C   UNL A   1      38.370  31.394  30.492  1.00  0.00     0.074 A 
ATOM     38  C   UNL A   1      37.961  32.883  32.414  1.00  0.00     0.049 A 
ATOM     39  N   UNL A   1      39.371  30.679  30.940  1.00  0.00    -0.248 NA
ATOM     40  C   UNL A   1      37.941  31.046  29.128  1.00  0.00     0.031 C 
ATOM     41  C   UNL A   1      37.281  33.918  33.194  1.00  0.00     0.029 A 
ATOM     42  N   UNL A   1      38.967  32.448  33.238  1.00  0.00    -0.354 N 
ATOM     43  C   UNL A   1      39.674  29.780  29.930  1.00  0.00     0.074 A 
ATOM     44  C   UNL A   1      38.753  30.037  28.842  1.00  0.00     0.031 C 
ATOM     45  C   UNL A   1      37.890  34.038  34.384  1.00  0.00     0.029 A 
ATOM     46  C   UNL A   1      38.988  33.078  34.455  1.00  0.00     0.049 A 
ATOM     47  H   UNL A   1      39.612  31.750  32.980  1.00  0.00     0.167 HD
ATOM     48  C   UNL A   1      40.633  28.823  29.915  1.00  0.00     0.037 A 
ATOM     49  C   UNL A   1      39.798  32.895  35.514  1.00  0.00     0.037 A 
ATOM     50  C   UNL A   1      41.571  28.585  30.978  1.00  0.00     0.049 A 
ATOM     51  C   UNL A   1      40.885  31.865  35.451  1.00  0.00     0.074 A 
ATOM     52  C   UNL A   1      42.606  27.665  31.028  1.00  0.00     0.029 A 
ATOM     53  N   UNL A   1      41.592  29.277  32.178  1.00  0.00    -0.354 N 
ATOM     54  N   UNL A   1      41.174  31.032  34.481  1.00  0.00    -0.248 NA
ATOM     55  C   UNL A   1      41.756  31.747  36.628  1.00  0.00     0.031 C 
ATOM     56  C   UNL A   1      43.248  27.796  32.267  1.00  0.00     0.029 A 
ATOM     57  C   UNL A   1      42.619  28.804  32.978  1.00  0.00     0.049 A 
ATOM     58  H   UNL A   1      40.969  29.997  32.425  1.00  0.00     0.167 HD
ATOM     59  C   UNL A   1      42.261  30.297  34.925  1.00  0.00     0.074 A 
ATOM     60  C   UNL A   1      42.587  30.785  36.250  1.00  0.00     0.031 C 
ATOM     61  C   UNL A   1      42.928  29.305  34.291  1.00  0.00     0.037 A 
BRANCH  48  62
ATOM     62  C   UNL A   1      40.706  27.952  28.702  1.00  0.00     0.064 A 
ATOM     63  C   UNL A   1      39.975  26.760  28.617  1.00  0.00     0.173 A 
ATOM     64  C   UNL A   1      41.495  28.328  27.606  1.00  0.00     0.173 A 
ATOM     65  F   UNL A   1      39.218  26.357  29.648  1.00  0.00    -0.203 F 
ATOM     66  C   UNL A   1      40.036  25.968  27.473  1.00  0.00     0.198 A 
ATOM     67  C   UNL A   1      41.547  27.539  26.462  1.00  0.00     0.198 A 
ATOM     68  F   UNL A   1      42.215  29.460  27.650  1.00  0.00    -0.203 F 
ATOM     69  F   UNL A   1      39.346  24.822  27.415  1.00  0.00    -0.200 F 
ATOM     70  C   UNL A   1      40.820  26.360  26.397  1.00  0.00     0.200 A 
ATOM     71  F   UNL A   1      42.305  27.918  25.422  1.00  0.00    -0.200 F 
ATOM     72  F   UNL A   1      40.878  25.596  25.297  1.00  0.00    -0.200 F 
ENDBRANCH  48  62
BRANCH  49  73
ATOM     73  C   UNL A   1      39.609  33.726  36.724  1.00  0.00     0.064 A 
ATOM     74  C   UNL A   1      40.183  35.000  36.813  1.00  0.00     0.173 A 
ATOM     75  C   UNL A   1      38.831  33.273  37.798  1.00  0.00     0.173 A 
ATOM     76  F   UNL A   1      40.947  35.461  35.812  1.00  0.00    -0.203 F 
ATOM     77  C   UNL A   1      39.988  35.794  37.939  1.00  0.00     0.198 A 
ATOM     78  C   UNL A   1      38.629  34.072  38.919  1.00  0.00     0.198 A 
ATOM     79  F   UNL A   1      38.264  32.059  37.750  1.00  0.00    -0.203 F 
ATOM     80  F   UNL A   1      40.558  37.004  38.011  1.00  0.00    -0.200 F 
ATOM     81  C   UNL A   1      39.208  35.332  38.990  1.00  0.00     0.200 A 
ATOM     82  F   UNL A   1      37.872  33.625  39.930  1.00  0.00    -0.200 F 
ATOM     83  F   UNL A   1      39.017  36.099  40.072  1.00  0.00    -0.200 F 
ENDBRANCH  49  73
BRANCH  61  84
ATOM     84  C   UNL A   1      44.079  28.689  35.019  1.00  0.00     0.064 A 
ATOM     85  C   UNL A   1      43.898  27.567  35.840  1.00  0.00     0.173 A 
ATOM     86  C   UNL A   1      45.374  29.205  34.873  1.00  0.00     0.173 A 
ATOM     87  F   UNL A   1      42.673  27.053  36.018  1.00  0.00    -0.203 F 
ATOM     88  C   UNL A   1      44.977  26.986  36.498  1.00  0.00     0.198 A 
ATOM     89  C   UNL A   1      46.452  28.616  35.526  1.00  0.00     0.198 A 
ATOM     90  F   UNL A   1      45.589  30.281  34.101  1.00  0.00    -0.203 F 
ATOM     91  F   UNL A   1      44.784  25.926  37.294  1.00  0.00    -0.200 F 
ATOM     92  C   UNL A   1      46.253  27.509  36.338  1.00  0.00     0.200 A 
ATOM     93  F   UNL A   1      47.683  29.123  35.376  1.00  0.00    -0.200 F 
ATOM     94  F   UNL A   1      47.291  26.949  36.976  1.00  0.00    -0.200 F 
ENDBRANCH  61  84
ENDBRANCH  35  36
ENDBRANCH  27  30
ENDBRANCH  25  26
ENDBRANCH  24  25
ENDBRANCH  23  24
ENDBRANCH   1  23
TORSDOF 16
ENDMDL
MODEL 2
REMARK VINA RESULT:     -11.2      6.360     11.082
REMARK SMILES CN(CC(N)=O)C(=O)c1csc(/C=C/C(=O)NCCCCNC(=O)c2ccc(-c3c4nc(c(-c5c(F)c(F)c(F)c(F)c5F)c5ccc([nH]5)c(-c5c(F)c(F)c(F)c(F)c5F)c5nc(c(-c6c(F)c(F)c(F)c(F)c6F)c6ccc3[nH]6)C=C5)C=C4)cc2)c1
REMARK SMILES IDX 18 1 17 2 15 3 16 4 14 6 13 7 12 8 9 9 10 10 88 11 11 12
REMARK SMILES IDX 7 13 8 14 2 15 1 16 3 17 4 18 5 19 6 20 19 23 20 24 21 25
REMARK SMILES IDX 22 26 23 27 24 29 25 30 26 31 87 32 27 33 86 34 28 35 29 36
REMARK SMILES IDX 30 37 80 38 31 39 85 40 79 41 81 42 32 43 84 44 78 45 77 46
REMARK SMILES IDX 33 48 65 49 45 50 64 51 46 52 49 53 63 54 82 55 47 56 48 57
REMARK SMILES IDX 62 59 83 60 50 61 34 62 35 63 43 64 36 65 37 66 41 67 44 68
REMARK SMILES IDX 38 69 39 70 42 71 40 72 66 73 67 74 75 75 68 76 69 77 73 78
REMARK SMILES IDX 76 79 70 80 71 81 74 82 72 83 51 84 52 85 60 86 53 87 54 88
REMARK SMILES IDX 58 89 61 90 55 91 56 92 59 93 57 94
REMARK H PARENT 17 5 5 21 5 22 22 28 81 47 49 58
REMARK Flexibility Score: inf
ROOT
ATOM      1  C   UNL A   1      40.346  21.038  26.170  1.00  0.00     0.116 C 
ENDROOT
BRANCH   1   2
ATOM      2  N   UNL A   1      40.156  22.407  26.621  1.00  0.00    -0.353 N 
ATOM      3  C   UNL A   1      39.050  23.200  26.519  1.00  0.00     0.244 C 
ATOM      4  O   UNL A   1      39.016  24.301  27.059  1.00  0.00    -0.270 OA
ATOM      5  H   UNL A   1      40.934  22.820  27.061  1.00  0.00     0.163 HD
BRANCH   3   6
ATOM      6  C   UNL A   1      37.870  22.686  25.799  1.00  0.00     0.072 C 
ATOM      7  C   UNL A   1      36.701  23.337  25.878  1.00  0.00     0.024 C 
BRANCH   7   8
ATOM      8  C   UNL A   1      35.535  22.939  25.163  1.00  0.00     0.028 A 
ATOM      9  C   UNL A   1      33.758  22.976  23.613  1.00  0.00     0.051 A 
ATOM     10  C   UNL A   1      33.517  21.795  24.285  1.00  0.00     0.079 A 
ATOM     11  C   UNL A   1      34.934  23.620  24.117  1.00  0.00     0.033 A 
ATOM     12  S   UNL A   1      34.647  21.512  25.533  1.00  0.00    -0.144 S 
BRANCH   9  13
ATOM     13  C   UNL A   1      32.946  23.447  22.500  1.00  0.00     0.254 C 
ATOM     14  O   UNL A   1      33.224  23.102  21.351  1.00  0.00    -0.269 OA
BRANCH  13  15
ATOM     15  N   UNL A   1      31.892  24.301  22.802  1.00  0.00    -0.332 N 
ATOM     16  C   UNL A   1      30.692  23.754  23.410  1.00  0.00     0.147 C 
BRANCH  15  17
ATOM     17  C   UNL A   1      31.903  25.744  22.547  1.00  0.00     0.219 C 
BRANCH  17  18
ATOM     18  C   UNL A   1      32.741  26.122  21.323  1.00  0.00     0.237 C 
ATOM     19  N   UNL A   1      32.204  25.776  20.115  1.00  0.00    -0.368 N 
ATOM     20  O   UNL A   1      33.809  26.724  21.376  1.00  0.00    -0.273 OA
ATOM     21  H   UNL A   1      31.347  25.294  20.077  1.00  0.00     0.159 HD
ATOM     22  H   UNL A   1      32.675  26.011  19.282  1.00  0.00     0.159 HD
ENDBRANCH  17  18
ENDBRANCH  15  17
ENDBRANCH  13  15
ENDBRANCH   9  13
ENDBRANCH   7   8
ENDBRANCH   3   6
ENDBRANCH   1   2
BRANCH   1  23
ATOM     23  C   UNL A   1      41.780  20.559  26.392  1.00  0.00     0.023 C 
BRANCH  23  24
ATOM     24  C   UNL A   1      42.110  19.196  25.767  1.00  0.00     0.023 C 
BRANCH  24  25
ATOM     25  C   UNL A   1      43.512  18.664  26.062  1.00  0.00     0.116 C 
BRANCH  25  26
ATOM     26  N   UNL A   1      44.314  18.480  24.864  1.00  0.00    -0.352 N 
ATOM     27  C   UNL A   1      44.995  19.412  24.122  1.00  0.00     0.251 C 
ATOM     28  H   UNL A   1      44.379  17.552  24.539  1.00  0.00     0.163 HD
ATOM     29  O   UNL A   1      45.532  19.080  23.070  1.00  0.00    -0.269 OA
BRANCH  27  30
ATOM     30  C   UNL A   1      45.050  20.824  24.556  1.00  0.00     0.039 A 
ATOM     31  C   UNL A   1      45.576  21.106  25.822  1.00  0.00     0.014 A 
ATOM     32  C   UNL A   1      44.560  21.859  23.755  1.00  0.00     0.014 A 
ATOM     33  C   UNL A   1      45.671  22.428  26.261  1.00  0.00     0.010 A 
ATOM     34  C   UNL A   1      44.678  23.183  24.181  1.00  0.00     0.010 A 
ATOM     35  C   UNL A   1      45.244  23.476  25.432  1.00  0.00    -0.014 A 
BRANCH  35  36
ATOM     36  C   UNL A   1      45.416  24.886  25.844  1.00  0.00     0.031 A 
ATOM     37  C   UNL A   1      46.756  25.550  25.751  1.00  0.00     0.074 A 
ATOM     38  C   UNL A   1      44.368  25.550  26.365  1.00  0.00     0.049 A 
ATOM     39  N   UNL A   1      47.115  26.744  26.152  1.00  0.00    -0.248 NA
ATOM     40  C   UNL A   1      47.840  24.766  25.141  1.00  0.00     0.031 C 
ATOM     41  C   UNL A   1      43.021  25.001  26.533  1.00  0.00     0.029 A 
ATOM     42  N   UNL A   1      44.276  26.825  26.861  1.00  0.00    -0.354 N 
ATOM     43  C   UNL A   1      48.468  26.845  25.870  1.00  0.00     0.074 A 
ATOM     44  C   UNL A   1      48.870  25.593  25.262  1.00  0.00     0.031 C 
ATOM     45  C   UNL A   1      42.237  25.934  27.095  1.00  0.00     0.029 A 
ATOM     46  C   UNL A   1      43.029  27.136  27.340  1.00  0.00     0.049 A 
ATOM     47  H   UNL A   1      45.031  27.455  26.873  1.00  0.00     0.167 HD
ATOM     48  C   UNL A   1      49.300  27.888  26.100  1.00  0.00     0.037 A 
ATOM     49  C   UNL A   1      42.579  28.263  27.921  1.00  0.00     0.037 A 
ATOM     50  C   UNL A   1      48.900  29.146  26.672  1.00  0.00     0.049 A 
ATOM     51  C   UNL A   1      43.509  29.423  28.117  1.00  0.00     0.074 A 
ATOM     52  C   UNL A   1      49.669  30.275  26.901  1.00  0.00     0.029 A 
ATOM     53  N   UNL A   1      47.617  29.442  27.102  1.00  0.00    -0.354 N 
ATOM     54  N   UNL A   1      44.783  29.513  27.828  1.00  0.00    -0.248 NA
ATOM     55  C   UNL A   1      42.938  30.635  28.722  1.00  0.00     0.031 C 
ATOM     56  C   UNL A   1      48.849  31.253  27.478  1.00  0.00     0.029 A 
ATOM     57  C   UNL A   1      47.570  30.734  27.597  1.00  0.00     0.049 A 
ATOM     58  H   UNL A   1      46.852  28.824  27.061  1.00  0.00     0.167 HD
ATOM     59  C   UNL A   1      45.168  30.789  28.207  1.00  0.00     0.074 A 
ATOM     60  C   UNL A   1      43.990  31.443  28.742  1.00  0.00     0.031 C 
ATOM     61  C   UNL A   1      46.389  31.366  28.121  1.00  0.00     0.037 A 
BRANCH  48  62
ATOM     62  C   UNL A   1      50.739  27.706  25.738  1.00  0.00     0.064 A 
ATOM     63  C   UNL A   1      51.691  27.340  26.698  1.00  0.00     0.173 A 
ATOM     64  C   UNL A   1      51.161  27.872  24.411  1.00  0.00     0.173 A 
ATOM     65  F   UNL A   1      51.331  27.185  27.980  1.00  0.00    -0.203 F 
ATOM     66  C   UNL A   1      53.024  27.153  26.342  1.00  0.00     0.198 A 
ATOM     67  C   UNL A   1      52.492  27.675  24.058  1.00  0.00     0.198 A 
ATOM     68  F   UNL A   1      50.281  28.225  23.462  1.00  0.00    -0.203 F 
ATOM     69  F   UNL A   1      53.925  26.823  27.276  1.00  0.00    -0.200 F 
ATOM     70  C   UNL A   1      53.422  27.318  25.023  1.00  0.00     0.200 A 
ATOM     71  F   UNL A   1      52.877  27.834  22.783  1.00  0.00    -0.200 F 
ATOM     72  F   UNL A   1      54.706  27.138  24.683  1.00  0.00    -0.200 F 
ENDBRANCH  48  62
BRANCH  49  73
ATOM     73  C   UNL A   1      41.164  28.344  28.348  1.00  0.00     0.064 A 
ATOM     74  C   UNL A   1      40.772  27.889  29.613  1.00  0.00     0.173 A 
ATOM     75  C   UNL A   1      40.187  28.901  27.512  1.00  0.00     0.173 A 
ATOM     76  F   UNL A   1      41.676  27.336  30.435  1.00  0.00    -0.203 F 
ATOM     77  C   UNL A   1      39.447  27.986  30.028  1.00  0.00     0.198 A 
ATOM     78  C   UNL A   1      38.864  29.007  27.933  1.00  0.00     0.198 A 
ATOM     79  F   UNL A   1      40.523  29.349  26.294  1.00  0.00    -0.203 F 
ATOM     80  F   UNL A   1      39.091  27.532  31.237  1.00  0.00    -0.200 F 
ATOM     81  C   UNL A   1      38.495  28.548  29.190  1.00  0.00     0.200 A 
ATOM     82  F   UNL A   1      37.948  29.553  27.123  1.00  0.00    -0.200 F 
ATOM     83  F   UNL A   1      37.221  28.646  29.592  1.00  0.00    -0.200 F 
ENDBRANCH  49  73
BRANCH  61  84
ATOM     84  C   UNL A   1      46.509  32.774  28.608  1.00  0.00     0.064 A 
ATOM     85  C   UNL A   1      46.849  33.052  29.939  1.00  0.00     0.173 A 
ATOM     86  C   UNL A   1      46.311  33.851  27.734  1.00  0.00     0.173 A 
ATOM     87  F   UNL A   1      47.032  32.050  30.811  1.00  0.00    -0.203 F 
ATOM     88  C   UNL A   1      46.980  34.365  30.380  1.00  0.00     0.198 A 
ATOM     89  C   UNL A   1      46.450  35.162  28.176  1.00  0.00     0.198 A 
ATOM     90  F   UNL A   1      45.978  33.628  26.453  1.00  0.00    -0.203 F 
ATOM     91  F   UNL A   1      47.287  34.614  31.661  1.00  0.00    -0.200 F 
ATOM     92  C   UNL A   1      46.783  35.418  29.498  1.00  0.00     0.200 A 
ATOM     93  F   UNL A   1      46.256  36.180  27.326  1.00  0.00    -0.200 F 
ATOM     94  F   UNL A   1      46.907  36.683  29.926  1.00  0.00    -0.200 F 
ENDBRANCH  61  84
ENDBRANCH  35  36
ENDBRANCH  27  30
ENDBRANCH  25  26
ENDBRANCH  24  25
ENDBRANCH  23  24
ENDBRANCH   1  23
TORSDOF 16
ENDMDL
MODEL 3
REMARK VINA RESULT:     -10.9      0.693      2.051
REMARK SMILES CN(CC(N)=O)C(=O)c1csc(/C=C/C(=O)NCCCCNC(=O)c2ccc(-c3c4nc(c(-c5c(F)c(F)c(F)c(F)c5F)c5ccc([nH]5)c(-c5c(F)c(F)c(F)c(F)c5F)c5nc(c(-c6c(F)c(F)c(F)c(F)c6F)c6ccc3[nH]6)C=C5)C=C4)cc2)c1
REMARK SMILES IDX 18 1 17 2 15 3 16 4 14 6 13 7 12 8 9 9 10 10 88 11 11 12
REMARK SMILES IDX 7 13 8 14 2 15 1 16 3 17 4 18 5 19 6 20 19 23 20 24 21 25
REMARK SMILES IDX 22 26 23 27 24 29 25 30 26 31 87 32 27 33 86 34 28 35 29 36
REMARK SMILES IDX 30 37 80 38 31 39 85 40 79 41 81 42 32 43 84 44 78 45 77 46
REMARK SMILES IDX 33 48 65 49 45 50 64 51 46 52 49 53 63 54 82 55 47 56 48 57
REMARK SMILES IDX 62 59 83 60 50 61 34 62 35 63 43 64 36 65 37 66 41 67 44 68
REMARK SMILES IDX 38 69 39 70 42 71 40 72 66 73 67 74 75 75 68 76 69 77 73 78
REMARK SMILES IDX 76 79 70 80 71 81 74 82 72 83 51 84 52 85 60 86 53 87 54 88
REMARK SMILES IDX 58 89 61 90 55 91 56 92 59 93 57 94
REMARK H PARENT 17 5 5 21 5 22 22 28 81 47 49 58
REMARK Flexibility Score: inf
ROOT
ATOM      1  C   UNL A   1      31.551  29.930  25.341  1.00  0.00     0.116 C 
ENDROOT
BRANCH   1   2
ATOM      2  N   UNL A   1      32.788  29.718  24.607  1.00  0.00    -0.353 N 
ATOM      3  C   UNL A   1      33.294  28.562  24.090  1.00  0.00     0.244 C 
ATOM      4  O   UNL A   1      34.302  28.575  23.392  1.00  0.00    -0.270 OA
ATOM      5  H   UNL A   1      33.338  30.522  24.464  1.00  0.00     0.163 HD
BRANCH   3   6
ATOM      6  C   UNL A   1      32.573  27.298  24.334  1.00  0.00     0.072 C 
ATOM      7  C   UNL A   1      33.176  26.125  24.094  1.00  0.00     0.024 C 
BRANCH   7   8
ATOM      8  C   UNL A   1      32.569  24.865  24.363  1.00  0.00     0.028 A 
ATOM      9  C   UNL A   1      32.213  22.534  24.409  1.00  0.00     0.051 A 
ATOM     10  C   UNL A   1      31.095  23.000  25.071  1.00  0.00     0.079 A 
ATOM     11  C   UNL A   1      33.065  23.619  24.019  1.00  0.00     0.033 A 
ATOM     12  S   UNL A   1      31.050  24.703  25.156  1.00  0.00    -0.144 S 
BRANCH   9  13
ATOM     13  C   UNL A   1      32.497  21.120  24.208  1.00  0.00     0.254 C 
ATOM     14  O   UNL A   1      32.262  20.599  23.118  1.00  0.00    -0.269 OA
BRANCH  13  15
ATOM     15  N   UNL A   1      33.006  20.416  25.292  1.00  0.00    -0.332 N 
ATOM     16  C   UNL A   1      32.800  18.980  25.361  1.00  0.00     0.147 C 
BRANCH  15  17
ATOM     17  C   UNL A   1      33.750  21.029  26.395  1.00  0.00     0.219 C 
BRANCH  17  18
ATOM     18  C   UNL A   1      35.194  21.369  26.019  1.00  0.00     0.237 C 
ATOM     19  N   UNL A   1      35.673  22.542  26.532  1.00  0.00    -0.368 N 
ATOM     20  O   UNL A   1      35.917  20.653  25.333  1.00  0.00    -0.273 OA
ATOM     21  H   UNL A   1      35.090  23.113  27.082  1.00  0.00     0.159 HD
ATOM     22  H   UNL A   1      36.603  22.814  26.353  1.00  0.00     0.159 HD
ENDBRANCH  17  18
ENDBRANCH  15  17
ENDBRANCH  13  15
ENDBRANCH   9  13
ENDBRANCH   7   8
ENDBRANCH   3   6
ENDBRANCH   1   2
BRANCH   1  23
ATOM     23  C   UNL A   1      31.805  30.507  26.733  1.00  0.00     0.023 C 
BRANCH  23  24
ATOM     24  C   UNL A   1      31.474  31.999  26.884  1.00  0.00     0.023 C 
BRANCH  24  25
ATOM     25  C   UNL A   1      32.680  32.938  26.890  1.00  0.00     0.116 C 
BRANCH  25  26
ATOM     26  N   UNL A   1      32.422  34.190  27.581  1.00  0.00    -0.352 N 
ATOM     27  C   UNL A   1      33.055  34.727  28.673  1.00  0.00     0.251 C 
ATOM     28  H   UNL A   1      31.686  34.732  27.212  1.00  0.00     0.163 HD
ATOM     29  O   UNL A   1      32.621  35.753  29.188  1.00  0.00    -0.269 OA
BRANCH  27  30
ATOM     30  C   UNL A   1      34.233  34.056  29.265  1.00  0.00     0.039 A 
ATOM     31  C   UNL A   1      35.505  34.500  28.887  1.00  0.00     0.014 A 
ATOM     32  C   UNL A   1      34.099  32.981  30.149  1.00  0.00     0.014 A 
ATOM     33  C   UNL A   1      36.643  33.911  29.441  1.00  0.00     0.010 A 
ATOM     34  C   UNL A   1      35.235  32.410  30.723  1.00  0.00     0.010 A 
ATOM     35  C   UNL A   1      36.513  32.878  30.381  1.00  0.00    -0.014 A 
BRANCH  35  36
ATOM     36  C   UNL A   1      37.705  32.303  31.043  1.00  0.00     0.031 A 
ATOM     37  C   UNL A   1      38.512  31.236  30.369  1.00  0.00     0.074 A 
ATOM     38  C   UNL A   1      38.020  32.703  32.288  1.00  0.00     0.049 A 
ATOM     39  N   UNL A   1      39.528  30.552  30.833  1.00  0.00    -0.248 NA
ATOM     40  C   UNL A   1      38.119  30.879  28.997  1.00  0.00     0.031 C 
ATOM     41  C   UNL A   1      37.293  33.713  33.060  1.00  0.00     0.029 A 
ATOM     42  N   UNL A   1      39.025  32.298  33.129  1.00  0.00    -0.354 N 
ATOM     43  C   UNL A   1      39.878  29.667  29.826  1.00  0.00     0.074 A 
ATOM     44  C   UNL A   1      38.969  29.898  28.722  1.00  0.00     0.031 C 
ATOM     45  C   UNL A   1      37.877  33.848  34.261  1.00  0.00     0.029 A 
ATOM     46  C   UNL A   1      39.004  32.924  34.348  1.00  0.00     0.049 A 
ATOM     47  H   UNL A   1      39.697  31.623  32.880  1.00  0.00     0.167 HD
ATOM     48  C   UNL A   1      40.867  28.742  29.825  1.00  0.00     0.037 A 
ATOM     49  C   UNL A   1      39.800  32.764  35.421  1.00  0.00     0.037 A 
ATOM     50  C   UNL A   1      41.793  28.530  30.904  1.00  0.00     0.049 A 
ATOM     51  C   UNL A   1      40.921  31.769  35.374  1.00  0.00     0.074 A 
ATOM     52  C   UNL A   1      42.856  27.645  30.970  1.00  0.00     0.029 A 
ATOM     53  N   UNL A   1      41.771  29.218  32.106  1.00  0.00    -0.354 N 
ATOM     54  N   UNL A   1      41.255  30.951  34.407  1.00  0.00    -0.248 NA
ATOM     55  C   UNL A   1      41.775  31.675  36.567  1.00  0.00     0.031 C 
ATOM     56  C   UNL A   1      43.472  27.792  32.220  1.00  0.00     0.029 A 
ATOM     57  C   UNL A   1      42.798  28.776  32.923  1.00  0.00     0.049 A 
ATOM     58  H   UNL A   1      41.120  29.917  32.344  1.00  0.00     0.167 HD
ATOM     59  C   UNL A   1      42.357  30.249  34.868  1.00  0.00     0.074 A 
ATOM     60  C   UNL A   1      42.643  30.742  36.201  1.00  0.00     0.031 C 
ATOM     61  C   UNL A   1      43.067  29.281  34.242  1.00  0.00     0.037 A 
BRANCH  48  62
ATOM     62  C   UNL A   1      40.991  27.878  28.611  1.00  0.00     0.064 A 
ATOM     63  C   UNL A   1      40.259  26.691  28.485  1.00  0.00     0.173 A 
ATOM     64  C   UNL A   1      41.829  28.259  27.553  1.00  0.00     0.173 A 
ATOM     65  F   UNL A   1      39.456  26.284  29.480  1.00  0.00    -0.203 F 
ATOM     66  C   UNL A   1      40.368  25.905  27.340  1.00  0.00     0.198 A 
ATOM     67  C   UNL A   1      41.928  27.477  26.407  1.00  0.00     0.198 A 
ATOM     68  F   UNL A   1      42.550  29.387  27.636  1.00  0.00    -0.203 F 
ATOM     69  F   UNL A   1      39.677  24.762  27.244  1.00  0.00    -0.200 F 
ATOM     70  C   UNL A   1      41.200  26.301  26.302  1.00  0.00     0.200 A 
ATOM     71  F   UNL A   1      42.732  27.859  25.404  1.00  0.00    -0.200 F 
ATOM     72  F   UNL A   1      41.303  25.544  25.201  1.00  0.00    -0.200 F 
ENDBRANCH  48  62
BRANCH  49  73
ATOM     73  C   UNL A   1      39.563  33.583  36.630  1.00  0.00     0.064 A 
ATOM     74  C   UNL A   1      38.782  33.092  37.684  1.00  0.00     0.173 A 
ATOM     75  C   UNL A   1      40.133  34.855  36.765  1.00  0.00     0.173 A 
ATOM     76  F   UNL A   1      38.207  31.885  37.584  1.00  0.00    -0.203 F 
ATOM     77  C   UNL A   1      38.576  33.849  38.834  1.00  0.00     0.198 A 
ATOM     78  C   UNL A   1      39.935  35.607  37.921  1.00  0.00     0.198 A 
ATOM     79  F   UNL A   1      40.888  35.360  35.779  1.00  0.00    -0.203 F 
ATOM     80  F   UNL A   1      37.814  33.367  39.824  1.00  0.00    -0.200 F 
ATOM     81  C   UNL A   1      39.156  35.104  38.953  1.00  0.00     0.200 A 
ATOM     82  F   UNL A   1      40.499  36.817  38.035  1.00  0.00    -0.200 F 
ATOM     83  F   UNL A   1      38.961  35.830  40.062  1.00  0.00    -0.200 F 
ENDBRANCH  49  73
BRANCH  61  84
ATOM     84  C   UNL A   1      44.224  28.701  34.989  1.00  0.00     0.064 A 
ATOM     85  C   UNL A   1      45.501  29.273  34.904  1.00  0.00     0.173 A 
ATOM     86  C   UNL A   1      44.050  27.583  35.817  1.00  0.00     0.173 A 
ATOM     87  F   UNL A   1      45.712  30.333  34.111  1.00  0.00    -0.203 F 
ATOM     88  C   UNL A   1      46.568  28.740  35.620  1.00  0.00     0.198 A 
ATOM     89  C   UNL A   1      45.118  27.057  36.538  1.00  0.00     0.198 A 
ATOM     90  F   UNL A   1      42.845  27.002  35.923  1.00  0.00    -0.203 F 
ATOM     91  F   UNL A   1      47.786  29.287  35.511  1.00  0.00    -0.200 F 
ATOM     92  C   UNL A   1      46.375  27.635  36.437  1.00  0.00     0.200 A 
ATOM     93  F   UNL A   1      44.933  25.988  37.324  1.00  0.00    -0.200 F 
ATOM     94  F   UNL A   1      47.406  27.121  37.123  1.00  0.00    -0.200 F 
ENDBRANCH  61  84
ENDBRANCH  35  36
ENDBRANCH  27  30
ENDBRANCH  25  26
ENDBRANCH  24  25
ENDBRANCH  23  24
ENDBRANCH   1  23
TORSDOF 16
ENDMDL
