MODEL 1
REMARK VINA RESULT:     -14.5      0.000      0.000
REMARK SMILES C[C@@H](C(=O)NCCCCNC(=O)c1ccc(-c2c3nc(c(-c4c(F)c(F)c(F)c(F)c4F)c4ccc([nH]4)c(-c4c(F)c(F)c(F)c(F)c4F)c4nc(c(-c5c(F)c(F)c(F)c(F)c5F)c5ccc2[nH]5)C=C4)C=C3)cc1)N1C(=O)/C(=C/c2ccc(-c3ccc([N+](=O)[O-])cc3Cl)o2)SC1=S
REMARK SMILES IDX 6 1 5 2 3 3 4 4 2 6 1 7 76 8 77 9 97 10 78 11 79 12 96 13
REMARK SMILES IDX 98 14 80 15 81 16 82 17 95 18 83 19 84 20 85 21 86 22 93 23
REMARK SMILES IDX 87 24 92 25 94 26 88 27 89 28 90 29 91 30 7 31 8 32 9 33
REMARK SMILES IDX 10 34 11 35 12 37 13 38 14 39 75 40 15 41 74 42 16 43 17 44
REMARK SMILES IDX 18 45 68 46 19 47 73 48 67 49 69 50 20 51 72 52 66 53 65 54
REMARK SMILES IDX 21 56 53 57 33 58 52 59 34 60 37 61 51 62 70 63 35 64 36 65
REMARK SMILES IDX 50 67 71 68 38 69 22 70 23 71 31 72 24 73 25 74 29 75 32 76
REMARK SMILES IDX 26 77 27 78 30 79 28 80 54 81 55 82 63 83 56 84 57 85 61 86
REMARK SMILES IDX 64 87 58 88 59 89 62 90 60 91 39 92 40 93 48 94 41 95 42 96
REMARK SMILES IDX 46 97 49 98 43 99 44 100 47 101 45 102
REMARK H PARENT 5 5 10 36 69 55 37 66
REMARK Flexibility Score: inf
ROOT
ATOM      1  C   UNL A   1      31.685  29.820  25.358  1.00  0.00     0.116 C 
ENDROOT
BRANCH   1   2
ATOM      2  N   UNL A   1      32.824  29.717  24.469  1.00  0.00    -0.354 N 
ATOM      3  C   UNL A   1      33.075  28.814  23.476  1.00  0.00     0.242 C 
ATOM      4  O   UNL A   1      34.064  29.023  22.768  1.00  0.00    -0.273 OA
ATOM      5  H   UNL A   1      33.521  30.399  24.600  1.00  0.00     0.163 HD
BRANCH   3   6
ATOM      6  C   UNL A   1      32.111  27.631  23.229  1.00  0.00     0.178 C 
ATOM      7  C   UNL A   1      30.684  27.850  23.730  1.00  0.00     0.042 C 
BRANCH   6   8
ATOM      8  N   UNL A   1      32.721  26.407  23.790  1.00  0.00    -0.281 N 
ATOM      9  C   UNL A   1      33.501  25.597  22.972  1.00  0.00     0.267 C 
ATOM     10  C   UNL A   1      32.489  25.943  25.068  1.00  0.00     0.149 C 
ATOM     11  O   UNL A   1      33.805  25.811  21.810  1.00  0.00    -0.268 OA
ATOM     12  C   UNL A   1      33.954  24.394  23.717  1.00  0.00     0.084 C 
ATOM     13  S   UNL A   1      33.323  24.417  25.314  1.00  0.00    -0.054 SA
ATOM     14  S   UNL A   1      31.599  26.656  26.288  1.00  0.00    -0.052 S 
ATOM     15  C   UNL A   1      34.778  23.502  23.153  1.00  0.00     0.068 C 
BRANCH  15  16
ATOM     16  C   UNL A   1      35.267  22.353  23.828  1.00  0.00     0.128 A 
ATOM     17  C   UNL A   1      36.531  22.090  24.342  1.00  0.00     0.051 A 
ATOM     18  O   UNL A   1      34.474  21.258  24.094  1.00  0.00    -0.457 OA
ATOM     19  C   UNL A   1      36.518  20.784  24.881  1.00  0.00     0.051 A 
ATOM     20  C   UNL A   1      35.245  20.303  24.679  1.00  0.00     0.136 A 
BRANCH  20  21
ATOM     21  C   UNL A   1      34.606  19.033  24.983  1.00  0.00     0.036 A 
ATOM     22  C   UNL A   1      35.381  17.862  24.883  1.00  0.00     0.020 A 
ATOM     23  C   UNL A   1      33.238  18.914  25.291  1.00  0.00     0.058 A 
ATOM     24  C   UNL A   1      34.807  16.602  25.062  1.00  0.00     0.086 A 
ATOM     25  C   UNL A   1      32.653  17.654  25.468  1.00  0.00     0.106 A 
ATOM     26  Cl  UNL A   1      32.186  20.286  25.395  1.00  0.00    -0.083 Cl
ATOM     27  C   UNL A   1      33.439  16.503  25.340  1.00  0.00     0.270 A 
BRANCH  27  28
ATOM     28  N   UNL A   1      32.819  15.179  25.467  1.00  0.00     0.062 N 
ATOM     29  O   UNL A   1      31.595  15.133  25.654  1.00  0.00    -0.258 OA
ATOM     30  O   UNL A   1      33.557  14.187  25.388  1.00  0.00    -0.258 OA
ENDBRANCH  27  28
ENDBRANCH  20  21
ENDBRANCH  15  16
ENDBRANCH   6   8
ENDBRANCH   3   6
ENDBRANCH   1   2
BRANCH   1  31
ATOM     31  C   UNL A   1      32.073  30.405  26.715  1.00  0.00     0.023 C 
BRANCH  31  32
ATOM     32  C   UNL A   1      31.739  31.888  26.894  1.00  0.00     0.023 C 
BRANCH  32  33
ATOM     33  C   UNL A   1      32.869  32.751  27.448  1.00  0.00     0.116 C 
BRANCH  33  34
ATOM     34  N   UNL A   1      32.459  34.120  27.725  1.00  0.00    -0.352 N 
ATOM     35  C   UNL A   1      32.990  35.022  28.617  1.00  0.00     0.251 C 
ATOM     36  H   UNL A   1      31.694  34.447  27.199  1.00  0.00     0.163 HD
ATOM     37  O   UNL A   1      32.437  36.099  28.814  1.00  0.00    -0.269 OA
BRANCH  35  38
ATOM     38  C   UNL A   1      34.209  34.667  29.372  1.00  0.00     0.039 A 
ATOM     39  C   UNL A   1      34.078  34.203  30.684  1.00  0.00     0.014 A 
ATOM     40  C   UNL A   1      35.469  34.744  28.772  1.00  0.00     0.014 A 
ATOM     41  C   UNL A   1      35.200  33.716  31.358  1.00  0.00     0.010 A 
ATOM     42  C   UNL A   1      36.573  34.199  29.421  1.00  0.00     0.010 A 
ATOM     43  C   UNL A   1      36.444  33.656  30.710  1.00  0.00    -0.014 A 
BRANCH  43  44
ATOM     44  C   UNL A   1      37.608  32.970  31.329  1.00  0.00     0.031 A 
ATOM     45  C   UNL A   1      38.221  31.768  30.669  1.00  0.00     0.074 A 
ATOM     46  C   UNL A   1      38.036  33.367  32.545  1.00  0.00     0.049 A 
ATOM     47  N   UNL A   1      39.147  30.961  31.120  1.00  0.00    -0.248 NA
ATOM     48  C   UNL A   1      37.712  31.412  29.335  1.00  0.00     0.031 C 
ATOM     49  C   UNL A   1      37.489  34.491  33.307  1.00  0.00     0.029 A 
ATOM     50  N   UNL A   1      39.011  32.854  33.366  1.00  0.00    -0.354 N 
ATOM     51  C   UNL A   1      39.316  29.992  30.140  1.00  0.00     0.074 A 
ATOM     52  C   UNL A   1      38.377  30.293  29.081  1.00  0.00     0.031 C 
ATOM     53  C   UNL A   1      38.132  34.582  34.483  1.00  0.00     0.029 A 
ATOM     54  C   UNL A   1      39.101  33.496  34.579  1.00  0.00     0.049 A 
ATOM     55  H   UNL A   1      39.590  32.100  33.111  1.00  0.00     0.167 HD
ATOM     56  C   UNL A   1      40.185  28.954  30.127  1.00  0.00     0.037 A 
ATOM     57  C   UNL A   1      39.856  33.219  35.662  1.00  0.00     0.037 A 
ATOM     58  C   UNL A   1      41.141  28.681  31.168  1.00  0.00     0.049 A 
ATOM     59  C   UNL A   1      40.797  32.045  35.619  1.00  0.00     0.074 A 
ATOM     60  C   UNL A   1      42.132  27.715  31.193  1.00  0.00     0.029 A 
ATOM     61  N   UNL A   1      41.216  29.363  32.373  1.00  0.00    -0.354 N 
ATOM     62  N   UNL A   1      41.018  31.196  34.646  1.00  0.00    -0.248 NA
ATOM     63  C   UNL A   1      41.594  31.788  36.828  1.00  0.00     0.031 C 
ATOM     64  C   UNL A   1      42.763  27.769  32.439  1.00  0.00     0.029 A 
ATOM     65  C   UNL A   1      42.206  28.806  33.167  1.00  0.00     0.049 A 
ATOM     66  H   UNL A   1      40.651  30.129  32.626  1.00  0.00     0.167 HD
ATOM     67  C   UNL A   1      41.989  30.322  35.114  1.00  0.00     0.074 A 
ATOM     68  C   UNL A   1      42.334  30.755  36.450  1.00  0.00     0.031 C 
ATOM     69  C   UNL A   1      42.541  29.251  34.495  1.00  0.00     0.037 A 
BRANCH  56  70
ATOM     70  C   UNL A   1      40.155  28.020  28.953  1.00  0.00     0.064 A 
ATOM     71  C   UNL A   1      40.865  28.290  27.775  1.00  0.00     0.173 A 
ATOM     72  C   UNL A   1      39.484  26.790  29.050  1.00  0.00     0.173 A 
ATOM     73  F   UNL A   1      41.516  29.453  27.631  1.00  0.00    -0.203 F 
ATOM     74  C   UNL A   1      40.897  27.367  26.733  1.00  0.00     0.198 A 
ATOM     75  C   UNL A   1      39.542  25.858  28.017  1.00  0.00     0.198 A 
ATOM     76  F   UNL A   1      38.796  26.481  30.158  1.00  0.00    -0.203 F 
ATOM     77  F   UNL A   1      41.562  27.656  25.605  1.00  0.00    -0.200 F 
ATOM     78  C   UNL A   1      40.247  26.149  26.858  1.00  0.00     0.200 A 
ATOM     79  F   UNL A   1      38.925  24.676  28.147  1.00  0.00    -0.200 F 
ATOM     80  F   UNL A   1      40.299  25.253  25.864  1.00  0.00    -0.200 F 
ENDBRANCH  56  70
BRANCH  57  81
ATOM     81  C   UNL A   1      39.734  34.046  36.893  1.00  0.00     0.064 A 
ATOM     82  C   UNL A   1      38.929  33.636  37.965  1.00  0.00     0.173 A 
ATOM     83  C   UNL A   1      40.384  35.285  37.006  1.00  0.00     0.173 A 
ATOM     84  F   UNL A   1      38.268  32.471  37.897  1.00  0.00    -0.203 F 
ATOM     85  C   UNL A   1      38.750  34.447  39.084  1.00  0.00     0.198 A 
ATOM     86  C   UNL A   1      40.233  36.078  38.140  1.00  0.00     0.198 A 
ATOM     87  F   UNL A   1      41.169  35.726  36.011  1.00  0.00    -0.203 F 
ATOM     88  F   UNL A   1      37.923  34.058  40.064  1.00  0.00    -0.200 F 
ATOM     89  C   UNL A   1      39.406  35.666  39.173  1.00  0.00     0.200 A 
ATOM     90  F   UNL A   1      40.881  37.249  38.228  1.00  0.00    -0.200 F 
ATOM     91  F   UNL A   1      39.230  36.447  40.247  1.00  0.00    -0.200 F 
ENDBRANCH  57  81
BRANCH  69  92
ATOM     92  C   UNL A   1      43.590  28.482  35.244  1.00  0.00     0.064 A 
ATOM     93  C   UNL A   1      43.250  27.424  36.100  1.00  0.00     0.173 A 
ATOM     94  C   UNL A   1      44.951  28.770  35.063  1.00  0.00     0.173 A 
ATOM     95  F   UNL A   1      41.963  27.118  36.319  1.00  0.00    -0.203 F 
ATOM     96  C   UNL A   1      44.235  26.694  36.760  1.00  0.00     0.198 A 
ATOM     97  C   UNL A   1      45.934  28.018  35.700  1.00  0.00     0.198 A 
ATOM     98  F   UNL A   1      45.329  29.769  34.252  1.00  0.00    -0.203 F 
ATOM     99  F   UNL A   1      43.887  25.713  37.605  1.00  0.00    -0.200 F 
ATOM    100  C   UNL A   1      45.575  26.984  36.552  1.00  0.00     0.200 A 
ATOM    101  F   UNL A   1      47.228  28.290  35.485  1.00  0.00    -0.200 F 
ATOM    102  F   UNL A   1      46.522  26.272  37.177  1.00  0.00    -0.200 F 
ENDBRANCH  69  92
ENDBRANCH  43  44
ENDBRANCH  35  38
ENDBRANCH  33  34
ENDBRANCH  32  33
ENDBRANCH  31  32
ENDBRANCH   1  31
TORSDOF 15
ENDMDL
MODEL 2
REMARK VINA RESULT:     -14.2      0.447      7.057
REMARK SMILES C[C@@H](C(=O)NCCCCNC(=O)c1ccc(-c2c3nc(c(-c4c(F)c(F)c(F)c(F)c4F)c4ccc([nH]4)c(-c4c(F)c(F)c(F)c(F)c4F)c4nc(c(-c5c(F)c(F)c(F)c(F)c5F)c5ccc2[nH]5)C=C4)C=C3)cc1)N1C(=O)/C(=C/c2ccc(-c3ccc([N+](=O)[O-])cc3Cl)o2)SC1=S
REMARK SMILES IDX 6 1 5 2 3 3 4 4 2 6 1 7 76 8 77 9 97 10 78 11 79 12 96 13
REMARK SMILES IDX 98 14 80 15 81 16 82 17 95 18 83 19 84 20 85 21 86 22 93 23
REMARK SMILES IDX 87 24 92 25 94 26 88 27 89 28 90 29 91 30 7 31 8 32 9 33
REMARK SMILES IDX 10 34 11 35 12 37 13 38 14 39 75 40 15 41 74 42 16 43 17 44
REMARK SMILES IDX 18 45 68 46 19 47 73 48 67 49 69 50 20 51 72 52 66 53 65 54
REMARK SMILES IDX 21 56 53 57 33 58 52 59 34 60 37 61 51 62 70 63 35 64 36 65
REMARK SMILES IDX 50 67 71 68 38 69 22 70 23 71 31 72 24 73 25 74 29 75 32 76
REMARK SMILES IDX 26 77 27 78 30 79 28 80 54 81 55 82 63 83 56 84 57 85 61 86
REMARK SMILES IDX 64 87 58 88 59 89 62 90 60 91 39 92 40 93 48 94 41 95 42 96
REMARK SMILES IDX 46 97 49 98 43 99 44 100 47 101 45 102
REMARK H PARENT 5 5 10 36 69 55 37 66
REMARK Flexibility Score: inf
ROOT
ATOM      1  C   UNL A   1      31.484  29.889  25.272  1.00  0.00     0.116 C 
ENDROOT
BRANCH   1   2
ATOM      2  N   UNL A   1      32.672  29.780  24.449  1.00  0.00    -0.354 N 
ATOM      3  C   UNL A   1      32.986  28.863  23.487  1.00  0.00     0.242 C 
ATOM      4  O   UNL A   1      34.011  29.068  22.831  1.00  0.00    -0.273 OA
ATOM      5  H   UNL A   1      33.356  30.471  24.606  1.00  0.00     0.163 HD
BRANCH   3   6
ATOM      6  C   UNL A   1      32.046  27.667  23.208  1.00  0.00     0.178 C 
ATOM      7  C   UNL A   1      30.607  27.856  23.685  1.00  0.00     0.042 C 
BRANCH   6   8
ATOM      8  N   UNL A   1      32.666  26.447  23.764  1.00  0.00    -0.281 N 
ATOM      9  C   UNL A   1      33.459  25.650  22.946  1.00  0.00     0.267 C 
ATOM     10  C   UNL A   1      32.433  25.973  25.038  1.00  0.00     0.149 C 
ATOM     11  O   UNL A   1      33.766  25.874  21.786  1.00  0.00    -0.268 OA
ATOM     12  C   UNL A   1      33.921  24.447  23.686  1.00  0.00     0.084 C 
ATOM     13  S   UNL A   1      33.282  24.454  25.280  1.00  0.00    -0.054 SA
ATOM     14  S   UNL A   1      31.530  26.669  26.258  1.00  0.00    -0.052 S 
ATOM     15  C   UNL A   1      34.757  23.567  23.120  1.00  0.00     0.068 C 
BRANCH  15  16
ATOM     16  C   UNL A   1      35.254  22.419  23.791  1.00  0.00     0.128 A 
ATOM     17  C   UNL A   1      36.525  22.157  24.288  1.00  0.00     0.051 A 
ATOM     18  O   UNL A   1      34.465  21.326  24.070  1.00  0.00    -0.457 OA
ATOM     19  C   UNL A   1      36.519  20.852  24.829  1.00  0.00     0.051 A 
ATOM     20  C   UNL A   1      35.244  20.371  24.646  1.00  0.00     0.136 A 
BRANCH  20  21
ATOM     21  C   UNL A   1      34.608  19.102  24.962  1.00  0.00     0.036 A 
ATOM     22  C   UNL A   1      35.386  17.933  24.872  1.00  0.00     0.020 A 
ATOM     23  C   UNL A   1      33.240  18.983  25.272  1.00  0.00     0.058 A 
ATOM     24  C   UNL A   1      34.815  16.672  25.063  1.00  0.00     0.086 A 
ATOM     25  C   UNL A   1      32.660  17.722  25.461  1.00  0.00     0.106 A 
ATOM     26  Cl  UNL A   1      32.185  20.352  25.365  1.00  0.00    -0.083 Cl
ATOM     27  C   UNL A   1      33.449  16.572  25.343  1.00  0.00     0.270 A 
BRANCH  27  28
ATOM     28  N   UNL A   1      32.832  15.248  25.482  1.00  0.00     0.062 N 
ATOM     29  O   UNL A   1      33.566  14.257  25.363  1.00  0.00    -0.258 OA
ATOM     30  O   UNL A   1      31.614  15.200  25.700  1.00  0.00    -0.258 OA
ENDBRANCH  27  28
ENDBRANCH  20  21
ENDBRANCH  15  16
ENDBRANCH   6   8
ENDBRANCH   3   6
ENDBRANCH   1   2
BRANCH   1  31
ATOM     31  C   UNL A   1      31.794  30.489  26.642  1.00  0.00     0.023 C 
BRANCH  31  32
ATOM     32  C   UNL A   1      31.652  32.011  26.723  1.00  0.00     0.023 C 
BRANCH  32  33
ATOM     33  C   UNL A   1      32.809  32.742  27.396  1.00  0.00     0.116 C 
BRANCH  33  34
ATOM     34  N   UNL A   1      32.506  34.131  27.705  1.00  0.00    -0.352 N 
ATOM     35  C   UNL A   1      33.052  34.947  28.667  1.00  0.00     0.251 C 
ATOM     36  H   UNL A   1      31.810  34.546  27.146  1.00  0.00     0.163 HD
ATOM     37  O   UNL A   1      32.586  36.062  28.875  1.00  0.00    -0.269 OA
BRANCH  35  38
ATOM     38  C   UNL A   1      34.180  34.454  29.483  1.00  0.00     0.039 A 
ATOM     39  C   UNL A   1      33.911  33.865  30.722  1.00  0.00     0.014 A 
ATOM     40  C   UNL A   1      35.492  34.526  29.007  1.00  0.00     0.014 A 
ATOM     41  C   UNL A   1      34.944  33.254  31.436  1.00  0.00     0.010 A 
ATOM     42  C   UNL A   1      36.508  33.860  29.687  1.00  0.00     0.010 A 
ATOM     43  C   UNL A   1      36.239  33.197  30.895  1.00  0.00    -0.014 A 
BRANCH  43  44
ATOM     44  C   UNL A   1      37.310  32.391  31.537  1.00  0.00     0.031 A 
ATOM     45  C   UNL A   1      37.853  32.780  32.882  1.00  0.00     0.074 A 
ATOM     46  C   UNL A   1      37.868  31.373  30.850  1.00  0.00     0.049 A 
ATOM     47  N   UNL A   1      38.872  32.284  33.536  1.00  0.00    -0.248 NA
ATOM     48  C   UNL A   1      37.175  33.888  33.575  1.00  0.00     0.031 C 
ATOM     49  C   UNL A   1      37.459  30.929  29.516  1.00  0.00     0.029 A 
ATOM     50  N   UNL A   1      38.918  30.544  31.166  1.00  0.00    -0.354 N 
ATOM     51  C   UNL A   1      38.973  33.030  34.703  1.00  0.00     0.074 A 
ATOM     52  C   UNL A   1      37.930  34.032  34.656  1.00  0.00     0.031 C 
ATOM     53  C   UNL A   1      38.248  29.914  29.127  1.00  0.00     0.029 A 
ATOM     54  C   UNL A   1      39.248  29.667  30.160  1.00  0.00     0.049 A 
ATOM     55  H   UNL A   1      39.388  30.575  32.030  1.00  0.00     0.167 HD
ATOM     56  C   UNL A   1      39.851  32.880  35.722  1.00  0.00     0.037 A 
ATOM     57  C   UNL A   1      40.264  28.785  30.065  1.00  0.00     0.037 A 
ATOM     58  C   UNL A   1      40.864  31.859  35.778  1.00  0.00     0.049 A 
ATOM     59  C   UNL A   1      41.234  28.658  31.209  1.00  0.00     0.074 A 
ATOM     60  C   UNL A   1      41.731  31.565  36.816  1.00  0.00     0.029 A 
ATOM     61  N   UNL A   1      41.157  30.977  34.749  1.00  0.00    -0.354 N 
ATOM     62  N   UNL A   1      41.257  29.302  32.351  1.00  0.00    -0.248 NA
ATOM     63  C   UNL A   1      42.324  27.684  31.052  1.00  0.00     0.031 C 
ATOM     64  C   UNL A   1      42.591  30.548  36.391  1.00  0.00     0.029 A 
ATOM     65  C   UNL A   1      42.223  30.169  35.112  1.00  0.00     0.049 A 
ATOM     66  H   UNL A   1      40.678  30.930  33.890  1.00  0.00     0.167 HD
ATOM     67  C   UNL A   1      42.343  28.798  33.052  1.00  0.00     0.074 A 
ATOM     68  C   UNL A   1      42.942  27.778  32.220  1.00  0.00     0.031 C 
ATOM     69  C   UNL A   1      42.807  29.154  34.274  1.00  0.00     0.037 A 
BRANCH  56  70
ATOM     70  C   UNL A   1      39.773  33.841  36.872  1.00  0.00     0.064 A 
ATOM     71  C   UNL A   1      40.417  35.086  36.839  1.00  0.00     0.173 A 
ATOM     72  C   UNL A   1      38.961  33.549  37.979  1.00  0.00     0.173 A 
ATOM     73  F   UNL A   1      41.210  35.409  35.807  1.00  0.00    -0.203 F 
ATOM     74  C   UNL A   1      40.258  36.000  37.877  1.00  0.00     0.198 A 
ATOM     75  C   UNL A   1      38.782  34.477  39.001  1.00  0.00     0.198 A 
ATOM     76  F   UNL A   1      38.318  32.375  38.055  1.00  0.00    -0.203 F 
ATOM     77  F   UNL A   1      40.902  37.175  37.837  1.00  0.00    -0.200 F 
ATOM     78  C   UNL A   1      39.432  35.701  38.951  1.00  0.00     0.200 A 
ATOM     79  F   UNL A   1      37.971  34.191  40.030  1.00  0.00    -0.200 F 
ATOM     80  F   UNL A   1      39.262  36.592  39.936  1.00  0.00    -0.200 F 
ENDBRANCH  56  70
BRANCH  57  81
ATOM     81  C   UNL A   1      40.439  27.971  28.831  1.00  0.00     0.064 A 
ATOM     82  C   UNL A   1      41.215  28.438  27.760  1.00  0.00     0.173 A 
ATOM     83  C   UNL A   1      39.800  26.732  28.680  1.00  0.00     0.173 A 
ATOM     84  F   UNL A   1      41.827  29.627  27.847  1.00  0.00    -0.203 F 
ATOM     85  C   UNL A   1      41.314  27.714  26.574  1.00  0.00     0.198 A 
ATOM     86  C   UNL A   1      39.929  25.992  27.507  1.00  0.00     0.198 A 
ATOM     87  F   UNL A   1      39.047  26.236  29.674  1.00  0.00    -0.203 F 
ATOM     88  F   UNL A   1      42.008  28.215  25.543  1.00  0.00    -0.200 F 
ATOM     89  C   UNL A   1      40.674  26.489  26.449  1.00  0.00     0.200 A 
ATOM     90  F   UNL A   1      39.321  24.802  27.397  1.00  0.00    -0.200 F 
ATOM     91  F   UNL A   1      40.766  25.796  25.307  1.00  0.00    -0.200 F 
ENDBRANCH  57  81
BRANCH  69  92
ATOM     92  C   UNL A   1      44.009  28.425  34.797  1.00  0.00     0.064 A 
ATOM     93  C   UNL A   1      45.305  28.937  34.636  1.00  0.00     0.173 A 
ATOM     94  C   UNL A   1      43.861  27.228  35.515  1.00  0.00     0.173 A 
ATOM     95  F   UNL A   1      45.502  30.069  33.943  1.00  0.00    -0.203 F 
ATOM     96  C   UNL A   1      46.409  28.270  35.159  1.00  0.00     0.198 A 
ATOM     97  C   UNL A   1      44.964  26.580  36.064  1.00  0.00     0.198 A 
ATOM     98  F   UNL A   1      42.643  26.698  35.703  1.00  0.00    -0.203 F 
ATOM     99  F   UNL A   1      47.642  28.756  34.957  1.00  0.00    -0.200 F 
ATOM    100  C   UNL A   1      46.237  27.098  35.882  1.00  0.00     0.200 A 
ATOM    101  F   UNL A   1      44.794  25.457  36.776  1.00  0.00    -0.200 F 
ATOM    102  F   UNL A   1      47.299  26.465  36.396  1.00  0.00    -0.200 F 
ENDBRANCH  69  92
ENDBRANCH  43  44
ENDBRANCH  35  38
ENDBRANCH  33  34
ENDBRANCH  32  33
ENDBRANCH  31  32
ENDBRANCH   1  31
TORSDOF 15
ENDMDL
MODEL 3
REMARK VINA RESULT:     -14.1      0.783      2.093
REMARK SMILES C[C@@H](C(=O)NCCCCNC(=O)c1ccc(-c2c3nc(c(-c4c(F)c(F)c(F)c(F)c4F)c4ccc([nH]4)c(-c4c(F)c(F)c(F)c(F)c4F)c4nc(c(-c5c(F)c(F)c(F)c(F)c5F)c5ccc2[nH]5)C=C4)C=C3)cc1)N1C(=O)/C(=C/c2ccc(-c3ccc([N+](=O)[O-])cc3Cl)o2)SC1=S
REMARK SMILES IDX 6 1 5 2 3 3 4 4 2 6 1 7 76 8 77 9 97 10 78 11 79 12 96 13
REMARK SMILES IDX 98 14 80 15 81 16 82 17 95 18 83 19 84 20 85 21 86 22 93 23
REMARK SMILES IDX 87 24 92 25 94 26 88 27 89 28 90 29 91 30 7 31 8 32 9 33
REMARK SMILES IDX 10 34 11 35 12 37 13 38 14 39 75 40 15 41 74 42 16 43 17 44
REMARK SMILES IDX 18 45 68 46 19 47 73 48 67 49 69 50 20 51 72 52 66 53 65 54
REMARK SMILES IDX 21 56 53 57 33 58 52 59 34 60 37 61 51 62 70 63 35 64 36 65
REMARK SMILES IDX 50 67 71 68 38 69 22 70 23 71 31 72 24 73 25 74 29 75 32 76
REMARK SMILES IDX 26 77 27 78 30 79 28 80 54 81 55 82 63 83 56 84 57 85 61 86
REMARK SMILES IDX 64 87 58 88 59 89 62 90 60 91 39 92 40 93 48 94 41 95 42 96
REMARK SMILES IDX 46 97 49 98 43 99 44 100 47 101 45 102
REMARK H PARENT 5 5 10 36 69 55 37 66
REMARK Flexibility Score: inf
ROOT
ATOM      1  C   UNL A   1      31.502  29.864  25.456  1.00  0.00     0.116 C 
ENDROOT
BRANCH   1   2
ATOM      2  N   UNL A   1      32.667  29.781  24.597  1.00  0.00    -0.354 N 
ATOM      3  C   UNL A   1      32.958  28.887  23.607  1.00  0.00     0.242 C 
ATOM      4  O   UNL A   1      33.962  29.114  22.927  1.00  0.00    -0.273 OA
ATOM      5  H   UNL A   1      33.350  30.473  24.750  1.00  0.00     0.163 HD
BRANCH   3   6
ATOM      6  C   UNL A   1      32.018  27.692  23.328  1.00  0.00     0.178 C 
ATOM      7  C   UNL A   1      30.583  27.874  23.822  1.00  0.00     0.042 C 
BRANCH   6   8
ATOM      8  N   UNL A   1      32.646  26.469  23.868  1.00  0.00    -0.281 N 
ATOM      9  C   UNL A   1      33.403  25.661  23.027  1.00  0.00     0.267 C 
ATOM     10  C   UNL A   1      32.453  26.002  25.151  1.00  0.00     0.149 C 
ATOM     11  O   UNL A   1      33.673  25.878  21.857  1.00  0.00    -0.268 OA
ATOM     12  C   UNL A   1      33.880  24.458  23.756  1.00  0.00     0.084 C 
ATOM     13  S   UNL A   1      33.296  24.477  25.371  1.00  0.00    -0.054 SA
ATOM     14  S   UNL A   1      31.597  26.710  26.399  1.00  0.00    -0.052 S 
ATOM     15  C   UNL A   1      34.689  23.568  23.166  1.00  0.00     0.068 C 
BRANCH  15  16
ATOM     16  C   UNL A   1      35.199  22.419  23.825  1.00  0.00     0.128 A 
ATOM     17  C   UNL A   1      36.469  22.172  24.333  1.00  0.00     0.051 A 
ATOM     18  O   UNL A   1      34.427  21.307  24.076  1.00  0.00    -0.457 OA
ATOM     19  C   UNL A   1      36.480  20.859  24.854  1.00  0.00     0.051 A 
ATOM     20  C   UNL A   1      35.216  20.357  24.646  1.00  0.00     0.136 A 
BRANCH  20  21
ATOM     21  C   UNL A   1      34.601  19.072  24.934  1.00  0.00     0.036 A 
ATOM     22  C   UNL A   1      35.395  17.917  24.813  1.00  0.00     0.020 A 
ATOM     23  C   UNL A   1      33.236  18.925  25.246  1.00  0.00     0.058 A 
ATOM     24  C   UNL A   1      34.843  16.644  24.974  1.00  0.00     0.086 A 
ATOM     25  C   UNL A   1      32.674  17.652  25.406  1.00  0.00     0.106 A 
ATOM     26  Cl  UNL A   1      32.161  20.276  25.376  1.00  0.00    -0.083 Cl
ATOM     27  C   UNL A   1      33.479  16.517  25.257  1.00  0.00     0.270 A 
BRANCH  27  28
ATOM     28  N   UNL A   1      32.883  15.181  25.366  1.00  0.00     0.062 N 
ATOM     29  O   UNL A   1      33.649  14.207  25.376  1.00  0.00    -0.258 OA
ATOM     30  O   UNL A   1      31.648  15.105  25.432  1.00  0.00    -0.258 OA
ENDBRANCH  27  28
ENDBRANCH  20  21
ENDBRANCH  15  16
ENDBRANCH   6   8
ENDBRANCH   3   6
ENDBRANCH   1   2
BRANCH   1  31
ATOM     31  C   UNL A   1      31.816  30.569  26.774  1.00  0.00     0.023 C 
BRANCH  31  32
ATOM     32  C   UNL A   1      31.403  32.042  26.828  1.00  0.00     0.023 C 
BRANCH  32  33
ATOM     33  C   UNL A   1      32.549  33.046  26.758  1.00  0.00     0.116 C 
BRANCH  33  34
ATOM     34  N   UNL A   1      32.353  34.198  27.626  1.00  0.00    -0.352 N 
ATOM     35  C   UNL A   1      33.073  34.585  28.732  1.00  0.00     0.251 C 
ATOM     36  H   UNL A   1      31.599  34.783  27.388  1.00  0.00     0.163 HD
ATOM     37  O   UNL A   1      32.689  35.520  29.426  1.00  0.00    -0.269 OA
BRANCH  35  38
ATOM     38  C   UNL A   1      34.290  33.836  29.106  1.00  0.00     0.039 A 
ATOM     39  C   UNL A   1      35.539  34.394  28.820  1.00  0.00     0.014 A 
ATOM     40  C   UNL A   1      34.199  32.615  29.779  1.00  0.00     0.014 A 
ATOM     41  C   UNL A   1      36.696  33.779  29.303  1.00  0.00     0.010 A 
ATOM     42  C   UNL A   1      35.347  32.039  30.315  1.00  0.00     0.010 A 
ATOM     43  C   UNL A   1      36.604  32.629  30.104  1.00  0.00    -0.014 A 
BRANCH  43  44
ATOM     44  C   UNL A   1      37.796  32.065  30.789  1.00  0.00     0.031 A 
ATOM     45  C   UNL A   1      38.596  30.970  30.145  1.00  0.00     0.074 A 
ATOM     46  C   UNL A   1      38.086  32.468  32.044  1.00  0.00     0.049 A 
ATOM     47  N   UNL A   1      39.580  30.264  30.642  1.00  0.00    -0.248 NA
ATOM     48  C   UNL A   1      38.230  30.603  28.768  1.00  0.00     0.031 C 
ATOM     49  C   UNL A   1      37.354  33.490  32.793  1.00  0.00     0.029 A 
ATOM     50  N   UNL A   1      39.055  32.047  32.921  1.00  0.00    -0.354 N 
ATOM     51  C   UNL A   1      39.935  29.358  29.652  1.00  0.00     0.074 A 
ATOM     52  C   UNL A   1      39.043  29.582  28.534  1.00  0.00     0.031 C 
ATOM     53  C   UNL A   1      37.895  33.616  34.015  1.00  0.00     0.029 A 
ATOM     54  C   UNL A   1      38.981  32.651  34.154  1.00  0.00     0.049 A 
ATOM     55  H   UNL A   1      39.739  31.377  32.689  1.00  0.00     0.167 HD
ATOM     56  C   UNL A   1      40.923  28.433  29.675  1.00  0.00     0.037 A 
ATOM     57  C   UNL A   1      39.685  32.428  35.282  1.00  0.00     0.037 A 
ATOM     58  C   UNL A   1      41.829  28.239  30.777  1.00  0.00     0.049 A 
ATOM     59  C   UNL A   1      40.764  31.378  35.279  1.00  0.00     0.074 A 
ATOM     60  C   UNL A   1      42.926  27.398  30.850  1.00  0.00     0.029 A 
ATOM     61  N   UNL A   1      41.735  28.882  32.001  1.00  0.00    -0.354 N 
ATOM     62  N   UNL A   1      41.155  30.597  34.301  1.00  0.00    -0.248 NA
ATOM     63  C   UNL A   1      41.499  31.175  36.536  1.00  0.00     0.031 C 
ATOM     64  C   UNL A   1      43.456  27.484  32.140  1.00  0.00     0.029 A 
ATOM     65  C   UNL A   1      42.727  28.420  32.852  1.00  0.00     0.049 A 
ATOM     66  H   UNL A   1      41.064  29.565  32.232  1.00  0.00     0.167 HD
ATOM     67  C   UNL A   1      42.190  29.829  34.818  1.00  0.00     0.074 A 
ATOM     68  C   UNL A   1      42.385  30.253  36.186  1.00  0.00     0.031 C 
ATOM     69  C   UNL A   1      42.911  28.854  34.212  1.00  0.00     0.037 A 
BRANCH  56  70
ATOM     70  C   UNL A   1      41.089  27.543  28.478  1.00  0.00     0.064 A 
ATOM     71  C   UNL A   1      40.312  26.390  28.301  1.00  0.00     0.173 A 
ATOM     72  C   UNL A   1      41.970  27.908  27.448  1.00  0.00     0.173 A 
ATOM     73  F   UNL A   1      39.462  25.995  29.260  1.00  0.00    -0.203 F 
ATOM     74  C   UNL A   1      40.418  25.628  27.141  1.00  0.00     0.198 A 
ATOM     75  C   UNL A   1      42.053  27.159  26.277  1.00  0.00     0.198 A 
ATOM     76  F   UNL A   1      42.731  29.006  27.564  1.00  0.00    -0.203 F 
ATOM     77  F   UNL A   1      39.684  24.514  27.003  1.00  0.00    -0.200 F 
ATOM     78  C   UNL A   1      41.278  26.018  26.125  1.00  0.00     0.200 A 
ATOM     79  F   UNL A   1      42.873  27.547  25.291  1.00  0.00    -0.200 F 
ATOM     80  F   UNL A   1      41.361  25.297  25.000  1.00  0.00    -0.200 F 
ENDBRANCH  56  70
BRANCH  57  81
ATOM     81  C   UNL A   1      39.377  33.191  36.523  1.00  0.00     0.064 A 
ATOM     82  C   UNL A   1      40.029  34.398  36.812  1.00  0.00     0.173 A 
ATOM     83  C   UNL A   1      38.458  32.706  37.466  1.00  0.00     0.173 A 
ATOM     84  F   UNL A   1      40.933  34.892  35.953  1.00  0.00    -0.203 F 
ATOM     85  C   UNL A   1      39.801  35.071  38.010  1.00  0.00     0.198 A 
ATOM     86  C   UNL A   1      38.204  33.398  38.648  1.00  0.00     0.198 A 
ATOM     87  F   UNL A   1      37.805  31.557  37.240  1.00  0.00    -0.203 F 
ATOM     88  F   UNL A   1      40.486  36.188  38.289  1.00  0.00    -0.200 F 
ATOM     89  C   UNL A   1      38.885  34.573  38.926  1.00  0.00     0.200 A 
ATOM     90  F   UNL A   1      37.308  32.921  39.522  1.00  0.00    -0.200 F 
ATOM     91  F   UNL A   1      38.670  35.218  40.080  1.00  0.00    -0.200 F 
ENDBRANCH  57  81
BRANCH  69  92
ATOM     92  C   UNL A   1      43.990  28.191  35.017  1.00  0.00     0.064 A 
ATOM     93  C   UNL A   1      45.285  28.725  35.086  1.00  0.00     0.173 A 
ATOM     94  C   UNL A   1      43.713  27.041  35.771  1.00  0.00     0.173 A 
ATOM     95  F   UNL A   1      45.606  29.814  34.371  1.00  0.00    -0.203 F 
ATOM     96  C   UNL A   1      46.267  28.120  35.866  1.00  0.00     0.198 A 
ATOM     97  C   UNL A   1      44.688  26.457  36.575  1.00  0.00     0.198 A 
ATOM     98  F   UNL A   1      42.488  26.493  35.744  1.00  0.00    -0.203 F 
ATOM     99  F   UNL A   1      47.510  28.624  35.885  1.00  0.00    -0.200 F 
ATOM    100  C   UNL A   1      45.966  26.995  36.618  1.00  0.00     0.200 A 
ATOM    101  F   UNL A   1      44.389  25.379  37.312  1.00  0.00    -0.200 F 
ATOM    102  F   UNL A   1      46.908  26.423  37.379  1.00  0.00    -0.200 F 
ENDBRANCH  69  92
ENDBRANCH  43  44
ENDBRANCH  35  38
ENDBRANCH  33  34
ENDBRANCH  32  33
ENDBRANCH  31  32
ENDBRANCH   1  31
TORSDOF 15
ENDMDL
