MODEL 1
REMARK VINA RESULT:     -13.7      0.000      0.000
REMARK SMILES COc1cc([C@H]2c3c(-c4ccccc4)n[nH]c3C(=O)N2c2ccc(C(=O)NCCCCNC(=O)c3ccc(-c4c5nc(c(-c6c(F)c(F)c(F)c(F)c6F)c6ccc([nH]6)c(-c6c(F)c(F)c(F)c(F)c6F)c6nc(c(-c7c(F)c(F)c(F)c(F)c7F)c7ccc4[nH]7)C=C6)C=C5)cc3)cc2)ccc1O
REMARK SMILES IDX 29 1 28 2 27 3 25 4 26 5 24 7 21 8 22 9 99 10 23 11 98 12
REMARK SMILES IDX 20 13 6 14 7 15 8 16 17 17 18 18 15 19 16 20 19 21 5 23 3 24
REMARK SMILES IDX 4 25 102 26 101 27 100 28 2 29 1 30 103 31 9 33 10 34 14 35
REMARK SMILES IDX 11 36 13 37 12 38 30 39 31 40 32 41 33 42 34 44 35 45 36 46
REMARK SMILES IDX 97 47 37 48 96 49 38 50 39 51 40 52 90 53 41 54 95 55 89 56
REMARK SMILES IDX 91 57 42 58 94 59 88 60 87 61 43 63 75 64 55 65 74 66 56 67
REMARK SMILES IDX 59 68 73 69 92 70 57 71 58 72 72 74 93 75 60 76 44 77 45 78
REMARK SMILES IDX 53 79 46 80 47 81 51 82 54 83 48 84 49 85 52 86 50 87 76 88
REMARK SMILES IDX 77 89 85 90 78 91 79 92 83 93 86 94 80 95 81 96 84 97 82 98
REMARK SMILES IDX 61 99 62 100 70 101 63 102 64 103 68 104 71 105 65 106
REMARK SMILES IDX 66 107 69 108 67 109
REMARK H PARENT 27 6 16 22 103 32 32 43 91 62 59 73
REMARK Flexibility Score: inf
ROOT
ATOM      1  C   UNL A   1      41.341  22.001  27.217  1.00  0.00     0.023 C 
ENDROOT
BRANCH   1   2
ATOM      2  C   UNL A   1      39.826  21.992  26.970  1.00  0.00     0.116 C 
BRANCH   2   3
ATOM      3  N   UNL A   1      39.454  20.998  25.983  1.00  0.00    -0.352 N 
ATOM      4  C   UNL A   1      38.279  20.703  25.336  1.00  0.00     0.251 C 
ATOM      5  O   UNL A   1      38.318  19.774  24.527  1.00  0.00    -0.269 OA
ATOM      6  H   UNL A   1      40.200  20.410  25.722  1.00  0.00     0.163 HD
BRANCH   4   7
ATOM      7  C   UNL A   1      36.999  21.454  25.517  1.00  0.00     0.039 A 
ATOM      8  C   UNL A   1      34.500  22.752  25.675  1.00  0.00     0.045 A 
ATOM      9  C   UNL A   1      34.565  21.421  25.271  1.00  0.00     0.027 A 
ATOM     10  C   UNL A   1      35.665  23.416  26.050  1.00  0.00     0.027 A 
ATOM     11  C   UNL A   1      35.811  20.790  25.161  1.00  0.00     0.016 A 
ATOM     12  C   UNL A   1      36.892  22.749  26.026  1.00  0.00     0.016 A 
BRANCH   8  13
ATOM     13  N   UNL A   1      33.274  23.421  25.744  1.00  0.00    -0.295 N 
ATOM     14  C   UNL A   1      33.106  24.822  25.263  1.00  0.00     0.156 C 
ATOM     15  C   UNL A   1      31.731  25.085  25.748  1.00  0.00     0.038 A 
ATOM     16  C   UNL A   1      30.730  26.062  25.861  1.00  0.00     0.099 A 
ATOM     17  C   UNL A   1      31.235  23.983  26.379  1.00  0.00     0.129 A 
ATOM     18  C   UNL A   1      32.136  22.885  26.381  1.00  0.00     0.277 C 
ATOM     19  N   UNL A   1      29.693  25.575  26.583  1.00  0.00    -0.174 NA
ATOM     20  N   UNL A   1      30.028  24.294  26.870  1.00  0.00    -0.272 N 
ATOM     21  O   UNL A   1      31.962  21.794  26.869  1.00  0.00    -0.267 OA
ATOM     22  H   UNL A   1      29.456  23.670  27.376  1.00  0.00     0.190 HD
BRANCH  14  23
ATOM     23  C   UNL A   1      33.108  24.923  23.750  1.00  0.00    -0.016 A 
ATOM     24  C   UNL A   1      33.435  26.305  21.737  1.00  0.00     0.160 A 
ATOM     25  C   UNL A   1      33.400  26.156  23.135  1.00  0.00     0.056 A 
ATOM     26  C   UNL A   1      33.164  25.189  20.945  1.00  0.00     0.157 A 
ATOM     27  C   UNL A   1      32.866  23.959  21.531  1.00  0.00     0.050 A 
ATOM     28  C   UNL A   1      32.854  23.821  22.919  1.00  0.00     0.010 A 
BRANCH  24  29
ATOM     29  O   UNL A   1      33.741  27.580  21.351  1.00  0.00    -0.493 OA
ATOM     30  C   UNL A   1      34.085  28.549  22.328  1.00  0.00     0.278 C 
ENDBRANCH  24  29
BRANCH  26  31
ATOM     31  O   UNL A   1      33.181  25.188  19.581  1.00  0.00    -0.504 OA
ATOM     32  H   UNL A   1      33.800  25.719  19.119  1.00  0.00     0.293 HD
ENDBRANCH  26  31
ENDBRANCH  14  23
BRANCH  16  33
ATOM     33  C   UNL A   1      30.713  27.421  25.338  1.00  0.00     0.002 A 
ATOM     34  C   UNL A   1      29.992  27.720  24.176  1.00  0.00     0.010 A 
ATOM     35  C   UNL A   1      31.446  28.433  25.967  1.00  0.00     0.010 A 
ATOM     36  C   UNL A   1      29.991  29.019  23.663  1.00  0.00     0.001 A 
ATOM     37  C   UNL A   1      31.445  29.732  25.455  1.00  0.00     0.001 A 
ATOM     38  C   UNL A   1      30.715  30.024  24.304  1.00  0.00     0.000 A 
ENDBRANCH  16  33
ENDBRANCH   8  13
ENDBRANCH   4   7
ENDBRANCH   2   3
ENDBRANCH   1   2
BRANCH   1  39
ATOM     39  C   UNL A   1      42.041  20.645  27.039  1.00  0.00     0.023 C 
BRANCH  39  40
ATOM     40  C   UNL A   1      42.237  20.210  25.592  1.00  0.00     0.116 C 
BRANCH  40  41
ATOM     41  N   UNL A   1      43.637  19.916  25.254  1.00  0.00    -0.352 N 
ATOM     42  C   UNL A   1      44.634  20.809  24.894  1.00  0.00     0.251 C 
ATOM     43  H   UNL A   1      43.899  18.967  25.289  1.00  0.00     0.163 HD
ATOM     44  O   UNL A   1      45.625  20.455  24.269  1.00  0.00    -0.269 OA
BRANCH  42  45
ATOM     45  C   UNL A   1      44.490  22.204  25.330  1.00  0.00     0.039 A 
ATOM     46  C   UNL A   1      43.667  23.135  24.689  1.00  0.00     0.014 A 
ATOM     47  C   UNL A   1      45.174  22.531  26.491  1.00  0.00     0.014 A 
ATOM     48  C   UNL A   1      43.495  24.385  25.281  1.00  0.00     0.010 A 
ATOM     49  C   UNL A   1      44.794  23.633  27.191  1.00  0.00     0.010 A 
ATOM     50  C   UNL A   1      44.061  24.616  26.543  1.00  0.00    -0.014 A 
BRANCH  50  51
ATOM     51  C   UNL A   1      43.879  25.851  27.285  1.00  0.00     0.031 A 
ATOM     52  C   UNL A   1      44.778  26.961  26.881  1.00  0.00     0.074 A 
ATOM     53  C   UNL A   1      42.789  26.035  28.066  1.00  0.00     0.049 A 
ATOM     54  N   UNL A   1      45.690  27.527  27.596  1.00  0.00    -0.248 NA
ATOM     55  C   UNL A   1      44.757  27.410  25.479  1.00  0.00     0.031 C 
ATOM     56  C   UNL A   1      41.653  25.129  28.300  1.00  0.00     0.029 A 
ATOM     57  N   UNL A   1      42.406  27.154  28.732  1.00  0.00    -0.354 N 
ATOM     58  C   UNL A   1      46.225  28.541  26.807  1.00  0.00     0.074 A 
ATOM     59  C   UNL A   1      45.753  28.299  25.468  1.00  0.00     0.031 C 
ATOM     60  C   UNL A   1      40.622  25.817  28.836  1.00  0.00     0.029 A 
ATOM     61  C   UNL A   1      41.078  27.156  29.146  1.00  0.00     0.049 A 
ATOM     62  H   UNL A   1      43.021  27.903  28.908  1.00  0.00     0.167 HD
ATOM     63  C   UNL A   1      46.807  29.632  27.375  1.00  0.00     0.037 A 
ATOM     64  C   UNL A   1      40.411  28.218  29.664  1.00  0.00     0.037 A 
ATOM     65  C   UNL A   1      47.097  29.396  28.769  1.00  0.00     0.049 A 
ATOM     66  C   UNL A   1      41.446  29.169  30.160  1.00  0.00     0.074 A 
ATOM     67  C   UNL A   1      47.860  28.464  29.448  1.00  0.00     0.029 A 
ATOM     68  N   UNL A   1      46.236  29.917  29.706  1.00  0.00    -0.354 N 
ATOM     69  N   UNL A   1      42.239  28.899  31.163  1.00  0.00    -0.248 NA
ATOM     70  C   UNL A   1      41.945  30.163  29.217  1.00  0.00     0.031 C 
ATOM     71  C   UNL A   1      47.067  28.102  30.579  1.00  0.00     0.029 A 
ATOM     72  C   UNL A   1      45.923  28.901  30.573  1.00  0.00     0.049 A 
ATOM     73  H   UNL A   1      45.905  30.844  29.747  1.00  0.00     0.167 HD
ATOM     74  C   UNL A   1      43.488  29.351  30.760  1.00  0.00     0.074 A 
ATOM     75  C   UNL A   1      43.233  30.169  29.573  1.00  0.00     0.031 C 
ATOM     76  C   UNL A   1      44.639  28.777  31.222  1.00  0.00     0.037 A 
BRANCH  63  77
ATOM     77  C   UNL A   1      46.768  31.025  26.797  1.00  0.00     0.064 A 
ATOM     78  C   UNL A   1      47.949  31.794  26.792  1.00  0.00     0.173 A 
ATOM     79  C   UNL A   1      45.577  31.738  26.542  1.00  0.00     0.173 A 
ATOM     80  F   UNL A   1      49.138  31.221  27.034  1.00  0.00    -0.203 F 
ATOM     81  C   UNL A   1      47.925  33.182  26.639  1.00  0.00     0.198 A 
ATOM     82  C   UNL A   1      45.564  33.116  26.334  1.00  0.00     0.198 A 
ATOM     83  F   UNL A   1      44.372  31.161  26.599  1.00  0.00    -0.203 F 
ATOM     84  F   UNL A   1      49.057  33.886  26.778  1.00  0.00    -0.200 F 
ATOM     85  C   UNL A   1      46.731  33.843  26.419  1.00  0.00     0.200 A 
ATOM     86  F   UNL A   1      44.393  33.740  26.139  1.00  0.00    -0.200 F 
ATOM     87  F   UNL A   1      46.696  35.180  26.340  1.00  0.00    -0.200 F 
ENDBRANCH  63  77
BRANCH  64  88
ATOM     88  C   UNL A   1      38.995  28.600  29.436  1.00  0.00     0.064 A 
ATOM     89  C   UNL A   1      38.105  28.786  30.506  1.00  0.00     0.173 A 
ATOM     90  C   UNL A   1      38.552  29.048  28.174  1.00  0.00     0.173 A 
ATOM     91  F   UNL A   1      38.463  28.430  31.749  1.00  0.00    -0.203 F 
ATOM     92  C   UNL A   1      36.858  29.397  30.329  1.00  0.00     0.198 A 
ATOM     93  C   UNL A   1      37.307  29.653  27.997  1.00  0.00     0.198 A 
ATOM     94  F   UNL A   1      39.354  28.988  27.101  1.00  0.00    -0.203 F 
ATOM     95  F   UNL A   1      36.057  29.605  31.384  1.00  0.00    -0.200 F 
ATOM     96  C   UNL A   1      36.464  29.839  29.077  1.00  0.00     0.200 A 
ATOM     97  F   UNL A   1      36.954  30.106  26.785  1.00  0.00    -0.200 F 
ATOM     98  F   UNL A   1      35.294  30.475  28.915  1.00  0.00    -0.200 F 
ENDBRANCH  64  88
BRANCH  76  99
ATOM     99  C   UNL A   1      44.539  27.766  32.333  1.00  0.00     0.064 A 
ATOM    100  C   UNL A   1      44.362  28.097  33.689  1.00  0.00     0.173 A 
ATOM    101  C   UNL A   1      44.444  26.411  31.992  1.00  0.00     0.173 A 
ATOM    102  F   UNL A   1      44.331  29.372  34.088  1.00  0.00    -0.203 F 
ATOM    103  C   UNL A   1      44.142  27.118  34.657  1.00  0.00     0.198 A 
ATOM    104  C   UNL A   1      44.189  25.436  32.955  1.00  0.00     0.198 A 
ATOM    105  F   UNL A   1      44.542  26.034  30.708  1.00  0.00    -0.203 F 
ATOM    106  F   UNL A   1      43.981  27.468  35.942  1.00  0.00    -0.200 F 
ATOM    107  C   UNL A   1      44.048  25.789  34.287  1.00  0.00     0.200 A 
ATOM    108  F   UNL A   1      44.046  24.157  32.584  1.00  0.00    -0.200 F 
ATOM    109  F   UNL A   1      43.795  24.849  35.210  1.00  0.00    -0.200 F 
ENDBRANCH  76  99
ENDBRANCH  50  51
ENDBRANCH  42  45
ENDBRANCH  40  41
ENDBRANCH  39  40
ENDBRANCH   1  39
TORSDOF 16
ENDMDL
MODEL 2
REMARK VINA RESULT:     -13.3      2.151      3.025
REMARK SMILES COc1cc([C@H]2c3c(-c4ccccc4)n[nH]c3C(=O)N2c2ccc(C(=O)NCCCCNC(=O)c3ccc(-c4c5nc(c(-c6c(F)c(F)c(F)c(F)c6F)c6ccc([nH]6)c(-c6c(F)c(F)c(F)c(F)c6F)c6nc(c(-c7c(F)c(F)c(F)c(F)c7F)c7ccc4[nH]7)C=C6)C=C5)cc3)cc2)ccc1O
REMARK SMILES IDX 29 1 28 2 27 3 25 4 26 5 24 7 21 8 22 9 99 10 23 11 98 12
REMARK SMILES IDX 20 13 6 14 7 15 8 16 17 17 18 18 15 19 16 20 19 21 5 23 3 24
REMARK SMILES IDX 4 25 102 26 101 27 100 28 2 29 1 30 103 31 9 33 10 34 14 35
REMARK SMILES IDX 11 36 13 37 12 38 30 39 31 40 32 41 33 42 34 44 35 45 36 46
REMARK SMILES IDX 97 47 37 48 96 49 38 50 39 51 40 52 90 53 41 54 95 55 89 56
REMARK SMILES IDX 91 57 42 58 94 59 88 60 87 61 43 63 75 64 55 65 74 66 56 67
REMARK SMILES IDX 59 68 73 69 92 70 57 71 58 72 72 74 93 75 60 76 44 77 45 78
REMARK SMILES IDX 53 79 46 80 47 81 51 82 54 83 48 84 49 85 52 86 50 87 76 88
REMARK SMILES IDX 77 89 85 90 78 91 79 92 83 93 86 94 80 95 81 96 84 97 82 98
REMARK SMILES IDX 61 99 62 100 70 101 63 102 64 103 68 104 71 105 65 106
REMARK SMILES IDX 66 107 69 108 67 109
REMARK H PARENT 27 6 16 22 103 32 32 43 91 62 59 73
REMARK Flexibility Score: inf
ROOT
ATOM      1  C   UNL A   1      40.520  21.068  26.883  1.00  0.00     0.023 C 
ENDROOT
BRANCH   1   2
ATOM      2  C   UNL A   1      39.378  21.448  25.932  1.00  0.00     0.116 C 
BRANCH   2   3
ATOM      3  N   UNL A   1      38.758  20.275  25.348  1.00  0.00    -0.352 N 
ATOM      4  C   UNL A   1      37.459  19.936  25.059  1.00  0.00     0.251 C 
ATOM      5  O   UNL A   1      37.283  18.832  24.540  1.00  0.00    -0.269 OA
ATOM      6  H   UNL A   1      39.406  19.572  25.109  1.00  0.00     0.163 HD
BRANCH   4   7
ATOM      7  C   UNL A   1      36.280  20.826  25.288  1.00  0.00     0.039 A 
ATOM      8  C   UNL A   1      33.962  22.414  25.525  1.00  0.00     0.045 A 
ATOM      9  C   UNL A   1      33.869  21.127  25.002  1.00  0.00     0.027 A 
ATOM     10  C   UNL A   1      35.190  22.888  25.978  1.00  0.00     0.027 A 
ATOM     11  C   UNL A   1      35.028  20.354  24.854  1.00  0.00     0.016 A 
ATOM     12  C   UNL A   1      36.324  22.074  25.912  1.00  0.00     0.016 A 
BRANCH   8  13
ATOM     13  N   UNL A   1      32.828  23.226  25.636  1.00  0.00    -0.295 N 
ATOM     14  C   UNL A   1      32.860  24.682  25.315  1.00  0.00     0.156 C 
ATOM     15  C   UNL A   1      31.509  25.067  25.787  1.00  0.00     0.038 A 
ATOM     16  C   UNL A   1      30.637  26.148  25.984  1.00  0.00     0.099 A 
ATOM     17  C   UNL A   1      30.852  23.977  26.274  1.00  0.00     0.129 A 
ATOM     18  C   UNL A   1      31.606  22.776  26.175  1.00  0.00     0.277 C 
ATOM     19  N   UNL A   1      29.516  25.724  26.616  1.00  0.00    -0.174 NA
ATOM     20  N   UNL A   1      29.673  24.386  26.763  1.00  0.00    -0.272 N 
ATOM     21  O   UNL A   1      31.274  21.671  26.530  1.00  0.00    -0.267 OA
ATOM     22  H   UNL A   1      29.006  23.791  27.178  1.00  0.00     0.190 HD
BRANCH  14  23
ATOM     23  C   UNL A   1      32.939  24.948  23.824  1.00  0.00    -0.016 A 
ATOM     24  C   UNL A   1      33.486  26.503  21.993  1.00  0.00     0.160 A 
ATOM     25  C   UNL A   1      33.373  26.205  23.363  1.00  0.00     0.056 A 
ATOM     26  C   UNL A   1      33.146  25.513  21.071  1.00  0.00     0.157 A 
ATOM     27  C   UNL A   1      32.706  24.261  21.503  1.00  0.00     0.050 A 
ATOM     28  C   UNL A   1      32.619  23.973  22.864  1.00  0.00     0.010 A 
BRANCH  24  29
ATOM     29  O   UNL A   1      33.927  27.776  21.765  1.00  0.00    -0.493 OA
ATOM     30  C   UNL A   1      34.008  28.697  22.841  1.00  0.00     0.278 C 
ENDBRANCH  24  29
BRANCH  26  31
ATOM     31  O   UNL A   1      33.224  25.660  19.716  1.00  0.00    -0.504 OA
ATOM     32  H   UNL A   1      34.059  25.758  19.303  1.00  0.00     0.293 HD
ENDBRANCH  26  31
ENDBRANCH  14  23
BRANCH  16  33
ATOM     33  C   UNL A   1      30.814  27.546  25.620  1.00  0.00     0.002 A 
ATOM     34  C   UNL A   1      30.315  28.027  24.404  1.00  0.00     0.010 A 
ATOM     35  C   UNL A   1      31.517  28.416  26.461  1.00  0.00     0.010 A 
ATOM     36  C   UNL A   1      30.501  29.364  24.045  1.00  0.00     0.001 A 
ATOM     37  C   UNL A   1      31.704  29.752  26.104  1.00  0.00     0.001 A 
ATOM     38  C   UNL A   1      31.193  30.226  24.897  1.00  0.00     0.000 A 
ENDBRANCH  16  33
ENDBRANCH   8  13
ENDBRANCH   4   7
ENDBRANCH   2   3
ENDBRANCH   1   2
BRANCH   1  39
ATOM     39  C   UNL A   1      40.789  22.071  28.016  1.00  0.00     0.023 C 
BRANCH  39  40
ATOM     40  C   UNL A   1      42.242  22.507  28.155  1.00  0.00     0.116 C 
BRANCH  40  41
ATOM     41  N   UNL A   1      42.963  22.558  26.875  1.00  0.00    -0.352 N 
ATOM     42  C   UNL A   1      42.977  23.584  25.944  1.00  0.00     0.251 C 
ATOM     43  H   UNL A   1      43.502  21.765  26.652  1.00  0.00     0.163 HD
ATOM     44  O   UNL A   1      43.271  23.391  24.771  1.00  0.00    -0.269 OA
BRANCH  42  45
ATOM     45  C   UNL A   1      42.671  24.940  26.419  1.00  0.00     0.039 A 
ATOM     46  C   UNL A   1      41.468  25.601  26.151  1.00  0.00     0.014 A 
ATOM     47  C   UNL A   1      43.636  25.510  27.236  1.00  0.00     0.014 A 
ATOM     48  C   UNL A   1      41.231  26.823  26.779  1.00  0.00     0.010 A 
ATOM     49  C   UNL A   1      43.288  26.548  28.041  1.00  0.00     0.010 A 
ATOM     50  C   UNL A   1      42.151  27.280  27.732  1.00  0.00    -0.014 A 
BRANCH  50  51
ATOM     51  C   UNL A   1      41.964  28.497  28.503  1.00  0.00     0.031 A 
ATOM     52  C   UNL A   1      42.938  29.578  28.210  1.00  0.00     0.074 A 
ATOM     53  C   UNL A   1      40.825  28.704  29.204  1.00  0.00     0.049 A 
ATOM     54  N   UNL A   1      43.815  30.078  29.013  1.00  0.00    -0.248 NA
ATOM     55  C   UNL A   1      43.047  30.073  26.828  1.00  0.00     0.031 C 
ATOM     56  C   UNL A   1      39.637  27.843  29.317  1.00  0.00     0.029 A 
ATOM     57  N   UNL A   1      40.439  29.816  29.879  1.00  0.00    -0.354 N 
ATOM     58  C   UNL A   1      44.453  31.092  28.305  1.00  0.00     0.074 A 
ATOM     59  C   UNL A   1      44.077  30.917  26.927  1.00  0.00     0.031 C 
ATOM     60  C   UNL A   1      38.597  28.559  29.796  1.00  0.00     0.029 A 
ATOM     61  C   UNL A   1      39.083  29.865  30.190  1.00  0.00     0.049 A 
ATOM     62  H   UNL A   1      41.069  30.531  30.129  1.00  0.00     0.167 HD
ATOM     63  C   UNL A   1      45.034  32.137  28.956  1.00  0.00     0.037 A 
ATOM     64  C   UNL A   1      38.424  30.939  30.693  1.00  0.00     0.037 A 
ATOM     65  C   UNL A   1      45.203  31.842  30.358  1.00  0.00     0.049 A 
ATOM     66  C   UNL A   1      39.456  31.824  31.301  1.00  0.00     0.074 A 
ATOM     67  C   UNL A   1      45.870  30.855  31.060  1.00  0.00     0.029 A 
ATOM     68  N   UNL A   1      44.294  32.371  31.245  1.00  0.00    -0.354 N 
ATOM     69  N   UNL A   1      40.156  31.486  32.352  1.00  0.00    -0.248 NA
ATOM     70  C   UNL A   1      40.069  32.825  30.436  1.00  0.00     0.031 C 
ATOM     71  C   UNL A   1      44.977  30.492  32.113  1.00  0.00     0.029 A 
ATOM     72  C   UNL A   1      43.871  31.341  32.048  1.00  0.00     0.049 A 
ATOM     73  H   UNL A   1      44.001  33.310  31.294  1.00  0.00     0.167 HD
ATOM     74  C   UNL A   1      41.451  31.894  32.063  1.00  0.00     0.074 A 
ATOM     75  C   UNL A   1      41.325  32.761  30.891  1.00  0.00     0.031 C 
ATOM     76  C   UNL A   1      42.536  31.254  32.591  1.00  0.00     0.037 A 
BRANCH  63  77
ATOM     77  C   UNL A   1      45.099  33.549  28.428  1.00  0.00     0.064 A 
ATOM     78  C   UNL A   1      46.357  34.173  28.307  1.00  0.00     0.173 A 
ATOM     79  C   UNL A   1      43.983  34.407  28.336  1.00  0.00     0.173 A 
ATOM     80  F   UNL A   1      47.487  33.454  28.390  1.00  0.00    -0.203 F 
ATOM     81  C   UNL A   1      46.486  35.560  28.198  1.00  0.00     0.198 A 
ATOM     82  C   UNL A   1      44.114  35.785  28.172  1.00  0.00     0.198 A 
ATOM     83  F   UNL A   1      42.731  33.974  28.517  1.00  0.00    -0.203 F 
ATOM     84  F   UNL A   1      47.703  36.119  28.224  1.00  0.00    -0.200 F 
ATOM     85  C   UNL A   1      45.364  36.365  28.140  1.00  0.00     0.200 A 
ATOM     86  F   UNL A   1      43.014  36.550  28.134  1.00  0.00    -0.200 F 
ATOM     87  F   UNL A   1      45.483  37.699  28.106  1.00  0.00    -0.200 F 
ENDBRANCH  63  77
BRANCH  64  88
ATOM     88  C   UNL A   1      37.048  31.391  30.370  1.00  0.00     0.064 A 
ATOM     89  C   UNL A   1      36.214  31.955  31.350  1.00  0.00     0.173 A 
ATOM     90  C   UNL A   1      36.614  31.522  29.035  1.00  0.00     0.173 A 
ATOM     91  F   UNL A   1      36.571  31.916  32.642  1.00  0.00    -0.203 F 
ATOM     92  C   UNL A   1      35.030  32.623  31.013  1.00  0.00     0.198 A 
ATOM     93  C   UNL A   1      35.432  32.185  28.700  1.00  0.00     0.198 A 
ATOM     94  F   UNL A   1      37.373  31.087  28.018  1.00  0.00    -0.203 F 
ATOM     95  F   UNL A   1      34.287  33.195  31.972  1.00  0.00    -0.200 F 
ATOM     96  C   UNL A   1      34.645  32.746  29.688  1.00  0.00     0.200 A 
ATOM     97  F   UNL A   1      35.090  32.324  27.411  1.00  0.00    -0.200 F 
ATOM     98  F   UNL A   1      33.542  33.434  29.360  1.00  0.00    -0.200 F 
ENDBRANCH  64  88
BRANCH  76  99
ATOM     99  C   UNL A   1      42.307  30.212  33.653  1.00  0.00     0.064 A 
ATOM    100  C   UNL A   1      42.095  28.847  33.387  1.00  0.00     0.173 A 
ATOM    101  C   UNL A   1      42.482  30.579  34.993  1.00  0.00     0.173 A 
ATOM    102  F   UNL A   1      42.024  28.392  32.133  1.00  0.00    -0.203 F 
ATOM    103  C   UNL A   1      42.021  27.906  34.414  1.00  0.00     0.198 A 
ATOM    104  C   UNL A   1      42.443  29.633  36.015  1.00  0.00     0.198 A 
ATOM    105  F   UNL A   1      42.748  31.855  35.309  1.00  0.00    -0.203 F 
ATOM    106  F   UNL A   1      41.814  26.612  34.126  1.00  0.00    -0.200 F 
ATOM    107  C   UNL A   1      42.203  28.299  35.727  1.00  0.00     0.200 A 
ATOM    108  F   UNL A   1      42.672  30.011  37.280  1.00  0.00    -0.200 F 
ATOM    109  F   UNL A   1      42.174  27.390  36.713  1.00  0.00    -0.200 F 
ENDBRANCH  76  99
ENDBRANCH  50  51
ENDBRANCH  42  45
ENDBRANCH  40  41
ENDBRANCH  39  40
ENDBRANCH   1  39
TORSDOF 16
ENDMDL
MODEL 3
REMARK VINA RESULT:     -12.8      3.384      8.678
REMARK SMILES COc1cc([C@H]2c3c(-c4ccccc4)n[nH]c3C(=O)N2c2ccc(C(=O)NCCCCNC(=O)c3ccc(-c4c5nc(c(-c6c(F)c(F)c(F)c(F)c6F)c6ccc([nH]6)c(-c6c(F)c(F)c(F)c(F)c6F)c6nc(c(-c7c(F)c(F)c(F)c(F)c7F)c7ccc4[nH]7)C=C6)C=C5)cc3)cc2)ccc1O
REMARK SMILES IDX 29 1 28 2 27 3 25 4 26 5 24 7 21 8 22 9 99 10 23 11 98 12
REMARK SMILES IDX 20 13 6 14 7 15 8 16 17 17 18 18 15 19 16 20 19 21 5 23 3 24
REMARK SMILES IDX 4 25 102 26 101 27 100 28 2 29 1 30 103 31 9 33 10 34 14 35
REMARK SMILES IDX 11 36 13 37 12 38 30 39 31 40 32 41 33 42 34 44 35 45 36 46
REMARK SMILES IDX 97 47 37 48 96 49 38 50 39 51 40 52 90 53 41 54 95 55 89 56
REMARK SMILES IDX 91 57 42 58 94 59 88 60 87 61 43 63 75 64 55 65 74 66 56 67
REMARK SMILES IDX 59 68 73 69 92 70 57 71 58 72 72 74 93 75 60 76 44 77 45 78
REMARK SMILES IDX 53 79 46 80 47 81 51 82 54 83 48 84 49 85 52 86 50 87 76 88
REMARK SMILES IDX 77 89 85 90 78 91 79 92 83 93 86 94 80 95 81 96 84 97 82 98
REMARK SMILES IDX 61 99 62 100 70 101 63 102 64 103 68 104 71 105 65 106
REMARK SMILES IDX 66 107 69 108 67 109
REMARK H PARENT 27 6 16 22 103 32 32 43 91 62 59 73
REMARK Flexibility Score: inf
ROOT
ATOM      1  C   UNL A   1      36.782  31.581  29.810  1.00  0.00     0.023 C 
ENDROOT
BRANCH   1   2
ATOM      2  C   UNL A   1      35.539  30.793  29.376  1.00  0.00     0.116 C 
BRANCH   2   3
ATOM      3  N   UNL A   1      34.489  31.672  28.902  1.00  0.00    -0.352 N 
ATOM      4  C   UNL A   1      33.635  31.632  27.828  1.00  0.00     0.251 C 
ATOM      5  O   UNL A   1      32.835  32.564  27.728  1.00  0.00    -0.269 OA
ATOM      6  H   UNL A   1      34.363  32.468  29.469  1.00  0.00     0.163 HD
BRANCH   4   7
ATOM      7  C   UNL A   1      33.586  30.524  26.825  1.00  0.00     0.039 A 
ATOM      8  C   UNL A   1      33.261  28.439  24.954  1.00  0.00     0.045 A 
ATOM      9  C   UNL A   1      32.309  29.452  25.035  1.00  0.00     0.027 A 
ATOM     10  C   UNL A   1      34.396  28.493  25.760  1.00  0.00     0.027 A 
ATOM     11  C   UNL A   1      32.456  30.467  25.988  1.00  0.00     0.016 A 
ATOM     12  C   UNL A   1      34.579  29.560  26.643  1.00  0.00     0.016 A 
BRANCH   8  13
ATOM     13  N   UNL A   1      33.113  27.386  24.045  1.00  0.00    -0.295 N 
ATOM     14  C   UNL A   1      33.190  25.958  24.466  1.00  0.00     0.156 C 
ATOM     15  C   UNL A   1      33.175  25.308  23.135  1.00  0.00     0.038 A 
ATOM     16  C   UNL A   1      33.269  24.078  22.466  1.00  0.00     0.099 A 
ATOM     17  C   UNL A   1      33.088  26.249  22.152  1.00  0.00     0.129 A 
ATOM     18  C   UNL A   1      33.005  27.577  22.653  1.00  0.00     0.277 C 
ATOM     19  N   UNL A   1      33.291  24.284  21.128  1.00  0.00    -0.174 NA
ATOM     20  N   UNL A   1      33.161  25.623  20.970  1.00  0.00    -0.272 N 
ATOM     21  O   UNL A   1      32.925  28.598  22.013  1.00  0.00    -0.267 OA
ATOM     22  H   UNL A   1      33.126  26.079  20.097  1.00  0.00     0.190 HD
BRANCH  14  23
ATOM     23  C   UNL A   1      31.960  25.509  25.231  1.00  0.00    -0.016 A 
ATOM     24  C   UNL A   1      30.953  23.977  26.878  1.00  0.00     0.160 A 
ATOM     25  C   UNL A   1      32.054  24.425  26.126  1.00  0.00     0.056 A 
ATOM     26  C   UNL A   1      29.731  24.632  26.717  1.00  0.00     0.157 A 
ATOM     27  C   UNL A   1      29.612  25.704  25.832  1.00  0.00     0.050 A 
ATOM     28  C   UNL A   1      30.717  26.150  25.108  1.00  0.00     0.010 A 
BRANCH  24  29
ATOM     29  O   UNL A   1      31.262  22.918  27.684  1.00  0.00    -0.493 OA
ATOM     30  C   UNL A   1      32.588  22.416  27.711  1.00  0.00     0.278 C 
ENDBRANCH  24  29
BRANCH  26  31
ATOM     31  O   UNL A   1      28.590  24.314  27.393  1.00  0.00    -0.504 OA
ATOM     32  H   UNL A   1      27.793  24.164  26.923  1.00  0.00     0.293 HD
ENDBRANCH  26  31
ENDBRANCH  14  23
BRANCH  16  33
ATOM     33  C   UNL A   1      33.351  22.736  23.024  1.00  0.00     0.002 A 
ATOM     34  C   UNL A   1      32.375  21.782  22.715  1.00  0.00     0.010 A 
ATOM     35  C   UNL A   1      34.383  22.396  23.907  1.00  0.00     0.010 A 
ATOM     36  C   UNL A   1      32.443  20.500  23.265  1.00  0.00     0.001 A 
ATOM     37  C   UNL A   1      34.452  21.115  24.457  1.00  0.00     0.001 A 
ATOM     38  C   UNL A   1      33.483  20.167  24.134  1.00  0.00     0.000 A 
ENDBRANCH  16  33
ENDBRANCH   8  13
ENDBRANCH   4   7
ENDBRANCH   2   3
ENDBRANCH   1   2
BRANCH   1  39
ATOM     39  C   UNL A   1      36.838  33.036  29.319  1.00  0.00     0.023 C 
BRANCH  39  40
ATOM     40  C   UNL A   1      38.243  33.591  29.116  1.00  0.00     0.116 C 
BRANCH  40  41
ATOM     41  N   UNL A   1      38.851  34.109  30.349  1.00  0.00    -0.352 N 
ATOM     42  C   UNL A   1      39.599  33.417  31.288  1.00  0.00     0.251 C 
ATOM     43  H   UNL A   1      38.711  35.067  30.530  1.00  0.00     0.163 HD
ATOM     44  O   UNL A   1      39.726  33.817  32.438  1.00  0.00    -0.269 OA
BRANCH  42  45
ATOM     45  C   UNL A   1      40.285  32.195  30.848  1.00  0.00     0.039 A 
ATOM     46  C   UNL A   1      41.546  32.190  30.242  1.00  0.00     0.014 A 
ATOM     47  C   UNL A   1      39.628  31.010  31.146  1.00  0.00     0.014 A 
ATOM     48  C   UNL A   1      42.161  30.962  30.005  1.00  0.00     0.010 A 
ATOM     49  C   UNL A   1      40.336  29.850  31.161  1.00  0.00     0.010 A 
ATOM     50  C   UNL A   1      41.543  29.796  30.480  1.00  0.00    -0.014 A 
BRANCH  50  51
ATOM     51  C   UNL A   1      42.132  28.474  30.358  1.00  0.00     0.031 A 
ATOM     52  C   UNL A   1      42.730  27.940  31.608  1.00  0.00     0.074 A 
ATOM     53  C   UNL A   1      41.888  27.705  29.273  1.00  0.00     0.049 A 
ATOM     54  N   UNL A   1      43.972  27.669  31.826  1.00  0.00    -0.248 NA
ATOM     55  C   UNL A   1      41.876  27.814  32.801  1.00  0.00     0.031 C 
ATOM     56  C   UNL A   1      41.044  27.994  28.103  1.00  0.00     0.029 A 
ATOM     57  N   UNL A   1      42.259  26.418  29.048  1.00  0.00    -0.354 N 
ATOM     58  C   UNL A   1      44.033  27.147  33.115  1.00  0.00     0.074 A 
ATOM     59  C   UNL A   1      42.762  27.437  33.725  1.00  0.00     0.031 C 
ATOM     60  C   UNL A   1      40.776  26.850  27.437  1.00  0.00     0.029 A 
ATOM     61  C   UNL A   1      41.565  25.785  28.021  1.00  0.00     0.049 A 
ATOM     62  H   UNL A   1      42.964  25.971  29.570  1.00  0.00     0.167 HD
ATOM     63  C   UNL A   1      45.037  26.303  33.477  1.00  0.00     0.037 A 
ATOM     64  C   UNL A   1      41.621  24.463  27.725  1.00  0.00     0.037 A 
ATOM     65  C   UNL A   1      46.122  26.352  32.528  1.00  0.00     0.049 A 
ATOM     66  C   UNL A   1      42.881  23.945  28.330  1.00  0.00     0.074 A 
ATOM     67  C   UNL A   1      46.949  27.358  32.063  1.00  0.00     0.029 A 
ATOM     68  N   UNL A   1      46.211  25.345  31.595  1.00  0.00    -0.354 N 
ATOM     69  N   UNL A   1      44.068  24.310  27.924  1.00  0.00    -0.248 NA
ATOM     70  C   UNL A   1      42.810  23.457  29.702  1.00  0.00     0.031 C 
ATOM     71  C   UNL A   1      47.049  27.125  30.658  1.00  0.00     0.029 A 
ATOM     72  C   UNL A   1      46.363  25.945  30.370  1.00  0.00     0.049 A 
ATOM     73  H   UNL A   1      46.172  24.377  31.771  1.00  0.00     0.167 HD
ATOM     74  C   UNL A   1      44.798  24.504  29.089  1.00  0.00     0.074 A 
ATOM     75  C   UNL A   1      43.984  23.911  30.152  1.00  0.00     0.031 C 
ATOM     76  C   UNL A   1      45.832  25.396  29.144  1.00  0.00     0.037 A 
BRANCH  63  77
ATOM     77  C   UNL A   1      44.890  25.165  34.457  1.00  0.00     0.064 A 
ATOM     78  C   UNL A   1      45.549  25.248  35.701  1.00  0.00     0.173 A 
ATOM     79  C   UNL A   1      44.401  23.888  34.113  1.00  0.00     0.173 A 
ATOM     80  F   UNL A   1      46.063  26.413  36.125  1.00  0.00    -0.203 F 
ATOM     81  C   UNL A   1      45.782  24.119  36.489  1.00  0.00     0.198 A 
ATOM     82  C   UNL A   1      44.588  22.773  34.928  1.00  0.00     0.198 A 
ATOM     83  F   UNL A   1      43.832  23.636  32.929  1.00  0.00    -0.203 F 
ATOM     84  F   UNL A   1      46.531  24.223  37.596  1.00  0.00    -0.200 F 
ATOM     85  C   UNL A   1      45.309  22.881  36.098  1.00  0.00     0.200 A 
ATOM     86  F   UNL A   1      44.135  21.578  34.522  1.00  0.00    -0.200 F 
ATOM     87  F   UNL A   1      45.589  21.785  36.816  1.00  0.00    -0.200 F 
ENDBRANCH  63  77
BRANCH  64  88
ATOM     88  C   UNL A   1      40.512  23.586  27.275  1.00  0.00     0.064 A 
ATOM     89  C   UNL A   1      39.248  24.109  26.958  1.00  0.00     0.173 A 
ATOM     90  C   UNL A   1      40.745  22.248  26.892  1.00  0.00     0.173 A 
ATOM     91  F   UNL A   1      38.956  25.386  27.245  1.00  0.00    -0.203 F 
ATOM     92  C   UNL A   1      38.283  23.347  26.286  1.00  0.00     0.198 A 
ATOM     93  C   UNL A   1      39.782  21.489  26.225  1.00  0.00     0.198 A 
ATOM     94  F   UNL A   1      41.944  21.678  27.078  1.00  0.00    -0.203 F 
ATOM     95  F   UNL A   1      37.106  23.898  25.954  1.00  0.00    -0.200 F 
ATOM     96  C   UNL A   1      38.554  22.042  25.911  1.00  0.00     0.200 A 
ATOM     97  F   UNL A   1      40.071  20.238  25.840  1.00  0.00    -0.200 F 
ATOM     98  F   UNL A   1      37.654  21.331  25.218  1.00  0.00    -0.200 F 
ENDBRANCH  64  88
BRANCH  76  99
ATOM     99  C   UNL A   1      46.300  26.030  27.862  1.00  0.00     0.064 A 
ATOM    100  C   UNL A   1      45.825  27.259  27.369  1.00  0.00     0.173 A 
ATOM    101  C   UNL A   1      47.394  25.459  27.199  1.00  0.00     0.173 A 
ATOM    102  F   UNL A   1      44.857  27.927  28.003  1.00  0.00    -0.203 F 
ATOM    103  C   UNL A   1      46.391  27.863  26.247  1.00  0.00     0.198 A 
ATOM    104  C   UNL A   1      47.980  26.080  26.099  1.00  0.00     0.198 A 
ATOM    105  F   UNL A   1      47.934  24.318  27.655  1.00  0.00    -0.203 F 
ATOM    106  F   UNL A   1      45.911  29.034  25.800  1.00  0.00    -0.200 F 
ATOM    107  C   UNL A   1      47.472  27.276  25.616  1.00  0.00     0.200 A 
ATOM    108  F   UNL A   1      49.061  25.535  25.525  1.00  0.00    -0.200 F 
ATOM    109  F   UNL A   1      48.045  27.876  24.562  1.00  0.00    -0.200 F 
ENDBRANCH  76  99
ENDBRANCH  50  51
ENDBRANCH  42  45
ENDBRANCH  40  41
ENDBRANCH  39  40
ENDBRANCH   1  39
TORSDOF 16
ENDMDL
