MODEL 1
REMARK VINA RESULT:     -12.5      0.000      0.000
REMARK SMILES O=C(NCCCCNC(=O)c1ccc(CNC(=O)c2cccnc2)o1)c1ccc(-c2c3nc(c(-c4c(F)c(F)c(F)c(F)c4F)c4ccc([nH]4)c(-c4c(F)c(F)c(F)c(F)c4F)c4nc(c(-c5c(F)c(F)c(F)c(F)c5F)c5ccc2[nH]5)C=C4)C=C3)cc1
REMARK SMILES IDX 6 1 5 2 4 3 3 4 1 5 2 6 26 8 27 9 88 10 28 11 87 12 29 13
REMARK SMILES IDX 30 14 31 15 81 16 32 17 86 18 80 19 82 20 33 21 85 22 79 23
REMARK SMILES IDX 78 24 34 26 66 27 46 28 65 29 47 30 50 31 64 32 83 33 48 34
REMARK SMILES IDX 49 35 63 37 84 38 51 39 35 40 36 41 44 42 37 43 38 44 42 45
REMARK SMILES IDX 45 46 39 47 40 48 43 49 41 50 67 51 68 52 76 53 69 54 70 55
REMARK SMILES IDX 74 56 77 57 71 58 72 59 75 60 73 61 52 62 53 63 61 64 54 65
REMARK SMILES IDX 55 66 59 67 62 68 56 69 57 70 60 71 58 72 7 73 8 74 9 75
REMARK SMILES IDX 10 77 11 78 12 79 25 80 13 81 14 82 15 83 16 84 17 85 18 87
REMARK SMILES IDX 19 88 20 89 24 90 21 91 23 92 22 93
REMARK H PARENT 3 7 82 25 50 36 8 76 16 86
REMARK Flexibility Score: inf
ROOT
ATOM      1  C   UNL A   1      31.476  31.155  26.139  1.00  0.00     0.023 C 
ENDROOT
BRANCH   1   2
ATOM      2  C   UNL A   1      31.426  32.635  26.519  1.00  0.00     0.023 C 
BRANCH   2   3
ATOM      3  C   UNL A   1      32.633  33.154  27.291  1.00  0.00     0.116 C 
BRANCH   3   4
ATOM      4  N   UNL A   1      32.459  34.516  27.770  1.00  0.00    -0.352 N 
ATOM      5  O   UNL A   1      32.729  36.287  29.137  1.00  0.00    -0.269 OA
ATOM      6  C   UNL A   1      33.103  35.170  28.791  1.00  0.00     0.251 C 
ATOM      7  H   UNL A   1      31.780  35.046  27.292  1.00  0.00     0.163 HD
BRANCH   6   8
ATOM      8  C   UNL A   1      34.229  34.521  29.496  1.00  0.00     0.039 A 
ATOM      9  C   UNL A   1      35.526  34.562  28.976  1.00  0.00     0.014 A 
ATOM     10  C   UNL A   1      33.981  33.875  30.711  1.00  0.00     0.014 A 
ATOM     11  C   UNL A   1      36.545  33.851  29.602  1.00  0.00     0.010 A 
ATOM     12  C   UNL A   1      35.021  33.218  31.375  1.00  0.00     0.010 A 
ATOM     13  C   UNL A   1      36.303  33.176  30.809  1.00  0.00    -0.014 A 
BRANCH  13  14
ATOM     14  C   UNL A   1      37.421  32.478  31.492  1.00  0.00     0.031 A 
ATOM     15  C   UNL A   1      38.144  31.341  30.829  1.00  0.00     0.074 A 
ATOM     16  C   UNL A   1      37.788  32.889  32.719  1.00  0.00     0.049 A 
ATOM     17  N   UNL A   1      39.148  30.630  31.278  1.00  0.00    -0.248 NA
ATOM     18  C   UNL A   1      37.675  30.941  29.494  1.00  0.00     0.031 C 
ATOM     19  C   UNL A   1      37.142  33.966  33.472  1.00  0.00     0.029 A 
ATOM     20  N   UNL A   1      38.795  32.460  33.546  1.00  0.00    -0.354 N 
ATOM     21  C   UNL A   1      39.420  29.689  30.293  1.00  0.00     0.074 A 
ATOM     22  C   UNL A   1      38.460  29.905  29.229  1.00  0.00     0.031 C 
ATOM     23  C   UNL A   1      37.785  34.131  34.637  1.00  0.00     0.029 A 
ATOM     24  C   UNL A   1      38.858  33.147  34.732  1.00  0.00     0.049 A 
ATOM     25  H   UNL A   1      39.411  31.729  33.311  1.00  0.00     0.167 HD
ATOM     26  C   UNL A   1      40.385  28.740  30.278  1.00  0.00     0.037 A 
ATOM     27  C   UNL A   1      39.679  32.995  35.786  1.00  0.00     0.037 A 
ATOM     28  C   UNL A   1      41.353  28.545  31.326  1.00  0.00     0.049 A 
ATOM     29  C   UNL A   1      40.746  31.941  35.738  1.00  0.00     0.074 A 
ATOM     30  C   UNL A   1      42.408  27.650  31.372  1.00  0.00     0.029 A 
ATOM     31  N   UNL A   1      41.380  29.255  32.517  1.00  0.00    -0.354 N 
ATOM     32  N   UNL A   1      41.021  31.089  34.781  1.00  0.00    -0.248 NA
ATOM     33  C   UNL A   1      41.615  31.825  36.917  1.00  0.00     0.031 C 
ATOM     34  C   UNL A   1      43.052  27.794  32.607  1.00  0.00     0.029 A 
ATOM     35  C   UNL A   1      42.420  28.803  33.315  1.00  0.00     0.049 A 
ATOM     36  H   UNL A   1      40.754  29.975  32.760  1.00  0.00     0.167 HD
ATOM     37  C   UNL A   1      42.094  30.340  35.236  1.00  0.00     0.074 A 
ATOM     38  C   UNL A   1      42.436  30.851  36.548  1.00  0.00     0.031 C 
ATOM     39  C   UNL A   1      42.736  29.315  34.623  1.00  0.00     0.037 A 
BRANCH  26  40
ATOM     40  C   UNL A   1      40.439  27.823  29.092  1.00  0.00     0.064 A 
ATOM     41  C   UNL A   1      39.669  26.653  29.030  1.00  0.00     0.173 A 
ATOM     42  C   UNL A   1      41.237  28.145  27.983  1.00  0.00     0.173 A 
ATOM     43  F   UNL A   1      38.900  26.297  30.069  1.00  0.00    -0.203 F 
ATOM     44  C   UNL A   1      39.712  25.827  27.910  1.00  0.00     0.198 A 
ATOM     45  C   UNL A   1      41.260  27.328  26.855  1.00  0.00     0.198 A 
ATOM     46  F   UNL A   1      41.988  29.256  27.990  1.00  0.00    -0.203 F 
ATOM     47  F   UNL A   1      38.994  24.695  27.887  1.00  0.00    -0.200 F 
ATOM     48  C   UNL A   1      40.501  26.168  26.822  1.00  0.00     0.200 A 
ATOM     49  F   UNL A   1      42.017  27.662  25.802  1.00  0.00    -0.200 F 
ATOM     50  F   UNL A   1      40.537  25.373  25.743  1.00  0.00    -0.200 F 
ENDBRANCH  26  40
BRANCH  27  51
ATOM     51  C   UNL A   1      39.513  33.873  36.969  1.00  0.00     0.064 A 
ATOM     52  C   UNL A   1      40.082  35.152  37.004  1.00  0.00     0.173 A 
ATOM     53  C   UNL A   1      38.741  33.466  38.068  1.00  0.00     0.173 A 
ATOM     54  F   UNL A   1      40.841  35.575  35.982  1.00  0.00    -0.203 F 
ATOM     55  C   UNL A   1      39.888  35.992  38.098  1.00  0.00     0.198 A 
ATOM     56  C   UNL A   1      38.528  34.317  39.149  1.00  0.00     0.198 A 
ATOM     57  F   UNL A   1      38.171  32.252  38.074  1.00  0.00    -0.203 F 
ATOM     58  F   UNL A   1      40.461  37.203  38.119  1.00  0.00    -0.200 F 
ATOM     59  C   UNL A   1      39.105  35.577  39.165  1.00  0.00     0.200 A 
ATOM     60  F   UNL A   1      37.759  33.918  40.170  1.00  0.00    -0.200 F 
ATOM     61  F   UNL A   1      38.906  36.393  40.209  1.00  0.00    -0.200 F 
ENDBRANCH  27  51
BRANCH  39  62
ATOM     62  C   UNL A   1      43.871  28.681  35.369  1.00  0.00     0.064 A 
ATOM     63  C   UNL A   1      43.664  27.570  36.199  1.00  0.00     0.173 A 
ATOM     64  C   UNL A   1      45.178  29.171  35.231  1.00  0.00     0.173 A 
ATOM     65  F   UNL A   1      42.429  27.079  36.375  1.00  0.00    -0.203 F 
ATOM     66  C   UNL A   1      44.726  26.982  36.881  1.00  0.00     0.198 A 
ATOM     67  C   UNL A   1      46.240  28.566  35.896  1.00  0.00     0.198 A 
ATOM     68  F   UNL A   1      45.423  30.229  34.446  1.00  0.00    -0.203 F 
ATOM     69  F   UNL A   1      44.502  25.945  37.700  1.00  0.00    -0.200 F 
ATOM     70  C   UNL A   1      46.013  27.477  36.725  1.00  0.00     0.200 A 
ATOM     71  F   UNL A   1      47.483  29.040  35.741  1.00  0.00    -0.200 F 
ATOM     72  F   UNL A   1      47.034  26.907  37.379  1.00  0.00    -0.200 F 
ENDBRANCH  39  62
ENDBRANCH  13  14
ENDBRANCH   6   8
ENDBRANCH   3   4
ENDBRANCH   2   3
ENDBRANCH   1   2
BRANCH   1  73
ATOM     73  C   UNL A   1      31.960  30.213  27.240  1.00  0.00     0.116 C 
BRANCH  73  74
ATOM     74  N   UNL A   1      33.167  29.503  26.860  1.00  0.00    -0.349 N 
ATOM     75  C   UNL A   1      33.281  28.291  26.216  1.00  0.00     0.286 C 
ATOM     76  H   UNL A   1      34.015  29.944  27.092  1.00  0.00     0.163 HD
ATOM     77  O   UNL A   1      34.402  27.788  26.132  1.00  0.00    -0.266 OA
BRANCH  75  78
ATOM     78  C   UNL A   1      32.085  27.688  25.683  1.00  0.00     0.191 A 
ATOM     79  C   UNL A   1      31.334  26.600  26.088  1.00  0.00     0.056 A 
ATOM     80  O   UNL A   1      31.544  28.218  24.547  1.00  0.00    -0.454 OA
ATOM     81  C   UNL A   1      30.296  26.444  25.137  1.00  0.00     0.048 A 
ATOM     82  C   UNL A   1      30.471  27.449  24.208  1.00  0.00     0.124 A 
BRANCH  82  83
ATOM     83  C   UNL A   1      29.782  27.808  22.947  1.00  0.00     0.191 C 
BRANCH  83  84
ATOM     84  N   UNL A   1      28.349  27.752  23.147  1.00  0.00    -0.345 N 
ATOM     85  C   UNL A   1      27.438  28.774  23.125  1.00  0.00     0.253 C 
ATOM     86  H   UNL A   1      27.979  26.856  23.323  1.00  0.00     0.164 HD
ATOM     87  O   UNL A   1      26.274  28.576  23.461  1.00  0.00    -0.269 OA
BRANCH  85  88
ATOM     88  C   UNL A   1      27.847  30.127  22.714  1.00  0.00     0.058 A 
ATOM     89  C   UNL A   1      28.100  31.151  23.629  1.00  0.00     0.017 A 
ATOM     90  C   UNL A   1      28.027  30.388  21.364  1.00  0.00     0.124 A 
ATOM     91  C   UNL A   1      28.468  32.407  23.154  1.00  0.00     0.021 A 
ATOM     92  N   UNL A   1      28.385  31.604  20.877  1.00  0.00    -0.264 NA
ATOM     93  C   UNL A   1      28.591  32.584  21.783  1.00  0.00     0.111 A 
ENDBRANCH  85  88
ENDBRANCH  83  84
ENDBRANCH  82  83
ENDBRANCH  75  78
ENDBRANCH  73  74
ENDBRANCH   1  73
TORSDOF 14
ENDMDL
MODEL 2
REMARK VINA RESULT:     -12.3      0.766      7.300
REMARK SMILES O=C(NCCCCNC(=O)c1ccc(CNC(=O)c2cccnc2)o1)c1ccc(-c2c3nc(c(-c4c(F)c(F)c(F)c(F)c4F)c4ccc([nH]4)c(-c4c(F)c(F)c(F)c(F)c4F)c4nc(c(-c5c(F)c(F)c(F)c(F)c5F)c5ccc2[nH]5)C=C4)C=C3)cc1
REMARK SMILES IDX 6 1 5 2 4 3 3 4 1 5 2 6 26 8 27 9 88 10 28 11 87 12 29 13
REMARK SMILES IDX 30 14 31 15 81 16 32 17 86 18 80 19 82 20 33 21 85 22 79 23
REMARK SMILES IDX 78 24 34 26 66 27 46 28 65 29 47 30 50 31 64 32 83 33 48 34
REMARK SMILES IDX 49 35 63 37 84 38 51 39 35 40 36 41 44 42 37 43 38 44 42 45
REMARK SMILES IDX 45 46 39 47 40 48 43 49 41 50 67 51 68 52 76 53 69 54 70 55
REMARK SMILES IDX 74 56 77 57 71 58 72 59 75 60 73 61 52 62 53 63 61 64 54 65
REMARK SMILES IDX 55 66 59 67 62 68 56 69 57 70 60 71 58 72 7 73 8 74 9 75
REMARK SMILES IDX 10 77 11 78 12 79 25 80 13 81 14 82 15 83 16 84 17 85 18 87
REMARK SMILES IDX 19 88 20 89 24 90 21 91 23 92 22 93
REMARK H PARENT 3 7 82 25 50 36 8 76 16 86
REMARK Flexibility Score: inf
ROOT
ATOM      1  C   UNL A   1      31.376  31.005  26.172  1.00  0.00     0.023 C 
ENDROOT
BRANCH   1   2
ATOM      2  C   UNL A   1      31.269  32.432  26.711  1.00  0.00     0.023 C 
BRANCH   2   3
ATOM      3  C   UNL A   1      32.580  33.058  27.175  1.00  0.00     0.116 C 
BRANCH   3   4
ATOM      4  N   UNL A   1      32.410  34.394  27.721  1.00  0.00    -0.352 N 
ATOM      5  O   UNL A   1      32.711  36.104  29.159  1.00  0.00    -0.269 OA
ATOM      6  C   UNL A   1      33.083  35.008  28.749  1.00  0.00     0.251 C 
ATOM      7  H   UNL A   1      31.708  34.937  27.293  1.00  0.00     0.163 HD
BRANCH   6   8
ATOM      8  C   UNL A   1      34.241  34.340  29.383  1.00  0.00     0.039 A 
ATOM      9  C   UNL A   1      35.542  34.566  28.927  1.00  0.00     0.014 A 
ATOM     10  C   UNL A   1      34.015  33.486  30.465  1.00  0.00     0.014 A 
ATOM     11  C   UNL A   1      36.600  33.843  29.468  1.00  0.00     0.010 A 
ATOM     12  C   UNL A   1      35.088  32.810  31.055  1.00  0.00     0.010 A 
ATOM     13  C   UNL A   1      36.384  32.961  30.540  1.00  0.00    -0.014 A 
BRANCH  13  14
ATOM     14  C   UNL A   1      37.537  32.248  31.143  1.00  0.00     0.031 A 
ATOM     15  C   UNL A   1      38.001  32.564  32.537  1.00  0.00     0.074 A 
ATOM     16  C   UNL A   1      38.159  31.298  30.423  1.00  0.00     0.049 A 
ATOM     17  N   UNL A   1      38.982  32.029  33.219  1.00  0.00    -0.248 NA
ATOM     18  C   UNL A   1      37.279  33.625  33.255  1.00  0.00     0.031 C 
ATOM     19  C   UNL A   1      37.813  30.923  29.050  1.00  0.00     0.029 A 
ATOM     20  N   UNL A   1      39.204  30.469  30.742  1.00  0.00    -0.354 N 
ATOM     21  C   UNL A   1      39.009  32.697  34.436  1.00  0.00     0.074 A 
ATOM     22  C   UNL A   1      37.958  33.693  34.392  1.00  0.00     0.031 C 
ATOM     23  C   UNL A   1      38.612  29.921  28.655  1.00  0.00     0.029 A 
ATOM     24  C   UNL A   1      39.552  29.613  29.727  1.00  0.00     0.049 A 
ATOM     25  H   UNL A   1      39.661  30.488  31.614  1.00  0.00     0.167 HD
ATOM     26  C   UNL A   1      39.830  32.491  35.493  1.00  0.00     0.037 A 
ATOM     27  C   UNL A   1      40.528  28.689  29.661  1.00  0.00     0.037 A 
ATOM     28  C   UNL A   1      40.857  31.483  35.542  1.00  0.00     0.049 A 
ATOM     29  C   UNL A   1      41.417  28.475  30.851  1.00  0.00     0.074 A 
ATOM     30  C   UNL A   1      41.698  31.156  36.592  1.00  0.00     0.029 A 
ATOM     31  N   UNL A   1      41.186  30.639  34.491  1.00  0.00    -0.354 N 
ATOM     32  N   UNL A   1      41.401  29.082  32.012  1.00  0.00    -0.248 NA
ATOM     33  C   UNL A   1      42.462  27.451  30.720  1.00  0.00     0.031 C 
ATOM     34  C   UNL A   1      42.560  30.140  36.165  1.00  0.00     0.029 A 
ATOM     35  C   UNL A   1      42.233  29.808  34.860  1.00  0.00     0.049 A 
ATOM     36  H   UNL A   1      40.742  30.631  33.613  1.00  0.00     0.167 HD
ATOM     37  C   UNL A   1      42.426  28.514  32.752  1.00  0.00     0.074 A 
ATOM     38  C   UNL A   1      43.032  27.497  31.916  1.00  0.00     0.031 C 
ATOM     39  C   UNL A   1      42.832  28.812  34.010  1.00  0.00     0.037 A 
BRANCH  26  40
ATOM     40  C   UNL A   1      39.663  33.384  36.686  1.00  0.00     0.064 A 
ATOM     41  C   UNL A   1      38.775  33.067  37.724  1.00  0.00     0.173 A 
ATOM     42  C   UNL A   1      40.436  34.548  36.813  1.00  0.00     0.173 A 
ATOM     43  F   UNL A   1      38.006  31.971  37.643  1.00  0.00    -0.203 F 
ATOM     44  C   UNL A   1      38.652  33.895  38.837  1.00  0.00     0.198 A 
ATOM     45  C   UNL A   1      40.326  35.362  37.939  1.00  0.00     0.198 A 
ATOM     46  F   UNL A   1      41.304  34.892  35.851  1.00  0.00    -0.203 F 
ATOM     47  F   UNL A   1      37.771  33.591  39.801  1.00  0.00    -0.200 F 
ATOM     48  C   UNL A   1      39.431  35.037  38.947  1.00  0.00     0.200 A 
ATOM     49  F   UNL A   1      41.085  36.460  38.047  1.00  0.00    -0.200 F 
ATOM     50  F   UNL A   1      39.314  35.830  40.022  1.00  0.00    -0.200 F 
ENDBRANCH  26  40
BRANCH  27  51
ATOM     51  C   UNL A   1      40.700  27.904  28.416  1.00  0.00     0.064 A 
ATOM     52  C   UNL A   1      41.513  28.370  27.375  1.00  0.00     0.173 A 
ATOM     53  C   UNL A   1      40.090  26.649  28.263  1.00  0.00     0.173 A 
ATOM     54  F   UNL A   1      42.101  29.571  27.472  1.00  0.00    -0.203 F 
ATOM     55  C   UNL A   1      41.708  27.610  26.224  1.00  0.00     0.198 A 
ATOM     56  C   UNL A   1      40.306  25.881  27.122  1.00  0.00     0.198 A 
ATOM     57  F   UNL A   1      39.309  26.160  29.237  1.00  0.00    -0.203 F 
ATOM     58  F   UNL A   1      42.472  28.087  25.232  1.00  0.00    -0.200 F 
ATOM     59  C   UNL A   1      41.111  26.364  26.102  1.00  0.00     0.200 A 
ATOM     60  F   UNL A   1      39.740  24.671  27.015  1.00  0.00    -0.200 F 
ATOM     61  F   UNL A   1      41.313  25.627  25.001  1.00  0.00    -0.200 F 
ENDBRANCH  27  51
BRANCH  39  62
ATOM     62  C   UNL A   1      43.986  28.027  34.555  1.00  0.00     0.064 A 
ATOM     63  C   UNL A   1      43.788  26.798  35.201  1.00  0.00     0.173 A 
ATOM     64  C   UNL A   1      45.300  28.493  34.406  1.00  0.00     0.173 A 
ATOM     65  F   UNL A   1      42.548  26.322  35.382  1.00  0.00    -0.203 F 
ATOM     66  C   UNL A   1      44.868  26.072  35.696  1.00  0.00     0.198 A 
ATOM     67  C   UNL A   1      46.378  27.753  34.882  1.00  0.00     0.198 A 
ATOM     68  F   UNL A   1      45.538  29.661  33.792  1.00  0.00    -0.203 F 
ATOM     69  F   UNL A   1      44.656  24.918  36.345  1.00  0.00    -0.200 F 
ATOM     70  C   UNL A   1      46.161  26.546  35.531  1.00  0.00     0.200 A 
ATOM     71  F   UNL A   1      47.627  28.208  34.718  1.00  0.00    -0.200 F 
ATOM     72  F   UNL A   1      47.198  25.844  36.006  1.00  0.00    -0.200 F 
ENDBRANCH  39  62
ENDBRANCH  13  14
ENDBRANCH   6   8
ENDBRANCH   3   4
ENDBRANCH   2   3
ENDBRANCH   1   2
BRANCH   1  73
ATOM     73  C   UNL A   1      31.836  29.957  27.184  1.00  0.00     0.116 C 
BRANCH  73  74
ATOM     74  N   UNL A   1      33.064  29.303  26.774  1.00  0.00    -0.349 N 
ATOM     75  C   UNL A   1      33.215  28.127  26.072  1.00  0.00     0.286 C 
ATOM     76  H   UNL A   1      33.899  29.758  27.029  1.00  0.00     0.163 HD
ATOM     77  O   UNL A   1      34.351  27.664  25.967  1.00  0.00    -0.266 OA
BRANCH  75  78
ATOM     78  C   UNL A   1      32.039  27.515  25.507  1.00  0.00     0.191 A 
ATOM     79  C   UNL A   1      31.363  26.348  25.810  1.00  0.00     0.056 A 
ATOM     80  O   UNL A   1      31.434  28.130  24.449  1.00  0.00    -0.454 OA
ATOM     81  C   UNL A   1      30.306  26.234  24.875  1.00  0.00     0.048 A 
ATOM     82  C   UNL A   1      30.395  27.340  24.056  1.00  0.00     0.124 A 
BRANCH  82  83
ATOM     83  C   UNL A   1      29.648  27.790  22.859  1.00  0.00     0.191 C 
BRANCH  83  84
ATOM     84  N   UNL A   1      28.228  27.742  23.130  1.00  0.00    -0.345 N 
ATOM     85  C   UNL A   1      27.313  28.762  23.105  1.00  0.00     0.253 C 
ATOM     86  H   UNL A   1      27.869  26.855  23.365  1.00  0.00     0.164 HD
ATOM     87  O   UNL A   1      26.168  28.579  23.506  1.00  0.00    -0.269 OA
BRANCH  85  88
ATOM     88  C   UNL A   1      27.698  30.095  22.612  1.00  0.00     0.058 A 
ATOM     89  C   UNL A   1      28.034  30.339  21.279  1.00  0.00     0.017 A 
ATOM     90  C   UNL A   1      27.688  31.162  23.498  1.00  0.00     0.124 A 
ATOM     91  C   UNL A   1      28.401  31.628  20.899  1.00  0.00     0.021 A 
ATOM     92  N   UNL A   1      28.042  32.426  23.151  1.00  0.00    -0.264 NA
ATOM     93  C   UNL A   1      28.395  32.626  21.863  1.00  0.00     0.111 A 
ENDBRANCH  85  88
ENDBRANCH  83  84
ENDBRANCH  82  83
ENDBRANCH  75  78
ENDBRANCH  73  74
ENDBRANCH   1  73
TORSDOF 14
ENDMDL
MODEL 3
REMARK VINA RESULT:     -12.3      0.614      7.551
REMARK SMILES O=C(NCCCCNC(=O)c1ccc(CNC(=O)c2cccnc2)o1)c1ccc(-c2c3nc(c(-c4c(F)c(F)c(F)c(F)c4F)c4ccc([nH]4)c(-c4c(F)c(F)c(F)c(F)c4F)c4nc(c(-c5c(F)c(F)c(F)c(F)c5F)c5ccc2[nH]5)C=C4)C=C3)cc1
REMARK SMILES IDX 6 1 5 2 4 3 3 4 1 5 2 6 26 8 27 9 88 10 28 11 87 12 29 13
REMARK SMILES IDX 30 14 31 15 81 16 32 17 86 18 80 19 82 20 33 21 85 22 79 23
REMARK SMILES IDX 78 24 34 26 66 27 46 28 65 29 47 30 50 31 64 32 83 33 48 34
REMARK SMILES IDX 49 35 63 37 84 38 51 39 35 40 36 41 44 42 37 43 38 44 42 45
REMARK SMILES IDX 45 46 39 47 40 48 43 49 41 50 67 51 68 52 76 53 69 54 70 55
REMARK SMILES IDX 74 56 77 57 71 58 72 59 75 60 73 61 52 62 53 63 61 64 54 65
REMARK SMILES IDX 55 66 59 67 62 68 56 69 57 70 60 71 58 72 7 73 8 74 9 75
REMARK SMILES IDX 10 77 11 78 12 79 25 80 13 81 14 82 15 83 16 84 17 85 18 87
REMARK SMILES IDX 19 88 20 89 24 90 21 91 23 92 22 93
REMARK H PARENT 3 7 82 25 50 36 8 76 16 86
REMARK Flexibility Score: inf
ROOT
ATOM      1  C   UNL A   1      31.389  31.104  26.122  1.00  0.00     0.023 C 
ENDROOT
BRANCH   1   2
ATOM      2  C   UNL A   1      31.430  32.583  26.507  1.00  0.00     0.023 C 
BRANCH   2   3
ATOM      3  C   UNL A   1      32.706  33.043  27.204  1.00  0.00     0.116 C 
BRANCH   3   4
ATOM      4  N   UNL A   1      32.584  34.365  27.796  1.00  0.00    -0.352 N 
ATOM      5  O   UNL A   1      32.958  36.018  29.283  1.00  0.00    -0.269 OA
ATOM      6  C   UNL A   1      33.291  34.926  28.832  1.00  0.00     0.251 C 
ATOM      7  H   UNL A   1      31.893  34.943  27.397  1.00  0.00     0.163 HD
BRANCH   6   8
ATOM      8  C   UNL A   1      34.436  34.203  29.426  1.00  0.00     0.039 A 
ATOM      9  C   UNL A   1      34.243  33.229  30.410  1.00  0.00     0.014 A 
ATOM     10  C   UNL A   1      35.726  34.497  28.974  1.00  0.00     0.014 A 
ATOM     11  C   UNL A   1      35.343  32.644  31.029  1.00  0.00     0.010 A 
ATOM     12  C   UNL A   1      36.828  33.858  29.549  1.00  0.00     0.010 A 
ATOM     13  C   UNL A   1      36.645  32.949  30.602  1.00  0.00    -0.014 A 
BRANCH  13  14
ATOM     14  C   UNL A   1      37.800  32.265  31.234  1.00  0.00     0.031 A 
ATOM     15  C   UNL A   1      38.245  32.618  32.624  1.00  0.00     0.074 A 
ATOM     16  C   UNL A   1      38.442  31.305  30.542  1.00  0.00     0.049 A 
ATOM     17  N   UNL A   1      39.225  32.111  33.329  1.00  0.00    -0.248 NA
ATOM     18  C   UNL A   1      37.502  33.687  33.309  1.00  0.00     0.031 C 
ATOM     19  C   UNL A   1      38.116  30.895  29.175  1.00  0.00     0.029 A 
ATOM     20  N   UNL A   1      39.494  30.497  30.892  1.00  0.00    -0.354 N 
ATOM     21  C   UNL A   1      39.230  32.808  34.531  1.00  0.00     0.074 A 
ATOM     22  C   UNL A   1      38.168  33.790  34.452  1.00  0.00     0.031 C 
ATOM     23  C   UNL A   1      38.931  29.894  28.812  1.00  0.00     0.029 A 
ATOM     24  C   UNL A   1      39.863  29.622  29.902  1.00  0.00     0.049 A 
ATOM     25  H   UNL A   1      39.940  30.542  31.768  1.00  0.00     0.167 HD
ATOM     26  C   UNL A   1      40.042  32.636  35.601  1.00  0.00     0.037 A 
ATOM     27  C   UNL A   1      40.851  28.710  29.868  1.00  0.00     0.037 A 
ATOM     28  C   UNL A   1      41.080  31.643  35.684  1.00  0.00     0.049 A 
ATOM     29  C   UNL A   1      41.730  28.535  31.071  1.00  0.00     0.074 A 
ATOM     30  C   UNL A   1      41.914  31.351  36.751  1.00  0.00     0.029 A 
ATOM     31  N   UNL A   1      41.431  30.779  34.658  1.00  0.00    -0.354 N 
ATOM     32  N   UNL A   1      41.693  29.168  32.217  1.00  0.00    -0.248 NA
ATOM     33  C   UNL A   1      42.788  27.520  30.976  1.00  0.00     0.031 C 
ATOM     34  C   UNL A   1      42.793  30.336  36.357  1.00  0.00     0.029 A 
ATOM     35  C   UNL A   1      42.484  29.970  35.057  1.00  0.00     0.049 A 
ATOM     36  H   UNL A   1      40.997  30.745  33.775  1.00  0.00     0.167 HD
ATOM     37  C   UNL A   1      42.716  28.630  32.982  1.00  0.00     0.074 A 
ATOM     38  C   UNL A   1      43.344  27.601  32.177  1.00  0.00     0.031 C 
ATOM     39  C   UNL A   1      43.104  28.962  34.237  1.00  0.00     0.037 A 
BRANCH  26  40
ATOM     40  C   UNL A   1      39.851  33.555  36.771  1.00  0.00     0.064 A 
ATOM     41  C   UNL A   1      40.533  34.776  36.867  1.00  0.00     0.173 A 
ATOM     42  C   UNL A   1      38.939  33.228  37.787  1.00  0.00     0.173 A 
ATOM     43  F   UNL A   1      41.423  35.128  35.928  1.00  0.00    -0.203 F 
ATOM     44  C   UNL A   1      40.323  35.629  37.949  1.00  0.00     0.198 A 
ATOM     45  C   UNL A   1      38.716  34.093  38.856  1.00  0.00     0.198 A 
ATOM     46  F   UNL A   1      38.258  32.074  37.738  1.00  0.00    -0.203 F 
ATOM     47  F   UNL A   1      41.012  36.775  38.038  1.00  0.00    -0.200 F 
ATOM     48  C   UNL A   1      39.412  35.290  38.937  1.00  0.00     0.200 A 
ATOM     49  F   UNL A   1      37.830  33.768  39.806  1.00  0.00    -0.200 F 
ATOM     50  F   UNL A   1      39.209  36.115  39.975  1.00  0.00    -0.200 F 
ENDBRANCH  26  40
BRANCH  27  51
ATOM     51  C   UNL A   1      41.046  27.897  28.643  1.00  0.00     0.064 A 
ATOM     52  C   UNL A   1      40.337  26.706  28.446  1.00  0.00     0.173 A 
ATOM     53  C   UNL A   1      41.913  28.323  27.625  1.00  0.00     0.173 A 
ATOM     54  F   UNL A   1      39.511  26.254  29.400  1.00  0.00    -0.203 F 
ATOM     55  C   UNL A   1      40.489  25.967  27.275  1.00  0.00     0.198 A 
ATOM     56  C   UNL A   1      42.046  27.595  26.445  1.00  0.00     0.198 A 
ATOM     57  F   UNL A   1      42.608  29.462  27.767  1.00  0.00    -0.203 F 
ATOM     58  F   UNL A   1      39.817  24.819  27.119  1.00  0.00    -0.200 F 
ATOM     59  C   UNL A   1      41.337  26.417  26.273  1.00  0.00     0.200 A 
ATOM     60  F   UNL A   1      42.853  28.041  25.473  1.00  0.00    -0.200 F 
ATOM     61  F   UNL A   1      41.470  25.713  25.140  1.00  0.00    -0.200 F 
ENDBRANCH  27  51
BRANCH  39  62
ATOM     62  C   UNL A   1      44.262  28.204  34.813  1.00  0.00     0.064 A 
ATOM     63  C   UNL A   1      45.575  28.683  34.693  1.00  0.00     0.173 A 
ATOM     64  C   UNL A   1      44.055  27.007  35.512  1.00  0.00     0.173 A 
ATOM     65  F   UNL A   1      45.822  29.815  34.017  1.00  0.00    -0.203 F 
ATOM     66  C   UNL A   1      46.644  27.978  35.239  1.00  0.00     0.198 A 
ATOM     67  C   UNL A   1      45.124  26.316  36.076  1.00  0.00     0.198 A 
ATOM     68  F   UNL A   1      42.817  26.512  35.654  1.00  0.00    -0.203 F 
ATOM     69  F   UNL A   1      47.895  28.431  35.081  1.00  0.00    -0.200 F 
ATOM     70  C   UNL A   1      46.417  26.799  35.935  1.00  0.00     0.200 A 
ATOM     71  F   UNL A   1      44.904  25.181  36.752  1.00  0.00    -0.200 F 
ATOM     72  F   UNL A   1      47.446  26.123  36.462  1.00  0.00    -0.200 F 
ENDBRANCH  39  62
ENDBRANCH  13  14
ENDBRANCH   6   8
ENDBRANCH   3   4
ENDBRANCH   2   3
ENDBRANCH   1   2
BRANCH   1  73
ATOM     73  C   UNL A   1      31.865  30.134  27.202  1.00  0.00     0.116 C 
BRANCH  73  74
ATOM     74  N   UNL A   1      33.071  29.428  26.811  1.00  0.00    -0.349 N 
ATOM     75  C   UNL A   1      33.182  28.209  26.179  1.00  0.00     0.286 C 
ATOM     76  H   UNL A   1      33.920  29.878  27.024  1.00  0.00     0.163 HD
ATOM     77  O   UNL A   1      34.306  27.714  26.082  1.00  0.00    -0.266 OA
BRANCH  75  78
ATOM     78  C   UNL A   1      31.982  27.592  25.672  1.00  0.00     0.191 A 
ATOM     79  C   UNL A   1      31.239  26.511  26.109  1.00  0.00     0.056 A 
ATOM     80  O   UNL A   1      31.427  28.095  24.531  1.00  0.00    -0.454 OA
ATOM     81  C   UNL A   1      30.191  26.332  25.174  1.00  0.00     0.048 A 
ATOM     82  C   UNL A   1      30.352  27.316  24.221  1.00  0.00     0.124 A 
BRANCH  82  83
ATOM     83  C   UNL A   1      29.648  27.646  22.961  1.00  0.00     0.191 C 
BRANCH  83  84
ATOM     84  N   UNL A   1      28.219  27.622  23.186  1.00  0.00    -0.345 N 
ATOM     85  C   UNL A   1      27.330  28.664  23.176  1.00  0.00     0.253 C 
ATOM     86  H   UNL A   1      27.832  26.735  23.370  1.00  0.00     0.164 HD
ATOM     87  O   UNL A   1      26.168  28.493  23.533  1.00  0.00    -0.269 OA
BRANCH  85  88
ATOM     88  C   UNL A   1      27.761  30.007  22.754  1.00  0.00     0.058 A 
ATOM     89  C   UNL A   1      28.025  31.035  23.660  1.00  0.00     0.017 A 
ATOM     90  C   UNL A   1      27.952  30.252  21.402  1.00  0.00     0.124 A 
ATOM     91  C   UNL A   1      28.414  32.281  23.174  1.00  0.00     0.021 A 
ATOM     92  N   UNL A   1      28.331  31.457  20.906  1.00  0.00    -0.264 NA
ATOM     93  C   UNL A   1      28.547  32.443  21.803  1.00  0.00     0.111 A 
ENDBRANCH  85  88
ENDBRANCH  83  84
ENDBRANCH  82  83
ENDBRANCH  75  78
ENDBRANCH  73  74
ENDBRANCH   1  73
TORSDOF 14
ENDMDL
