MODEL 1
REMARK VINA RESULT:     -11.6      0.000      0.000
REMARK SMILES CS(=O)(=O)NCC[NH2+]Cc1ccc(C(=O)NCCCCNC(=O)c2ccc(-c3c4nc(c(-c5c(F)c(F)c(F)c(F)c5F)c5ccc([nH]5)c(-c5c(F)c(F)c(F)c(F)c5F)c5nc(c(-c6c(F)c(F)c(F)c(F)c6F)c6ccc3[nH]6)C=C5)C=C4)cc2)cn1
REMARK SMILES IDX 14 1 15 2 16 3 13 5 10 6 11 7 88 8 12 9 87 10 9 11 8 12 7 15
REMARK SMILES IDX 6 16 5 17 2 19 1 20 3 21 4 22 17 23 18 24 19 25 20 26 21 27
REMARK SMILES IDX 22 28 23 30 24 31 25 32 86 33 26 34 85 35 27 36 28 37 29 38
REMARK SMILES IDX 79 39 30 40 84 41 78 42 80 43 31 44 83 45 77 46 76 47 32 49
REMARK SMILES IDX 64 50 44 51 63 52 45 53 48 54 62 55 81 56 46 57 47 58 61 60
REMARK SMILES IDX 82 61 49 62 33 63 34 64 42 65 35 66 36 67 40 68 43 69 37 70
REMARK SMILES IDX 38 71 41 72 39 73 65 74 66 75 74 76 67 77 68 78 72 79 75 80
REMARK SMILES IDX 69 81 70 82 73 83 71 84 50 85 51 86 59 87 52 88 53 89 57 90
REMARK SMILES IDX 60 91 54 92 55 93 58 94 56 95
REMARK H PARENT 16 4 8 13 8 14 5 18 21 29 80 48 48 59
REMARK Flexibility Score: inf
ROOT
ATOM      1  C   UNL A   1      30.480  29.162  23.754  1.00  0.00     0.252 C 
ATOM      2  O   UNL A   1      29.563  29.554  23.028  1.00  0.00    -0.269 OA
ATOM      3  N   UNL A   1      31.012  30.092  24.604  1.00  0.00    -0.352 N 
ATOM      4  H   UNL A   1      30.525  30.946  24.620  1.00  0.00     0.163 HD
ENDROOT
BRANCH   1   5
ATOM      5  C   UNL A   1      30.902  27.738  23.683  1.00  0.00     0.058 A 
ATOM      6  C   UNL A   1      31.898  25.200  23.126  1.00  0.00     0.094 A 
ATOM      7  C   UNL A   1      30.743  25.320  23.885  1.00  0.00     0.030 A 
ATOM      8  N   UNL A   1      32.603  26.289  22.756  1.00  0.00    -0.255 NA
ATOM      9  C   UNL A   1      30.260  26.602  24.184  1.00  0.00     0.017 A 
ATOM     10  C   UNL A   1      32.085  27.511  23.000  1.00  0.00     0.125 A 
BRANCH   6  11
ATOM     11  C   UNL A   1      32.402  23.844  22.654  1.00  0.00     0.317 C 
BRANCH  11  12
ATOM     12  N   UNL A   1      31.509  22.710  23.000  1.00  0.00    -0.340 N 
ATOM     13  H   UNL A   1      31.324  22.726  24.003  1.00  0.00     0.346 HD
ATOM     14  H   UNL A   1      30.641  22.809  22.473  1.00  0.00     0.346 HD
BRANCH  12  15
ATOM     15  C   UNL A   1      32.128  21.423  22.644  1.00  0.00     0.277 C 
BRANCH  15  16
ATOM     16  C   UNL A   1      32.711  20.675  23.852  1.00  0.00     0.159 C 
BRANCH  16  17
ATOM     17  N   UNL A   1      32.193  19.303  24.073  1.00  0.00    -0.210 NA
ATOM     18  H   UNL A   1      31.761  19.307  24.996  1.00  0.00     0.141 HD
BRANCH  17  19
ATOM     19  S   UNL A   1      33.182  17.950  24.028  1.00  0.00     0.208 S 
ATOM     20  C   UNL A   1      32.532  16.855  25.280  1.00  0.00     0.176 C 
ATOM     21  O   UNL A   1      34.504  18.388  24.402  1.00  0.00    -0.213 OA
ATOM     22  O   UNL A   1      32.968  17.339  22.732  1.00  0.00    -0.213 OA
ENDBRANCH  17  19
ENDBRANCH  16  17
ENDBRANCH  15  16
ENDBRANCH  12  15
ENDBRANCH  11  12
ENDBRANCH   6  11
ENDBRANCH   1   5
BRANCH   3  23
ATOM     23  C   UNL A   1      32.156  30.050  25.478  1.00  0.00     0.116 C 
BRANCH  23  24
ATOM     24  C   UNL A   1      31.775  30.605  26.850  1.00  0.00     0.023 C 
BRANCH  24  25
ATOM     25  C   UNL A   1      31.569  32.124  26.851  1.00  0.00     0.023 C 
BRANCH  25  26
ATOM     26  C   UNL A   1      32.770  32.917  27.351  1.00  0.00     0.116 C 
BRANCH  26  27
ATOM     27  N   UNL A   1      32.446  34.300  27.668  1.00  0.00    -0.352 N 
ATOM     28  C   UNL A   1      32.999  35.099  28.636  1.00  0.00     0.251 C 
ATOM     29  H   UNL A   1      31.739  34.714  27.120  1.00  0.00     0.163 HD
ATOM     30  O   UNL A   1      32.534  36.206  28.880  1.00  0.00    -0.269 OA
BRANCH  28  31
ATOM     31  C   UNL A   1      34.143  34.578  29.402  1.00  0.00     0.039 A 
ATOM     32  C   UNL A   1      33.912  34.010  30.654  1.00  0.00     0.014 A 
ATOM     33  C   UNL A   1      35.425  34.592  28.846  1.00  0.00     0.014 A 
ATOM     34  C   UNL A   1      34.968  33.408  31.333  1.00  0.00     0.010 A 
ATOM     35  C   UNL A   1      36.454  33.914  29.484  1.00  0.00     0.010 A 
ATOM     36  C   UNL A   1      36.239  33.325  30.738  1.00  0.00    -0.014 A 
BRANCH  36  37
ATOM     37  C   UNL A   1      37.358  32.640  31.428  1.00  0.00     0.031 A 
ATOM     38  C   UNL A   1      38.053  31.484  30.766  1.00  0.00     0.074 A 
ATOM     39  C   UNL A   1      37.717  33.034  32.665  1.00  0.00     0.049 A 
ATOM     40  N   UNL A   1      39.036  30.743  31.213  1.00  0.00    -0.248 NA
ATOM     41  C   UNL A   1      37.560  31.086  29.437  1.00  0.00     0.031 C 
ATOM     42  C   UNL A   1      37.077  34.106  33.431  1.00  0.00     0.029 A 
ATOM     43  N   UNL A   1      38.706  32.576  33.498  1.00  0.00    -0.354 N 
ATOM     44  C   UNL A   1      39.269  29.793  30.228  1.00  0.00     0.074 A 
ATOM     45  C   UNL A   1      38.283  30.004  29.192  1.00  0.00     0.031 C 
ATOM     46  C   UNL A   1      37.713  34.246  34.605  1.00  0.00     0.029 A 
ATOM     47  C   UNL A   1      38.775  33.249  34.693  1.00  0.00     0.049 A 
ATOM     48  H   UNL A   1      39.309  31.834  33.262  1.00  0.00     0.167 HD
ATOM     49  C   UNL A   1      40.237  28.849  30.178  1.00  0.00     0.037 A 
ATOM     50  C   UNL A   1      39.603  33.078  35.741  1.00  0.00     0.037 A 
ATOM     51  C   UNL A   1      41.226  28.657  31.206  1.00  0.00     0.049 A 
ATOM     52  C   UNL A   1      40.667  32.016  35.662  1.00  0.00     0.074 A 
ATOM     53  C   UNL A   1      42.284  27.765  31.230  1.00  0.00     0.029 A 
ATOM     54  N   UNL A   1      41.274  29.366  32.399  1.00  0.00    -0.354 N 
ATOM     55  N   UNL A   1      40.929  31.174  34.691  1.00  0.00    -0.248 NA
ATOM     56  C   UNL A   1      41.558  31.888  36.822  1.00  0.00     0.031 C 
ATOM     57  C   UNL A   1      42.933  27.892  32.462  1.00  0.00     0.029 A 
ATOM     58  C   UNL A   1      42.327  28.913  33.176  1.00  0.00     0.049 A 
ATOM     59  H   UNL A   1      40.651  30.084  32.654  1.00  0.00     0.167 HD
ATOM     60  C   UNL A   1      42.034  30.444  35.107  1.00  0.00     0.074 A 
ATOM     61  C   UNL A   1      42.403  30.955  36.411  1.00  0.00     0.031 C 
ATOM     62  C   UNL A   1      42.686  29.439  34.469  1.00  0.00     0.037 A 
BRANCH  49  63
ATOM     63  C   UNL A   1      40.275  27.953  28.972  1.00  0.00     0.064 A 
ATOM     64  C   UNL A   1      41.021  28.282  27.830  1.00  0.00     0.173 A 
ATOM     65  C   UNL A   1      39.583  26.732  28.971  1.00  0.00     0.173 A 
ATOM     66  F   UNL A   1      41.691  29.443  27.771  1.00  0.00    -0.203 F 
ATOM     67  C   UNL A   1      41.046  27.440  26.721  1.00  0.00     0.198 A 
ATOM     68  C   UNL A   1      39.640  25.875  27.876  1.00  0.00     0.198 A 
ATOM     69  F   UNL A   1      38.857  26.366  30.038  1.00  0.00    -0.203 F 
ATOM     70  F   UNL A   1      41.720  27.802  25.621  1.00  0.00    -0.200 F 
ATOM     71  C   UNL A   1      40.364  26.233  26.749  1.00  0.00     0.200 A 
ATOM     72  F   UNL A   1      38.992  24.703  27.910  1.00  0.00    -0.200 F 
ATOM     73  F   UNL A   1      40.398  25.418  25.685  1.00  0.00    -0.200 F 
ENDBRANCH  49  63
BRANCH  50  74
ATOM     74  C   UNL A   1      39.477  33.947  36.942  1.00  0.00     0.064 A 
ATOM     75  C   UNL A   1      38.762  33.520  38.070  1.00  0.00     0.173 A 
ATOM     76  C   UNL A   1      40.052  35.225  36.982  1.00  0.00     0.173 A 
ATOM     77  F   UNL A   1      38.179  32.313  38.076  1.00  0.00    -0.203 F 
ATOM     78  C   UNL A   1      38.600  34.350  39.178  1.00  0.00     0.198 A 
ATOM     79  C   UNL A   1      39.920  36.041  38.103  1.00  0.00     0.198 A 
ATOM     80  F   UNL A   1      40.754  35.679  35.934  1.00  0.00    -0.203 F 
ATOM     81  F   UNL A   1      37.862  33.939  40.218  1.00  0.00    -0.200 F 
ATOM     82  C   UNL A   1      39.183  35.608  39.196  1.00  0.00     0.200 A 
ATOM     83  F   UNL A   1      40.501  37.248  38.124  1.00  0.00    -0.200 F 
ATOM     84  F   UNL A   1      39.029  36.405  40.261  1.00  0.00    -0.200 F 
ENDBRANCH  50  74
BRANCH  62  85
ATOM     85  C   UNL A   1      43.896  28.863  35.150  1.00  0.00     0.064 A 
ATOM     86  C   UNL A   1      45.188  29.350  34.908  1.00  0.00     0.173 A 
ATOM     87  C   UNL A   1      43.752  27.818  36.077  1.00  0.00     0.173 A 
ATOM     88  F   UNL A   1      45.383  30.340  34.022  1.00  0.00    -0.203 F 
ATOM     89  C   UNL A   1      46.296  28.786  35.535  1.00  0.00     0.198 A 
ATOM     90  C   UNL A   1      44.858  27.283  36.733  1.00  0.00     0.198 A 
ATOM     91  F   UNL A   1      42.538  27.320  36.354  1.00  0.00    -0.203 F 
ATOM     92  F   UNL A   1      47.527  29.223  35.237  1.00  0.00    -0.200 F 
ATOM     93  C   UNL A   1      46.129  27.759  36.452  1.00  0.00     0.200 A 
ATOM     94  F   UNL A   1      44.692  26.305  37.632  1.00  0.00    -0.200 F 
ATOM     95  F   UNL A   1      47.196  27.220  37.057  1.00  0.00    -0.200 F 
ENDBRANCH  62  85
ENDBRANCH  36  37
ENDBRANCH  28  31
ENDBRANCH  26  27
ENDBRANCH  25  26
ENDBRANCH  24  25
ENDBRANCH  23  24
ENDBRANCH   3  23
TORSDOF 17
ENDMDL
MODEL 2
REMARK VINA RESULT:     -11.5      5.615     10.366
REMARK SMILES CS(=O)(=O)NCC[NH2+]Cc1ccc(C(=O)NCCCCNC(=O)c2ccc(-c3c4nc(c(-c5c(F)c(F)c(F)c(F)c5F)c5ccc([nH]5)c(-c5c(F)c(F)c(F)c(F)c5F)c5nc(c(-c6c(F)c(F)c(F)c(F)c6F)c6ccc3[nH]6)C=C5)C=C4)cc2)cn1
REMARK SMILES IDX 14 1 15 2 16 3 13 5 10 6 11 7 88 8 12 9 87 10 9 11 8 12 7 15
REMARK SMILES IDX 6 16 5 17 2 19 1 20 3 21 4 22 17 23 18 24 19 25 20 26 21 27
REMARK SMILES IDX 22 28 23 30 24 31 25 32 86 33 26 34 85 35 27 36 28 37 29 38
REMARK SMILES IDX 79 39 30 40 84 41 78 42 80 43 31 44 83 45 77 46 76 47 32 49
REMARK SMILES IDX 64 50 44 51 63 52 45 53 48 54 62 55 81 56 46 57 47 58 61 60
REMARK SMILES IDX 82 61 49 62 33 63 34 64 42 65 35 66 36 67 40 68 43 69 37 70
REMARK SMILES IDX 38 71 41 72 39 73 65 74 66 75 74 76 67 77 68 78 72 79 75 80
REMARK SMILES IDX 69 81 70 82 73 83 71 84 50 85 51 86 59 87 52 88 53 89 57 90
REMARK SMILES IDX 60 91 54 92 55 93 58 94 56 95
REMARK H PARENT 16 4 8 13 8 14 5 18 21 29 80 48 48 59
REMARK Flexibility Score: inf
ROOT
ATOM      1  C   UNL A   1      34.442  22.809  26.678  1.00  0.00     0.252 C 
ATOM      2  O   UNL A   1      34.016  22.745  27.833  1.00  0.00    -0.269 OA
ATOM      3  N   UNL A   1      35.338  21.843  26.313  1.00  0.00    -0.352 N 
ATOM      4  H   UNL A   1      35.459  21.134  26.983  1.00  0.00     0.163 HD
ENDROOT
BRANCH   1   5
ATOM      5  C   UNL A   1      33.933  23.878  25.777  1.00  0.00     0.058 A 
ATOM      6  C   UNL A   1      32.744  25.516  23.867  1.00  0.00     0.094 A 
ATOM      7  C   UNL A   1      33.969  25.883  24.402  1.00  0.00     0.030 A 
ATOM      8  N   UNL A   1      32.071  24.446  24.341  1.00  0.00    -0.255 NA
ATOM      9  C   UNL A   1      34.552  25.068  25.383  1.00  0.00     0.017 A 
ATOM     10  C   UNL A   1      32.680  23.642  25.237  1.00  0.00     0.125 A 
BRANCH   6  11
ATOM     11  C   UNL A   1      32.119  26.279  22.709  1.00  0.00     0.317 C 
BRANCH  11  12
ATOM     12  N   UNL A   1      33.009  27.304  22.108  1.00  0.00    -0.340 N 
ATOM     13  H   UNL A   1      33.957  27.167  22.457  1.00  0.00     0.346 HD
ATOM     14  H   UNL A   1      32.982  27.201  21.093  1.00  0.00     0.346 HD
BRANCH  12  15
ATOM     15  C   UNL A   1      32.559  28.662  22.451  1.00  0.00     0.277 C 
BRANCH  15  16
ATOM     16  C   UNL A   1      31.031  28.793  22.534  1.00  0.00     0.159 C 
BRANCH  16  17
ATOM     17  N   UNL A   1      30.433  29.891  21.734  1.00  0.00    -0.210 NA
ATOM     18  H   UNL A   1      31.038  30.701  21.868  1.00  0.00     0.141 HD
BRANCH  17  19
ATOM     19  S   UNL A   1      28.866  30.433  21.980  1.00  0.00     0.208 S 
ATOM     20  C   UNL A   1      28.997  32.211  22.068  1.00  0.00     0.176 C 
ATOM     21  O   UNL A   1      28.440  29.910  23.254  1.00  0.00    -0.213 OA
ATOM     22  O   UNL A   1      28.130  30.089  20.781  1.00  0.00    -0.213 OA
ENDBRANCH  17  19
ENDBRANCH  16  17
ENDBRANCH  15  16
ENDBRANCH  12  15
ENDBRANCH  11  12
ENDBRANCH   6  11
ENDBRANCH   1   5
BRANCH   3  23
ATOM     23  C   UNL A   1      36.138  21.674  25.127  1.00  0.00     0.116 C 
BRANCH  23  24
ATOM     24  C   UNL A   1      36.675  20.245  25.068  1.00  0.00     0.023 C 
BRANCH  24  25
ATOM     25  C   UNL A   1      38.154  20.171  24.673  1.00  0.00     0.023 C 
BRANCH  25  26
ATOM     26  C   UNL A   1      39.121  20.320  25.840  1.00  0.00     0.116 C 
BRANCH  26  27
ATOM     27  N   UNL A   1      40.115  19.258  25.894  1.00  0.00    -0.352 N 
ATOM     28  C   UNL A   1      41.467  19.372  26.096  1.00  0.00     0.251 C 
ATOM     29  H   UNL A   1      39.775  18.341  25.770  1.00  0.00     0.163 HD
ATOM     30  O   UNL A   1      42.205  18.401  25.983  1.00  0.00    -0.269 OA
BRANCH  28  31
ATOM     31  C   UNL A   1      42.016  20.702  26.412  1.00  0.00     0.039 A 
ATOM     32  C   UNL A   1      42.336  21.564  25.365  1.00  0.00     0.014 A 
ATOM     33  C   UNL A   1      42.144  21.109  27.743  1.00  0.00     0.014 A 
ATOM     34  C   UNL A   1      42.742  22.864  25.655  1.00  0.00     0.010 A 
ATOM     35  C   UNL A   1      42.462  22.430  28.025  1.00  0.00     0.010 A 
ATOM     36  C   UNL A   1      42.776  23.317  26.985  1.00  0.00    -0.014 A 
BRANCH  36  37
ATOM     37  C   UNL A   1      43.155  24.714  27.303  1.00  0.00     0.031 A 
ATOM     38  C   UNL A   1      44.552  25.194  27.027  1.00  0.00     0.074 A 
ATOM     39  C   UNL A   1      42.253  25.534  27.876  1.00  0.00     0.049 A 
ATOM     40  N   UNL A   1      45.083  26.370  27.252  1.00  0.00    -0.248 NA
ATOM     41  C   UNL A   1      45.488  24.216  26.449  1.00  0.00     0.031 C 
ATOM     42  C   UNL A   1      40.885  25.163  28.243  1.00  0.00     0.029 A 
ATOM     43  N   UNL A   1      42.352  26.849  28.254  1.00  0.00    -0.354 N 
ATOM     44  C   UNL A   1      46.408  26.267  26.853  1.00  0.00     0.074 A 
ATOM     45  C   UNL A   1      46.623  24.899  26.437  1.00  0.00     0.031 C 
ATOM     46  C   UNL A   1      40.263  26.234  28.760  1.00  0.00     0.029 A 
ATOM     47  C   UNL A   1      41.198  27.354  28.800  1.00  0.00     0.049 A 
ATOM     48  H   UNL A   1      43.174  27.381  28.145  1.00  0.00     0.167 HD
ATOM     49  C   UNL A   1      47.354  27.234  26.808  1.00  0.00     0.037 A 
ATOM     50  C   UNL A   1      40.927  28.582  29.279  1.00  0.00     0.037 A 
ATOM     51  C   UNL A   1      47.128  28.598  27.208  1.00  0.00     0.049 A 
ATOM     52  C   UNL A   1      42.000  29.638  29.224  1.00  0.00     0.074 A 
ATOM     53  C   UNL A   1      48.003  29.669  27.152  1.00  0.00     0.029 A 
ATOM     54  N   UNL A   1      45.942  29.077  27.745  1.00  0.00    -0.354 N 
ATOM     55  N   UNL A   1      43.228  29.550  28.771  1.00  0.00    -0.248 NA
ATOM     56  C   UNL A   1      41.644  30.967  29.738  1.00  0.00     0.031 C 
ATOM     57  C   UNL A   1      47.365  30.781  27.712  1.00  0.00     0.029 A 
ATOM     58  C   UNL A   1      46.070  30.423  28.049  1.00  0.00     0.049 A 
ATOM     59  H   UNL A   1      45.129  28.541  27.888  1.00  0.00     0.167 HD
ATOM     60  C   UNL A   1      43.777  30.818  28.911  1.00  0.00     0.074 A 
ATOM     61  C   UNL A   1      42.741  31.659  29.475  1.00  0.00     0.031 C 
ATOM     62  C   UNL A   1      45.026  31.248  28.602  1.00  0.00     0.037 A 
BRANCH  49  63
ATOM     63  C   UNL A   1      48.720  26.851  26.310  1.00  0.00     0.064 A 
ATOM     64  C   UNL A   1      49.675  26.260  27.153  1.00  0.00     0.173 A 
ATOM     65  C   UNL A   1      49.067  27.046  24.965  1.00  0.00     0.173 A 
ATOM     66  F   UNL A   1      49.401  26.063  28.451  1.00  0.00    -0.203 F 
ATOM     67  C   UNL A   1      50.935  25.911  26.675  1.00  0.00     0.198 A 
ATOM     68  C   UNL A   1      50.315  26.661  24.482  1.00  0.00     0.198 A 
ATOM     69  F   UNL A   1      48.192  27.604  24.114  1.00  0.00    -0.203 F 
ATOM     70  F   UNL A   1      51.849  25.400  27.512  1.00  0.00    -0.200 F 
ATOM     71  C   UNL A   1      51.251  26.102  25.339  1.00  0.00     0.200 A 
ATOM     72  F   UNL A   1      50.612  26.834  23.187  1.00  0.00    -0.200 F 
ATOM     73  F   UNL A   1      52.460  25.755  24.878  1.00  0.00    -0.200 F 
ENDBRANCH  49  63
BRANCH  50  74
ATOM     74  C   UNL A   1      39.579  28.891  29.829  1.00  0.00     0.064 A 
ATOM     75  C   UNL A   1      38.542  29.330  28.994  1.00  0.00     0.173 A 
ATOM     76  C   UNL A   1      39.305  28.770  31.198  1.00  0.00     0.173 A 
ATOM     77  F   UNL A   1      38.758  29.478  27.679  1.00  0.00    -0.203 F 
ATOM     78  C   UNL A   1      37.293  29.667  29.512  1.00  0.00     0.198 A 
ATOM     79  C   UNL A   1      38.046  29.074  31.711  1.00  0.00     0.198 A 
ATOM     80  F   UNL A   1      40.259  28.346  32.040  1.00  0.00    -0.203 F 
ATOM     81  F   UNL A   1      36.338  30.141  28.700  1.00  0.00    -0.200 F 
ATOM     82  C   UNL A   1      37.045  29.534  30.870  1.00  0.00     0.200 A 
ATOM     83  F   UNL A   1      37.804  28.926  33.021  1.00  0.00    -0.200 F 
ATOM     84  F   UNL A   1      35.844  29.857  31.368  1.00  0.00    -0.200 F 
ENDBRANCH  50  74
BRANCH  62  85
ATOM     85  C   UNL A   1      45.325  32.706  28.819  1.00  0.00     0.064 A 
ATOM     86  C   UNL A   1      45.900  33.178  30.007  1.00  0.00     0.173 A 
ATOM     87  C   UNL A   1      45.047  33.640  27.808  1.00  0.00     0.173 A 
ATOM     88  F   UNL A   1      46.174  32.329  31.010  1.00  0.00    -0.203 F 
ATOM     89  C   UNL A   1      46.148  34.536  30.194  1.00  0.00     0.198 A 
ATOM     90  C   UNL A   1      45.334  34.992  27.982  1.00  0.00     0.198 A 
ATOM     91  F   UNL A   1      44.506  33.242  26.647  1.00  0.00    -0.203 F 
ATOM     92  F   UNL A   1      46.635  34.971  31.363  1.00  0.00    -0.200 F 
ATOM     93  C   UNL A   1      45.872  35.439  29.179  1.00  0.00     0.200 A 
ATOM     94  F   UNL A   1      45.084  35.859  26.993  1.00  0.00    -0.200 F 
ATOM     95  F   UNL A   1      46.113  36.745  29.358  1.00  0.00    -0.200 F 
ENDBRANCH  62  85
ENDBRANCH  36  37
ENDBRANCH  28  31
ENDBRANCH  26  27
ENDBRANCH  25  26
ENDBRANCH  24  25
ENDBRANCH  23  24
ENDBRANCH   3  23
TORSDOF 17
ENDMDL
MODEL 3
REMARK VINA RESULT:     -11.5      5.738     11.600
REMARK SMILES CS(=O)(=O)NCC[NH2+]Cc1ccc(C(=O)NCCCCNC(=O)c2ccc(-c3c4nc(c(-c5c(F)c(F)c(F)c(F)c5F)c5ccc([nH]5)c(-c5c(F)c(F)c(F)c(F)c5F)c5nc(c(-c6c(F)c(F)c(F)c(F)c6F)c6ccc3[nH]6)C=C5)C=C4)cc2)cn1
REMARK SMILES IDX 14 1 15 2 16 3 13 5 10 6 11 7 88 8 12 9 87 10 9 11 8 12 7 15
REMARK SMILES IDX 6 16 5 17 2 19 1 20 3 21 4 22 17 23 18 24 19 25 20 26 21 27
REMARK SMILES IDX 22 28 23 30 24 31 25 32 86 33 26 34 85 35 27 36 28 37 29 38
REMARK SMILES IDX 79 39 30 40 84 41 78 42 80 43 31 44 83 45 77 46 76 47 32 49
REMARK SMILES IDX 64 50 44 51 63 52 45 53 48 54 62 55 81 56 46 57 47 58 61 60
REMARK SMILES IDX 82 61 49 62 33 63 34 64 42 65 35 66 36 67 40 68 43 69 37 70
REMARK SMILES IDX 38 71 41 72 39 73 65 74 66 75 74 76 67 77 68 78 72 79 75 80
REMARK SMILES IDX 69 81 70 82 73 83 71 84 50 85 51 86 59 87 52 88 53 89 57 90
REMARK SMILES IDX 60 91 54 92 55 93 58 94 56 95
REMARK H PARENT 16 4 8 13 8 14 5 18 21 29 80 48 48 59
REMARK Flexibility Score: inf
ROOT
ATOM      1  C   UNL A   1      33.790  19.889  24.860  1.00  0.00     0.252 C 
ATOM      2  O   UNL A   1      33.328  18.748  24.774  1.00  0.00    -0.269 OA
ATOM      3  N   UNL A   1      35.115  19.978  25.187  1.00  0.00    -0.352 N 
ATOM      4  H   UNL A   1      35.582  19.113  25.207  1.00  0.00     0.163 HD
ENDROOT
BRANCH   1   5
ATOM      5  C   UNL A   1      32.907  21.051  24.570  1.00  0.00     0.058 A 
ATOM      6  C   UNL A   1      31.561  23.308  23.655  1.00  0.00     0.094 A 
ATOM      7  C   UNL A   1      31.509  22.992  25.005  1.00  0.00     0.030 A 
ATOM      8  N   UNL A   1      32.154  22.480  22.770  1.00  0.00    -0.255 NA
ATOM      9  C   UNL A   1      32.167  21.839  25.456  1.00  0.00     0.017 A 
ATOM     10  C   UNL A   1      32.835  21.412  23.235  1.00  0.00     0.125 A 
BRANCH   6  11
ATOM     11  C   UNL A   1      30.984  24.610  23.119  1.00  0.00     0.317 C 
BRANCH  11  12
ATOM     12  N   UNL A   1      29.792  25.095  23.860  1.00  0.00    -0.340 N 
ATOM     13  H   UNL A   1      28.966  24.981  23.273  1.00  0.00     0.346 HD
ATOM     14  H   UNL A   1      29.700  24.551  24.718  1.00  0.00     0.346 HD
BRANCH  12  15
ATOM     15  C   UNL A   1      29.936  26.515  24.220  1.00  0.00     0.277 C 
BRANCH  15  16
ATOM     16  C   UNL A   1      30.947  26.755  25.352  1.00  0.00     0.159 C 
BRANCH  16  17
ATOM     17  N   UNL A   1      31.292  28.173  25.617  1.00  0.00    -0.210 NA
ATOM     18  H   UNL A   1      31.920  28.458  24.866  1.00  0.00     0.141 HD
BRANCH  17  19
ATOM     19  S   UNL A   1      32.019  28.670  27.044  1.00  0.00     0.208 S 
ATOM     20  C   UNL A   1      33.736  28.210  26.878  1.00  0.00     0.176 C 
ATOM     21  O   UNL A   1      31.410  27.911  28.108  1.00  0.00    -0.213 OA
ATOM     22  O   UNL A   1      31.933  30.116  27.055  1.00  0.00    -0.213 OA
ENDBRANCH  17  19
ENDBRANCH  16  17
ENDBRANCH  15  16
ENDBRANCH  12  15
ENDBRANCH  11  12
ENDBRANCH   6  11
ENDBRANCH   1   5
BRANCH   3  23
ATOM     23  C   UNL A   1      35.951  21.107  25.507  1.00  0.00     0.116 C 
BRANCH  23  24
ATOM     24  C   UNL A   1      37.226  21.058  24.666  1.00  0.00     0.023 C 
BRANCH  24  25
ATOM     25  C   UNL A   1      38.125  19.863  25.001  1.00  0.00     0.023 C 
BRANCH  25  26
ATOM     26  C   UNL A   1      39.359  20.221  25.820  1.00  0.00     0.116 C 
BRANCH  26  27
ATOM     27  N   UNL A   1      40.305  19.120  25.933  1.00  0.00    -0.352 N 
ATOM     28  C   UNL A   1      41.661  19.185  26.127  1.00  0.00     0.251 C 
ATOM     29  H   UNL A   1      39.923  18.214  25.860  1.00  0.00     0.163 HD
ATOM     30  O   UNL A   1      42.355  18.178  26.069  1.00  0.00    -0.269 OA
BRANCH  28  31
ATOM     31  C   UNL A   1      42.269  20.505  26.369  1.00  0.00     0.039 A 
ATOM     32  C   UNL A   1      42.662  21.274  25.276  1.00  0.00     0.014 A 
ATOM     33  C   UNL A   1      42.382  20.997  27.672  1.00  0.00     0.014 A 
ATOM     34  C   UNL A   1      43.127  22.570  25.489  1.00  0.00     0.010 A 
ATOM     35  C   UNL A   1      42.760  22.317  27.873  1.00  0.00     0.010 A 
ATOM     36  C   UNL A   1      43.148  23.112  26.785  1.00  0.00    -0.014 A 
BRANCH  36  37
ATOM     37  C   UNL A   1      43.590  24.508  27.018  1.00  0.00     0.031 A 
ATOM     38  C   UNL A   1      42.614  25.530  27.528  1.00  0.00     0.074 A 
ATOM     39  C   UNL A   1      44.858  24.860  26.731  1.00  0.00     0.049 A 
ATOM     40  N   UNL A   1      42.801  26.802  27.776  1.00  0.00    -0.248 NA
ATOM     41  C   UNL A   1      41.235  25.071  27.765  1.00  0.00     0.031 C 
ATOM     42  C   UNL A   1      45.879  23.968  26.177  1.00  0.00     0.029 A 
ATOM     43  N   UNL A   1      45.505  26.062  26.861  1.00  0.00    -0.354 N 
ATOM     44  C   UNL A   1      41.568  27.291  28.185  1.00  0.00     0.074 A 
ATOM     45  C   UNL A   1      40.624  26.201  28.088  1.00  0.00     0.031 C 
ATOM     46  C   UNL A   1      47.031  24.645  26.049  1.00  0.00     0.029 A 
ATOM     47  C   UNL A   1      46.820  26.026  26.471  1.00  0.00     0.049 A 
ATOM     48  H   UNL A   1      45.066  26.876  27.203  1.00  0.00     0.167 HD
ATOM     49  C   UNL A   1      41.258  28.531  28.631  1.00  0.00     0.037 A 
ATOM     50  C   UNL A   1      47.750  26.999  26.456  1.00  0.00     0.037 A 
ATOM     51  C   UNL A   1      42.208  29.607  28.742  1.00  0.00     0.049 A 
ATOM     52  C   UNL A   1      47.376  28.371  26.950  1.00  0.00     0.074 A 
ATOM     53  C   UNL A   1      42.010  30.885  29.231  1.00  0.00     0.029 A 
ATOM     54  N   UNL A   1      43.537  29.530  28.348  1.00  0.00    -0.354 N 
ATOM     55  N   UNL A   1      46.226  28.803  27.410  1.00  0.00    -0.248 NA
ATOM     56  C   UNL A   1      48.435  29.389  26.935  1.00  0.00     0.031 C 
ATOM     57  C   UNL A   1      43.202  31.600  29.078  1.00  0.00     0.029 A 
ATOM     58  C   UNL A   1      44.163  30.747  28.561  1.00  0.00     0.049 A 
ATOM     59  H   UNL A   1      43.970  28.730  27.974  1.00  0.00     0.167 HD
ATOM     60  C   UNL A   1      46.433  30.127  27.771  1.00  0.00     0.074 A 
ATOM     61  C   UNL A   1      47.823  30.422  27.493  1.00  0.00     0.031 C 
ATOM     62  C   UNL A   1      45.551  31.022  28.286  1.00  0.00     0.037 A 
BRANCH  49  63
ATOM     63  C   UNL A   1      39.833  28.790  29.034  1.00  0.00     0.064 A 
ATOM     64  C   UNL A   1      39.393  28.604  30.354  1.00  0.00     0.173 A 
ATOM     65  C   UNL A   1      38.903  29.262  28.095  1.00  0.00     0.173 A 
ATOM     66  F   UNL A   1      40.236  28.141  31.289  1.00  0.00    -0.203 F 
ATOM     67  C   UNL A   1      38.069  28.849  30.710  1.00  0.00     0.198 A 
ATOM     68  C   UNL A   1      37.590  29.542  28.464  1.00  0.00     0.198 A 
ATOM     69  F   UNL A   1      39.270  29.461  26.820  1.00  0.00    -0.203 F 
ATOM     70  F   UNL A   1      37.659  28.611  31.964  1.00  0.00    -0.200 F 
ATOM     71  C   UNL A   1      37.172  29.327  29.768  1.00  0.00     0.200 A 
ATOM     72  F   UNL A   1      36.728  30.017  27.554  1.00  0.00    -0.200 F 
ATOM     73  F   UNL A   1      35.901  29.574  30.115  1.00  0.00    -0.200 F 
ENDBRANCH  49  63
BRANCH  50  74
ATOM     74  C   UNL A   1      49.130  26.708  25.980  1.00  0.00     0.064 A 
ATOM     75  C   UNL A   1      50.099  26.186  26.848  1.00  0.00     0.173 A 
ATOM     76  C   UNL A   1      49.513  26.963  24.655  1.00  0.00     0.173 A 
ATOM     77  F   UNL A   1      49.788  25.940  28.129  1.00  0.00    -0.203 F 
ATOM     78  C   UNL A   1      51.404  25.959  26.418  1.00  0.00     0.198 A 
ATOM     79  C   UNL A   1      50.810  26.703  24.217  1.00  0.00     0.198 A 
ATOM     80  F   UNL A   1      48.623  27.455  23.781  1.00  0.00    -0.203 F 
ATOM     81  F   UNL A   1      52.325  25.514  27.285  1.00  0.00    -0.200 F 
ATOM     82  C   UNL A   1      51.758  26.213  25.102  1.00  0.00     0.200 A 
ATOM     83  F   UNL A   1      51.141  26.932  22.939  1.00  0.00    -0.200 F 
ATOM     84  F   UNL A   1      53.013  25.993  24.689  1.00  0.00    -0.200 F 
ENDBRANCH  50  74
BRANCH  62  85
ATOM     85  C   UNL A   1      46.078  32.387  28.630  1.00  0.00     0.064 A 
ATOM     86  C   UNL A   1      46.628  32.677  29.886  1.00  0.00     0.173 A 
ATOM     87  C   UNL A   1      46.049  33.415  27.673  1.00  0.00     0.173 A 
ATOM     88  F   UNL A   1      46.669  31.734  30.841  1.00  0.00    -0.203 F 
ATOM     89  C   UNL A   1      47.091  33.955  30.189  1.00  0.00     0.198 A 
ATOM     90  C   UNL A   1      46.550  34.681  27.965  1.00  0.00     0.198 A 
ATOM     91  F   UNL A   1      45.544  33.190  26.451  1.00  0.00    -0.203 F 
ATOM     92  F   UNL A   1      47.550  34.226  31.418  1.00  0.00    -0.200 F 
ATOM     93  C   UNL A   1      47.058  34.953  29.226  1.00  0.00     0.200 A 
ATOM     94  F   UNL A   1      46.535  35.637  27.027  1.00  0.00    -0.200 F 
ATOM     95  F   UNL A   1      47.507  36.181  29.517  1.00  0.00    -0.200 F 
ENDBRANCH  62  85
ENDBRANCH  36  37
ENDBRANCH  28  31
ENDBRANCH  26  27
ENDBRANCH  25  26
ENDBRANCH  24  25
ENDBRANCH  23  24
ENDBRANCH   3  23
TORSDOF 17
ENDMDL
