MODEL 1
REMARK VINA RESULT:     -12.4      0.000      0.000
REMARK SMILES C[C@@H](C(=O)NCCCCNC(=O)c1ccc(-c2c3nc(c(-c4c(F)c(F)c(F)c(F)c4F)c4ccc([nH]4)c(-c4c(F)c(F)c(F)c(F)c4F)c4nc(c(-c5c(F)c(F)c(F)c(F)c5F)c5ccc2[nH]5)C=C4)C=C3)cc1)c1ccc(C(=O)c2cccs2)cc1
REMARK SMILES IDX 7 1 6 2 5 3 3 4 4 5 2 7 1 8 76 9 77 10 88 11 78 12 87 13
REMARK SMILES IDX 79 14 80 15 81 16 82 17 83 18 86 19 84 20 85 21 8 22 9 23
REMARK SMILES IDX 10 24 11 25 12 27 13 28 14 29 75 30 15 31 74 32 16 33 17 34
REMARK SMILES IDX 18 35 68 36 19 37 73 38 67 39 69 40 20 41 72 42 66 43 65 44
REMARK SMILES IDX 21 46 53 47 33 48 52 49 34 50 37 51 51 52 70 53 35 54 36 55
REMARK SMILES IDX 50 57 71 58 38 59 22 60 23 61 31 62 24 63 25 64 29 65 32 66
REMARK SMILES IDX 26 67 27 68 30 69 28 70 54 71 55 72 63 73 56 74 57 75 61 76
REMARK SMILES IDX 64 77 58 78 59 79 62 80 60 81 39 82 40 83 48 84 41 85 42 86
REMARK SMILES IDX 46 87 49 88 43 89 44 90 47 91 45 92
REMARK H PARENT 5 6 10 26 69 45 37 56
REMARK Flexibility Score: inf
ROOT
ATOM      1  C   UNL A   1      31.951  27.458  26.628  1.00  0.00     0.023 C 
ENDROOT
BRANCH   1   2
ATOM      2  C   UNL A   1      33.092  26.622  26.044  1.00  0.00     0.116 C 
BRANCH   2   3
ATOM      3  N   UNL A   1      32.716  25.229  25.944  1.00  0.00    -0.356 N 
ATOM      4  C   UNL A   1      32.238  24.518  24.883  1.00  0.00     0.227 C 
ATOM      5  O   UNL A   1      31.903  23.356  25.118  1.00  0.00    -0.274 OA
ATOM      6  H   UNL A   1      32.824  24.711  26.775  1.00  0.00     0.163 HD
BRANCH   4   7
ATOM      7  C   UNL A   1      32.180  25.159  23.484  1.00  0.00     0.105 C 
ATOM      8  C   UNL A   1      33.485  25.857  23.089  1.00  0.00     0.023 C 
BRANCH   7   9
ATOM      9  C   UNL A   1      31.034  26.155  23.329  1.00  0.00    -0.036 A 
ATOM     10  C   UNL A   1      29.794  25.937  23.947  1.00  0.00     0.005 A 
ATOM     11  C   UNL A   1      31.225  27.345  22.614  1.00  0.00     0.005 A 
ATOM     12  C   UNL A   1      28.765  26.874  23.839  1.00  0.00     0.012 A 
ATOM     13  C   UNL A   1      30.201  28.294  22.522  1.00  0.00     0.012 A 
ATOM     14  C   UNL A   1      28.957  28.064  23.126  1.00  0.00     0.023 A 
BRANCH  14  15
ATOM     15  C   UNL A   1      27.833  29.056  23.097  1.00  0.00     0.202 C 
ATOM     16  O   UNL A   1      26.698  28.659  23.355  1.00  0.00    -0.288 OA
BRANCH  15  17
ATOM     17  C   UNL A   1      28.123  30.448  22.809  1.00  0.00     0.075 A 
ATOM     18  C   UNL A   1      28.499  31.466  23.662  1.00  0.00     0.024 A 
ATOM     19  S   UNL A   1      28.028  30.981  21.185  1.00  0.00    -0.140 S 
ATOM     20  C   UNL A   1      28.659  32.708  22.977  1.00  0.00     0.012 A 
ATOM     21  C   UNL A   1      28.424  32.585  21.626  1.00  0.00     0.065 A 
ENDBRANCH  15  17
ENDBRANCH  14  15
ENDBRANCH   7   9
ENDBRANCH   4   7
ENDBRANCH   2   3
ENDBRANCH   1   2
BRANCH   1  22
ATOM     22  C   UNL A   1      31.775  28.839  25.989  1.00  0.00     0.023 C 
BRANCH  22  23
ATOM     23  C   UNL A   1      33.017  29.719  25.997  1.00  0.00     0.116 C 
BRANCH  23  24
ATOM     24  N   UNL A   1      32.725  31.101  26.339  1.00  0.00    -0.352 N 
ATOM     25  C   UNL A   1      33.341  31.917  27.251  1.00  0.00     0.251 C 
ATOM     26  H   UNL A   1      31.977  31.509  25.845  1.00  0.00     0.163 HD
ATOM     27  O   UNL A   1      32.860  33.023  27.503  1.00  0.00    -0.269 OA
BRANCH  25  28
ATOM     28  C   UNL A   1      34.564  31.471  27.951  1.00  0.00     0.039 A 
ATOM     29  C   UNL A   1      34.630  30.152  28.405  1.00  0.00     0.014 A 
ATOM     30  C   UNL A   1      35.626  32.348  28.191  1.00  0.00     0.014 A 
ATOM     31  C   UNL A   1      35.773  29.704  29.072  1.00  0.00     0.010 A 
ATOM     32  C   UNL A   1      36.796  31.879  28.782  1.00  0.00     0.010 A 
ATOM     33  C   UNL A   1      36.872  30.560  29.253  1.00  0.00    -0.014 A 
BRANCH  33  34
ATOM     34  C   UNL A   1      38.082  30.099  29.978  1.00  0.00     0.031 A 
ATOM     35  C   UNL A   1      38.328  30.548  31.394  1.00  0.00     0.074 A 
ATOM     36  C   UNL A   1      38.972  29.302  29.357  1.00  0.00     0.049 A 
ATOM     37  N   UNL A   1      39.322  30.257  32.195  1.00  0.00    -0.248 NA
ATOM     38  C   UNL A   1      37.340  31.468  31.978  1.00  0.00     0.031 C 
ATOM     39  C   UNL A   1      38.873  28.842  27.971  1.00  0.00     0.029 A 
ATOM     40  N   UNL A   1      40.137  28.738  29.813  1.00  0.00    -0.354 N 
ATOM     41  C   UNL A   1      39.087  30.971  33.364  1.00  0.00     0.074 A 
ATOM     42  C   UNL A   1      37.892  31.755  33.148  1.00  0.00     0.031 C 
ATOM     43  C   UNL A   1      39.912  28.036  27.701  1.00  0.00     0.029 A 
ATOM     44  C   UNL A   1      40.767  27.948  28.882  1.00  0.00     0.049 A 
ATOM     45  H   UNL A   1      40.488  28.886  30.721  1.00  0.00     0.167 HD
ATOM     46  C   UNL A   1      39.788  30.953  34.522  1.00  0.00     0.037 A 
ATOM     47  C   UNL A   1      41.900  27.229  28.976  1.00  0.00     0.037 A 
ATOM     48  C   UNL A   1      40.959  30.145  34.744  1.00  0.00     0.049 A 
ATOM     49  C   UNL A   1      42.653  27.214  30.281  1.00  0.00     0.074 A 
ATOM     50  C   UNL A   1      41.705  30.005  35.900  1.00  0.00     0.029 A 
ATOM     51  N   UNL A   1      41.556  29.343  33.783  1.00  0.00    -0.354 N 
ATOM     52  N   UNL A   1      42.376  27.828  31.406  1.00  0.00    -0.248 NA
ATOM     53  C   UNL A   1      43.870  26.392  30.330  1.00  0.00     0.031 C 
ATOM     54  C   UNL A   1      42.781  29.155  35.626  1.00  0.00     0.029 A 
ATOM     55  C   UNL A   1      42.672  28.719  34.316  1.00  0.00     0.049 A 
ATOM     56  H   UNL A   1      41.233  29.232  32.859  1.00  0.00     0.167 HD
ATOM     57  C   UNL A   1      43.357  27.436  32.306  1.00  0.00     0.074 A 
ATOM     58  C   UNL A   1      44.230  26.521  31.599  1.00  0.00     0.031 C 
ATOM     59  C   UNL A   1      43.521  27.797  33.603  1.00  0.00     0.037 A 
BRANCH  46  60
ATOM     60  C   UNL A   1      39.305  31.833  35.641  1.00  0.00     0.064 A 
ATOM     61  C   UNL A   1      39.723  33.168  35.763  1.00  0.00     0.173 A 
ATOM     62  C   UNL A   1      38.392  31.345  36.587  1.00  0.00     0.173 A 
ATOM     63  F   UNL A   1      40.605  33.682  34.893  1.00  0.00    -0.203 F 
ATOM     64  C   UNL A   1      39.272  33.967  36.810  1.00  0.00     0.198 A 
ATOM     65  C   UNL A   1      37.917  32.158  37.612  1.00  0.00     0.198 A 
ATOM     66  F   UNL A   1      37.955  30.078  36.514  1.00  0.00    -0.203 F 
ATOM     67  F   UNL A   1      39.731  35.220  36.939  1.00  0.00    -0.200 F 
ATOM     68  C   UNL A   1      38.364  33.465  37.729  1.00  0.00     0.200 A 
ATOM     69  F   UNL A   1      37.028  31.674  38.492  1.00  0.00    -0.200 F 
ATOM     70  F   UNL A   1      37.927  34.238  38.733  1.00  0.00    -0.200 F 
ENDBRANCH  46  60
BRANCH  47  71
ATOM     71  C   UNL A   1      42.370  26.422  27.819  1.00  0.00     0.064 A 
ATOM     72  C   UNL A   1      43.330  26.930  26.932  1.00  0.00     0.173 A 
ATOM     73  C   UNL A   1      41.864  25.139  27.567  1.00  0.00     0.173 A 
ATOM     74  F   UNL A   1      43.831  28.160  27.120  1.00  0.00    -0.203 F 
ATOM     75  C   UNL A   1      43.746  26.195  25.823  1.00  0.00     0.198 A 
ATOM     76  C   UNL A   1      42.303  24.395  26.475  1.00  0.00     0.198 A 
ATOM     77  F   UNL A   1      40.948  24.605  28.390  1.00  0.00    -0.203 F 
ATOM     78  F   UNL A   1      44.626  26.727  24.963  1.00  0.00    -0.200 F 
ATOM     79  C   UNL A   1      43.236  24.927  25.598  1.00  0.00     0.200 A 
ATOM     80  F   UNL A   1      41.818  23.162  26.269  1.00  0.00    -0.200 F 
ATOM     81  F   UNL A   1      43.636  24.221  24.532  1.00  0.00    -0.200 F 
ENDBRANCH  47  71
BRANCH  59  82
ATOM     82  C   UNL A   1      44.652  27.159  34.357  1.00  0.00     0.064 A 
ATOM     83  C   UNL A   1      45.921  27.752  34.434  1.00  0.00     0.173 A 
ATOM     84  C   UNL A   1      44.453  25.946  35.034  1.00  0.00     0.173 A 
ATOM     85  F   UNL A   1      46.167  28.906  33.795  1.00  0.00    -0.203 F 
ATOM     86  C   UNL A   1      46.959  27.135  35.128  1.00  0.00     0.198 A 
ATOM     87  C   UNL A   1      45.482  25.349  35.756  1.00  0.00     0.198 A 
ATOM     88  F   UNL A   1      43.256  25.341  35.001  1.00  0.00    -0.203 F 
ATOM     89  F   UNL A   1      48.179  27.688  35.136  1.00  0.00    -0.200 F 
ATOM     90  C   UNL A   1      46.736  25.938  35.793  1.00  0.00     0.200 A 
ATOM     91  F   UNL A   1      45.261  24.202  36.411  1.00  0.00    -0.200 F 
ATOM     92  F   UNL A   1      47.736  25.347  36.463  1.00  0.00    -0.200 F 
ENDBRANCH  59  82
ENDBRANCH  33  34
ENDBRANCH  25  28
ENDBRANCH  23  24
ENDBRANCH  22  23
ENDBRANCH   1  22
TORSDOF 14
ENDMDL
MODEL 2
REMARK VINA RESULT:     -12.4      0.084      1.684
REMARK SMILES C[C@@H](C(=O)NCCCCNC(=O)c1ccc(-c2c3nc(c(-c4c(F)c(F)c(F)c(F)c4F)c4ccc([nH]4)c(-c4c(F)c(F)c(F)c(F)c4F)c4nc(c(-c5c(F)c(F)c(F)c(F)c5F)c5ccc2[nH]5)C=C4)C=C3)cc1)c1ccc(C(=O)c2cccs2)cc1
REMARK SMILES IDX 7 1 6 2 5 3 3 4 4 5 2 7 1 8 76 9 77 10 88 11 78 12 87 13
REMARK SMILES IDX 79 14 80 15 81 16 82 17 83 18 86 19 84 20 85 21 8 22 9 23
REMARK SMILES IDX 10 24 11 25 12 27 13 28 14 29 75 30 15 31 74 32 16 33 17 34
REMARK SMILES IDX 18 35 68 36 19 37 73 38 67 39 69 40 20 41 72 42 66 43 65 44
REMARK SMILES IDX 21 46 53 47 33 48 52 49 34 50 37 51 51 52 70 53 35 54 36 55
REMARK SMILES IDX 50 57 71 58 38 59 22 60 23 61 31 62 24 63 25 64 29 65 32 66
REMARK SMILES IDX 26 67 27 68 30 69 28 70 54 71 55 72 63 73 56 74 57 75 61 76
REMARK SMILES IDX 64 77 58 78 59 79 62 80 60 81 39 82 40 83 48 84 41 85 42 86
REMARK SMILES IDX 46 87 49 88 43 89 44 90 47 91 45 92
REMARK H PARENT 5 6 10 26 69 45 37 56
REMARK Flexibility Score: inf
ROOT
ATOM      1  C   UNL A   1      32.080  27.421  26.725  1.00  0.00     0.023 C 
ENDROOT
BRANCH   1   2
ATOM      2  C   UNL A   1      33.208  26.675  26.011  1.00  0.00     0.116 C 
BRANCH   2   3
ATOM      3  N   UNL A   1      32.898  25.269  25.878  1.00  0.00    -0.356 N 
ATOM      4  C   UNL A   1      32.410  24.569  24.813  1.00  0.00     0.227 C 
ATOM      5  O   UNL A   1      32.144  23.384  25.021  1.00  0.00    -0.274 OA
ATOM      6  H   UNL A   1      33.068  24.730  26.684  1.00  0.00     0.163 HD
BRANCH   4   7
ATOM      7  C   UNL A   1      32.260  25.253  23.442  1.00  0.00     0.105 C 
ATOM      8  C   UNL A   1      33.535  25.967  22.984  1.00  0.00     0.023 C 
BRANCH   7   9
ATOM      9  C   UNL A   1      31.104  26.248  23.392  1.00  0.00    -0.036 A 
ATOM     10  C   UNL A   1      31.226  27.469  22.712  1.00  0.00     0.005 A 
ATOM     11  C   UNL A   1      29.871  25.927  23.974  1.00  0.00     0.005 A 
ATOM     12  C   UNL A   1      30.151  28.354  22.631  1.00  0.00     0.012 A 
ATOM     13  C   UNL A   1      28.786  26.805  23.876  1.00  0.00     0.012 A 
ATOM     14  C   UNL A   1      28.918  28.032  23.211  1.00  0.00     0.023 A 
BRANCH  14  15
ATOM     15  C   UNL A   1      27.785  28.999  23.038  1.00  0.00     0.202 C 
ATOM     16  O   UNL A   1      26.636  28.578  23.163  1.00  0.00    -0.288 OA
BRANCH  15  17
ATOM     17  C   UNL A   1      28.076  30.395  22.771  1.00  0.00     0.075 A 
ATOM     18  C   UNL A   1      28.423  31.407  23.644  1.00  0.00     0.024 A 
ATOM     19  S   UNL A   1      28.028  30.943  21.150  1.00  0.00    -0.140 S 
ATOM     20  C   UNL A   1      28.597  32.655  22.976  1.00  0.00     0.012 A 
ATOM     21  C   UNL A   1      28.403  32.544  21.617  1.00  0.00     0.065 A 
ENDBRANCH  15  17
ENDBRANCH  14  15
ENDBRANCH   7   9
ENDBRANCH   4   7
ENDBRANCH   2   3
ENDBRANCH   1   2
BRANCH   1  22
ATOM     22  C   UNL A   1      31.771  28.811  26.161  1.00  0.00     0.023 C 
BRANCH  22  23
ATOM     23  C   UNL A   1      32.977  29.724  25.992  1.00  0.00     0.116 C 
BRANCH  23  24
ATOM     24  N   UNL A   1      32.688  31.106  26.333  1.00  0.00    -0.352 N 
ATOM     25  C   UNL A   1      33.307  31.922  27.244  1.00  0.00     0.251 C 
ATOM     26  H   UNL A   1      31.941  31.516  25.839  1.00  0.00     0.163 HD
ATOM     27  O   UNL A   1      32.828  33.029  27.494  1.00  0.00    -0.269 OA
BRANCH  25  28
ATOM     28  C   UNL A   1      34.528  31.474  27.945  1.00  0.00     0.039 A 
ATOM     29  C   UNL A   1      34.590  30.156  28.403  1.00  0.00     0.014 A 
ATOM     30  C   UNL A   1      35.594  32.348  28.181  1.00  0.00     0.014 A 
ATOM     31  C   UNL A   1      35.732  29.706  29.071  1.00  0.00     0.010 A 
ATOM     32  C   UNL A   1      36.762  31.876  28.772  1.00  0.00     0.010 A 
ATOM     33  C   UNL A   1      36.834  30.559  29.247  1.00  0.00    -0.014 A 
BRANCH  33  34
ATOM     34  C   UNL A   1      38.043  30.096  29.973  1.00  0.00     0.031 A 
ATOM     35  C   UNL A   1      38.290  30.546  31.388  1.00  0.00     0.074 A 
ATOM     36  C   UNL A   1      38.932  29.297  29.353  1.00  0.00     0.049 A 
ATOM     37  N   UNL A   1      39.283  30.254  32.190  1.00  0.00    -0.248 NA
ATOM     38  C   UNL A   1      37.304  31.469  31.972  1.00  0.00     0.031 C 
ATOM     39  C   UNL A   1      38.831  28.836  27.968  1.00  0.00     0.029 A 
ATOM     40  N   UNL A   1      40.095  28.731  29.810  1.00  0.00    -0.354 N 
ATOM     41  C   UNL A   1      39.049  30.969  33.358  1.00  0.00     0.074 A 
ATOM     42  C   UNL A   1      37.855  31.755  33.141  1.00  0.00     0.031 C 
ATOM     43  C   UNL A   1      39.869  28.028  27.698  1.00  0.00     0.029 A 
ATOM     44  C   UNL A   1      40.723  27.939  28.880  1.00  0.00     0.049 A 
ATOM     45  H   UNL A   1      40.446  28.879  30.717  1.00  0.00     0.167 HD
ATOM     46  C   UNL A   1      39.750  30.950  34.517  1.00  0.00     0.037 A 
ATOM     47  C   UNL A   1      41.855  27.217  28.974  1.00  0.00     0.037 A 
ATOM     48  C   UNL A   1      40.919  30.141  34.739  1.00  0.00     0.049 A 
ATOM     49  C   UNL A   1      42.608  27.202  30.279  1.00  0.00     0.074 A 
ATOM     50  C   UNL A   1      41.665  30.000  35.896  1.00  0.00     0.029 A 
ATOM     51  N   UNL A   1      41.514  29.337  33.780  1.00  0.00    -0.354 N 
ATOM     52  N   UNL A   1      42.332  27.818  31.404  1.00  0.00    -0.248 NA
ATOM     53  C   UNL A   1      43.823  26.377  30.330  1.00  0.00     0.031 C 
ATOM     54  C   UNL A   1      42.739  29.148  35.623  1.00  0.00     0.029 A 
ATOM     55  C   UNL A   1      42.630  28.711  34.313  1.00  0.00     0.049 A 
ATOM     56  H   UNL A   1      41.192  29.225  32.856  1.00  0.00     0.167 HD
ATOM     57  C   UNL A   1      43.312  27.424  32.305  1.00  0.00     0.074 A 
ATOM     58  C   UNL A   1      44.183  26.507  31.598  1.00  0.00     0.031 C 
ATOM     59  C   UNL A   1      43.476  27.786  33.601  1.00  0.00     0.037 A 
BRANCH  46  60
ATOM     60  C   UNL A   1      39.269  31.833  35.634  1.00  0.00     0.064 A 
ATOM     61  C   UNL A   1      38.372  31.367  36.610  1.00  0.00     0.173 A 
ATOM     62  C   UNL A   1      39.731  33.152  35.749  1.00  0.00     0.173 A 
ATOM     63  F   UNL A   1      37.889  30.117  36.541  1.00  0.00    -0.203 F 
ATOM     64  C   UNL A   1      37.929  32.201  37.633  1.00  0.00     0.198 A 
ATOM     65  C   UNL A   1      39.312  33.972  36.793  1.00  0.00     0.198 A 
ATOM     66  F   UNL A   1      40.593  33.648  34.847  1.00  0.00    -0.203 F 
ATOM     67  F   UNL A   1      37.028  31.751  38.518  1.00  0.00    -0.200 F 
ATOM     68  C   UNL A   1      38.405  33.499  37.729  1.00  0.00     0.200 A 
ATOM     69  F   UNL A   1      39.784  35.223  36.892  1.00  0.00    -0.200 F 
ATOM     70  F   UNL A   1      37.982  34.298  38.719  1.00  0.00    -0.200 F 
ENDBRANCH  46  60
BRANCH  47  71
ATOM     71  C   UNL A   1      42.323  26.408  27.818  1.00  0.00     0.064 A 
ATOM     72  C   UNL A   1      43.294  26.908  26.938  1.00  0.00     0.173 A 
ATOM     73  C   UNL A   1      41.806  25.131  27.561  1.00  0.00     0.173 A 
ATOM     74  F   UNL A   1      43.806  28.133  27.132  1.00  0.00    -0.203 F 
ATOM     75  C   UNL A   1      43.708  26.172  25.829  1.00  0.00     0.198 A 
ATOM     76  C   UNL A   1      42.243  24.385  26.469  1.00  0.00     0.198 A 
ATOM     77  F   UNL A   1      40.880  24.604  28.376  1.00  0.00    -0.203 F 
ATOM     78  F   UNL A   1      44.599  26.697  24.976  1.00  0.00    -0.200 F 
ATOM     79  C   UNL A   1      43.187  24.909  25.599  1.00  0.00     0.200 A 
ATOM     80  F   UNL A   1      41.748  23.157  26.257  1.00  0.00    -0.200 F 
ATOM     81  F   UNL A   1      43.586  24.202  24.533  1.00  0.00    -0.200 F 
ENDBRANCH  47  71
BRANCH  59  82
ATOM     82  C   UNL A   1      44.606  27.147  34.356  1.00  0.00     0.064 A 
ATOM     83  C   UNL A   1      44.453  25.926  35.029  1.00  0.00     0.173 A 
ATOM     84  C   UNL A   1      45.870  27.757  34.384  1.00  0.00     0.173 A 
ATOM     85  F   UNL A   1      43.262  25.308  35.043  1.00  0.00    -0.203 F 
ATOM     86  C   UNL A   1      45.511  25.359  35.734  1.00  0.00     0.198 A 
ATOM     87  C   UNL A   1      46.935  27.170  35.061  1.00  0.00     0.198 A 
ATOM     88  F   UNL A   1      46.074  28.920  33.749  1.00  0.00    -0.203 F 
ATOM     89  F   UNL A   1      45.324  24.224  36.421  1.00  0.00    -0.200 F 
ATOM     90  C   UNL A   1      46.752  25.978  35.744  1.00  0.00     0.200 A 
ATOM     91  F   UNL A   1      48.138  27.761  35.055  1.00  0.00    -0.200 F 
ATOM     92  F   UNL A   1      47.770  25.430  36.421  1.00  0.00    -0.200 F 
ENDBRANCH  59  82
ENDBRANCH  33  34
ENDBRANCH  25  28
ENDBRANCH  23  24
ENDBRANCH  22  23
ENDBRANCH   1  22
TORSDOF 14
ENDMDL
MODEL 3
REMARK VINA RESULT:     -12.2      4.038      7.046
REMARK SMILES C[C@@H](C(=O)NCCCCNC(=O)c1ccc(-c2c3nc(c(-c4c(F)c(F)c(F)c(F)c4F)c4ccc([nH]4)c(-c4c(F)c(F)c(F)c(F)c4F)c4nc(c(-c5c(F)c(F)c(F)c(F)c5F)c5ccc2[nH]5)C=C4)C=C3)cc1)c1ccc(C(=O)c2cccs2)cc1
REMARK SMILES IDX 7 1 6 2 5 3 3 4 4 5 2 7 1 8 76 9 77 10 88 11 78 12 87 13
REMARK SMILES IDX 79 14 80 15 81 16 82 17 83 18 86 19 84 20 85 21 8 22 9 23
REMARK SMILES IDX 10 24 11 25 12 27 13 28 14 29 75 30 15 31 74 32 16 33 17 34
REMARK SMILES IDX 18 35 68 36 19 37 73 38 67 39 69 40 20 41 72 42 66 43 65 44
REMARK SMILES IDX 21 46 53 47 33 48 52 49 34 50 37 51 51 52 70 53 35 54 36 55
REMARK SMILES IDX 50 57 71 58 38 59 22 60 23 61 31 62 24 63 25 64 29 65 32 66
REMARK SMILES IDX 26 67 27 68 30 69 28 70 54 71 55 72 63 73 56 74 57 75 61 76
REMARK SMILES IDX 64 77 58 78 59 79 62 80 60 81 39 82 40 83 48 84 41 85 42 86
REMARK SMILES IDX 46 87 49 88 43 89 44 90 47 91 45 92
REMARK H PARENT 5 6 10 26 69 45 37 56
REMARK Flexibility Score: inf
ROOT
ATOM      1  C   UNL A   1      34.027  35.300  29.016  1.00  0.00     0.023 C 
ENDROOT
BRANCH   1   2
ATOM      2  C   UNL A   1      33.282  34.971  30.311  1.00  0.00     0.116 C 
BRANCH   2   3
ATOM      3  N   UNL A   1      33.973  35.514  31.460  1.00  0.00    -0.356 N 
ATOM      4  C   UNL A   1      35.000  35.000  32.196  1.00  0.00     0.227 C 
ATOM      5  O   UNL A   1      35.325  35.645  33.194  1.00  0.00    -0.274 OA
ATOM      6  H   UNL A   1      33.651  36.395  31.757  1.00  0.00     0.163 HD
BRANCH   4   7
ATOM      7  C   UNL A   1      35.709  33.711  31.742  1.00  0.00     0.105 C 
ATOM      8  C   UNL A   1      35.852  32.678  32.862  1.00  0.00     0.023 C 
BRANCH   7   9
ATOM      9  C   UNL A   1      37.089  33.967  31.142  1.00  0.00    -0.036 A 
ATOM     10  C   UNL A   1      38.155  34.415  31.936  1.00  0.00     0.005 A 
ATOM     11  C   UNL A   1      37.332  33.694  29.789  1.00  0.00     0.005 A 
ATOM     12  C   UNL A   1      39.425  34.603  31.390  1.00  0.00     0.012 A 
ATOM     13  C   UNL A   1      38.610  33.862  29.246  1.00  0.00     0.012 A 
ATOM     14  C   UNL A   1      39.668  34.328  30.039  1.00  0.00     0.023 A 
BRANCH  14  15
ATOM     15  C   UNL A   1      41.068  34.492  29.528  1.00  0.00     0.202 C 
ATOM     16  O   UNL A   1      41.296  35.407  28.738  1.00  0.00    -0.288 OA
BRANCH  15  17
ATOM     17  C   UNL A   1      42.108  33.602  30.007  1.00  0.00     0.075 A 
ATOM     18  C   UNL A   1      42.112  32.226  30.114  1.00  0.00     0.024 A 
ATOM     19  S   UNL A   1      43.595  34.283  30.512  1.00  0.00    -0.140 S 
ATOM     20  C   UNL A   1      43.332  31.735  30.667  1.00  0.00     0.012 A 
ATOM     21  C   UNL A   1      44.222  32.750  30.936  1.00  0.00     0.065 A 
ENDBRANCH  15  17
ENDBRANCH  14  15
ENDBRANCH   7   9
ENDBRANCH   4   7
ENDBRANCH   2   3
ENDBRANCH   1   2
BRANCH   1  22
ATOM     22  C   UNL A   1      34.099  34.150  28.007  1.00  0.00     0.023 C 
BRANCH  22  23
ATOM     23  C   UNL A   1      34.058  32.754  28.612  1.00  0.00     0.116 C 
BRANCH  23  24
ATOM     24  N   UNL A   1      33.644  31.740  27.658  1.00  0.00    -0.352 N 
ATOM     25  C   UNL A   1      34.296  30.599  27.268  1.00  0.00     0.251 C 
ATOM     26  H   UNL A   1      32.771  31.893  27.230  1.00  0.00     0.163 HD
ATOM     27  O   UNL A   1      33.848  29.928  26.337  1.00  0.00    -0.269 OA
BRANCH  25  28
ATOM     28  C   UNL A   1      35.545  30.182  27.939  1.00  0.00     0.039 A 
ATOM     29  C   UNL A   1      36.752  30.322  27.251  1.00  0.00     0.014 A 
ATOM     30  C   UNL A   1      35.531  29.627  29.223  1.00  0.00     0.014 A 
ATOM     31  C   UNL A   1      37.948  29.933  27.860  1.00  0.00     0.010 A 
ATOM     32  C   UNL A   1      36.729  29.317  29.859  1.00  0.00     0.010 A 
ATOM     33  C   UNL A   1      37.948  29.442  29.176  1.00  0.00    -0.014 A 
BRANCH  33  34
ATOM     34  C   UNL A   1      39.210  29.007  29.824  1.00  0.00     0.031 A 
ATOM     35  C   UNL A   1      39.667  29.663  31.100  1.00  0.00     0.074 A 
ATOM     36  C   UNL A   1      39.961  28.047  29.251  1.00  0.00     0.049 A 
ATOM     37  N   UNL A   1      40.736  29.427  31.817  1.00  0.00    -0.248 NA
ATOM     38  C   UNL A   1      38.822  30.747  31.626  1.00  0.00     0.031 C 
ATOM     39  C   UNL A   1      39.654  27.373  27.989  1.00  0.00     0.029 A 
ATOM     40  N   UNL A   1      41.138  27.471  29.659  1.00  0.00    -0.354 N 
ATOM     41  C   UNL A   1      40.700  30.341  32.862  1.00  0.00     0.074 A 
ATOM     42  C   UNL A   1      39.538  31.176  32.654  1.00  0.00     0.031 C 
ATOM     43  C   UNL A   1      40.597  26.449  27.744  1.00  0.00     0.029 A 
ATOM     44  C   UNL A   1      41.590  26.487  28.814  1.00  0.00     0.049 A 
ATOM     45  H   UNL A   1      41.612  27.737  30.479  1.00  0.00     0.167 HD
ATOM     46  C   UNL A   1      41.543  30.457  33.916  1.00  0.00     0.037 A 
ATOM     47  C   UNL A   1      42.679  25.701  28.898  1.00  0.00     0.037 A 
ATOM     48  C   UNL A   1      42.680  29.602  34.136  1.00  0.00     0.049 A 
ATOM     49  C   UNL A   1      43.593  25.840  30.088  1.00  0.00     0.074 A 
ATOM     50  C   UNL A   1      43.560  29.594  35.204  1.00  0.00     0.029 A 
ATOM     51  N   UNL A   1      43.095  28.605  33.268  1.00  0.00    -0.354 N 
ATOM     52  N   UNL A   1      43.503  26.653  31.113  1.00  0.00    -0.248 NA
ATOM     53  C   UNL A   1      44.752  24.938  30.138  1.00  0.00     0.031 C 
ATOM     54  C   UNL A   1      44.536  28.623  34.959  1.00  0.00     0.029 A 
ATOM     55  C   UNL A   1      44.231  27.986  33.767  1.00  0.00     0.049 A 
ATOM     56  H   UNL A   1      42.649  28.369  32.422  1.00  0.00     0.167 HD
ATOM     57  C   UNL A   1      44.567  26.334  31.947  1.00  0.00     0.074 A 
ATOM     58  C   UNL A   1      45.281  25.245  31.313  1.00  0.00     0.031 C 
ATOM     59  C   UNL A   1      44.920  26.891  33.132  1.00  0.00     0.037 A 
BRANCH  46  60
ATOM     60  C   UNL A   1      41.266  31.548  34.912  1.00  0.00     0.064 A 
ATOM     61  C   UNL A   1      41.945  32.776  34.870  1.00  0.00     0.173 A 
ATOM     62  C   UNL A   1      40.289  31.375  35.903  1.00  0.00     0.173 A 
ATOM     63  F   UNL A   1      42.898  32.991  33.950  1.00  0.00    -0.203 F 
ATOM     64  C   UNL A   1      41.682  33.773  35.806  1.00  0.00     0.198 A 
ATOM     65  C   UNL A   1      40.004  32.387  36.815  1.00  0.00     0.198 A 
ATOM     66  F   UNL A   1      39.605  30.223  35.985  1.00  0.00    -0.203 F 
ATOM     67  F   UNL A   1      42.385  34.914  35.782  1.00  0.00    -0.200 F 
ATOM     68  C   UNL A   1      40.707  33.582  36.773  1.00  0.00     0.200 A 
ATOM     69  F   UNL A   1      39.051  32.206  37.741  1.00  0.00    -0.200 F 
ATOM     70  F   UNL A   1      40.451  34.545  37.668  1.00  0.00    -0.200 F 
ENDBRANCH  46  60
BRANCH  47  71
ATOM     71  C   UNL A   1      42.943  24.676  27.854  1.00  0.00     0.064 A 
ATOM     72  C   UNL A   1      43.605  25.017  26.665  1.00  0.00     0.173 A 
ATOM     73  C   UNL A   1      42.531  23.346  28.012  1.00  0.00     0.173 A 
ATOM     74  F   UNL A   1      44.002  26.281  26.459  1.00  0.00    -0.203 F 
ATOM     75  C   UNL A   1      43.820  24.072  25.664  1.00  0.00     0.198 A 
ATOM     76  C   UNL A   1      42.773  22.396  27.023  1.00  0.00     0.198 A 
ATOM     77  F   UNL A   1      41.900  22.967  29.133  1.00  0.00    -0.203 F 
ATOM     78  F   UNL A   1      44.408  24.437  24.517  1.00  0.00    -0.200 F 
ATOM     79  C   UNL A   1      43.409  22.761  25.846  1.00  0.00     0.200 A 
ATOM     80  F   UNL A   1      42.388  21.125  27.208  1.00  0.00    -0.200 F 
ATOM     81  F   UNL A   1      43.616  21.852  24.883  1.00  0.00    -0.200 F 
ENDBRANCH  47  71
BRANCH  59  82
ATOM     82  C   UNL A   1      46.098  26.294  33.848  1.00  0.00     0.064 A 
ATOM     83  C   UNL A   1      47.400  26.783  33.671  1.00  0.00     0.173 A 
ATOM     84  C   UNL A   1      45.912  25.231  34.745  1.00  0.00     0.173 A 
ATOM     85  F   UNL A   1      47.633  27.789  32.814  1.00  0.00    -0.203 F 
ATOM     86  C   UNL A   1      48.479  26.204  34.335  1.00  0.00     0.198 A 
ATOM     87  C   UNL A   1      46.987  24.678  35.435  1.00  0.00     0.198 A 
ATOM     88  F   UNL A   1      44.686  24.732  34.960  1.00  0.00    -0.203 F 
ATOM     89  F   UNL A   1      49.722  26.647  34.103  1.00  0.00    -0.200 F 
ATOM     90  C   UNL A   1      48.270  25.158  35.220  1.00  0.00     0.200 A 
ATOM     91  F   UNL A   1      46.782  23.678  36.303  1.00  0.00    -0.200 F 
ATOM     92  F   UNL A   1      49.309  24.604  35.861  1.00  0.00    -0.200 F 
ENDBRANCH  59  82
ENDBRANCH  33  34
ENDBRANCH  25  28
ENDBRANCH  23  24
ENDBRANCH  22  23
ENDBRANCH   1  22
TORSDOF 14
ENDMDL
