MODEL 1
REMARK VINA RESULT:     -11.3      0.000      0.000
REMARK SMILES C=CC[N@H+](CC(=O)NCCCCNC(=O)c1ccc(-c2c3nc(c(-c4c(F)c(F)c(F)c(F)c4F)c4ccc([nH]4)c(-c4c(F)c(F)c(F)c(F)c4F)c4nc(c(-c5c(F)c(F)c(F)c(F)c5F)c5ccc2[nH]5)C=C4)C=C3)cc1)C1CCCCC1
REMARK SMILES IDX 10 1 9 2 8 3 6 4 7 5 5 7 4 8 3 10 2 11 1 12 79 13 80 14
REMARK SMILES IDX 84 15 81 16 83 17 82 18 11 19 12 20 13 21 14 22 15 24 16 25
REMARK SMILES IDX 17 26 78 27 18 28 77 29 19 30 20 31 21 32 71 33 22 34 76 35
REMARK SMILES IDX 70 36 72 37 23 38 75 39 69 40 68 41 24 43 56 44 36 45 55 46
REMARK SMILES IDX 37 47 40 48 54 49 73 50 38 51 39 52 53 54 74 55 41 56 25 57
REMARK SMILES IDX 26 58 34 59 27 60 28 61 32 62 35 63 29 64 30 65 33 66 31 67
REMARK SMILES IDX 57 68 58 69 66 70 59 71 60 72 64 73 67 74 61 75 62 76 65 77
REMARK SMILES IDX 63 78 42 79 43 80 51 81 44 82 45 83 49 84 52 85 46 86 47 87
REMARK SMILES IDX 50 88 48 89
REMARK H PARENT 8 6 4 9 13 23 72 42 40 53
REMARK Flexibility Score: inf
ROOT
ATOM      1  C   UNL A   1      31.761  30.695  26.141  1.00  0.00     0.023 C 
ENDROOT
BRANCH   1   2
ATOM      2  C   UNL A   1      32.382  29.606  27.017  1.00  0.00     0.116 C 
BRANCH   2   3
ATOM      3  N   UNL A   1      31.530  28.450  27.170  1.00  0.00    -0.351 N 
ATOM      4  C   UNL A   1      31.470  27.324  26.396  1.00  0.00     0.275 C 
ATOM      5  O   UNL A   1      30.790  26.381  26.813  1.00  0.00    -0.269 OA
ATOM      6  H   UNL A   1      30.908  28.476  27.934  1.00  0.00     0.163 HD
BRANCH   4   7
ATOM      7  C   UNL A   1      32.255  27.224  25.075  1.00  0.00     0.364 C 
BRANCH   7   8
ATOM      8  N   UNL A   1      31.375  27.251  23.881  1.00  0.00    -0.321 N 
ATOM      9  H   UNL A   1      31.755  27.829  23.132  1.00  0.00     0.349 HD
BRANCH   8  10
ATOM     10  C   UNL A   1      31.382  25.959  23.196  1.00  0.00     0.291 C 
BRANCH  10  11
ATOM     11  C   UNL A   1      30.928  24.691  23.846  1.00  0.00     0.025 C 
ATOM     12  C   UNL A   1      30.950  23.486  23.252  1.00  0.00     0.010 C 
ENDBRANCH  10  11
ENDBRANCH   8  10
BRANCH   8  13
ATOM     13  C   UNL A   1      30.217  28.184  23.909  1.00  0.00     0.184 C 
ATOM     14  C   UNL A   1      30.469  29.424  23.002  1.00  0.00     0.065 C 
ATOM     15  C   UNL A   1      28.897  27.502  23.474  1.00  0.00     0.065 C 
ATOM     16  C   UNL A   1      29.260  30.315  22.740  1.00  0.00     0.006 C 
ATOM     17  C   UNL A   1      27.729  28.425  23.141  1.00  0.00     0.006 C 
ATOM     18  C   UNL A   1      28.122  29.504  22.156  1.00  0.00     0.000 C 
ENDBRANCH   8  13
ENDBRANCH   7   8
ENDBRANCH   4   7
ENDBRANCH   2   3
ENDBRANCH   1   2
BRANCH   1  19
ATOM     19  C   UNL A   1      31.431  32.003  26.850  1.00  0.00     0.023 C 
BRANCH  19  20
ATOM     20  C   UNL A   1      32.637  32.819  27.282  1.00  0.00     0.116 C 
BRANCH  20  21
ATOM     21  N   UNL A   1      32.325  34.185  27.680  1.00  0.00    -0.352 N 
ATOM     22  C   UNL A   1      32.966  34.988  28.598  1.00  0.00     0.251 C 
ATOM     23  H   UNL A   1      31.549  34.591  27.230  1.00  0.00     0.163 HD
ATOM     24  O   UNL A   1      32.527  36.092  28.870  1.00  0.00    -0.269 OA
BRANCH  22  25
ATOM     25  C   UNL A   1      34.168  34.471  29.290  1.00  0.00     0.039 A 
ATOM     26  C   UNL A   1      34.003  33.742  30.469  1.00  0.00     0.014 A 
ATOM     27  C   UNL A   1      35.442  34.657  28.751  1.00  0.00     0.014 A 
ATOM     28  C   UNL A   1      35.112  33.139  31.063  1.00  0.00     0.010 A 
ATOM     29  C   UNL A   1      36.523  33.962  29.276  1.00  0.00     0.010 A 
ATOM     30  C   UNL A   1      36.374  33.208  30.447  1.00  0.00    -0.014 A 
BRANCH  30  31
ATOM     31  C   UNL A   1      37.544  32.508  31.029  1.00  0.00     0.031 A 
ATOM     32  C   UNL A   1      38.036  32.870  32.404  1.00  0.00     0.074 A 
ATOM     33  C   UNL A   1      38.189  31.576  30.300  1.00  0.00     0.049 A 
ATOM     34  N   UNL A   1      39.024  32.354  33.092  1.00  0.00    -0.248 NA
ATOM     35  C   UNL A   1      37.355  33.983  33.085  1.00  0.00     0.031 C 
ATOM     36  C   UNL A   1      37.861  31.204  28.922  1.00  0.00     0.029 A 
ATOM     37  N   UNL A   1      39.248  30.765  30.618  1.00  0.00    -0.354 N 
ATOM     38  C   UNL A   1      39.084  33.085  34.271  1.00  0.00     0.074 A 
ATOM     39  C   UNL A   1      38.088  34.128  34.176  1.00  0.00     0.031 C 
ATOM     40  C   UNL A   1      38.669  30.205  28.531  1.00  0.00     0.029 A 
ATOM     41  C   UNL A   1      39.586  29.884  29.619  1.00  0.00     0.049 A 
ATOM     42  H   UNL A   1      39.722  30.810  31.480  1.00  0.00     0.167 HD
ATOM     43  C   UNL A   1      39.871  32.880  35.353  1.00  0.00     0.037 A 
ATOM     44  C   UNL A   1      40.520  28.916  29.596  1.00  0.00     0.037 A 
ATOM     45  C   UNL A   1      40.838  31.820  35.452  1.00  0.00     0.049 A 
ATOM     46  C   UNL A   1      41.352  28.679  30.827  1.00  0.00     0.074 A 
ATOM     47  C   UNL A   1      41.644  31.482  36.525  1.00  0.00     0.029 A 
ATOM     48  N   UNL A   1      41.129  30.924  34.433  1.00  0.00    -0.354 N 
ATOM     49  N   UNL A   1      41.335  29.315  31.974  1.00  0.00    -0.248 NA
ATOM     50  C   UNL A   1      42.319  27.576  30.767  1.00  0.00     0.031 C 
ATOM     51  C   UNL A   1      42.454  30.408  36.140  1.00  0.00     0.029 A 
ATOM     52  C   UNL A   1      42.113  30.041  34.847  1.00  0.00     0.049 A 
ATOM     53  H   UNL A   1      40.699  30.916  33.548  1.00  0.00     0.167 HD
ATOM     54  C   UNL A   1      42.266  28.674  32.780  1.00  0.00     0.074 A 
ATOM     55  C   UNL A   1      42.810  27.583  31.998  1.00  0.00     0.031 C 
ATOM     56  C   UNL A   1      42.639  28.962  34.052  1.00  0.00     0.037 A 
BRANCH  43  57
ATOM     57  C   UNL A   1      39.705  33.816  36.518  1.00  0.00     0.064 A 
ATOM     58  C   UNL A   1      40.347  35.064  36.556  1.00  0.00     0.173 A 
ATOM     59  C   UNL A   1      38.880  33.471  37.598  1.00  0.00     0.173 A 
ATOM     60  F   UNL A   1      41.160  35.438  35.556  1.00  0.00    -0.203 F 
ATOM     61  C   UNL A   1      40.196  35.916  37.647  1.00  0.00     0.198 A 
ATOM     62  C   UNL A   1      38.704  34.340  38.672  1.00  0.00     0.198 A 
ATOM     63  F   UNL A   1      38.241  32.293  37.613  1.00  0.00    -0.203 F 
ATOM     64  F   UNL A   1      40.866  37.077  37.687  1.00  0.00    -0.200 F 
ATOM     65  C   UNL A   1      39.369  35.558  38.701  1.00  0.00     0.200 A 
ATOM     66  F   UNL A   1      37.894  33.998  39.684  1.00  0.00    -0.200 F 
ATOM     67  F   UNL A   1      39.220  36.380  39.747  1.00  0.00    -0.200 F 
ENDBRANCH  43  57
BRANCH  44  68
ATOM     68  C   UNL A   1      40.675  28.060  28.390  1.00  0.00     0.064 A 
ATOM     69  C   UNL A   1      40.025  26.821  28.296  1.00  0.00     0.173 A 
ATOM     70  C   UNL A   1      41.475  28.458  27.309  1.00  0.00     0.173 A 
ATOM     71  F   UNL A   1      39.261  26.388  29.310  1.00  0.00    -0.203 F 
ATOM     72  C   UNL A   1      40.189  26.003  27.181  1.00  0.00     0.198 A 
ATOM     73  C   UNL A   1      41.615  27.652  26.181  1.00  0.00     0.198 A 
ATOM     74  F   UNL A   1      42.112  29.639  27.344  1.00  0.00    -0.203 F 
ATOM     75  F   UNL A   1      39.594  24.802  27.141  1.00  0.00    -0.200 F 
ATOM     76  C   UNL A   1      40.980  26.421  26.122  1.00  0.00     0.200 A 
ATOM     77  F   UNL A   1      42.367  28.067  25.152  1.00  0.00    -0.200 F 
ATOM     78  F   UNL A   1      41.135  25.635  25.048  1.00  0.00    -0.200 F 
ENDBRANCH  44  68
BRANCH  56  79
ATOM     79  C   UNL A   1      43.662  28.060  34.680  1.00  0.00     0.064 A 
ATOM     80  C   UNL A   1      45.031  28.366  34.657  1.00  0.00     0.173 A 
ATOM     81  C   UNL A   1      43.264  26.878  35.324  1.00  0.00     0.173 A 
ATOM     82  F   UNL A   1      45.463  29.477  34.043  1.00  0.00    -0.203 F 
ATOM     83  C   UNL A   1      45.967  27.500  35.216  1.00  0.00     0.198 A 
ATOM     84  C   UNL A   1      44.199  26.033  35.912  1.00  0.00     0.198 A 
ATOM     85  F   UNL A   1      41.966  26.544  35.384  1.00  0.00    -0.203 F 
ATOM     86  F   UNL A   1      47.274  27.780  35.122  1.00  0.00    -0.200 F 
ATOM     87  C   UNL A   1      45.551  26.338  35.846  1.00  0.00     0.200 A 
ATOM     88  F   UNL A   1      43.794  24.918  36.536  1.00  0.00    -0.200 F 
ATOM     89  F   UNL A   1      46.453  25.505  36.382  1.00  0.00    -0.200 F 
ENDBRANCH  56  79
ENDBRANCH  30  31
ENDBRANCH  22  25
ENDBRANCH  20  21
ENDBRANCH  19  20
ENDBRANCH   1  19
TORSDOF 15
ENDMDL
MODEL 2
REMARK VINA RESULT:     -11.2      1.213      2.202
REMARK SMILES C=CC[N@H+](CC(=O)NCCCCNC(=O)c1ccc(-c2c3nc(c(-c4c(F)c(F)c(F)c(F)c4F)c4ccc([nH]4)c(-c4c(F)c(F)c(F)c(F)c4F)c4nc(c(-c5c(F)c(F)c(F)c(F)c5F)c5ccc2[nH]5)C=C4)C=C3)cc1)C1CCCCC1
REMARK SMILES IDX 10 1 9 2 8 3 6 4 7 5 5 7 4 8 3 10 2 11 1 12 79 13 80 14
REMARK SMILES IDX 84 15 81 16 83 17 82 18 11 19 12 20 13 21 14 22 15 24 16 25
REMARK SMILES IDX 17 26 78 27 18 28 77 29 19 30 20 31 21 32 71 33 22 34 76 35
REMARK SMILES IDX 70 36 72 37 23 38 75 39 69 40 68 41 24 43 56 44 36 45 55 46
REMARK SMILES IDX 37 47 40 48 54 49 73 50 38 51 39 52 53 54 74 55 41 56 25 57
REMARK SMILES IDX 26 58 34 59 27 60 28 61 32 62 35 63 29 64 30 65 33 66 31 67
REMARK SMILES IDX 57 68 58 69 66 70 59 71 60 72 64 73 67 74 61 75 62 76 65 77
REMARK SMILES IDX 63 78 42 79 43 80 51 81 44 82 45 83 49 84 52 85 46 86 47 87
REMARK SMILES IDX 50 88 48 89
REMARK H PARENT 8 6 4 9 13 23 72 42 40 53
REMARK Flexibility Score: inf
ROOT
ATOM      1  C   UNL A   1      31.848  30.368  26.496  1.00  0.00     0.023 C 
ENDROOT
BRANCH   1   2
ATOM      2  C   UNL A   1      31.731  29.806  25.077  1.00  0.00     0.116 C 
BRANCH   2   3
ATOM      3  N   UNL A   1      33.012  29.634  24.431  1.00  0.00    -0.351 N 
ATOM      4  C   UNL A   1      33.327  28.855  23.352  1.00  0.00     0.275 C 
ATOM      5  O   UNL A   1      34.449  28.994  22.856  1.00  0.00    -0.269 OA
ATOM      6  H   UNL A   1      33.759  30.147  24.820  1.00  0.00     0.163 HD
BRANCH   4   7
ATOM      7  C   UNL A   1      32.304  27.871  22.756  1.00  0.00     0.364 C 
BRANCH   7   8
ATOM      8  N   UNL A   1      32.248  26.584  23.493  1.00  0.00    -0.321 N 
ATOM      9  H   UNL A   1      32.396  26.704  24.495  1.00  0.00     0.349 HD
BRANCH   8  10
ATOM     10  C   UNL A   1      30.883  26.059  23.527  1.00  0.00     0.291 C 
BRANCH  10  11
ATOM     11  C   UNL A   1      29.697  26.899  23.880  1.00  0.00     0.025 C 
ATOM     12  C   UNL A   1      28.437  26.439  23.947  1.00  0.00     0.010 C 
ENDBRANCH  10  11
ENDBRANCH   8  10
BRANCH   8  13
ATOM     13  C   UNL A   1      33.474  25.743  23.491  1.00  0.00     0.184 C 
ATOM     14  C   UNL A   1      34.015  25.527  24.934  1.00  0.00     0.065 C 
ATOM     15  C   UNL A   1      33.244  24.363  22.827  1.00  0.00     0.065 C 
ATOM     16  C   UNL A   1      35.106  24.474  25.088  1.00  0.00     0.006 C 
ATOM     17  C   UNL A   1      34.316  23.304  23.066  1.00  0.00     0.006 C 
ATOM     18  C   UNL A   1      34.637  23.142  24.536  1.00  0.00     0.000 C 
ENDBRANCH   8  13
ENDBRANCH   7   8
ENDBRANCH   4   7
ENDBRANCH   2   3
ENDBRANCH   1   2
BRANCH   1  19
ATOM     19  C   UNL A   1      31.587  31.863  26.636  1.00  0.00     0.023 C 
BRANCH  19  20
ATOM     20  C   UNL A   1      32.746  32.664  27.204  1.00  0.00     0.116 C 
BRANCH  20  21
ATOM     21  N   UNL A   1      32.390  34.011  27.631  1.00  0.00    -0.352 N 
ATOM     22  C   UNL A   1      32.989  34.803  28.587  1.00  0.00     0.251 C 
ATOM     23  H   UNL A   1      31.616  34.410  27.174  1.00  0.00     0.163 HD
ATOM     24  O   UNL A   1      32.516  35.889  28.877  1.00  0.00    -0.269 OA
BRANCH  22  25
ATOM     25  C   UNL A   1      34.187  34.297  29.293  1.00  0.00     0.039 A 
ATOM     26  C   UNL A   1      34.013  33.430  30.373  1.00  0.00     0.014 A 
ATOM     27  C   UNL A   1      35.471  34.632  28.860  1.00  0.00     0.014 A 
ATOM     28  C   UNL A   1      35.130  32.842  30.967  1.00  0.00     0.010 A 
ATOM     29  C   UNL A   1      36.571  33.958  29.374  1.00  0.00     0.010 A 
ATOM     30  C   UNL A   1      36.415  33.069  30.444  1.00  0.00    -0.014 A 
BRANCH  30  31
ATOM     31  C   UNL A   1      37.602  32.391  31.020  1.00  0.00     0.031 A 
ATOM     32  C   UNL A   1      38.091  32.759  32.394  1.00  0.00     0.074 A 
ATOM     33  C   UNL A   1      38.263  31.474  30.286  1.00  0.00     0.049 A 
ATOM     34  N   UNL A   1      39.092  32.262  33.078  1.00  0.00    -0.248 NA
ATOM     35  C   UNL A   1      37.390  33.856  33.081  1.00  0.00     0.031 C 
ATOM     36  C   UNL A   1      37.938  31.100  28.908  1.00  0.00     0.029 A 
ATOM     37  N   UNL A   1      39.339  30.684  30.598  1.00  0.00    -0.354 N 
ATOM     38  C   UNL A   1      39.141  32.990  34.259  1.00  0.00     0.074 A 
ATOM     39  C   UNL A   1      38.124  34.013  34.171  1.00  0.00     0.031 C 
ATOM     40  C   UNL A   1      38.764  30.119  28.511  1.00  0.00     0.029 A 
ATOM     41  C   UNL A   1      39.692  29.814  29.596  1.00  0.00     0.049 A 
ATOM     42  H   UNL A   1      39.815  30.736  31.459  1.00  0.00     0.167 HD
ATOM     43  C   UNL A   1      39.936  32.798  35.337  1.00  0.00     0.037 A 
ATOM     44  C   UNL A   1      40.644  28.864  29.566  1.00  0.00     0.037 A 
ATOM     45  C   UNL A   1      40.924  31.757  35.430  1.00  0.00     0.049 A 
ATOM     46  C   UNL A   1      41.485  28.641  30.794  1.00  0.00     0.074 A 
ATOM     47  C   UNL A   1      41.741  31.433  36.499  1.00  0.00     0.029 A 
ATOM     48  N   UNL A   1      41.229  30.870  34.408  1.00  0.00    -0.354 N 
ATOM     49  N   UNL A   1      41.460  29.273  31.942  1.00  0.00    -0.248 NA
ATOM     50  C   UNL A   1      42.474  27.558  30.727  1.00  0.00     0.031 C 
ATOM     51  C   UNL A   1      42.570  30.377  36.108  1.00  0.00     0.029 A 
ATOM     52  C   UNL A   1      42.233  30.006  34.815  1.00  0.00     0.049 A 
ATOM     53  H   UNL A   1      40.796  30.856  33.524  1.00  0.00     0.167 HD
ATOM     54  C   UNL A   1      42.406  28.649  32.744  1.00  0.00     0.074 A 
ATOM     55  C   UNL A   1      42.970  27.571  31.956  1.00  0.00     0.031 C 
ATOM     56  C   UNL A   1      42.778  28.940  34.015  1.00  0.00     0.037 A 
BRANCH  43  57
ATOM     57  C   UNL A   1      39.754  33.726  36.505  1.00  0.00     0.064 A 
ATOM     58  C   UNL A   1      40.413  34.965  36.570  1.00  0.00     0.173 A 
ATOM     59  C   UNL A   1      38.898  33.386  37.563  1.00  0.00     0.173 A 
ATOM     60  F   UNL A   1      41.257  35.334  35.594  1.00  0.00    -0.203 F 
ATOM     61  C   UNL A   1      40.248  35.809  37.664  1.00  0.00     0.198 A 
ATOM     62  C   UNL A   1      38.709  34.248  38.639  1.00  0.00     0.198 A 
ATOM     63  F   UNL A   1      38.241  32.216  37.552  1.00  0.00    -0.203 F 
ATOM     64  F   UNL A   1      40.934  36.960  37.731  1.00  0.00    -0.200 F 
ATOM     65  C   UNL A   1      39.390  35.456  38.694  1.00  0.00     0.200 A 
ATOM     66  F   UNL A   1      37.869  33.910  39.628  1.00  0.00    -0.200 F 
ATOM     67  F   UNL A   1      39.227  36.272  39.744  1.00  0.00    -0.200 F 
ENDBRANCH  43  57
BRANCH  44  68
ATOM     68  C   UNL A   1      40.813  28.016  28.357  1.00  0.00     0.064 A 
ATOM     69  C   UNL A   1      40.162  26.778  28.248  1.00  0.00     0.173 A 
ATOM     70  C   UNL A   1      41.627  28.419  27.288  1.00  0.00     0.173 A 
ATOM     71  F   UNL A   1      39.386  26.340  29.250  1.00  0.00    -0.203 F 
ATOM     72  C   UNL A   1      40.338  25.966  27.130  1.00  0.00     0.198 A 
ATOM     73  C   UNL A   1      41.779  27.619  26.157  1.00  0.00     0.198 A 
ATOM     74  F   UNL A   1      42.265  29.598  27.338  1.00  0.00    -0.203 F 
ATOM     75  F   UNL A   1      39.743  24.766  27.076  1.00  0.00    -0.200 F 
ATOM     76  C   UNL A   1      41.142  26.389  26.083  1.00  0.00     0.200 A 
ATOM     77  F   UNL A   1      42.544  28.039  25.140  1.00  0.00    -0.200 F 
ATOM     78  F   UNL A   1      41.309  25.609  25.006  1.00  0.00    -0.200 F 
ENDBRANCH  44  68
BRANCH  56  79
ATOM     79  C   UNL A   1      43.821  28.057  34.637  1.00  0.00     0.064 A 
ATOM     80  C   UNL A   1      45.185  28.386  34.600  1.00  0.00     0.173 A 
ATOM     81  C   UNL A   1      43.448  26.871  35.288  1.00  0.00     0.173 A 
ATOM     82  F   UNL A   1      45.593  29.502  33.979  1.00  0.00    -0.203 F 
ATOM     83  C   UNL A   1      46.139  27.537  35.154  1.00  0.00     0.198 A 
ATOM     84  C   UNL A   1      44.403  26.044  35.871  1.00  0.00     0.198 A 
ATOM     85  F   UNL A   1      42.157  26.516  35.361  1.00  0.00    -0.203 F 
ATOM     86  F   UNL A   1      47.441  27.839  35.048  1.00  0.00    -0.200 F 
ATOM     87  C   UNL A   1      45.748  26.371  35.792  1.00  0.00     0.200 A 
ATOM     88  F   UNL A   1      44.022  24.924  36.501  1.00  0.00    -0.200 F 
ATOM     89  F   UNL A   1      46.669  25.555  36.322  1.00  0.00    -0.200 F 
ENDBRANCH  56  79
ENDBRANCH  30  31
ENDBRANCH  22  25
ENDBRANCH  20  21
ENDBRANCH  19  20
ENDBRANCH   1  19
TORSDOF 15
ENDMDL
MODEL 3
REMARK VINA RESULT:     -11.1      5.674     11.279
REMARK SMILES C=CC[N@H+](CC(=O)NCCCCNC(=O)c1ccc(-c2c3nc(c(-c4c(F)c(F)c(F)c(F)c4F)c4ccc([nH]4)c(-c4c(F)c(F)c(F)c(F)c4F)c4nc(c(-c5c(F)c(F)c(F)c(F)c5F)c5ccc2[nH]5)C=C4)C=C3)cc1)C1CCCCC1
REMARK SMILES IDX 10 1 9 2 8 3 6 4 7 5 5 7 4 8 3 10 2 11 1 12 79 13 80 14
REMARK SMILES IDX 84 15 81 16 83 17 82 18 11 19 12 20 13 21 14 22 15 24 16 25
REMARK SMILES IDX 17 26 78 27 18 28 77 29 19 30 20 31 21 32 71 33 22 34 76 35
REMARK SMILES IDX 70 36 72 37 23 38 75 39 69 40 68 41 24 43 56 44 36 45 55 46
REMARK SMILES IDX 37 47 40 48 54 49 73 50 38 51 39 52 53 54 74 55 41 56 25 57
REMARK SMILES IDX 26 58 34 59 27 60 28 61 32 62 35 63 29 64 30 65 33 66 31 67
REMARK SMILES IDX 57 68 58 69 66 70 59 71 60 72 64 73 67 74 61 75 62 76 65 77
REMARK SMILES IDX 63 78 42 79 43 80 51 81 44 82 45 83 49 84 52 85 46 86 47 87
REMARK SMILES IDX 50 88 48 89
REMARK H PARENT 8 6 4 9 13 23 72 42 40 53
REMARK Flexibility Score: inf
ROOT
ATOM      1  C   UNL A   1      42.271  19.800  27.031  1.00  0.00     0.023 C 
ENDROOT
BRANCH   1   2
ATOM      2  C   UNL A   1      43.442  19.721  26.049  1.00  0.00     0.116 C 
BRANCH   2   3
ATOM      3  N   UNL A   1      43.379  20.726  25.014  1.00  0.00    -0.351 N 
ATOM      4  C   UNL A   1      44.019  21.934  24.955  1.00  0.00     0.275 C 
ATOM      5  O   UNL A   1      43.960  22.560  23.892  1.00  0.00    -0.269 OA
ATOM      6  H   UNL A   1      42.798  20.514  24.247  1.00  0.00     0.163 HD
BRANCH   4   7
ATOM      7  C   UNL A   1      44.817  22.470  26.158  1.00  0.00     0.364 C 
BRANCH   7   8
ATOM      8  N   UNL A   1      44.342  23.800  26.614  1.00  0.00    -0.321 N 
ATOM      9  H   UNL A   1      43.927  24.344  25.858  1.00  0.00     0.349 HD
BRANCH   8  10
ATOM     10  C   UNL A   1      43.165  23.670  27.473  1.00  0.00     0.291 C 
BRANCH  10  11
ATOM     11  C   UNL A   1      43.195  22.967  28.792  1.00  0.00     0.025 C 
ATOM     12  C   UNL A   1      43.644  23.516  29.933  1.00  0.00     0.010 C 
ENDBRANCH  10  11
ENDBRANCH   8  10
BRANCH   8  13
ATOM     13  C   UNL A   1      45.355  24.882  26.732  1.00  0.00     0.184 C 
ATOM     14  C   UNL A   1      46.788  24.299  26.903  1.00  0.00     0.065 C 
ATOM     15  C   UNL A   1      45.344  25.840  25.515  1.00  0.00     0.065 C 
ATOM     16  C   UNL A   1      47.935  25.294  26.771  1.00  0.00     0.006 C 
ATOM     17  C   UNL A   1      46.545  26.769  25.366  1.00  0.00     0.006 C 
ATOM     18  C   UNL A   1      47.856  26.018  25.441  1.00  0.00     0.000 C 
ENDBRANCH   8  13
ENDBRANCH   7   8
ENDBRANCH   4   7
ENDBRANCH   2   3
ENDBRANCH   1   2
BRANCH   1  19
ATOM     19  C   UNL A   1      40.921  20.152  26.419  1.00  0.00     0.023 C 
BRANCH  19  20
ATOM     20  C   UNL A   1      40.349  21.490  26.856  1.00  0.00     0.116 C 
BRANCH  20  21
ATOM     21  N   UNL A   1      39.109  21.860  26.186  1.00  0.00    -0.352 N 
ATOM     22  C   UNL A   1      38.487  23.088  26.133  1.00  0.00     0.251 C 
ATOM     23  H   UNL A   1      38.654  21.132  25.705  1.00  0.00     0.163 HD
ATOM     24  O   UNL A   1      37.404  23.210  25.585  1.00  0.00    -0.269 OA
BRANCH  22  25
ATOM     25  C   UNL A   1      39.125  24.247  26.794  1.00  0.00     0.039 A 
ATOM     26  C   UNL A   1      39.902  25.116  26.025  1.00  0.00     0.014 A 
ATOM     27  C   UNL A   1      38.915  24.505  28.150  1.00  0.00     0.014 A 
ATOM     28  C   UNL A   1      40.403  26.282  26.604  1.00  0.00     0.010 A 
ATOM     29  C   UNL A   1      39.315  25.719  28.692  1.00  0.00     0.010 A 
ATOM     30  C   UNL A   1      40.077  26.613  27.931  1.00  0.00    -0.014 A 
BRANCH  30  31
ATOM     31  C   UNL A   1      40.543  27.886  28.533  1.00  0.00     0.031 A 
ATOM     32  C   UNL A   1      42.000  28.089  28.843  1.00  0.00     0.074 A 
ATOM     33  C   UNL A   1      39.643  28.842  28.840  1.00  0.00     0.049 A 
ATOM     34  N   UNL A   1      42.602  29.139  29.344  1.00  0.00    -0.248 NA
ATOM     35  C   UNL A   1      42.900  26.951  28.593  1.00  0.00     0.031 C 
ATOM     36  C   UNL A   1      38.193  28.725  28.671  1.00  0.00     0.029 A 
ATOM     37  N   UNL A   1      39.815  30.103  29.350  1.00  0.00    -0.354 N 
ATOM     38  C   UNL A   1      43.937  28.782  29.475  1.00  0.00     0.074 A 
ATOM     39  C   UNL A   1      44.048  27.397  29.077  1.00  0.00     0.031 C 
ATOM     40  C   UNL A   1      37.613  29.883  29.022  1.00  0.00     0.029 A 
ATOM     41  C   UNL A   1      38.646  30.815  29.465  1.00  0.00     0.049 A 
ATOM     42  H   UNL A   1      40.694  30.465  29.609  1.00  0.00     0.167 HD
ATOM     43  C   UNL A   1      44.984  29.550  29.856  1.00  0.00     0.037 A 
ATOM     44  C   UNL A   1      38.436  32.082  29.865  1.00  0.00     0.037 A 
ATOM     45  C   UNL A   1      44.871  30.937  30.221  1.00  0.00     0.049 A 
ATOM     46  C   UNL A   1      39.622  32.930  30.241  1.00  0.00     0.074 A 
ATOM     47  C   UNL A   1      45.874  31.826  30.562  1.00  0.00     0.029 A 
ATOM     48  N   UNL A   1      43.673  31.635  30.292  1.00  0.00    -0.354 N 
ATOM     49  N   UNL A   1      40.893  32.610  30.271  1.00  0.00    -0.248 NA
ATOM     50  C   UNL A   1      39.344  34.321  30.619  1.00  0.00     0.031 C 
ATOM     51  C   UNL A   1      45.279  33.052  30.881  1.00  0.00     0.029 A 
ATOM     52  C   UNL A   1      43.911  32.942  30.685  1.00  0.00     0.049 A 
ATOM     53  H   UNL A   1      42.787  31.258  30.091  1.00  0.00     0.167 HD
ATOM     54  C   UNL A   1      41.569  33.764  30.643  1.00  0.00     0.074 A 
ATOM     55  C   UNL A   1      40.566  34.798  30.803  1.00  0.00     0.031 C 
ATOM     56  C   UNL A   1      42.898  33.954  30.837  1.00  0.00     0.037 A 
BRANCH  43  57
ATOM     57  C   UNL A   1      46.343  28.907  29.881  1.00  0.00     0.064 A 
ATOM     58  C   UNL A   1      47.168  28.886  28.745  1.00  0.00     0.173 A 
ATOM     59  C   UNL A   1      46.834  28.322  31.057  1.00  0.00     0.173 A 
ATOM     60  F   UNL A   1      46.741  29.417  27.589  1.00  0.00    -0.203 F 
ATOM     61  C   UNL A   1      48.418  28.274  28.777  1.00  0.00     0.198 A 
ATOM     62  C   UNL A   1      48.099  27.742  31.095  1.00  0.00     0.198 A 
ATOM     63  F   UNL A   1      46.089  28.315  32.172  1.00  0.00    -0.203 F 
ATOM     64  F   UNL A   1      49.163  28.215  27.664  1.00  0.00    -0.200 F 
ATOM     65  C   UNL A   1      48.887  27.710  29.954  1.00  0.00     0.200 A 
ATOM     66  F   UNL A   1      48.556  27.207  32.237  1.00  0.00    -0.200 F 
ATOM     67  F   UNL A   1      50.093  27.127  29.985  1.00  0.00    -0.200 F 
ENDBRANCH  43  57
BRANCH  44  68
ATOM     68  C   UNL A   1      37.060  32.643  29.874  1.00  0.00     0.064 A 
ATOM     69  C   UNL A   1      36.242  32.532  31.008  1.00  0.00     0.173 A 
ATOM     70  C   UNL A   1      36.530  33.297  28.752  1.00  0.00     0.173 A 
ATOM     71  F   UNL A   1      36.697  31.901  32.100  1.00  0.00    -0.203 F 
ATOM     72  C   UNL A   1      34.942  33.031  31.012  1.00  0.00     0.198 A 
ATOM     73  C   UNL A   1      35.239  33.822  28.767  1.00  0.00     0.198 A 
ATOM     74  F   UNL A   1      37.273  33.438  27.644  1.00  0.00    -0.203 F 
ATOM     75  F   UNL A   1      34.167  32.867  32.093  1.00  0.00    -0.200 F 
ATOM     76  C   UNL A   1      34.443  33.680  29.893  1.00  0.00     0.200 A 
ATOM     77  F   UNL A   1      34.766  34.463  27.689  1.00  0.00    -0.200 F 
ATOM     78  F   UNL A   1      33.193  34.162  29.899  1.00  0.00    -0.200 F 
ENDBRANCH  44  68
BRANCH  56  79
ATOM     79  C   UNL A   1      43.338  35.339  31.213  1.00  0.00     0.064 A 
ATOM     80  C   UNL A   1      43.713  36.283  30.245  1.00  0.00     0.173 A 
ATOM     81  C   UNL A   1      43.374  35.730  32.561  1.00  0.00     0.173 A 
ATOM     82  F   UNL A   1      43.707  35.954  28.944  1.00  0.00    -0.203 F 
ATOM     83  C   UNL A   1      44.150  37.552  30.615  1.00  0.00     0.198 A 
ATOM     84  C   UNL A   1      43.779  37.011  32.923  1.00  0.00     0.198 A 
ATOM     85  F   UNL A   1      43.016  34.870  33.525  1.00  0.00    -0.203 F 
ATOM     86  F   UNL A   1      44.568  38.413  29.677  1.00  0.00    -0.200 F 
ATOM     87  C   UNL A   1      44.179  37.916  31.952  1.00  0.00     0.200 A 
ATOM     88  F   UNL A   1      43.790  37.367  34.215  1.00  0.00    -0.200 F 
ATOM     89  F   UNL A   1      44.601  39.137  32.306  1.00  0.00    -0.200 F 
ENDBRANCH  56  79
ENDBRANCH  30  31
ENDBRANCH  22  25
ENDBRANCH  20  21
ENDBRANCH  19  20
ENDBRANCH   1  19
TORSDOF 15
ENDMDL
