MODEL 1
REMARK VINA RESULT:     -12.5      0.000      0.000
REMARK SMILES CC1(C)[C@H](C(=O)NCCCCNC(=O)c2ccc(-c3c4nc(c(-c5c(F)c(F)c(F)c(F)c5F)c5ccc([nH]5)c(-c5c(F)c(F)c(F)c(F)c5F)c5nc(c(-c6c(F)c(F)c(F)c(F)c6F)c6ccc3[nH]6)C=C5)C=C4)cc2)[C@@H]1c1nc2ccc(F)cc2s1
REMARK SMILES IDX 10 1 9 2 8 3 7 4 5 5 6 6 4 8 1 9 2 10 3 11 78 12 79 13 80 14
REMARK SMILES IDX 88 15 81 16 87 17 82 18 86 19 83 20 84 21 85 22 11 23 12 24
REMARK SMILES IDX 13 25 14 27 15 28 16 29 77 30 17 31 76 32 18 33 19 34 20 35
REMARK SMILES IDX 70 36 21 37 75 38 69 39 71 40 22 41 74 42 68 43 67 44 23 46
REMARK SMILES IDX 55 47 35 48 54 49 36 50 39 51 53 52 72 53 37 54 38 55 52 57
REMARK SMILES IDX 73 58 40 59 24 60 25 61 33 62 26 63 27 64 31 65 34 66 28 67
REMARK SMILES IDX 29 68 32 69 30 70 56 71 57 72 65 73 58 74 59 75 63 76 66 77
REMARK SMILES IDX 60 78 61 79 64 80 62 81 41 82 42 83 50 84 43 85 44 86 48 87
REMARK SMILES IDX 51 88 45 89 46 90 49 91 47 92
REMARK H PARENT 7 7 12 26 71 45 39 56
REMARK Flexibility Score: inf
ROOT
ATOM      1  C   UNL A   1      31.697  29.339  26.300  1.00  0.00     0.023 C 
ENDROOT
BRANCH   1   2
ATOM      2  C   UNL A   1      31.744  28.041  27.095  1.00  0.00     0.023 C 
BRANCH   2   3
ATOM      3  C   UNL A   1      30.997  26.873  26.462  1.00  0.00     0.116 C 
BRANCH   3   4
ATOM      4  N   UNL A   1      31.570  25.595  26.777  1.00  0.00    -0.356 N 
ATOM      5  C   UNL A   1      32.215  24.648  26.033  1.00  0.00     0.224 C 
ATOM      6  O   UNL A   1      32.585  23.657  26.668  1.00  0.00    -0.275 OA
ATOM      7  H   UNL A   1      31.480  25.350  27.726  1.00  0.00     0.163 HD
BRANCH   5   8
ATOM      8  C   UNL A   1      32.515  24.645  24.574  1.00  0.00     0.095 C 
ATOM      9  C   UNL A   1      32.546  26.147  22.481  1.00  0.00     0.013 C 
ATOM     10  C   UNL A   1      33.260  25.707  23.746  1.00  0.00    -0.013 C 
ATOM     11  C   UNL A   1      33.941  26.865  24.424  1.00  0.00     0.013 C 
ATOM     12  C   UNL A   1      33.734  24.260  23.797  1.00  0.00     0.068 C 
BRANCH  12  13
ATOM     13  C   UNL A   1      34.949  23.600  24.420  1.00  0.00     0.098 A 
ATOM     14  N   UNL A   1      35.712  24.322  25.209  1.00  0.00    -0.241 NA
ATOM     15  S   UNL A   1      35.347  21.935  24.342  1.00  0.00    -0.118 S 
ATOM     16  C   UNL A   1      36.816  23.588  25.595  1.00  0.00     0.082 A 
ATOM     17  C   UNL A   1      36.843  22.268  25.139  1.00  0.00     0.057 A 
ATOM     18  C   UNL A   1      37.898  24.072  26.360  1.00  0.00     0.033 A 
ATOM     19  C   UNL A   1      37.948  21.432  25.360  1.00  0.00     0.060 A 
ATOM     20  C   UNL A   1      39.001  23.246  26.593  1.00  0.00     0.041 A 
ATOM     21  C   UNL A   1      39.021  21.957  26.080  1.00  0.00     0.124 A 
ATOM     22  F   UNL A   1      40.102  21.193  26.286  1.00  0.00    -0.207 F 
ENDBRANCH  12  13
ENDBRANCH   5   8
ENDBRANCH   3   4
ENDBRANCH   2   3
ENDBRANCH   1   2
BRANCH   1  23
ATOM     23  C   UNL A   1      32.956  30.197  26.372  1.00  0.00     0.116 C 
BRANCH  23  24
ATOM     24  N   UNL A   1      32.722  31.557  26.844  1.00  0.00    -0.352 N 
ATOM     25  C   UNL A   1      33.549  32.371  27.587  1.00  0.00     0.251 C 
ATOM     26  H   UNL A   1      31.852  31.947  26.597  1.00  0.00     0.163 HD
ATOM     27  O   UNL A   1      33.177  33.470  27.963  1.00  0.00    -0.269 OA
BRANCH  25  28
ATOM     28  C   UNL A   1      34.882  31.859  27.967  1.00  0.00     0.039 A 
ATOM     29  C   UNL A   1      35.955  32.752  28.022  1.00  0.00     0.014 A 
ATOM     30  C   UNL A   1      35.034  30.533  28.376  1.00  0.00     0.014 A 
ATOM     31  C   UNL A   1      37.155  32.343  28.604  1.00  0.00     0.010 A 
ATOM     32  C   UNL A   1      36.205  30.149  29.017  1.00  0.00     0.010 A 
ATOM     33  C   UNL A   1      37.264  31.060  29.163  1.00  0.00    -0.014 A 
BRANCH  33  34
ATOM     34  C   UNL A   1      38.446  30.661  29.967  1.00  0.00     0.031 A 
ATOM     35  C   UNL A   1      39.454  29.706  29.401  1.00  0.00     0.074 A 
ATOM     36  C   UNL A   1      38.544  31.069  31.248  1.00  0.00     0.049 A 
ATOM     37  N   UNL A   1      40.463  29.122  29.993  1.00  0.00    -0.248 NA
ATOM     38  C   UNL A   1      39.285  29.335  27.988  1.00  0.00     0.031 C 
ATOM     39  C   UNL A   1      37.602  31.960  31.928  1.00  0.00     0.029 A 
ATOM     40  N   UNL A   1      39.471  30.768  32.214  1.00  0.00    -0.354 N 
ATOM     41  C   UNL A   1      41.037  28.301  29.034  1.00  0.00     0.074 A 
ATOM     42  C   UNL A   1      40.239  28.431  27.832  1.00  0.00     0.031 C 
ATOM     43  C   UNL A   1      38.005  32.143  33.196  1.00  0.00     0.029 A 
ATOM     44  C   UNL A   1      39.208  31.350  33.431  1.00  0.00     0.049 A 
ATOM     45  H   UNL A   1      40.251  30.191  32.052  1.00  0.00     0.167 HD
ATOM     46  C   UNL A   1      42.139  27.523  29.142  1.00  0.00     0.037 A 
ATOM     47  C   UNL A   1      39.851  31.240  34.608  1.00  0.00     0.037 A 
ATOM     48  C   UNL A   1      42.949  27.422  30.326  1.00  0.00     0.049 A 
ATOM     49  C   UNL A   1      41.062  30.356  34.706  1.00  0.00     0.074 A 
ATOM     50  C   UNL A   1      44.135  26.733  30.505  1.00  0.00     0.029 A 
ATOM     51  N   UNL A   1      42.652  28.030  31.537  1.00  0.00    -0.354 N 
ATOM     52  N   UNL A   1      41.632  29.633  33.774  1.00  0.00    -0.248 NA
ATOM     53  C   UNL A   1      41.713  30.264  36.020  1.00  0.00     0.031 C 
ATOM     54  C   UNL A   1      44.537  26.893  31.836  1.00  0.00     0.029 A 
ATOM     55  C   UNL A   1      43.618  27.708  32.476  1.00  0.00     0.049 A 
ATOM     56  H   UNL A   1      41.869  28.604  31.705  1.00  0.00     0.167 HD
ATOM     57  C   UNL A   1      42.714  29.012  34.382  1.00  0.00     0.074 A 
ATOM     58  C   UNL A   1      42.729  29.454  35.762  1.00  0.00     0.031 C 
ATOM     59  C   UNL A   1      43.613  28.153  33.846  1.00  0.00     0.037 A 
BRANCH  46  60
ATOM     60  C   UNL A   1      42.536  26.721  27.940  1.00  0.00     0.064 A 
ATOM     61  C   UNL A   1      43.352  27.264  26.936  1.00  0.00     0.173 A 
ATOM     62  C   UNL A   1      42.122  25.388  27.805  1.00  0.00     0.173 A 
ATOM     63  F   UNL A   1      43.761  28.538  27.014  1.00  0.00    -0.203 F 
ATOM     64  C   UNL A   1      43.716  26.508  25.825  1.00  0.00     0.198 A 
ATOM     65  C   UNL A   1      42.509  24.627  26.704  1.00  0.00     0.198 A 
ATOM     66  F   UNL A   1      41.345  24.822  28.740  1.00  0.00    -0.203 F 
ATOM     67  F   UNL A   1      44.459  27.060  24.855  1.00  0.00    -0.200 F 
ATOM     68  C   UNL A   1      43.300  25.189  25.713  1.00  0.00     0.200 A 
ATOM     69  F   UNL A   1      42.113  23.352  26.601  1.00  0.00    -0.200 F 
ATOM     70  F   UNL A   1      43.654  24.462  24.645  1.00  0.00    -0.200 F 
ENDBRANCH  46  60
BRANCH  47  71
ATOM     71  C   UNL A   1      39.365  31.996  35.790  1.00  0.00     0.064 A 
ATOM     72  C   UNL A   1      39.852  33.281  36.066  1.00  0.00     0.173 A 
ATOM     73  C   UNL A   1      38.405  31.458  36.659  1.00  0.00     0.173 A 
ATOM     74  F   UNL A   1      40.786  33.826  35.274  1.00  0.00    -0.203 F 
ATOM     75  C   UNL A   1      39.403  33.997  37.174  1.00  0.00     0.198 A 
ATOM     76  C   UNL A   1      37.942  32.184  37.754  1.00  0.00     0.198 A 
ATOM     77  F   UNL A   1      37.908  30.233  36.436  1.00  0.00    -0.203 F 
ATOM     78  F   UNL A   1      39.907  35.210  37.433  1.00  0.00    -0.200 F 
ATOM     79  C   UNL A   1      38.444  33.450  38.013  1.00  0.00     0.200 A 
ATOM     80  F   UNL A   1      37.008  31.657  38.558  1.00  0.00    -0.200 F 
ATOM     81  F   UNL A   1      38.009  34.141  39.075  1.00  0.00    -0.200 F 
ENDBRANCH  47  71
BRANCH  59  82
ATOM     82  C   UNL A   1      44.693  27.639  34.748  1.00  0.00     0.064 A 
ATOM     83  C   UNL A   1      44.555  26.421  35.428  1.00  0.00     0.173 A 
ATOM     84  C   UNL A   1      45.897  28.344  34.893  1.00  0.00     0.173 A 
ATOM     85  F   UNL A   1      43.414  25.721  35.333  1.00  0.00    -0.203 F 
ATOM     86  C   UNL A   1      45.581  25.932  36.232  1.00  0.00     0.198 A 
ATOM     87  C   UNL A   1      46.929  27.843  35.680  1.00  0.00     0.198 A 
ATOM     88  F   UNL A   1      46.075  29.514  34.259  1.00  0.00    -0.203 F 
ATOM     89  F   UNL A   1      45.418  24.781  36.898  1.00  0.00    -0.200 F 
ATOM     90  C   UNL A   1      46.769  26.639  36.350  1.00  0.00     0.200 A 
ATOM     91  F   UNL A   1      48.079  28.522  35.788  1.00  0.00    -0.200 F 
ATOM     92  F   UNL A   1      47.760  26.162  37.117  1.00  0.00    -0.200 F 
ENDBRANCH  59  82
ENDBRANCH  33  34
ENDBRANCH  25  28
ENDBRANCH  23  24
ENDBRANCH   1  23
TORSDOF 12
ENDMDL
MODEL 2
REMARK VINA RESULT:     -12.4      1.673      2.471
REMARK SMILES CC1(C)[C@H](C(=O)NCCCCNC(=O)c2ccc(-c3c4nc(c(-c5c(F)c(F)c(F)c(F)c5F)c5ccc([nH]5)c(-c5c(F)c(F)c(F)c(F)c5F)c5nc(c(-c6c(F)c(F)c(F)c(F)c6F)c6ccc3[nH]6)C=C5)C=C4)cc2)[C@@H]1c1nc2ccc(F)cc2s1
REMARK SMILES IDX 10 1 9 2 8 3 7 4 5 5 6 6 4 8 1 9 2 10 3 11 78 12 79 13 80 14
REMARK SMILES IDX 88 15 81 16 87 17 82 18 86 19 83 20 84 21 85 22 11 23 12 24
REMARK SMILES IDX 13 25 14 27 15 28 16 29 77 30 17 31 76 32 18 33 19 34 20 35
REMARK SMILES IDX 70 36 21 37 75 38 69 39 71 40 22 41 74 42 68 43 67 44 23 46
REMARK SMILES IDX 55 47 35 48 54 49 36 50 39 51 53 52 72 53 37 54 38 55 52 57
REMARK SMILES IDX 73 58 40 59 24 60 25 61 33 62 26 63 27 64 31 65 34 66 28 67
REMARK SMILES IDX 29 68 32 69 30 70 56 71 57 72 65 73 58 74 59 75 63 76 66 77
REMARK SMILES IDX 60 78 61 79 64 80 62 81 41 82 42 83 50 84 43 85 44 86 48 87
REMARK SMILES IDX 51 88 45 89 46 90 49 91 47 92
REMARK H PARENT 7 7 12 26 71 45 39 56
REMARK Flexibility Score: inf
ROOT
ATOM      1  C   UNL A   1      32.248  29.247  24.692  1.00  0.00     0.023 C 
ENDROOT
BRANCH   1   2
ATOM      2  C   UNL A   1      33.277  28.932  23.614  1.00  0.00     0.023 C 
BRANCH   2   3
ATOM      3  C   UNL A   1      32.796  27.981  22.526  1.00  0.00     0.116 C 
BRANCH   3   4
ATOM      4  N   UNL A   1      33.530  26.747  22.485  1.00  0.00    -0.356 N 
ATOM      5  C   UNL A   1      33.670  25.710  23.364  1.00  0.00     0.224 C 
ATOM      6  O   UNL A   1      34.392  24.792  22.967  1.00  0.00    -0.275 OA
ATOM      7  H   UNL A   1      34.037  26.622  21.651  1.00  0.00     0.163 HD
BRANCH   5   8
ATOM      8  C   UNL A   1      33.086  25.548  24.725  1.00  0.00     0.095 C 
ATOM      9  C   UNL A   1      31.021  26.120  26.155  1.00  0.00     0.013 C 
ATOM     10  C   UNL A   1      31.638  25.206  25.113  1.00  0.00    -0.013 C 
ATOM     11  C   UNL A   1      30.635  24.820  24.057  1.00  0.00     0.013 C 
ATOM     12  C   UNL A   1      32.808  24.342  25.565  1.00  0.00     0.068 C 
BRANCH  12  13
ATOM     13  C   UNL A   1      33.255  22.942  25.190  1.00  0.00     0.098 A 
ATOM     14  N   UNL A   1      32.451  22.209  24.453  1.00  0.00    -0.241 NA
ATOM     15  S   UNL A   1      34.798  22.260  25.488  1.00  0.00    -0.118 S 
ATOM     16  C   UNL A   1      32.976  20.941  24.304  1.00  0.00     0.082 A 
ATOM     17  C   UNL A   1      34.231  20.743  24.886  1.00  0.00     0.057 A 
ATOM     18  C   UNL A   1      32.341  19.859  23.660  1.00  0.00     0.033 A 
ATOM     19  C   UNL A   1      34.844  19.481  24.910  1.00  0.00     0.060 A 
ATOM     20  C   UNL A   1      32.945  18.600  23.670  1.00  0.00     0.041 A 
ATOM     21  C   UNL A   1      34.167  18.423  24.305  1.00  0.00     0.124 A 
ATOM     22  F   UNL A   1      34.713  17.200  24.333  1.00  0.00    -0.207 F 
ENDBRANCH  12  13
ENDBRANCH   5   8
ENDBRANCH   3   4
ENDBRANCH   2   3
ENDBRANCH   1   2
BRANCH   1  23
ATOM     23  C   UNL A   1      32.818  29.551  26.074  1.00  0.00     0.116 C 
BRANCH  23  24
ATOM     24  N   UNL A   1      32.478  30.876  26.579  1.00  0.00    -0.352 N 
ATOM     25  C   UNL A   1      33.238  31.732  27.346  1.00  0.00     0.251 C 
ATOM     26  H   UNL A   1      31.581  31.203  26.339  1.00  0.00     0.163 HD
ATOM     27  O   UNL A   1      32.781  32.789  27.749  1.00  0.00    -0.269 OA
BRANCH  25  28
ATOM     28  C   UNL A   1      34.606  31.316  27.718  1.00  0.00     0.039 A 
ATOM     29  C   UNL A   1      35.598  32.292  27.832  1.00  0.00     0.014 A 
ATOM     30  C   UNL A   1      34.865  29.988  28.063  1.00  0.00     0.014 A 
ATOM     31  C   UNL A   1      36.823  31.957  28.409  1.00  0.00     0.010 A 
ATOM     32  C   UNL A   1      36.059  29.672  28.700  1.00  0.00     0.010 A 
ATOM     33  C   UNL A   1      37.036  30.661  28.905  1.00  0.00    -0.014 A 
BRANCH  33  34
ATOM     34  C   UNL A   1      38.239  30.322  29.704  1.00  0.00     0.031 A 
ATOM     35  C   UNL A   1      39.249  29.351  29.170  1.00  0.00     0.074 A 
ATOM     36  C   UNL A   1      38.358  30.801  30.959  1.00  0.00     0.049 A 
ATOM     37  N   UNL A   1      40.279  28.814  29.771  1.00  0.00    -0.248 NA
ATOM     38  C   UNL A   1      39.056  28.901  27.783  1.00  0.00     0.031 C 
ATOM     39  C   UNL A   1      37.417  31.716  31.609  1.00  0.00     0.029 A 
ATOM     40  N   UNL A   1      39.309  30.566  31.920  1.00  0.00    -0.354 N 
ATOM     41  C   UNL A   1      40.844  27.948  28.846  1.00  0.00     0.074 A 
ATOM     42  C   UNL A   1      40.020  28.001  27.657  1.00  0.00     0.031 C 
ATOM     43  C   UNL A   1      37.844  31.974  32.856  1.00  0.00     0.029 A 
ATOM     44  C   UNL A   1      39.062  31.210  33.108  1.00  0.00     0.049 A 
ATOM     45  H   UNL A   1      40.094  29.991  31.773  1.00  0.00     0.167 HD
ATOM     46  C   UNL A   1      41.959  27.192  28.974  1.00  0.00     0.037 A 
ATOM     47  C   UNL A   1      39.732  31.174  34.276  1.00  0.00     0.037 A 
ATOM     48  C   UNL A   1      42.795  27.168  30.143  1.00  0.00     0.049 A 
ATOM     49  C   UNL A   1      40.957  30.313  34.396  1.00  0.00     0.074 A 
ATOM     50  C   UNL A   1      43.994  26.505  30.335  1.00  0.00     0.029 A 
ATOM     51  N   UNL A   1      42.514  27.837  31.325  1.00  0.00    -0.354 N 
ATOM     52  N   UNL A   1      41.518  29.547  33.493  1.00  0.00    -0.248 NA
ATOM     53  C   UNL A   1      41.636  30.302  35.699  1.00  0.00     0.031 C 
ATOM     54  C   UNL A   1      44.421  26.743  31.646  1.00  0.00     0.029 A 
ATOM     55  C   UNL A   1      43.504  27.580  32.260  1.00  0.00     0.049 A 
ATOM     56  H   UNL A   1      41.727  28.409  31.479  1.00  0.00     0.167 HD
ATOM     57  C   UNL A   1      42.621  28.975  34.111  1.00  0.00     0.074 A 
ATOM     58  C   UNL A   1      42.658  29.492  35.464  1.00  0.00     0.031 C 
ATOM     59  C   UNL A   1      43.521  28.099  33.603  1.00  0.00     0.037 A 
BRANCH  46  60
ATOM     60  C   UNL A   1      42.343  26.331  27.809  1.00  0.00     0.064 A 
ATOM     61  C   UNL A   1      43.294  26.754  26.869  1.00  0.00     0.173 A 
ATOM     62  C   UNL A   1      41.776  25.059  27.647  1.00  0.00     0.173 A 
ATOM     63  F   UNL A   1      43.854  27.968  26.974  1.00  0.00    -0.203 F 
ATOM     64  C   UNL A   1      43.644  25.943  25.793  1.00  0.00     0.198 A 
ATOM     65  C   UNL A   1      42.147  24.241  26.583  1.00  0.00     0.198 A 
ATOM     66  F   UNL A   1      40.864  24.607  28.522  1.00  0.00    -0.203 F 
ATOM     67  F   UNL A   1      44.523  26.385  24.881  1.00  0.00    -0.200 F 
ATOM     68  C   UNL A   1      43.075  24.686  25.653  1.00  0.00     0.200 A 
ATOM     69  F   UNL A   1      41.602  23.023  26.454  1.00  0.00    -0.200 F 
ATOM     70  F   UNL A   1      43.416  23.906  24.619  1.00  0.00    -0.200 F 
ENDBRANCH  46  60
BRANCH  47  71
ATOM     71  C   UNL A   1      39.259  31.988  35.424  1.00  0.00     0.064 A 
ATOM     72  C   UNL A   1      39.622  33.336  35.543  1.00  0.00     0.173 A 
ATOM     73  C   UNL A   1      38.435  31.441  36.418  1.00  0.00     0.173 A 
ATOM     74  F   UNL A   1      40.427  33.894  34.627  1.00  0.00    -0.203 F 
ATOM     75  C   UNL A   1      39.185  34.106  36.618  1.00  0.00     0.198 A 
ATOM     76  C   UNL A   1      37.981  32.219  37.482  1.00  0.00     0.198 A 
ATOM     77  F   UNL A   1      38.058  30.156  36.348  1.00  0.00    -0.203 F 
ATOM     78  F   UNL A   1      39.573  35.384  36.725  1.00  0.00    -0.200 F 
ATOM     79  C   UNL A   1      38.361  33.549  37.584  1.00  0.00     0.200 A 
ATOM     80  F   UNL A   1      37.176  31.680  38.408  1.00  0.00    -0.200 F 
ATOM     81  F   UNL A   1      37.936  34.292  38.614  1.00  0.00    -0.200 F 
ENDBRANCH  47  71
BRANCH  59  82
ATOM     82  C   UNL A   1      44.627  27.650  34.509  1.00  0.00     0.064 A 
ATOM     83  C   UNL A   1      45.815  28.385  34.626  1.00  0.00     0.173 A 
ATOM     84  C   UNL A   1      44.477  26.506  35.305  1.00  0.00     0.173 A 
ATOM     85  F   UNL A   1      46.010  29.477  33.871  1.00  0.00    -0.203 F 
ATOM     86  C   UNL A   1      46.820  27.983  35.500  1.00  0.00     0.198 A 
ATOM     87  C   UNL A   1      45.475  26.117  36.194  1.00  0.00     0.198 A 
ATOM     88  F   UNL A   1      43.355  25.772  35.229  1.00  0.00    -0.203 F 
ATOM     89  F   UNL A   1      47.961  28.681  35.575  1.00  0.00    -0.200 F 
ATOM     90  C   UNL A   1      46.645  26.855  36.289  1.00  0.00     0.200 A 
ATOM     91  F   UNL A   1      45.302  25.033  36.961  1.00  0.00    -0.200 F 
ATOM     92  F   UNL A   1      47.610  26.474  37.138  1.00  0.00    -0.200 F 
ENDBRANCH  59  82
ENDBRANCH  33  34
ENDBRANCH  25  28
ENDBRANCH  23  24
ENDBRANCH   1  23
TORSDOF 12
ENDMDL
MODEL 3
REMARK VINA RESULT:     -12.4      3.102      7.858
REMARK SMILES CC1(C)[C@H](C(=O)NCCCCNC(=O)c2ccc(-c3c4nc(c(-c5c(F)c(F)c(F)c(F)c5F)c5ccc([nH]5)c(-c5c(F)c(F)c(F)c(F)c5F)c5nc(c(-c6c(F)c(F)c(F)c(F)c6F)c6ccc3[nH]6)C=C5)C=C4)cc2)[C@@H]1c1nc2ccc(F)cc2s1
REMARK SMILES IDX 10 1 9 2 8 3 7 4 5 5 6 6 4 8 1 9 2 10 3 11 78 12 79 13 80 14
REMARK SMILES IDX 88 15 81 16 87 17 82 18 86 19 83 20 84 21 85 22 11 23 12 24
REMARK SMILES IDX 13 25 14 27 15 28 16 29 77 30 17 31 76 32 18 33 19 34 20 35
REMARK SMILES IDX 70 36 21 37 75 38 69 39 71 40 22 41 74 42 68 43 67 44 23 46
REMARK SMILES IDX 55 47 35 48 54 49 36 50 39 51 53 52 72 53 37 54 38 55 52 57
REMARK SMILES IDX 73 58 40 59 24 60 25 61 33 62 26 63 27 64 31 65 34 66 28 67
REMARK SMILES IDX 29 68 32 69 30 70 56 71 57 72 65 73 58 74 59 75 63 76 66 77
REMARK SMILES IDX 60 78 61 79 64 80 62 81 41 82 42 83 50 84 43 85 44 86 48 87
REMARK SMILES IDX 51 88 45 89 46 90 49 91 47 92
REMARK H PARENT 7 7 12 26 71 45 39 56
REMARK Flexibility Score: inf
ROOT
ATOM      1  C   UNL A   1      33.240  28.199  27.253  1.00  0.00     0.023 C 
ENDROOT
BRANCH   1   2
ATOM      2  C   UNL A   1      31.717  28.234  27.270  1.00  0.00     0.023 C 
BRANCH   2   3
ATOM      3  C   UNL A   1      31.040  27.111  26.496  1.00  0.00     0.116 C 
BRANCH   3   4
ATOM      4  N   UNL A   1      31.501  25.804  26.872  1.00  0.00    -0.356 N 
ATOM      5  C   UNL A   1      31.946  24.726  26.160  1.00  0.00     0.224 C 
ATOM      6  O   UNL A   1      32.276  23.755  26.846  1.00  0.00    -0.275 OA
ATOM      7  H   UNL A   1      31.496  25.653  27.845  1.00  0.00     0.163 HD
BRANCH   5   8
ATOM      8  C   UNL A   1      32.072  24.563  24.684  1.00  0.00     0.095 C 
ATOM      9  C   UNL A   1      31.972  25.857  22.460  1.00  0.00     0.013 C 
ATOM     10  C   UNL A   1      32.793  25.475  23.677  1.00  0.00    -0.013 C 
ATOM     11  C   UNL A   1      33.636  26.627  24.156  1.00  0.00     0.013 C 
ATOM     12  C   UNL A   1      33.159  24.003  23.822  1.00  0.00     0.068 C 
BRANCH  12  13
ATOM     13  C   UNL A   1      34.384  23.300  24.373  1.00  0.00     0.098 A 
ATOM     14  N   UNL A   1      35.288  24.022  24.996  1.00  0.00    -0.241 NA
ATOM     15  S   UNL A   1      34.642  21.607  24.422  1.00  0.00    -0.118 S 
ATOM     16  C   UNL A   1      36.371  23.234  25.331  1.00  0.00     0.082 A 
ATOM     17  C   UNL A   1      36.243  21.879  25.012  1.00  0.00     0.057 A 
ATOM     18  C   UNL A   1      37.569  23.689  25.919  1.00  0.00     0.033 A 
ATOM     19  C   UNL A   1      37.299  20.973  25.195  1.00  0.00     0.060 A 
ATOM     20  C   UNL A   1      38.625  22.795  26.113  1.00  0.00     0.041 A 
ATOM     21  C   UNL A   1      38.485  21.467  25.735  1.00  0.00     0.124 A 
ATOM     22  F   UNL A   1      39.522  20.634  25.898  1.00  0.00    -0.207 F 
ENDBRANCH  12  13
ENDBRANCH   5   8
ENDBRANCH   3   4
ENDBRANCH   2   3
ENDBRANCH   1   2
BRANCH   1  23
ATOM     23  C   UNL A   1      33.917  29.430  26.659  1.00  0.00     0.116 C 
BRANCH  23  24
ATOM     24  N   UNL A   1      33.894  30.599  27.531  1.00  0.00    -0.352 N 
ATOM     25  C   UNL A   1      34.833  31.013  28.450  1.00  0.00     0.251 C 
ATOM     26  H   UNL A   1      33.097  31.171  27.451  1.00  0.00     0.163 HD
ATOM     27  O   UNL A   1      34.634  31.986  29.158  1.00  0.00    -0.269 OA
BRANCH  25  28
ATOM     28  C   UNL A   1      36.069  30.216  28.601  1.00  0.00     0.039 A 
ATOM     29  C   UNL A   1      37.024  30.258  27.583  1.00  0.00     0.014 A 
ATOM     30  C   UNL A   1      36.321  29.531  29.791  1.00  0.00     0.014 A 
ATOM     31  C   UNL A   1      38.288  29.711  27.809  1.00  0.00     0.010 A 
ATOM     32  C   UNL A   1      37.600  29.048  30.039  1.00  0.00     0.010 A 
ATOM     33  C   UNL A   1      38.602  29.162  29.062  1.00  0.00    -0.014 A 
BRANCH  33  34
ATOM     34  C   UNL A   1      39.987  28.758  29.408  1.00  0.00     0.031 A 
ATOM     35  C   UNL A   1      40.880  29.699  30.161  1.00  0.00     0.074 A 
ATOM     36  C   UNL A   1      40.475  27.592  28.939  1.00  0.00     0.049 A 
ATOM     37  N   UNL A   1      42.156  29.596  30.424  1.00  0.00    -0.248 NA
ATOM     38  C   UNL A   1      40.258  30.936  30.659  1.00  0.00     0.031 C 
ATOM     39  C   UNL A   1      39.720  26.613  28.153  1.00  0.00     0.029 A 
ATOM     40  N   UNL A   1      41.729  27.043  29.035  1.00  0.00    -0.354 N 
ATOM     41  C   UNL A   1      42.497  30.760  31.098  1.00  0.00     0.074 A 
ATOM     42  C   UNL A   1      41.300  31.574  31.169  1.00  0.00     0.031 C 
ATOM     43  C   UNL A   1      40.522  25.580  27.850  1.00  0.00     0.029 A 
ATOM     44  C   UNL A   1      41.856  25.842  28.381  1.00  0.00     0.049 A 
ATOM     45  H   UNL A   1      42.468  27.469  29.526  1.00  0.00     0.167 HD
ATOM     46  C   UNL A   1      43.694  31.109  31.624  1.00  0.00     0.037 A 
ATOM     47  C   UNL A   1      42.932  25.050  28.211  1.00  0.00     0.037 A 
ATOM     48  C   UNL A   1      44.870  30.284  31.582  1.00  0.00     0.049 A 
ATOM     49  C   UNL A   1      44.254  25.470  28.790  1.00  0.00     0.074 A 
ATOM     50  C   UNL A   1      46.104  30.509  32.166  1.00  0.00     0.029 A 
ATOM     51  N   UNL A   1      44.959  29.072  30.914  1.00  0.00    -0.354 N 
ATOM     52  N   UNL A   1      44.548  26.544  29.481  1.00  0.00    -0.248 NA
ATOM     53  C   UNL A   1      45.395  24.573  28.559  1.00  0.00     0.031 C 
ATOM     54  C   UNL A   1      46.952  29.451  31.819  1.00  0.00     0.029 A 
ATOM     55  C   UNL A   1      46.235  28.551  31.047  1.00  0.00     0.049 A 
ATOM     56  H   UNL A   1      44.224  28.645  30.417  1.00  0.00     0.167 HD
ATOM     57  C   UNL A   1      45.900  26.447  29.778  1.00  0.00     0.074 A 
ATOM     58  C   UNL A   1      46.367  25.202  29.204  1.00  0.00     0.031 C 
ATOM     59  C   UNL A   1      46.683  27.313  30.464  1.00  0.00     0.037 A 
BRANCH  46  60
ATOM     60  C   UNL A   1      43.786  32.444  32.298  1.00  0.00     0.064 A 
ATOM     61  C   UNL A   1      43.523  32.591  33.668  1.00  0.00     0.173 A 
ATOM     62  C   UNL A   1      44.169  33.582  31.574  1.00  0.00     0.173 A 
ATOM     63  F   UNL A   1      43.140  31.534  34.400  1.00  0.00    -0.203 F 
ATOM     64  C   UNL A   1      43.615  33.836  34.284  1.00  0.00     0.198 A 
ATOM     65  C   UNL A   1      44.284  34.822  32.199  1.00  0.00     0.198 A 
ATOM     66  F   UNL A   1      44.435  33.492  30.262  1.00  0.00    -0.203 F 
ATOM     67  F   UNL A   1      43.316  33.963  35.584  1.00  0.00    -0.200 F 
ATOM     68  C   UNL A   1      44.000  34.949  33.551  1.00  0.00     0.200 A 
ATOM     69  F   UNL A   1      44.664  35.894  31.491  1.00  0.00    -0.200 F 
ATOM     70  F   UNL A   1      44.092  36.146  34.145  1.00  0.00    -0.200 F 
ENDBRANCH  46  60
BRANCH  47  71
ATOM     71  C   UNL A   1      42.801  23.775  27.463  1.00  0.00     0.064 A 
ATOM     72  C   UNL A   1      43.144  23.703  26.106  1.00  0.00     0.173 A 
ATOM     73  C   UNL A   1      42.337  22.607  28.085  1.00  0.00     0.173 A 
ATOM     74  F   UNL A   1      43.570  24.800  25.466  1.00  0.00    -0.203 F 
ATOM     75  C   UNL A   1      43.021  22.510  25.397  1.00  0.00     0.198 A 
ATOM     76  C   UNL A   1      42.235  21.410  27.379  1.00  0.00     0.198 A 
ATOM     77  F   UNL A   1      41.998  22.625  29.382  1.00  0.00    -0.203 F 
ATOM     78  F   UNL A   1      43.326  22.476  24.093  1.00  0.00    -0.200 F 
ATOM     79  C   UNL A   1      42.572  21.364  26.034  1.00  0.00     0.200 A 
ATOM     80  F   UNL A   1      41.811  20.301  28.001  1.00  0.00    -0.200 F 
ATOM     81  F   UNL A   1      42.459  20.216  25.352  1.00  0.00    -0.200 F 
ENDBRANCH  47  71
BRANCH  59  82
ATOM     82  C   UNL A   1      48.124  26.942  30.639  1.00  0.00     0.064 A 
ATOM     83  C   UNL A   1      49.119  27.470  29.804  1.00  0.00     0.173 A 
ATOM     84  C   UNL A   1      48.520  26.094  31.683  1.00  0.00     0.173 A 
ATOM     85  F   UNL A   1      48.785  28.272  28.781  1.00  0.00    -0.203 F 
ATOM     86  C   UNL A   1      50.459  27.152  30.001  1.00  0.00     0.198 A 
ATOM     87  C   UNL A   1      49.864  25.794  31.891  1.00  0.00     0.198 A 
ATOM     88  F   UNL A   1      47.604  25.567  32.510  1.00  0.00    -0.203 F 
ATOM     89  F   UNL A   1      51.391  27.641  29.172  1.00  0.00    -0.200 F 
ATOM     90  C   UNL A   1      50.831  26.321  31.048  1.00  0.00     0.200 A 
ATOM     91  F   UNL A   1      50.222  24.999  32.908  1.00  0.00    -0.200 F 
ATOM     92  F   UNL A   1      52.123  26.024  31.242  1.00  0.00    -0.200 F 
ENDBRANCH  59  82
ENDBRANCH  33  34
ENDBRANCH  25  28
ENDBRANCH  23  24
ENDBRANCH   1  23
TORSDOF 12
ENDMDL
