MODEL 1
REMARK VINA RESULT:     -13.2      0.000      0.000
REMARK SMILES NS(=O)(=O)c1ccc(-n2nc(C(F)F)cc2-c2ccc(C(=O)NCCCCNC(=O)c3ccc(-c4c5nc(c(-c6c(F)c(F)c(F)c(F)c6F)c6ccc([nH]6)c(-c6c(F)c(F)c(F)c(F)c6F)c6nc(c(-c7c(F)c(F)c(F)c(F)c7F)c7ccc4[nH]7)C=C6)C=C5)cc3)cc2)cc1
REMARK SMILES IDX 24 1 23 2 21 3 22 4 20 6 17 7 18 8 95 9 19 10 94 11 16 12
REMARK SMILES IDX 9 13 10 14 11 15 15 16 8 17 5 18 6 19 97 20 7 21 96 22 2 23
REMARK SMILES IDX 3 24 4 25 1 26 12 29 13 30 14 31 25 32 26 33 27 34 28 35
REMARK SMILES IDX 29 36 30 38 31 39 32 40 93 41 33 42 92 43 34 44 35 45 36 46
REMARK SMILES IDX 86 47 37 48 91 49 85 50 87 51 38 52 90 53 84 54 83 55 39 57
REMARK SMILES IDX 71 58 51 59 70 60 52 61 55 62 69 63 88 64 53 65 54 66 68 68
REMARK SMILES IDX 89 69 56 70 40 71 41 72 49 73 42 74 43 75 47 76 50 77 44 78
REMARK SMILES IDX 45 79 48 80 46 81 72 82 73 83 81 84 74 85 75 86 79 87 82 88
REMARK SMILES IDX 76 89 77 90 80 91 78 92 57 93 58 94 66 95 59 96 60 97 64 98
REMARK SMILES IDX 67 99 61 100 62 101 65 102 63 103
REMARK H PARENT 23 5 1 27 1 28 28 37 87 56 55 67
REMARK Flexibility Score: inf
ROOT
ATOM      1  C   UNL A   1      31.379  27.901  25.728  1.00  0.00     0.116 C 
ENDROOT
BRANCH   1   2
ATOM      2  N   UNL A   1      30.723  26.905  24.905  1.00  0.00    -0.352 N 
ATOM      3  C   UNL A   1      31.101  25.658  24.473  1.00  0.00     0.251 C 
ATOM      4  O   UNL A   1      30.286  25.021  23.805  1.00  0.00    -0.269 OA
ATOM      5  H   UNL A   1      29.829  27.176  24.592  1.00  0.00     0.163 HD
BRANCH   3   6
ATOM      6  C   UNL A   1      32.412  25.030  24.809  1.00  0.00     0.039 A 
ATOM      7  C   UNL A   1      34.920  23.833  25.277  1.00  0.00     0.000 A 
ATOM      8  C   UNL A   1      34.612  24.343  24.013  1.00  0.00     0.011 A 
ATOM      9  C   UNL A   1      33.984  23.936  26.305  1.00  0.00     0.011 A 
ATOM     10  C   UNL A   1      33.363  24.929  23.780  1.00  0.00     0.014 A 
ATOM     11  C   UNL A   1      32.763  24.571  26.081  1.00  0.00     0.014 A 
BRANCH   7  12
ATOM     12  C   UNL A   1      36.226  23.262  25.566  1.00  0.00     0.075 A 
ATOM     13  N   UNL A   1      36.514  21.903  25.590  1.00  0.00    -0.233 N 
ATOM     14  N   UNL A   1      37.762  21.665  26.068  1.00  0.00    -0.166 NA
ATOM     15  C   UNL A   1      38.348  22.876  26.112  1.00  0.00     0.129 A 
ATOM     16  C   UNL A   1      37.409  23.903  25.862  1.00  0.00     0.060 A 
BRANCH  13  17
ATOM     17  C   UNL A   1      35.690  20.831  25.152  1.00  0.00     0.065 A 
ATOM     18  C   UNL A   1      34.049  18.696  24.434  1.00  0.00     0.082 A 
ATOM     19  C   UNL A   1      33.488  19.958  24.625  1.00  0.00     0.024 A 
ATOM     20  C   UNL A   1      35.431  18.503  24.564  1.00  0.00     0.024 A 
ATOM     21  C   UNL A   1      34.310  21.023  24.990  1.00  0.00     0.030 A 
ATOM     22  C   UNL A   1      36.259  19.580  24.897  1.00  0.00     0.030 A 
BRANCH  18  23
ATOM     23  S   UNL A   1      33.036  17.301  24.045  1.00  0.00     0.238 S 
ATOM     24  O   UNL A   1      31.944  17.256  25.001  1.00  0.00    -0.207 OA
ATOM     25  O   UNL A   1      33.887  16.178  23.775  1.00  0.00    -0.207 OA
BRANCH  23  26
ATOM     26  N   UNL A   1      32.311  17.691  22.576  1.00  0.00    -0.225 NA
ATOM     27  H   UNL A   1      32.551  16.985  21.881  1.00  0.00     0.137 HD
ATOM     28  H   UNL A   1      32.646  18.603  22.264  1.00  0.00     0.137 HD
ENDBRANCH  23  26
ENDBRANCH  18  23
ENDBRANCH  13  17
BRANCH  15  29
ATOM     29  C   UNL A   1      39.812  23.063  26.385  1.00  0.00     0.393 C 
ATOM     30  F   UNL A   1      40.167  24.373  26.467  1.00  0.00    -0.203 F 
ATOM     31  F   UNL A   1      40.177  22.482  27.562  1.00  0.00    -0.203 F 
ENDBRANCH  15  29
ENDBRANCH   7  12
ENDBRANCH   3   6
ENDBRANCH   1   2
BRANCH   1  32
ATOM     32  C   UNL A   1      32.645  28.441  25.053  1.00  0.00     0.023 C 
BRANCH  32  33
ATOM     33  C   UNL A   1      33.937  28.263  25.863  1.00  0.00     0.023 C 
BRANCH  33  34
ATOM     34  C   UNL A   1      33.981  29.040  27.174  1.00  0.00     0.116 C 
BRANCH  34  35
ATOM     35  N   UNL A   1      34.167  30.477  26.976  1.00  0.00    -0.352 N 
ATOM     36  C   UNL A   1      35.096  31.308  27.567  1.00  0.00     0.251 C 
ATOM     37  H   UNL A   1      33.551  30.906  26.337  1.00  0.00     0.163 HD
ATOM     38  O   UNL A   1      34.921  32.519  27.627  1.00  0.00    -0.269 OA
BRANCH  36  39
ATOM     39  C   UNL A   1      36.320  30.710  28.121  1.00  0.00     0.039 A 
ATOM     40  C   UNL A   1      36.574  29.342  28.009  1.00  0.00     0.014 A 
ATOM     41  C   UNL A   1      37.241  31.563  28.722  1.00  0.00     0.014 A 
ATOM     42  C   UNL A   1      37.811  28.853  28.424  1.00  0.00     0.010 A 
ATOM     43  C   UNL A   1      38.505  31.107  29.005  1.00  0.00     0.010 A 
ATOM     44  C   UNL A   1      38.784  29.747  28.898  1.00  0.00    -0.014 A 
BRANCH  44  45
ATOM     45  C   UNL A   1      40.140  29.282  29.179  1.00  0.00     0.031 A 
ATOM     46  C   UNL A   1      40.515  29.224  30.621  1.00  0.00     0.074 A 
ATOM     47  C   UNL A   1      40.928  28.722  28.237  1.00  0.00     0.049 A 
ATOM     48  N   UNL A   1      41.474  29.857  31.215  1.00  0.00    -0.248 NA
ATOM     49  C   UNL A   1      39.672  28.437  31.535  1.00  0.00     0.031 C 
ATOM     50  C   UNL A   1      40.602  28.413  26.840  1.00  0.00     0.029 A 
ATOM     51  N   UNL A   1      42.173  28.191  28.374  1.00  0.00    -0.354 N 
ATOM     52  C   UNL A   1      41.467  29.428  32.541  1.00  0.00     0.074 A 
ATOM     53  C   UNL A   1      40.255  28.672  32.713  1.00  0.00     0.031 C 
ATOM     54  C   UNL A   1      41.509  27.542  26.347  1.00  0.00     0.029 A 
ATOM     55  C   UNL A   1      42.563  27.366  27.328  1.00  0.00     0.049 A 
ATOM     56  H   UNL A   1      42.750  28.376  29.150  1.00  0.00     0.167 HD
ATOM     57  C   UNL A   1      42.574  29.556  33.329  1.00  0.00     0.037 A 
ATOM     58  C   UNL A   1      43.656  26.565  27.288  1.00  0.00     0.037 A 
ATOM     59  C   UNL A   1      43.501  30.509  32.770  1.00  0.00     0.049 A 
ATOM     60  C   UNL A   1      44.609  27.069  28.309  1.00  0.00     0.074 A 
ATOM     61  C   UNL A   1      43.421  31.844  32.422  1.00  0.00     0.029 A 
ATOM     62  N   UNL A   1      44.622  30.035  32.134  1.00  0.00    -0.354 N 
ATOM     63  N   UNL A   1      45.231  28.212  28.216  1.00  0.00    -0.248 NA
ATOM     64  C   UNL A   1      44.512  26.518  29.653  1.00  0.00     0.031 C 
ATOM     65  C   UNL A   1      44.159  31.948  31.205  1.00  0.00     0.029 A 
ATOM     66  C   UNL A   1      44.703  30.693  30.933  1.00  0.00     0.049 A 
ATOM     67  H   UNL A   1      45.248  29.355  32.474  1.00  0.00     0.167 HD
ATOM     68  C   UNL A   1      45.201  28.731  29.501  1.00  0.00     0.074 A 
ATOM     69  C   UNL A   1      44.830  27.607  30.359  1.00  0.00     0.031 C 
ATOM     70  C   UNL A   1      45.188  30.080  29.721  1.00  0.00     0.037 A 
BRANCH  57  71
ATOM     71  C   UNL A   1      42.991  28.575  34.401  1.00  0.00     0.064 A 
ATOM     72  C   UNL A   1      43.321  29.061  35.685  1.00  0.00     0.173 A 
ATOM     73  C   UNL A   1      43.381  27.244  34.142  1.00  0.00     0.173 A 
ATOM     74  F   UNL A   1      43.004  30.315  36.044  1.00  0.00    -0.203 F 
ATOM     75  C   UNL A   1      44.075  28.310  36.591  1.00  0.00     0.198 A 
ATOM     76  C   UNL A   1      44.086  26.478  35.070  1.00  0.00     0.198 A 
ATOM     77  F   UNL A   1      43.204  26.668  32.948  1.00  0.00    -0.203 F 
ATOM     78  F   UNL A   1      44.485  28.869  37.738  1.00  0.00    -0.200 F 
ATOM     79  C   UNL A   1      44.466  27.023  36.278  1.00  0.00     0.200 A 
ATOM     80  F   UNL A   1      44.469  25.236  34.743  1.00  0.00    -0.200 F 
ATOM     81  F   UNL A   1      45.250  26.327  37.113  1.00  0.00    -0.200 F 
ENDBRANCH  57  71
BRANCH  58  82
ATOM     82  C   UNL A   1      43.810  25.254  26.615  1.00  0.00     0.064 A 
ATOM     83  C   UNL A   1      44.700  25.087  25.541  1.00  0.00     0.173 A 
ATOM     84  C   UNL A   1      43.284  24.074  27.177  1.00  0.00     0.173 A 
ATOM     85  F   UNL A   1      45.282  26.155  24.976  1.00  0.00    -0.203 F 
ATOM     86  C   UNL A   1      45.058  23.818  25.075  1.00  0.00     0.198 A 
ATOM     87  C   UNL A   1      43.634  22.808  26.704  1.00  0.00     0.198 A 
ATOM     88  F   UNL A   1      42.490  24.118  28.255  1.00  0.00    -0.203 F 
ATOM     89  F   UNL A   1      45.958  23.698  24.088  1.00  0.00    -0.200 F 
ATOM     90  C   UNL A   1      44.532  22.679  25.662  1.00  0.00     0.200 A 
ATOM     91  F   UNL A   1      43.142  21.715  27.304  1.00  0.00    -0.200 F 
ATOM     92  F   UNL A   1      44.920  21.464  25.255  1.00  0.00    -0.200 F 
ENDBRANCH  58  82
BRANCH  70  93
ATOM     93  C   UNL A   1      45.454  30.994  28.556  1.00  0.00     0.064 A 
ATOM     94  C   UNL A   1      44.475  31.396  27.630  1.00  0.00     0.173 A 
ATOM     95  C   UNL A   1      46.711  31.605  28.465  1.00  0.00     0.173 A 
ATOM     96  F   UNL A   1      43.218  30.949  27.712  1.00  0.00    -0.203 F 
ATOM     97  C   UNL A   1      44.760  32.326  26.630  1.00  0.00     0.198 A 
ATOM     98  C   UNL A   1      46.982  32.562  27.490  1.00  0.00     0.198 A 
ATOM     99  F   UNL A   1      47.670  31.308  29.357  1.00  0.00    -0.203 F 
ATOM    100  F   UNL A   1      43.810  32.679  25.752  1.00  0.00    -0.200 F 
ATOM    101  C   UNL A   1      46.011  32.913  26.566  1.00  0.00     0.200 A 
ATOM    102  F   UNL A   1      48.178  33.167  27.465  1.00  0.00    -0.200 F 
ATOM    103  F   UNL A   1      46.274  33.836  25.631  1.00  0.00    -0.200 F 
ENDBRANCH  70  93
ENDBRANCH  44  45
ENDBRANCH  36  39
ENDBRANCH  34  35
ENDBRANCH  33  34
ENDBRANCH  32  33
ENDBRANCH   1  32
TORSDOF 16
ENDMDL
MODEL 2
REMARK VINA RESULT:     -13.1      3.235      8.325
REMARK SMILES NS(=O)(=O)c1ccc(-n2nc(C(F)F)cc2-c2ccc(C(=O)NCCCCNC(=O)c3ccc(-c4c5nc(c(-c6c(F)c(F)c(F)c(F)c6F)c6ccc([nH]6)c(-c6c(F)c(F)c(F)c(F)c6F)c6nc(c(-c7c(F)c(F)c(F)c(F)c7F)c7ccc4[nH]7)C=C6)C=C5)cc3)cc2)cc1
REMARK SMILES IDX 24 1 23 2 21 3 22 4 20 6 17 7 18 8 95 9 19 10 94 11 16 12
REMARK SMILES IDX 9 13 10 14 11 15 15 16 8 17 5 18 6 19 97 20 7 21 96 22 2 23
REMARK SMILES IDX 3 24 4 25 1 26 12 29 13 30 14 31 25 32 26 33 27 34 28 35
REMARK SMILES IDX 29 36 30 38 31 39 32 40 93 41 33 42 92 43 34 44 35 45 36 46
REMARK SMILES IDX 86 47 37 48 91 49 85 50 87 51 38 52 90 53 84 54 83 55 39 57
REMARK SMILES IDX 71 58 51 59 70 60 52 61 55 62 69 63 88 64 53 65 54 66 68 68
REMARK SMILES IDX 89 69 56 70 40 71 41 72 49 73 42 74 43 75 47 76 50 77 44 78
REMARK SMILES IDX 45 79 48 80 46 81 72 82 73 83 81 84 74 85 75 86 79 87 82 88
REMARK SMILES IDX 76 89 77 90 80 91 78 92 57 93 58 94 66 95 59 96 60 97 64 98
REMARK SMILES IDX 67 99 61 100 62 101 65 102 63 103
REMARK H PARENT 23 5 1 27 1 28 28 37 87 56 55 67
REMARK Flexibility Score: inf
ROOT
ATOM      1  C   UNL A   1      38.520  20.953  25.605  1.00  0.00     0.116 C 
ENDROOT
BRANCH   1   2
ATOM      2  N   UNL A   1      38.970  22.308  25.854  1.00  0.00    -0.352 N 
ATOM      3  C   UNL A   1      38.327  23.520  25.834  1.00  0.00     0.251 C 
ATOM      4  O   UNL A   1      38.987  24.514  26.140  1.00  0.00    -0.269 OA
ATOM      5  H   UNL A   1      39.926  22.372  26.084  1.00  0.00     0.163 HD
BRANCH   3   6
ATOM      6  C   UNL A   1      36.880  23.683  25.508  1.00  0.00     0.039 A 
ATOM      7  C   UNL A   1      34.192  24.016  24.732  1.00  0.00     0.000 A 
ATOM      8  C   UNL A   1      35.180  23.814  23.765  1.00  0.00     0.011 A 
ATOM      9  C   UNL A   1      34.545  24.035  26.080  1.00  0.00     0.011 A 
ATOM     10  C   UNL A   1      36.516  23.657  24.152  1.00  0.00     0.014 A 
ATOM     11  C   UNL A   1      35.869  23.823  26.461  1.00  0.00     0.014 A 
BRANCH   7  12
ATOM     12  C   UNL A   1      32.788  24.133  24.368  1.00  0.00     0.075 A 
ATOM     13  N   UNL A   1      31.963  23.069  24.026  1.00  0.00    -0.233 N 
ATOM     14  N   UNL A   1      30.764  23.498  23.557  1.00  0.00    -0.166 NA
ATOM     15  C   UNL A   1      30.739  24.815  23.834  1.00  0.00     0.129 A 
ATOM     16  C   UNL A   1      32.002  25.261  24.287  1.00  0.00     0.060 A 
BRANCH  13  17
ATOM     17  C   UNL A   1      32.235  21.680  24.155  1.00  0.00     0.065 A 
ATOM     18  C   UNL A   1      32.913  18.987  24.391  1.00  0.00     0.082 A 
ATOM     19  C   UNL A   1      32.880  19.788  25.532  1.00  0.00     0.024 A 
ATOM     20  C   UNL A   1      32.574  19.516  23.138  1.00  0.00     0.024 A 
ATOM     21  C   UNL A   1      32.546  21.136  25.410  1.00  0.00     0.030 A 
ATOM     22  C   UNL A   1      32.206  20.860  23.023  1.00  0.00     0.030 A 
BRANCH  18  23
ATOM     23  S   UNL A   1      33.403  17.292  24.486  1.00  0.00     0.238 S 
ATOM     24  O   UNL A   1      33.257  16.706  23.166  1.00  0.00    -0.207 OA
ATOM     25  O   UNL A   1      32.829  16.714  25.667  1.00  0.00    -0.207 OA
BRANCH  23  26
ATOM     26  N   UNL A   1      35.064  17.338  24.759  1.00  0.00    -0.225 NA
ATOM     27  H   UNL A   1      35.508  17.926  24.054  1.00  0.00     0.137 HD
ATOM     28  H   UNL A   1      35.444  16.394  24.701  1.00  0.00     0.137 HD
ENDBRANCH  23  26
ENDBRANCH  18  23
ENDBRANCH  13  17
BRANCH  15  29
ATOM     29  C   UNL A   1      29.508  25.658  23.677  1.00  0.00     0.393 C 
ATOM     30  F   UNL A   1      28.968  26.028  24.869  1.00  0.00    -0.203 F 
ATOM     31  F   UNL A   1      29.775  26.805  22.993  1.00  0.00    -0.203 F 
ENDBRANCH  15  29
ENDBRANCH   7  12
ENDBRANCH   3   6
ENDBRANCH   1   2
BRANCH   1  32
ATOM     32  C   UNL A   1      39.668  19.946  25.742  1.00  0.00     0.023 C 
BRANCH  32  33
ATOM     33  C   UNL A   1      41.068  20.568  25.835  1.00  0.00     0.023 C 
BRANCH  33  34
ATOM     34  C   UNL A   1      42.146  19.636  26.378  1.00  0.00     0.116 C 
BRANCH  34  35
ATOM     35  N   UNL A   1      43.232  19.410  25.426  1.00  0.00    -0.352 N 
ATOM     36  C   UNL A   1      43.961  20.347  24.723  1.00  0.00     0.251 C 
ATOM     37  H   UNL A   1      43.475  18.468  25.266  1.00  0.00     0.163 HD
ATOM     38  O   UNL A   1      44.560  20.050  23.697  1.00  0.00    -0.269 OA
BRANCH  36  39
ATOM     39  C   UNL A   1      44.018  21.723  25.239  1.00  0.00     0.039 A 
ATOM     40  C   UNL A   1      43.291  22.754  24.641  1.00  0.00     0.014 A 
ATOM     41  C   UNL A   1      44.787  21.954  26.376  1.00  0.00     0.014 A 
ATOM     42  C   UNL A   1      43.270  24.004  25.256  1.00  0.00     0.010 A 
ATOM     43  C   UNL A   1      44.658  23.142  27.052  1.00  0.00     0.010 A 
ATOM     44  C   UNL A   1      43.936  24.185  26.478  1.00  0.00    -0.014 A 
BRANCH  44  45
ATOM     45  C   UNL A   1      43.788  25.433  27.223  1.00  0.00     0.031 A 
ATOM     46  C   UNL A   1      44.762  26.508  26.878  1.00  0.00     0.074 A 
ATOM     47  C   UNL A   1      42.714  25.696  27.998  1.00  0.00     0.049 A 
ATOM     48  N   UNL A   1      45.616  27.082  27.660  1.00  0.00    -0.248 NA
ATOM     49  C   UNL A   1      44.864  26.940  25.474  1.00  0.00     0.031 C 
ATOM     50  C   UNL A   1      41.512  24.879  28.199  1.00  0.00     0.029 A 
ATOM     51  N   UNL A   1      42.419  26.832  28.686  1.00  0.00    -0.354 N 
ATOM     52  C   UNL A   1      46.252  28.062  26.900  1.00  0.00     0.074 A 
ATOM     53  C   UNL A   1      45.856  27.832  25.535  1.00  0.00     0.031 C 
ATOM     54  C   UNL A   1      40.535  25.640  28.740  1.00  0.00     0.029 A 
ATOM     55  C   UNL A   1      41.091  26.938  29.076  1.00  0.00     0.049 A 
ATOM     56  H   UNL A   1      43.092  27.521  28.892  1.00  0.00     0.167 HD
ATOM     57  C   UNL A   1      46.884  29.115  27.494  1.00  0.00     0.037 A 
ATOM     58  C   UNL A   1      40.482  28.029  29.601  1.00  0.00     0.037 A 
ATOM     59  C   UNL A   1      47.149  28.843  28.884  1.00  0.00     0.049 A 
ATOM     60  C   UNL A   1      41.548  28.912  30.140  1.00  0.00     0.074 A 
ATOM     61  C   UNL A   1      47.847  27.861  29.561  1.00  0.00     0.029 A 
ATOM     62  N   UNL A   1      46.349  29.436  29.831  1.00  0.00    -0.354 N 
ATOM     63  N   UNL A   1      42.281  28.610  31.176  1.00  0.00    -0.248 NA
ATOM     64  C   UNL A   1      42.111  29.913  29.246  1.00  0.00     0.031 C 
ATOM     65  C   UNL A   1      47.050  27.571  30.708  1.00  0.00     0.029 A 
ATOM     66  C   UNL A   1      45.963  28.446  30.698  1.00  0.00     0.049 A 
ATOM     67  H   UNL A   1      46.101  30.387  29.878  1.00  0.00     0.167 HD
ATOM     68  C   UNL A   1      43.558  29.028  30.833  1.00  0.00     0.074 A 
ATOM     69  C   UNL A   1      43.375  29.905  29.677  1.00  0.00     0.031 C 
ATOM     70  C   UNL A   1      44.665  28.399  31.326  1.00  0.00     0.037 A 
BRANCH  57  71
ATOM     71  C   UNL A   1      46.945  30.517  26.931  1.00  0.00     0.064 A 
ATOM     72  C   UNL A   1      48.167  31.222  26.975  1.00  0.00     0.173 A 
ATOM     73  C   UNL A   1      45.806  31.301  26.648  1.00  0.00     0.173 A 
ATOM     74  F   UNL A   1      49.316  30.582  27.239  1.00  0.00    -0.203 F 
ATOM     75  C   UNL A   1      48.225  32.613  26.853  1.00  0.00     0.198 A 
ATOM     76  C   UNL A   1      45.876  32.683  26.472  1.00  0.00     0.198 A 
ATOM     77  F   UNL A   1      44.570  30.790  26.644  1.00  0.00    -0.203 F 
ATOM     78  F   UNL A   1      49.389  33.249  27.046  1.00  0.00    -0.200 F 
ATOM     79  C   UNL A   1      47.078  33.343  26.612  1.00  0.00     0.200 A 
ATOM     80  F   UNL A   1      44.750  33.376  26.253  1.00  0.00    -0.200 F 
ATOM     81  F   UNL A   1      47.119  34.682  26.567  1.00  0.00    -0.200 F 
ENDBRANCH  57  71
BRANCH  58  82
ATOM     82  C   UNL A   1      39.077  28.469  29.429  1.00  0.00     0.064 A 
ATOM     83  C   UNL A   1      38.233  28.656  30.536  1.00  0.00     0.173 A 
ATOM     84  C   UNL A   1      38.609  28.968  28.197  1.00  0.00     0.173 A 
ATOM     85  F   UNL A   1      38.620  28.251  31.754  1.00  0.00    -0.203 F 
ATOM     86  C   UNL A   1      37.008  29.321  30.420  1.00  0.00     0.198 A 
ATOM     87  C   UNL A   1      37.382  29.622  28.080  1.00  0.00     0.198 A 
ATOM     88  F   UNL A   1      39.372  28.913  27.096  1.00  0.00    -0.203 F 
ATOM     89  F   UNL A   1      36.258  29.534  31.511  1.00  0.00    -0.200 F 
ATOM     90  C   UNL A   1      36.587  29.811  29.195  1.00  0.00     0.200 A 
ATOM     91  F   UNL A   1      37.004  30.120  26.895  1.00  0.00    -0.200 F 
ATOM     92  F   UNL A   1      35.442  30.500  29.096  1.00  0.00    -0.200 F 
ENDBRANCH  58  82
BRANCH  70  93
ATOM     93  C   UNL A   1      44.484  27.402  32.437  1.00  0.00     0.064 A 
ATOM     94  C   UNL A   1      44.257  26.029  32.235  1.00  0.00     0.173 A 
ATOM     95  C   UNL A   1      44.699  27.827  33.755  1.00  0.00     0.173 A 
ATOM     96  F   UNL A   1      44.152  25.518  31.003  1.00  0.00    -0.203 F 
ATOM     97  C   UNL A   1      44.197  25.137  33.305  1.00  0.00     0.198 A 
ATOM     98  C   UNL A   1      44.678  26.929  34.818  1.00  0.00     0.198 A 
ATOM     99  F   UNL A   1      44.980  29.116  34.008  1.00  0.00    -0.203 F 
ATOM    100  F   UNL A   1      43.964  23.835  33.082  1.00  0.00    -0.200 F 
ATOM    101  C   UNL A   1      44.414  25.587  34.595  1.00  0.00     0.200 A 
ATOM    102  F   UNL A   1      44.942  27.361  36.059  1.00  0.00    -0.200 F 
ATOM    103  F   UNL A   1      44.398  24.725  35.621  1.00  0.00    -0.200 F 
ENDBRANCH  70  93
ENDBRANCH  44  45
ENDBRANCH  36  39
ENDBRANCH  34  35
ENDBRANCH  33  34
ENDBRANCH  32  33
ENDBRANCH   1  32
TORSDOF 16
ENDMDL
MODEL 3
REMARK VINA RESULT:     -13.1      3.487      9.116
REMARK SMILES NS(=O)(=O)c1ccc(-n2nc(C(F)F)cc2-c2ccc(C(=O)NCCCCNC(=O)c3ccc(-c4c5nc(c(-c6c(F)c(F)c(F)c(F)c6F)c6ccc([nH]6)c(-c6c(F)c(F)c(F)c(F)c6F)c6nc(c(-c7c(F)c(F)c(F)c(F)c7F)c7ccc4[nH]7)C=C6)C=C5)cc3)cc2)cc1
REMARK SMILES IDX 24 1 23 2 21 3 22 4 20 6 17 7 18 8 95 9 19 10 94 11 16 12
REMARK SMILES IDX 9 13 10 14 11 15 15 16 8 17 5 18 6 19 97 20 7 21 96 22 2 23
REMARK SMILES IDX 3 24 4 25 1 26 12 29 13 30 14 31 25 32 26 33 27 34 28 35
REMARK SMILES IDX 29 36 30 38 31 39 32 40 93 41 33 42 92 43 34 44 35 45 36 46
REMARK SMILES IDX 86 47 37 48 91 49 85 50 87 51 38 52 90 53 84 54 83 55 39 57
REMARK SMILES IDX 71 58 51 59 70 60 52 61 55 62 69 63 88 64 53 65 54 66 68 68
REMARK SMILES IDX 89 69 56 70 40 71 41 72 49 73 42 74 43 75 47 76 50 77 44 78
REMARK SMILES IDX 45 79 48 80 46 81 72 82 73 83 81 84 74 85 75 86 79 87 82 88
REMARK SMILES IDX 76 89 77 90 80 91 78 92 57 93 58 94 66 95 59 96 60 97 64 98
REMARK SMILES IDX 67 99 61 100 62 101 65 102 63 103
REMARK H PARENT 23 5 1 27 1 28 28 37 87 56 55 67
REMARK Flexibility Score: inf
ROOT
ATOM      1  C   UNL A   1      34.340  22.608  23.494  1.00  0.00     0.116 C 
ENDROOT
BRANCH   1   2
ATOM      2  N   UNL A   1      33.016  22.401  24.048  1.00  0.00    -0.352 N 
ATOM      3  C   UNL A   1      32.173  23.208  24.770  1.00  0.00     0.251 C 
ATOM      4  O   UNL A   1      31.070  22.749  25.066  1.00  0.00    -0.269 OA
ATOM      5  H   UNL A   1      32.649  21.504  23.872  1.00  0.00     0.163 HD
BRANCH   3   6
ATOM      6  C   UNL A   1      32.506  24.607  25.166  1.00  0.00     0.039 A 
ATOM      7  C   UNL A   1      32.988  27.256  25.997  1.00  0.00     0.000 A 
ATOM      8  C   UNL A   1      31.969  26.509  26.594  1.00  0.00     0.011 A 
ATOM      9  C   UNL A   1      33.771  26.675  25.001  1.00  0.00     0.011 A 
ATOM     10  C   UNL A   1      31.726  25.196  26.174  1.00  0.00     0.014 A 
ATOM     11  C   UNL A   1      33.560  25.349  24.627  1.00  0.00     0.014 A 
BRANCH   7  12
ATOM     12  C   UNL A   1      33.299  28.605  26.443  1.00  0.00     0.075 A 
ATOM     13  N   UNL A   1      32.671  29.759  25.991  1.00  0.00    -0.233 N 
ATOM     14  N   UNL A   1      33.293  30.877  26.444  1.00  0.00    -0.166 NA
ATOM     15  C   UNL A   1      34.157  30.434  27.376  1.00  0.00     0.129 A 
ATOM     16  C   UNL A   1      34.233  29.023  27.366  1.00  0.00     0.060 A 
BRANCH  13  17
ATOM     17  C   UNL A   1      31.500  29.856  25.192  1.00  0.00     0.065 A 
ATOM     18  C   UNL A   1      29.290  30.089  23.510  1.00  0.00     0.082 A 
ATOM     19  C   UNL A   1      29.982  28.880  23.569  1.00  0.00     0.024 A 
ATOM     20  C   UNL A   1      29.674  31.171  24.314  1.00  0.00     0.024 A 
ATOM     21  C   UNL A   1      31.090  28.768  24.406  1.00  0.00     0.030 A 
ATOM     22  C   UNL A   1      30.766  31.046  25.179  1.00  0.00     0.030 A 
BRANCH  18  23
ATOM     23  S   UNL A   1      27.925  30.302  22.408  1.00  0.00     0.238 S 
ATOM     24  O   UNL A   1      28.399  30.078  21.054  1.00  0.00    -0.207 OA
ATOM     25  O   UNL A   1      27.198  31.475  22.799  1.00  0.00    -0.207 OA
BRANCH  23  26
ATOM     26  N   UNL A   1      26.904  29.001  22.730  1.00  0.00    -0.225 NA
ATOM     27  H   UNL A   1      26.518  29.097  23.669  1.00  0.00     0.137 HD
ATOM     28  H   UNL A   1      27.433  28.131  22.667  1.00  0.00     0.137 HD
ENDBRANCH  23  26
ENDBRANCH  18  23
ENDBRANCH  13  17
BRANCH  15  29
ATOM     29  C   UNL A   1      34.912  31.354  28.290  1.00  0.00     0.393 C 
ATOM     30  F   UNL A   1      35.826  32.115  27.631  1.00  0.00    -0.203 F 
ATOM     31  F   UNL A   1      34.074  32.214  28.933  1.00  0.00    -0.203 F 
ENDBRANCH  15  29
ENDBRANCH   7  12
ENDBRANCH   3   6
ENDBRANCH   1   2
BRANCH   1  32
ATOM     32  C   UNL A   1      35.434  22.234  24.500  1.00  0.00     0.023 C 
BRANCH  32  33
ATOM     33  C   UNL A   1      36.704  23.091  24.424  1.00  0.00     0.023 C 
BRANCH  33  34
ATOM     34  C   UNL A   1      37.318  23.443  25.775  1.00  0.00     0.116 C 
BRANCH  34  35
ATOM     35  N   UNL A   1      38.248  22.423  26.258  1.00  0.00    -0.352 N 
ATOM     36  C   UNL A   1      39.557  22.583  26.666  1.00  0.00     0.251 C 
ATOM     37  H   UNL A   1      37.895  21.503  26.297  1.00  0.00     0.163 HD
ATOM     38  O   UNL A   1      40.340  21.641  26.679  1.00  0.00    -0.269 OA
BRANCH  36  39
ATOM     39  C   UNL A   1      39.996  23.916  27.103  1.00  0.00     0.039 A 
ATOM     40  C   UNL A   1      39.305  25.069  26.725  1.00  0.00     0.014 A 
ATOM     41  C   UNL A   1      41.103  23.988  27.945  1.00  0.00     0.014 A 
ATOM     42  C   UNL A   1      39.680  26.289  27.282  1.00  0.00     0.010 A 
ATOM     43  C   UNL A   1      41.386  25.164  28.595  1.00  0.00     0.010 A 
ATOM     44  C   UNL A   1      40.707  26.326  28.238  1.00  0.00    -0.014 A 
BRANCH  44  45
ATOM     45  C   UNL A   1      41.003  27.563  28.958  1.00  0.00     0.031 A 
ATOM     46  C   UNL A   1      42.186  28.327  28.465  1.00  0.00     0.074 A 
ATOM     47  C   UNL A   1      40.149  28.110  29.849  1.00  0.00     0.049 A 
ATOM     48  N   UNL A   1      43.255  28.638  29.122  1.00  0.00    -0.248 NA
ATOM     49  C   UNL A   1      42.228  28.720  27.048  1.00  0.00     0.031 C 
ATOM     50  C   UNL A   1      38.803  27.658  30.218  1.00  0.00     0.029 A 
ATOM     51  N   UNL A   1      40.267  29.279  30.533  1.00  0.00    -0.354 N 
ATOM     52  C   UNL A   1      44.037  29.406  28.261  1.00  0.00     0.074 A 
ATOM     53  C   UNL A   1      43.426  29.301  26.962  1.00  0.00     0.031 C 
ATOM     54  C   UNL A   1      38.149  28.657  30.850  1.00  0.00     0.029 A 
ATOM     55  C   UNL A   1      39.079  29.748  31.077  1.00  0.00     0.049 A 
ATOM     56  H   UNL A   1      41.123  29.754  30.636  1.00  0.00     0.167 HD
ATOM     57  C   UNL A   1      45.004  30.240  28.742  1.00  0.00     0.037 A 
ATOM     58  C   UNL A   1      38.865  30.963  31.639  1.00  0.00     0.037 A 
ATOM     59  C   UNL A   1      45.355  29.898  30.098  1.00  0.00     0.049 A 
ATOM     60  C   UNL A   1      40.191  31.513  32.018  1.00  0.00     0.074 A 
ATOM     61  C   UNL A   1      45.833  28.757  30.714  1.00  0.00     0.029 A 
ATOM     62  N   UNL A   1      44.874  30.685  31.116  1.00  0.00    -0.354 N 
ATOM     63  N   UNL A   1      40.936  31.014  32.966  1.00  0.00    -0.248 NA
ATOM     64  C   UNL A   1      40.893  32.322  31.033  1.00  0.00     0.031 C 
ATOM     65  C   UNL A   1      45.136  28.695  31.957  1.00  0.00     0.029 A 
ATOM     66  C   UNL A   1      44.340  29.837  32.053  1.00  0.00     0.049 A 
ATOM     67  H   UNL A   1      44.906  31.668  31.164  1.00  0.00     0.167 HD
ATOM     68  C   UNL A   1      42.225  31.064  32.460  1.00  0.00     0.074 A 
ATOM     69  C   UNL A   1      42.150  31.962  31.309  1.00  0.00     0.031 C 
ATOM     70  C   UNL A   1      43.169  30.150  32.834  1.00  0.00     0.037 A 
BRANCH  57  71
ATOM     71  C   UNL A   1      45.379  31.572  28.134  1.00  0.00     0.064 A 
ATOM     72  C   UNL A   1      44.359  32.503  27.840  1.00  0.00     0.173 A 
ATOM     73  C   UNL A   1      46.631  31.843  27.544  1.00  0.00     0.173 A 
ATOM     74  F   UNL A   1      43.125  32.347  28.343  1.00  0.00    -0.203 F 
ATOM     75  C   UNL A   1      44.553  33.557  26.943  1.00  0.00     0.198 A 
ATOM     76  C   UNL A   1      46.836  32.929  26.691  1.00  0.00     0.198 A 
ATOM     77  F   UNL A   1      47.674  31.016  27.669  1.00  0.00    -0.203 F 
ATOM     78  F   UNL A   1      43.516  34.327  26.587  1.00  0.00    -0.200 F 
ATOM     79  C   UNL A   1      45.789  33.762  26.361  1.00  0.00     0.200 A 
ATOM     80  F   UNL A   1      48.039  33.103  26.125  1.00  0.00    -0.200 F 
ATOM     81  F   UNL A   1      45.960  34.725  25.446  1.00  0.00    -0.200 F 
ENDBRANCH  57  71
BRANCH  58  82
ATOM     82  C   UNL A   1      37.625  31.777  31.624  1.00  0.00     0.064 A 
ATOM     83  C   UNL A   1      36.839  31.924  32.779  1.00  0.00     0.173 A 
ATOM     84  C   UNL A   1      37.326  32.640  30.552  1.00  0.00     0.173 A 
ATOM     85  F   UNL A   1      37.085  31.173  33.862  1.00  0.00    -0.203 F 
ATOM     86  C   UNL A   1      35.831  32.890  32.862  1.00  0.00     0.198 A 
ATOM     87  C   UNL A   1      36.313  33.597  30.632  1.00  0.00     0.198 A 
ATOM     88  F   UNL A   1      38.068  32.636  29.436  1.00  0.00    -0.203 F 
ATOM     89  F   UNL A   1      35.143  33.041  34.002  1.00  0.00    -0.200 F 
ATOM     90  C   UNL A   1      35.575  33.732  31.792  1.00  0.00     0.200 A 
ATOM     91  F   UNL A   1      36.100  34.426  29.600  1.00  0.00    -0.200 F 
ATOM     92  F   UNL A   1      34.650  34.696  31.892  1.00  0.00    -0.200 F 
ENDBRANCH  58  82
BRANCH  70  93
ATOM     93  C   UNL A   1      42.858  29.237  33.988  1.00  0.00     0.064 A 
ATOM     94  C   UNL A   1      42.085  28.066  33.883  1.00  0.00     0.173 A 
ATOM     95  C   UNL A   1      43.494  29.475  35.214  1.00  0.00     0.173 A 
ATOM     96  F   UNL A   1      41.535  27.703  32.720  1.00  0.00    -0.203 F 
ATOM     97  C   UNL A   1      41.917  27.207  34.968  1.00  0.00     0.198 A 
ATOM     98  C   UNL A   1      43.356  28.595  36.284  1.00  0.00     0.198 A 
ATOM     99  F   UNL A   1      44.293  30.543  35.360  1.00  0.00    -0.203 F 
ATOM    100  F   UNL A   1      41.161  26.106  34.840  1.00  0.00    -0.200 F 
ATOM    101  C   UNL A   1      42.558  27.469  36.165  1.00  0.00     0.200 A 
ATOM    102  F   UNL A   1      44.021  28.825  37.425  1.00  0.00    -0.200 F 
ATOM    103  F   UNL A   1      42.430  26.622  37.196  1.00  0.00    -0.200 F 
ENDBRANCH  70  93
ENDBRANCH  44  45
ENDBRANCH  36  39
ENDBRANCH  34  35
ENDBRANCH  33  34
ENDBRANCH  32  33
ENDBRANCH   1  32
TORSDOF 16
ENDMDL
