MODEL 1
REMARK VINA RESULT:     -15.1      0.000      0.000
REMARK SMILES O=C(NCCCCNC(=O)c1ccc(N2C(=O)[C@@H]3N=NC(c4ccccc4)=C3[C@H]2c2cccc(Br)c2)cc1)c1ccc(-c2c3nc(c(-c4c(F)c(F)c(F)c(F)c4F)c4ccc([nH]4)c(-c4c(F)c(F)c(F)c(F)c4F)c4nc(c(-c5c(F)c(F)c(F)c(F)c5F)c5ccc2[nH]5)C=C4)C=C3)cc1
REMARK SMILES IDX 5 1 4 2 3 3 1 4 2 5 39 7 40 8 101 9 41 10 100 11 42 12 43 13
REMARK SMILES IDX 44 14 94 15 45 16 99 17 93 18 95 19 46 20 98 21 92 22 91 23
REMARK SMILES IDX 47 25 79 26 59 27 78 28 60 29 63 30 77 31 96 32 61 33 62 34
REMARK SMILES IDX 76 36 97 37 64 38 48 39 49 40 57 41 50 42 51 43 55 44 58 45
REMARK SMILES IDX 52 46 53 47 56 48 54 49 80 50 81 51 89 52 82 53 83 54 87 55
REMARK SMILES IDX 90 56 84 57 85 58 88 59 86 60 65 61 66 62 74 63 67 64 68 65
REMARK SMILES IDX 72 66 75 67 69 68 70 69 73 70 71 71 6 72 7 73 8 74 9 75
REMARK SMILES IDX 10 77 11 78 12 79 38 80 13 81 37 82 14 83 15 84 16 85 29 86
REMARK SMILES IDX 18 87 17 88 28 89 19 90 21 91 20 92 30 93 31 94 36 95 32 96
REMARK SMILES IDX 34 97 33 98 35 99 22 100 23 101 27 102 24 103 26 104 25 105
REMARK H PARENT 3 6 95 24 63 35 8 76
REMARK Flexibility Score: inf
ROOT
ATOM      1  C   UNL A   1      37.354  21.234  24.526  1.00  0.00     0.023 C 
ENDROOT
BRANCH   1   2
ATOM      2  C   UNL A   1      37.949  22.147  25.598  1.00  0.00     0.116 C 
BRANCH   2   3
ATOM      3  N   UNL A   1      39.349  21.908  25.881  1.00  0.00    -0.352 N 
ATOM      4  O   UNL A   1      41.365  21.879  26.755  1.00  0.00    -0.269 OA
ATOM      5  C   UNL A   1      40.330  22.532  26.599  1.00  0.00     0.251 C 
ATOM      6  H   UNL A   1      39.678  21.087  25.446  1.00  0.00     0.163 HD
BRANCH   5   7
ATOM      7  C   UNL A   1      40.284  23.918  27.150  1.00  0.00     0.039 A 
ATOM      8  C   UNL A   1      39.309  24.881  26.894  1.00  0.00     0.014 A 
ATOM      9  C   UNL A   1      41.368  24.276  27.980  1.00  0.00     0.014 A 
ATOM     10  C   UNL A   1      39.450  26.178  27.403  1.00  0.00     0.010 A 
ATOM     11  C   UNL A   1      41.514  25.565  28.488  1.00  0.00     0.010 A 
ATOM     12  C   UNL A   1      40.569  26.532  28.173  1.00  0.00    -0.014 A 
BRANCH  12  13
ATOM     13  C   UNL A   1      40.638  27.883  28.741  1.00  0.00     0.031 A 
ATOM     14  C   UNL A   1      41.728  28.742  28.189  1.00  0.00     0.074 A 
ATOM     15  C   UNL A   1      39.730  28.415  29.590  1.00  0.00     0.049 A 
ATOM     16  N   UNL A   1      42.715  29.291  28.822  1.00  0.00    -0.248 NA
ATOM     17  C   UNL A   1      41.761  28.955  26.733  1.00  0.00     0.031 C 
ATOM     18  C   UNL A   1      38.440  27.864  30.009  1.00  0.00     0.029 A 
ATOM     19  N   UNL A   1      39.752  29.635  30.208  1.00  0.00    -0.354 N 
ATOM     20  C   UNL A   1      43.420  30.036  27.877  1.00  0.00     0.074 A 
ATOM     21  C   UNL A   1      42.851  29.711  26.594  1.00  0.00     0.031 C 
ATOM     22  C   UNL A   1      37.722  28.824  30.641  1.00  0.00     0.029 A 
ATOM     23  C   UNL A   1      38.550  30.008  30.799  1.00  0.00     0.049 A 
ATOM     24  H   UNL A   1      40.555  30.204  30.231  1.00  0.00     0.167 HD
ATOM     25  C   UNL A   1      44.313  31.000  28.239  1.00  0.00     0.037 A 
ATOM     26  C   UNL A   1      38.248  31.214  31.347  1.00  0.00     0.037 A 
ATOM     27  C   UNL A   1      44.751  30.830  29.598  1.00  0.00     0.049 A 
ATOM     28  C   UNL A   1      39.522  31.903  31.651  1.00  0.00     0.074 A 
ATOM     29  C   UNL A   1      45.427  29.838  30.281  1.00  0.00     0.029 A 
ATOM     30  N   UNL A   1      44.205  31.634  30.567  1.00  0.00    -0.354 N 
ATOM     31  N   UNL A   1      40.354  31.530  32.582  1.00  0.00    -0.248 NA
ATOM     32  C   UNL A   1      40.072  32.782  30.632  1.00  0.00     0.031 C 
ATOM     33  C   UNL A   1      44.821  29.804  31.571  1.00  0.00     0.029 A 
ATOM     34  C   UNL A   1      43.860  30.815  31.609  1.00  0.00     0.049 A 
ATOM     35  H   UNL A   1      44.085  32.609  30.522  1.00  0.00     0.167 HD
ATOM     36  C   UNL A   1      41.606  31.753  32.037  1.00  0.00     0.074 A 
ATOM     37  C   UNL A   1      41.372  32.607  30.875  1.00  0.00     0.031 C 
ATOM     38  C   UNL A   1      42.680  31.005  32.416  1.00  0.00     0.037 A 
BRANCH  25  39
ATOM     39  C   UNL A   1      44.553  32.278  27.476  1.00  0.00     0.064 A 
ATOM     40  C   UNL A   1      45.751  32.441  26.749  1.00  0.00     0.173 A 
ATOM     41  C   UNL A   1      43.802  33.456  27.680  1.00  0.00     0.173 A 
ATOM     42  F   UNL A   1      46.556  31.394  26.512  1.00  0.00    -0.203 F 
ATOM     43  C   UNL A   1      46.197  33.698  26.330  1.00  0.00     0.198 A 
ATOM     44  C   UNL A   1      44.226  34.700  27.216  1.00  0.00     0.198 A 
ATOM     45  F   UNL A   1      42.693  33.467  28.428  1.00  0.00    -0.203 F 
ATOM     46  F   UNL A   1      47.402  33.819  25.755  1.00  0.00    -0.200 F 
ATOM     47  C   UNL A   1      45.438  34.828  26.571  1.00  0.00     0.200 A 
ATOM     48  F   UNL A   1      43.486  35.787  27.477  1.00  0.00    -0.200 F 
ATOM     49  F   UNL A   1      45.893  36.040  26.228  1.00  0.00    -0.200 F 
ENDBRANCH  25  39
BRANCH  26  50
ATOM     50  C   UNL A   1      36.956  31.944  31.353  1.00  0.00     0.064 A 
ATOM     51  C   UNL A   1      36.260  32.188  32.551  1.00  0.00     0.173 A 
ATOM     52  C   UNL A   1      36.542  32.682  30.229  1.00  0.00     0.173 A 
ATOM     53  F   UNL A   1      36.622  31.564  33.682  1.00  0.00    -0.203 F 
ATOM     54  C   UNL A   1      35.231  33.134  32.624  1.00  0.00     0.198 A 
ATOM     55  C   UNL A   1      35.514  33.623  30.302  1.00  0.00     0.198 A 
ATOM     56  F   UNL A   1      37.197  32.578  29.065  1.00  0.00    -0.203 F 
ATOM     57  F   UNL A   1      34.635  33.388  33.798  1.00  0.00    -0.200 F 
ATOM     58  C   UNL A   1      34.868  33.861  31.501  1.00  0.00     0.200 A 
ATOM     59  F   UNL A   1      35.201  34.350  29.220  1.00  0.00    -0.200 F 
ATOM     60  F   UNL A   1      33.930  34.816  31.585  1.00  0.00    -0.200 F 
ENDBRANCH  26  50
BRANCH  38  61
ATOM     61  C   UNL A   1      42.535  30.121  33.622  1.00  0.00     0.064 A 
ATOM     62  C   UNL A   1      42.743  30.552  34.944  1.00  0.00     0.173 A 
ATOM     63  C   UNL A   1      42.012  28.834  33.437  1.00  0.00     0.173 A 
ATOM     64  F   UNL A   1      43.149  31.800  35.208  1.00  0.00    -0.203 F 
ATOM     65  C   UNL A   1      42.471  29.716  36.026  1.00  0.00     0.198 A 
ATOM     66  C   UNL A   1      41.707  28.015  34.520  1.00  0.00     0.198 A 
ATOM     67  F   UNL A   1      41.744  28.389  32.199  1.00  0.00    -0.203 F 
ATOM     68  F   UNL A   1      42.682  30.146  37.279  1.00  0.00    -0.200 F 
ATOM     69  C   UNL A   1      41.945  28.452  35.813  1.00  0.00     0.200 A 
ATOM     70  F   UNL A   1      41.151  26.815  34.310  1.00  0.00    -0.200 F 
ATOM     71  F   UNL A   1      41.636  27.668  36.854  1.00  0.00    -0.200 F 
ENDBRANCH  38  61
ENDBRANCH  12  13
ENDBRANCH   5   7
ENDBRANCH   2   3
ENDBRANCH   1   2
BRANCH   1  72
ATOM     72  C   UNL A   1      36.260  20.259  24.993  1.00  0.00     0.023 C 
BRANCH  72  73
ATOM     73  C   UNL A   1      34.811  20.764  24.977  1.00  0.00     0.116 C 
BRANCH  73  74
ATOM     74  N   UNL A   1      34.198  20.787  26.292  1.00  0.00    -0.352 N 
ATOM     75  C   UNL A   1      33.307  21.682  26.842  1.00  0.00     0.251 C 
ATOM     76  H   UNL A   1      34.461  20.046  26.885  1.00  0.00     0.163 HD
ATOM     77  O   UNL A   1      33.001  21.570  28.022  1.00  0.00    -0.269 OA
BRANCH  75  78
ATOM     78  C   UNL A   1      32.740  22.809  26.054  1.00  0.00     0.039 A 
ATOM     79  C   UNL A   1      33.236  24.085  26.321  1.00  0.00     0.016 A 
ATOM     80  C   UNL A   1      31.699  22.661  25.127  1.00  0.00     0.016 A 
ATOM     81  C   UNL A   1      32.750  25.187  25.610  1.00  0.00     0.027 A 
ATOM     82  C   UNL A   1      31.200  23.778  24.417  1.00  0.00     0.027 A 
ATOM     83  C   UNL A   1      31.741  25.047  24.636  1.00  0.00     0.045 A 
BRANCH  83  84
ATOM     84  N   UNL A   1      31.386  26.177  23.815  1.00  0.00    -0.299 N 
ATOM     85  C   UNL A   1      32.251  26.359  22.678  1.00  0.00     0.259 C 
ATOM     86  C   UNL A   1      31.093  27.491  24.450  1.00  0.00     0.152 C 
ATOM     87  C   UNL A   1      32.625  27.809  22.602  1.00  0.00     0.248 C 
ATOM     88  O   UNL A   1      32.672  25.477  21.940  1.00  0.00    -0.271 OA
ATOM     89  C   UNL A   1      32.319  28.176  24.001  1.00  0.00     0.021 C 
ATOM     90  N   UNL A   1      34.060  28.119  22.523  1.00  0.00    -0.170 NA
ATOM     91  C   UNL A   1      33.371  28.841  24.462  1.00  0.00     0.097 C 
ATOM     92  N   UNL A   1      34.389  28.821  23.530  1.00  0.00    -0.154 NA
BRANCH  86  93
ATOM     93  C   UNL A   1      29.855  28.257  23.922  1.00  0.00    -0.020 A 
ATOM     94  C   UNL A   1      28.688  27.561  23.501  1.00  0.00     0.006 A 
ATOM     95  C   UNL A   1      29.860  29.647  23.723  1.00  0.00     0.022 A 
ATOM     96  C   UNL A   1      27.583  28.200  22.937  1.00  0.00     0.002 A 
ATOM     97  C   UNL A   1      28.753  30.283  23.126  1.00  0.00     0.018 A 
ATOM     98  C   UNL A   1      27.619  29.568  22.738  1.00  0.00     0.016 A 
ATOM     99  Br  UNL A   1      28.797  32.146  22.794  1.00  0.00    -0.051 Br
ENDBRANCH  86  93
BRANCH  91 100
ATOM    100  C   UNL A   1      33.614  29.407  25.786  1.00  0.00     0.002 A 
ATOM    101  C   UNL A   1      32.858  30.494  26.246  1.00  0.00     0.010 A 
ATOM    102  C   UNL A   1      34.745  29.006  26.507  1.00  0.00     0.010 A 
ATOM    103  C   UNL A   1      33.287  31.226  27.358  1.00  0.00     0.001 A 
ATOM    104  C   UNL A   1      35.168  29.736  27.618  1.00  0.00     0.001 A 
ATOM    105  C   UNL A   1      34.455  30.862  28.025  1.00  0.00     0.000 A 
ENDBRANCH  91 100
ENDBRANCH  83  84
ENDBRANCH  75  78
ENDBRANCH  73  74
ENDBRANCH  72  73
ENDBRANCH   1  72
TORSDOF 14
ENDMDL
MODEL 2
REMARK VINA RESULT:     -14.3      1.241      2.057
REMARK SMILES O=C(NCCCCNC(=O)c1ccc(N2C(=O)[C@@H]3N=NC(c4ccccc4)=C3[C@H]2c2cccc(Br)c2)cc1)c1ccc(-c2c3nc(c(-c4c(F)c(F)c(F)c(F)c4F)c4ccc([nH]4)c(-c4c(F)c(F)c(F)c(F)c4F)c4nc(c(-c5c(F)c(F)c(F)c(F)c5F)c5ccc2[nH]5)C=C4)C=C3)cc1
REMARK SMILES IDX 5 1 4 2 3 3 1 4 2 5 39 7 40 8 101 9 41 10 100 11 42 12 43 13
REMARK SMILES IDX 44 14 94 15 45 16 99 17 93 18 95 19 46 20 98 21 92 22 91 23
REMARK SMILES IDX 47 25 79 26 59 27 78 28 60 29 63 30 77 31 96 32 61 33 62 34
REMARK SMILES IDX 76 36 97 37 64 38 48 39 49 40 57 41 50 42 51 43 55 44 58 45
REMARK SMILES IDX 52 46 53 47 56 48 54 49 80 50 81 51 89 52 82 53 83 54 87 55
REMARK SMILES IDX 90 56 84 57 85 58 88 59 86 60 65 61 66 62 74 63 67 64 68 65
REMARK SMILES IDX 72 66 75 67 69 68 70 69 73 70 71 71 6 72 7 73 8 74 9 75
REMARK SMILES IDX 10 77 11 78 12 79 38 80 13 81 37 82 14 83 15 84 16 85 29 86
REMARK SMILES IDX 18 87 17 88 28 89 19 90 21 91 20 92 30 93 31 94 36 95 32 96
REMARK SMILES IDX 34 97 33 98 35 99 22 100 23 101 27 102 24 103 26 104 25 105
REMARK H PARENT 3 6 95 24 63 35 8 76
REMARK Flexibility Score: inf
ROOT
ATOM      1  C   UNL A   1      39.348  22.492  26.518  1.00  0.00     0.023 C 
ENDROOT
BRANCH   1   2
ATOM      2  C   UNL A   1      40.726  21.846  26.661  1.00  0.00     0.116 C 
BRANCH   2   3
ATOM      3  N   UNL A   1      41.731  22.369  25.759  1.00  0.00    -0.352 N 
ATOM      4  O   UNL A   1      43.354  23.519  24.823  1.00  0.00    -0.269 OA
ATOM      5  C   UNL A   1      42.409  23.547  25.616  1.00  0.00     0.251 C 
ATOM      6  H   UNL A   1      41.992  21.710  25.075  1.00  0.00     0.163 HD
BRANCH   5   7
ATOM      7  C   UNL A   1      42.085  24.845  26.276  1.00  0.00     0.039 A 
ATOM      8  C   UNL A   1      41.248  25.843  25.779  1.00  0.00     0.014 A 
ATOM      9  C   UNL A   1      42.736  25.078  27.508  1.00  0.00     0.014 A 
ATOM     10  C   UNL A   1      41.117  27.058  26.465  1.00  0.00     0.010 A 
ATOM     11  C   UNL A   1      42.609  26.285  28.193  1.00  0.00     0.010 A 
ATOM     12  C   UNL A   1      41.822  27.294  27.654  1.00  0.00    -0.014 A 
BRANCH  12  13
ATOM     13  C   UNL A   1      41.598  28.554  28.371  1.00  0.00     0.031 A 
ATOM     14  C   UNL A   1      42.665  29.583  28.181  1.00  0.00     0.074 A 
ATOM     15  C   UNL A   1      40.472  28.874  29.046  1.00  0.00     0.049 A 
ATOM     16  N   UNL A   1      43.418  30.134  29.078  1.00  0.00    -0.248 NA
ATOM     17  C   UNL A   1      42.980  29.997  26.804  1.00  0.00     0.031 C 
ATOM     18  C   UNL A   1      39.202  28.147  29.097  1.00  0.00     0.029 A 
ATOM     19  N   UNL A   1      40.209  29.994  29.786  1.00  0.00    -0.354 N 
ATOM     20  C   UNL A   1      44.208  31.067  28.408  1.00  0.00     0.074 A 
ATOM     21  C   UNL A   1      43.971  30.867  27.001  1.00  0.00     0.031 C 
ATOM     22  C   UNL A   1      38.251  28.936  29.653  1.00  0.00     0.029 A 
ATOM     23  C   UNL A   1      38.871  30.163  30.127  1.00  0.00     0.049 A 
ATOM     24  H   UNL A   1      40.910  30.630  30.055  1.00  0.00     0.167 HD
ATOM     25  C   UNL A   1      44.876  32.055  29.069  1.00  0.00     0.037 A 
ATOM     26  C   UNL A   1      38.310  31.247  30.723  1.00  0.00     0.037 A 
ATOM     27  C   UNL A   1      45.032  31.743  30.463  1.00  0.00     0.049 A 
ATOM     28  C   UNL A   1      39.393  32.009  31.384  1.00  0.00     0.074 A 
ATOM     29  C   UNL A   1      45.666  30.738  31.167  1.00  0.00     0.029 A 
ATOM     30  N   UNL A   1      44.196  32.349  31.367  1.00  0.00    -0.354 N 
ATOM     31  N   UNL A   1      40.048  31.595  32.431  1.00  0.00    -0.248 NA
ATOM     32  C   UNL A   1      40.033  33.069  30.621  1.00  0.00     0.031 C 
ATOM     33  C   UNL A   1      44.809  30.468  32.273  1.00  0.00     0.029 A 
ATOM     34  C   UNL A   1      43.743  31.365  32.206  1.00  0.00     0.049 A 
ATOM     35  H   UNL A   1      43.967  33.305  31.406  1.00  0.00     0.167 HD
ATOM     36  C   UNL A   1      41.350  32.012  32.213  1.00  0.00     0.074 A 
ATOM     37  C   UNL A   1      41.264  32.990  31.132  1.00  0.00     0.031 C 
ATOM     38  C   UNL A   1      42.404  31.327  32.739  1.00  0.00     0.037 A 
BRANCH  25  39
ATOM     39  C   UNL A   1      45.110  33.443  28.528  1.00  0.00     0.064 A 
ATOM     40  C   UNL A   1      44.010  34.230  28.131  1.00  0.00     0.173 A 
ATOM     41  C   UNL A   1      46.373  33.904  28.101  1.00  0.00     0.173 A 
ATOM     42  F   UNL A   1      42.759  33.876  28.462  1.00  0.00    -0.203 F 
ATOM     43  C   UNL A   1      44.160  35.348  27.304  1.00  0.00     0.198 A 
ATOM     44  C   UNL A   1      46.523  35.048  27.318  1.00  0.00     0.198 A 
ATOM     45  F   UNL A   1      47.495  33.210  28.326  1.00  0.00    -0.203 F 
ATOM     46  F   UNL A   1      43.075  35.990  26.849  1.00  0.00    -0.200 F 
ATOM     47  C   UNL A   1      45.416  35.751  26.892  1.00  0.00     0.200 A 
ATOM     48  F   UNL A   1      47.747  35.413  26.912  1.00  0.00    -0.200 F 
ATOM     49  F   UNL A   1      45.558  36.782  26.048  1.00  0.00    -0.200 F 
ENDBRANCH  25  39
BRANCH  26  50
ATOM     50  C   UNL A   1      36.966  31.840  30.519  1.00  0.00     0.064 A 
ATOM     51  C   UNL A   1      36.004  31.843  31.544  1.00  0.00     0.173 A 
ATOM     52  C   UNL A   1      36.712  32.685  29.422  1.00  0.00     0.173 A 
ATOM     53  F   UNL A   1      36.191  31.104  32.648  1.00  0.00    -0.203 F 
ATOM     54  C   UNL A   1      34.872  32.666  31.489  1.00  0.00     0.198 A 
ATOM     55  C   UNL A   1      35.582  33.503  29.366  1.00  0.00     0.198 A 
ATOM     56  F   UNL A   1      37.610  32.811  28.435  1.00  0.00    -0.203 F 
ATOM     57  F   UNL A   1      34.011  32.692  32.517  1.00  0.00    -0.200 F 
ATOM     58  C   UNL A   1      34.670  33.504  30.405  1.00  0.00     0.200 A 
ATOM     59  F   UNL A   1      35.419  34.340  28.333  1.00  0.00    -0.200 F 
ATOM     60  F   UNL A   1      33.623  34.342  30.382  1.00  0.00    -0.200 F 
ENDBRANCH  26  50
BRANCH  38  61
ATOM     61  C   UNL A   1      42.118  30.276  33.774  1.00  0.00     0.064 A 
ATOM     62  C   UNL A   1      41.715  28.963  33.474  1.00  0.00     0.173 A 
ATOM     63  C   UNL A   1      42.418  30.570  35.112  1.00  0.00     0.173 A 
ATOM     64  F   UNL A   1      41.503  28.577  32.210  1.00  0.00    -0.203 F 
ATOM     65  C   UNL A   1      41.587  28.001  34.475  1.00  0.00     0.198 A 
ATOM     66  C   UNL A   1      42.325  29.598  36.103  1.00  0.00     0.198 A 
ATOM     67  F   UNL A   1      42.858  31.792  35.448  1.00  0.00    -0.203 F 
ATOM     68  F   UNL A   1      41.196  26.756  34.166  1.00  0.00    -0.200 F 
ATOM     69  C   UNL A   1      41.901  28.317  35.787  1.00  0.00     0.200 A 
ATOM     70  F   UNL A   1      42.679  29.895  37.360  1.00  0.00    -0.200 F 
ATOM     71  F   UNL A   1      41.826  27.380  36.741  1.00  0.00    -0.200 F 
ENDBRANCH  38  61
ENDBRANCH  12  13
ENDBRANCH   5   7
ENDBRANCH   2   3
ENDBRANCH   1   2
BRANCH   1  72
ATOM     72  C   UNL A   1      38.358  21.784  25.578  1.00  0.00     0.023 C 
BRANCH  72  73
ATOM     73  C   UNL A   1      36.865  22.074  25.778  1.00  0.00     0.116 C 
BRANCH  73  74
ATOM     74  N   UNL A   1      36.015  20.940  25.473  1.00  0.00    -0.352 N 
ATOM     75  C   UNL A   1      34.728  20.899  24.983  1.00  0.00     0.251 C 
ATOM     76  H   UNL A   1      36.421  20.059  25.643  1.00  0.00     0.163 HD
ATOM     77  O   UNL A   1      34.154  19.821  24.903  1.00  0.00    -0.269 OA
BRANCH  75  78
ATOM     78  C   UNL A   1      33.999  22.134  24.590  1.00  0.00     0.039 A 
ATOM     79  C   UNL A   1      34.634  22.989  23.689  1.00  0.00     0.016 A 
ATOM     80  C   UNL A   1      32.760  22.509  25.129  1.00  0.00     0.016 A 
ATOM     81  C   UNL A   1      34.000  24.165  23.275  1.00  0.00     0.027 A 
ATOM     82  C   UNL A   1      32.125  23.704  24.718  1.00  0.00     0.027 A 
ATOM     83  C   UNL A   1      32.731  24.529  23.767  1.00  0.00     0.045 A 
BRANCH  83  84
ATOM     84  N   UNL A   1      32.044  25.658  23.193  1.00  0.00    -0.299 N 
ATOM     85  C   UNL A   1      32.703  26.207  22.036  1.00  0.00     0.259 C 
ATOM     86  C   UNL A   1      31.559  26.755  24.074  1.00  0.00     0.152 C 
ATOM     87  C   UNL A   1      32.747  27.699  22.187  1.00  0.00     0.248 C 
ATOM     88  O   UNL A   1      33.207  25.571  21.119  1.00  0.00    -0.271 OA
ATOM     89  C   UNL A   1      32.546  27.766  23.650  1.00  0.00     0.021 C 
ATOM     90  N   UNL A   1      34.062  28.340  22.041  1.00  0.00    -0.170 NA
ATOM     91  C   UNL A   1      33.481  28.577  24.130  1.00  0.00     0.097 C 
ATOM     92  N   UNL A   1      34.356  28.936  23.124  1.00  0.00    -0.154 NA
BRANCH  86  93
ATOM     93  C   UNL A   1      30.131  27.287  23.799  1.00  0.00    -0.020 A 
ATOM     94  C   UNL A   1      28.984  26.507  24.121  1.00  0.00     0.006 A 
ATOM     95  C   UNL A   1      29.895  28.495  23.124  1.00  0.00     0.022 A 
ATOM     96  C   UNL A   1      27.683  26.905  23.812  1.00  0.00     0.002 A 
ATOM     97  C   UNL A   1      28.581  28.877  22.789  1.00  0.00     0.018 A 
ATOM     98  C   UNL A   1      27.479  28.092  23.133  1.00  0.00     0.016 A 
ATOM     99  Br  UNL A   1      28.278  30.471  21.814  1.00  0.00    -0.051 Br
ENDBRANCH  86  93
BRANCH  91 100
ATOM    100  C   UNL A   1      33.760  28.972  25.507  1.00  0.00     0.002 A 
ATOM    101  C   UNL A   1      33.082  30.054  26.089  1.00  0.00     0.010 A 
ATOM    102  C   UNL A   1      34.856  28.413  26.173  1.00  0.00     0.010 A 
ATOM    103  C   UNL A   1      33.559  30.624  27.272  1.00  0.00     0.001 A 
ATOM    104  C   UNL A   1      35.327  28.983  27.357  1.00  0.00     0.001 A 
ATOM    105  C   UNL A   1      34.696  30.105  27.890  1.00  0.00     0.000 A 
ENDBRANCH  91 100
ENDBRANCH  83  84
ENDBRANCH  75  78
ENDBRANCH  73  74
ENDBRANCH  72  73
ENDBRANCH   1  72
TORSDOF 14
ENDMDL
MODEL 3
REMARK VINA RESULT:     -13.3      5.246     11.854
REMARK SMILES O=C(NCCCCNC(=O)c1ccc(N2C(=O)[C@@H]3N=NC(c4ccccc4)=C3[C@H]2c2cccc(Br)c2)cc1)c1ccc(-c2c3nc(c(-c4c(F)c(F)c(F)c(F)c4F)c4ccc([nH]4)c(-c4c(F)c(F)c(F)c(F)c4F)c4nc(c(-c5c(F)c(F)c(F)c(F)c5F)c5ccc2[nH]5)C=C4)C=C3)cc1
REMARK SMILES IDX 5 1 4 2 3 3 1 4 2 5 39 7 40 8 101 9 41 10 100 11 42 12 43 13
REMARK SMILES IDX 44 14 94 15 45 16 99 17 93 18 95 19 46 20 98 21 92 22 91 23
REMARK SMILES IDX 47 25 79 26 59 27 78 28 60 29 63 30 77 31 96 32 61 33 62 34
REMARK SMILES IDX 76 36 97 37 64 38 48 39 49 40 57 41 50 42 51 43 55 44 58 45
REMARK SMILES IDX 52 46 53 47 56 48 54 49 80 50 81 51 89 52 82 53 83 54 87 55
REMARK SMILES IDX 90 56 84 57 85 58 88 59 86 60 65 61 66 62 74 63 67 64 68 65
REMARK SMILES IDX 72 66 75 67 69 68 70 69 73 70 71 71 6 72 7 73 8 74 9 75
REMARK SMILES IDX 10 77 11 78 12 79 38 80 13 81 37 82 14 83 15 84 16 85 29 86
REMARK SMILES IDX 18 87 17 88 28 89 19 90 21 91 20 92 30 93 31 94 36 95 32 96
REMARK SMILES IDX 34 97 33 98 35 99 22 100 23 101 27 102 24 103 26 104 25 105
REMARK H PARENT 3 6 95 24 63 35 8 76
REMARK Flexibility Score: inf
ROOT
ATOM      1  C   UNL A   1      34.505  35.497  28.500  1.00  0.00     0.023 C 
ENDROOT
BRANCH   1   2
ATOM      2  C   UNL A   1      35.331  34.232  28.262  1.00  0.00     0.116 C 
BRANCH   2   3
ATOM      3  N   UNL A   1      34.548  33.050  27.971  1.00  0.00    -0.352 N 
ATOM      4  O   UNL A   1      33.740  31.008  27.873  1.00  0.00    -0.269 OA
ATOM      5  C   UNL A   1      34.754  31.699  28.006  1.00  0.00     0.251 C 
ATOM      6  H   UNL A   1      33.637  33.275  27.672  1.00  0.00     0.163 HD
BRANCH   5   7
ATOM      7  C   UNL A   1      36.066  31.002  28.135  1.00  0.00     0.039 A 
ATOM      8  C   UNL A   1      36.405  29.761  27.595  1.00  0.00     0.014 A 
ATOM      9  C   UNL A   1      37.033  31.670  28.919  1.00  0.00     0.014 A 
ATOM     10  C   UNL A   1      37.648  29.184  27.885  1.00  0.00     0.010 A 
ATOM     11  C   UNL A   1      38.270  31.098  29.211  1.00  0.00     0.010 A 
ATOM     12  C   UNL A   1      38.569  29.834  28.719  1.00  0.00    -0.014 A 
BRANCH  12  13
ATOM     13  C   UNL A   1      39.883  29.222  28.937  1.00  0.00     0.031 A 
ATOM     14  C   UNL A   1      40.173  28.843  30.353  1.00  0.00     0.074 A 
ATOM     15  C   UNL A   1      40.747  28.867  27.959  1.00  0.00     0.049 A 
ATOM     16  N   UNL A   1      41.132  29.262  31.115  1.00  0.00    -0.248 NA
ATOM     17  C   UNL A   1      39.230  27.936  31.026  1.00  0.00     0.031 C 
ATOM     18  C   UNL A   1      40.532  28.865  26.510  1.00  0.00     0.029 A 
ATOM     19  N   UNL A   1      42.007  28.350  28.078  1.00  0.00    -0.354 N 
ATOM     20  C   UNL A   1      41.005  28.571  32.320  1.00  0.00     0.074 A 
ATOM     21  C   UNL A   1      39.761  27.848  32.247  1.00  0.00     0.031 C 
ATOM     22  C   UNL A   1      41.537  28.186  25.906  1.00  0.00     0.029 A 
ATOM     23  C   UNL A   1      42.535  27.832  26.901  1.00  0.00     0.049 A 
ATOM     24  H   UNL A   1      42.500  28.344  28.930  1.00  0.00     0.167 HD
ATOM     25  C   UNL A   1      42.020  28.511  33.227  1.00  0.00     0.037 A 
ATOM     26  C   UNL A   1      43.692  27.133  26.762  1.00  0.00     0.037 A 
ATOM     27  C   UNL A   1      42.980  29.560  33.015  1.00  0.00     0.049 A 
ATOM     28  C   UNL A   1      44.535  27.415  27.946  1.00  0.00     0.074 A 
ATOM     29  C   UNL A   1      42.931  30.940  33.047  1.00  0.00     0.029 A 
ATOM     30  N   UNL A   1      44.157  29.251  32.381  1.00  0.00    -0.354 N 
ATOM     31  N   UNL A   1      45.093  28.566  28.191  1.00  0.00    -0.248 NA
ATOM     32  C   UNL A   1      44.418  26.518  29.084  1.00  0.00     0.031 C 
ATOM     33  C   UNL A   1      43.793  31.361  31.992  1.00  0.00     0.029 A 
ATOM     34  C   UNL A   1      44.356  30.216  31.429  1.00  0.00     0.049 A 
ATOM     35  H   UNL A   1      44.744  28.486  32.573  1.00  0.00     0.167 HD
ATOM     36  C   UNL A   1      44.995  28.714  29.563  1.00  0.00     0.074 A 
ATOM     37  C   UNL A   1      44.654  27.387  30.069  1.00  0.00     0.031 C 
ATOM     38  C   UNL A   1      44.929  29.951  30.132  1.00  0.00     0.037 A 
BRANCH  25  39
ATOM     39  C   UNL A   1      42.316  27.322  34.107  1.00  0.00     0.064 A 
ATOM     40  C   UNL A   1      41.984  27.370  35.477  1.00  0.00     0.173 A 
ATOM     41  C   UNL A   1      43.181  26.274  33.729  1.00  0.00     0.173 A 
ATOM     42  F   UNL A   1      41.184  28.336  35.955  1.00  0.00    -0.203 F 
ATOM     43  C   UNL A   1      42.539  26.484  36.405  1.00  0.00     0.198 A 
ATOM     44  C   UNL A   1      43.694  25.361  34.649  1.00  0.00     0.198 A 
ATOM     45  F   UNL A   1      43.652  26.160  32.481  1.00  0.00    -0.203 F 
ATOM     46  F   UNL A   1      42.294  26.648  37.712  1.00  0.00    -0.200 F 
ATOM     47  C   UNL A   1      43.400  25.485  35.991  1.00  0.00     0.200 A 
ATOM     48  F   UNL A   1      44.543  24.412  34.232  1.00  0.00    -0.200 F 
ATOM     49  F   UNL A   1      43.985  24.676  36.884  1.00  0.00    -0.200 F 
ENDBRANCH  25  39
BRANCH  26  50
ATOM     50  C   UNL A   1      44.005  26.011  25.844  1.00  0.00     0.064 A 
ATOM     51  C   UNL A   1      45.308  25.810  25.352  1.00  0.00     0.173 A 
ATOM     52  C   UNL A   1      43.105  24.941  25.682  1.00  0.00     0.173 A 
ATOM     53  F   UNL A   1      46.243  26.759  25.509  1.00  0.00    -0.203 F 
ATOM     54  C   UNL A   1      45.693  24.600  24.761  1.00  0.00     0.198 A 
ATOM     55  C   UNL A   1      43.489  23.736  25.090  1.00  0.00     0.198 A 
ATOM     56  F   UNL A   1      41.867  25.007  26.190  1.00  0.00    -0.203 F 
ATOM     57  F   UNL A   1      46.961  24.421  24.365  1.00  0.00    -0.200 F 
ATOM     58  C   UNL A   1      44.786  23.560  24.643  1.00  0.00     0.200 A 
ATOM     59  F   UNL A   1      42.615  22.723  25.020  1.00  0.00    -0.200 F 
ATOM     60  F   UNL A   1      45.171  22.378  24.140  1.00  0.00    -0.200 F 
ENDBRANCH  26  50
BRANCH  38  61
ATOM     61  C   UNL A   1      45.234  31.143  29.271  1.00  0.00     0.064 A 
ATOM     62  C   UNL A   1      44.305  31.747  28.404  1.00  0.00     0.173 A 
ATOM     63  C   UNL A   1      46.464  31.789  29.451  1.00  0.00     0.173 A 
ATOM     64  F   UNL A   1      43.074  31.245  28.251  1.00  0.00    -0.203 F 
ATOM     65  C   UNL A   1      44.614  32.926  27.726  1.00  0.00     0.198 A 
ATOM     66  C   UNL A   1      46.755  32.985  28.802  1.00  0.00     0.198 A 
ATOM     67  F   UNL A   1      47.368  31.286  30.307  1.00  0.00    -0.203 F 
ATOM     68  F   UNL A   1      43.715  33.482  26.901  1.00  0.00    -0.200 F 
ATOM     69  C   UNL A   1      45.834  33.548  27.933  1.00  0.00     0.200 A 
ATOM     70  F   UNL A   1      47.915  33.608  29.045  1.00  0.00    -0.200 F 
ATOM     71  F   UNL A   1      46.111  34.707  27.320  1.00  0.00    -0.200 F 
ENDBRANCH  38  61
ENDBRANCH  12  13
ENDBRANCH   5   7
ENDBRANCH   2   3
ENDBRANCH   1   2
BRANCH   1  72
ATOM     72  C   UNL A   1      33.357  35.378  29.515  1.00  0.00     0.023 C 
BRANCH  72  73
ATOM     73  C   UNL A   1      33.681  35.676  30.985  1.00  0.00     0.116 C 
BRANCH  73  74
ATOM     74  N   UNL A   1      33.066  34.742  31.909  1.00  0.00    -0.352 N 
ATOM     75  C   UNL A   1      33.642  33.841  32.777  1.00  0.00     0.251 C 
ATOM     76  H   UNL A   1      32.081  34.753  31.916  1.00  0.00     0.163 HD
ATOM     77  O   UNL A   1      32.924  33.063  33.391  1.00  0.00    -0.269 OA
BRANCH  75  78
ATOM     78  C   UNL A   1      35.116  33.755  32.954  1.00  0.00     0.039 A 
ATOM     79  C   UNL A   1      35.603  33.774  34.261  1.00  0.00     0.016 A 
ATOM     80  C   UNL A   1      36.025  33.731  31.887  1.00  0.00     0.016 A 
ATOM     81  C   UNL A   1      36.978  33.691  34.497  1.00  0.00     0.027 A 
ATOM     82  C   UNL A   1      37.418  33.659  32.127  1.00  0.00     0.027 A 
ATOM     83  C   UNL A   1      37.903  33.612  33.436  1.00  0.00     0.045 A 
BRANCH  83  84
ATOM     84  N   UNL A   1      39.293  33.363  33.723  1.00  0.00    -0.299 N 
ATOM     85  C   UNL A   1      39.551  32.037  34.222  1.00  0.00     0.259 C 
ATOM     86  C   UNL A   1      40.080  34.362  34.496  1.00  0.00     0.152 C 
ATOM     87  C   UNL A   1      40.453  32.153  35.414  1.00  0.00     0.248 C 
ATOM     88  O   UNL A   1      39.064  30.996  33.798  1.00  0.00    -0.271 OA
ATOM     89  C   UNL A   1      40.190  33.572  35.736  1.00  0.00     0.021 C 
ATOM     90  N   UNL A   1      40.011  31.484  36.646  1.00  0.00    -0.170 NA
ATOM     91  C   UNL A   1      39.932  33.629  37.037  1.00  0.00     0.097 C 
ATOM     92  N   UNL A   1      39.870  32.353  37.563  1.00  0.00    -0.154 NA
BRANCH  86  93
ATOM     93  C   UNL A   1      41.498  34.689  33.968  1.00  0.00    -0.020 A 
ATOM     94  C   UNL A   1      42.550  35.035  34.862  1.00  0.00     0.006 A 
ATOM     95  C   UNL A   1      41.790  34.772  32.598  1.00  0.00     0.022 A 
ATOM     96  C   UNL A   1      43.819  35.421  34.429  1.00  0.00     0.002 A 
ATOM     97  C   UNL A   1      43.064  35.191  32.167  1.00  0.00     0.018 A 
ATOM     98  C   UNL A   1      44.076  35.511  33.074  1.00  0.00     0.016 A 
ATOM     99  Br  UNL A   1      43.426  35.372  30.317  1.00  0.00    -0.051 Br
ENDBRANCH  86  93
BRANCH  91 100
ATOM    100  C   UNL A   1      39.580  34.774  37.872  1.00  0.00     0.002 A 
ATOM    101  C   UNL A   1      40.173  36.025  37.652  1.00  0.00     0.010 A 
ATOM    102  C   UNL A   1      38.816  34.571  39.027  1.00  0.00     0.010 A 
ATOM    103  C   UNL A   1      40.081  37.025  38.625  1.00  0.00     0.001 A 
ATOM    104  C   UNL A   1      38.722  35.573  39.994  1.00  0.00     0.001 A 
ATOM    105  C   UNL A   1      39.378  36.788  39.805  1.00  0.00     0.000 A 
ENDBRANCH  91 100
ENDBRANCH  83  84
ENDBRANCH  75  78
ENDBRANCH  73  74
ENDBRANCH  72  73
ENDBRANCH   1  72
TORSDOF 14
ENDMDL
