MODEL 1
REMARK VINA RESULT:     -13.4      0.000      0.000
REMARK SMILES Cc1cc(NC(=O)/C=C/c2ccco2)cc(C(=O)NCCCCNC(=O)c2ccc(-c3c4nc(c(-c5c(F)c(F)c(F)c(F)c5F)c5ccc([nH]5)c(-c5c(F)c(F)c(F)c(F)c5F)c5nc(c(-c6c(F)c(F)c(F)c(F)c6F)c6ccc3[nH]6)C=C5)C=C4)cc2)c1O
REMARK SMILES IDX 21 1 20 2 19 3 17 4 18 5 16 7 1 8 2 9 3 10 90 11 4 12 15 13
REMARK SMILES IDX 91 14 5 16 6 17 7 19 8 20 9 21 10 22 11 23 14 24 12 25 13 26
REMARK SMILES IDX 22 27 23 28 24 29 25 30 26 32 27 33 28 34 89 35 29 36 88 37
REMARK SMILES IDX 30 38 31 39 32 40 82 41 33 42 87 43 81 44 83 45 34 46 86 47
REMARK SMILES IDX 80 48 79 49 35 51 67 52 47 53 66 54 48 55 51 56 65 57 84 58
REMARK SMILES IDX 49 59 50 60 64 62 85 63 52 64 36 65 37 66 45 67 38 68 39 69
REMARK SMILES IDX 43 70 46 71 40 72 41 73 44 74 42 75 68 76 69 77 77 78 70 79
REMARK SMILES IDX 71 80 75 81 78 82 72 83 73 84 76 85 74 86 53 87 54 88 62 89
REMARK SMILES IDX 55 90 56 91 60 92 63 93 57 94 58 95 61 96 59 97
REMARK H PARENT 19 6 91 15 5 18 24 31 83 50 51 61
REMARK Flexibility Score: inf
ROOT
ATOM      1  C   UNL A   1      33.720  29.089  24.509  1.00  0.00     0.023 C 
ENDROOT
BRANCH   1   2
ATOM      2  C   UNL A   1      33.784  28.791  23.013  1.00  0.00     0.116 C 
BRANCH   2   3
ATOM      3  N   UNL A   1      33.969  27.410  22.604  1.00  0.00    -0.352 N 
ATOM      4  C   UNL A   1      33.091  26.331  22.663  1.00  0.00     0.255 C 
ATOM      5  O   UNL A   1      33.388  25.322  22.025  1.00  0.00    -0.269 OA
ATOM      6  H   UNL A   1      34.855  27.204  22.225  1.00  0.00     0.163 HD
BRANCH   4   7
ATOM      7  C   UNL A   1      31.823  26.366  23.473  1.00  0.00     0.083 A 
ATOM      8  C   UNL A   1      28.210  27.638  23.266  1.00  0.00     0.048 C 
ATOM      9  C   UNL A   1      29.462  26.947  23.728  1.00  0.00    -0.006 A 
ATOM     10  C   UNL A   1      29.425  26.207  24.922  1.00  0.00     0.033 A 
ATOM     11  C   UNL A   1      30.666  27.005  23.001  1.00  0.00     0.131 A 
ATOM     12  C   UNL A   1      30.575  25.609  25.441  1.00  0.00     0.042 A 
ATOM     13  C   UNL A   1      31.772  25.766  24.739  1.00  0.00     0.044 A 
BRANCH  11  14
ATOM     14  O   UNL A   1      30.689  27.653  21.797  1.00  0.00    -0.507 OA
ATOM     15  H   UNL A   1      31.504  27.807  21.363  1.00  0.00     0.293 HD
ENDBRANCH  11  14
BRANCH  12  16
ATOM     16  N   UNL A   1      30.411  24.782  26.577  1.00  0.00    -0.322 N 
ATOM     17  C   UNL A   1      30.407  23.421  26.736  1.00  0.00     0.248 C 
ATOM     18  H   UNL A   1      30.274  25.280  27.415  1.00  0.00     0.170 HD
ATOM     19  O   UNL A   1      29.909  22.892  27.724  1.00  0.00    -0.270 OA
BRANCH  17  20
ATOM     20  C   UNL A   1      31.130  22.629  25.733  1.00  0.00     0.075 C 
ATOM     21  C   UNL A   1      32.318  22.089  26.036  1.00  0.00     0.053 C 
BRANCH  21  22
ATOM     22  C   UNL A   1      32.747  20.968  25.272  1.00  0.00     0.126 A 
ATOM     23  C   UNL A   1      34.026  20.569  24.918  1.00  0.00     0.050 A 
ATOM     24  O   UNL A   1      31.886  19.955  24.897  1.00  0.00    -0.465 OA
ATOM     25  C   UNL A   1      33.945  19.249  24.406  1.00  0.00     0.042 A 
ATOM     26  C   UNL A   1      32.614  18.926  24.410  1.00  0.00     0.195 A 
ENDBRANCH  21  22
ENDBRANCH  17  20
ENDBRANCH  12  16
ENDBRANCH   4   7
ENDBRANCH   2   3
ENDBRANCH   1   2
BRANCH   1  27
ATOM     27  C   UNL A   1      32.403  29.585  25.114  1.00  0.00     0.023 C 
BRANCH  27  28
ATOM     28  C   UNL A   1      32.338  29.902  26.611  1.00  0.00     0.116 C 
BRANCH  28  29
ATOM     29  N   UNL A   1      32.272  31.311  26.971  1.00  0.00    -0.352 N 
ATOM     30  C   UNL A   1      33.276  32.117  27.474  1.00  0.00     0.251 C 
ATOM     31  H   UNL A   1      31.398  31.746  26.839  1.00  0.00     0.163 HD
ATOM     32  O   UNL A   1      33.067  33.310  27.676  1.00  0.00    -0.269 OA
BRANCH  30  33
ATOM     33  C   UNL A   1      34.599  31.541  27.817  1.00  0.00     0.039 A 
ATOM     34  C   UNL A   1      35.685  32.407  27.974  1.00  0.00     0.014 A 
ATOM     35  C   UNL A   1      34.769  30.172  28.032  1.00  0.00     0.014 A 
ATOM     36  C   UNL A   1      36.895  31.919  28.481  1.00  0.00     0.010 A 
ATOM     37  C   UNL A   1      35.963  29.690  28.574  1.00  0.00     0.010 A 
ATOM     38  C   UNL A   1      37.018  30.570  28.853  1.00  0.00    -0.014 A 
BRANCH  38  39
ATOM     39  C   UNL A   1      38.166  30.113  29.683  1.00  0.00     0.031 A 
ATOM     40  C   UNL A   1      38.383  30.607  31.083  1.00  0.00     0.074 A 
ATOM     41  C   UNL A   1      39.078  29.297  29.117  1.00  0.00     0.049 A 
ATOM     42  N   UNL A   1      39.349  30.313  31.919  1.00  0.00    -0.248 NA
ATOM     43  C   UNL A   1      37.405  31.568  31.607  1.00  0.00     0.031 C 
ATOM     44  C   UNL A   1      39.023  28.802  27.739  1.00  0.00     0.029 A 
ATOM     45  N   UNL A   1      40.232  28.748  29.619  1.00  0.00    -0.354 N 
ATOM     46  C   UNL A   1      39.096  31.049  33.068  1.00  0.00     0.074 A 
ATOM     47  C   UNL A   1      37.908  31.838  32.805  1.00  0.00     0.031 C 
ATOM     48  C   UNL A   1      40.079  28.005  27.515  1.00  0.00     0.029 A 
ATOM     49  C   UNL A   1      40.903  27.956  28.718  1.00  0.00     0.049 A 
ATOM     50  H   UNL A   1      40.550  28.907  30.537  1.00  0.00     0.167 HD
ATOM     51  C   UNL A   1      39.779  31.050  34.239  1.00  0.00     0.037 A 
ATOM     52  C   UNL A   1      42.053  27.267  28.842  1.00  0.00     0.037 A 
ATOM     53  C   UNL A   1      40.957  30.262  34.503  1.00  0.00     0.049 A 
ATOM     54  C   UNL A   1      42.791  27.288  30.151  1.00  0.00     0.074 A 
ATOM     55  C   UNL A   1      41.678  30.155  35.681  1.00  0.00     0.029 A 
ATOM     56  N   UNL A   1      41.595  29.454  33.573  1.00  0.00    -0.354 N 
ATOM     57  N   UNL A   1      42.487  27.913  31.260  1.00  0.00    -0.248 NA
ATOM     58  C   UNL A   1      44.029  26.498  30.227  1.00  0.00     0.031 C 
ATOM     59  C   UNL A   1      42.776  29.319  35.450  1.00  0.00     0.029 A 
ATOM     60  C   UNL A   1      42.713  28.866  34.144  1.00  0.00     0.049 A 
ATOM     61  H   UNL A   1      41.299  29.319  32.644  1.00  0.00     0.167 HD
ATOM     62  C   UNL A   1      43.473  27.570  32.174  1.00  0.00     0.074 A 
ATOM     63  C   UNL A   1      44.382  26.673  31.493  1.00  0.00     0.031 C 
ATOM     64  C   UNL A   1      43.608  27.963  33.464  1.00  0.00     0.037 A 
BRANCH  51  65
ATOM     65  C   UNL A   1      39.265  31.931  35.341  1.00  0.00     0.064 A 
ATOM     66  C   UNL A   1      38.443  31.426  36.358  1.00  0.00     0.173 A 
ATOM     67  C   UNL A   1      39.644  33.281  35.413  1.00  0.00     0.173 A 
ATOM     68  F   UNL A   1      38.050  30.143  36.334  1.00  0.00    -0.203 F 
ATOM     69  C   UNL A   1      37.996  32.244  37.392  1.00  0.00     0.198 A 
ATOM     70  C   UNL A   1      39.217  34.090  36.463  1.00  0.00     0.198 A 
ATOM     71  F   UNL A   1      40.439  33.812  34.472  1.00  0.00    -0.203 F 
ATOM     72  F   UNL A   1      37.177  31.749  38.331  1.00  0.00    -0.200 F 
ATOM     73  C   UNL A   1      38.388  33.573  37.447  1.00  0.00     0.200 A 
ATOM     74  F   UNL A   1      39.609  35.370  36.523  1.00  0.00    -0.200 F 
ATOM     75  F   UNL A   1      37.963  34.358  38.447  1.00  0.00    -0.200 F 
ENDBRANCH  51  65
BRANCH  52  76
ATOM     76  C   UNL A   1      42.559  26.466  27.697  1.00  0.00     0.064 A 
ATOM     77  C   UNL A   1      43.493  27.007  26.802  1.00  0.00     0.173 A 
ATOM     78  C   UNL A   1      42.128  25.151  27.478  1.00  0.00     0.173 A 
ATOM     79  F   UNL A   1      43.921  28.268  26.962  1.00  0.00    -0.203 F 
ATOM     80  C   UNL A   1      43.960  26.268  25.718  1.00  0.00     0.198 A 
ATOM     81  C   UNL A   1      42.617  24.403  26.409  1.00  0.00     0.198 A 
ATOM     82  F   UNL A   1      41.241  24.586  28.312  1.00  0.00    -0.203 F 
ATOM     83  F   UNL A   1      44.819  26.823  24.853  1.00  0.00    -0.200 F 
ATOM     84  C   UNL A   1      43.526  24.965  25.525  1.00  0.00     0.200 A 
ATOM     85  F   UNL A   1      42.207  23.139  26.235  1.00  0.00    -0.200 F 
ATOM     86  F   UNL A   1      43.980  24.252  24.485  1.00  0.00    -0.200 F 
ENDBRANCH  52  76
BRANCH  64  87
ATOM     87  C   UNL A   1      44.759  27.397  34.241  1.00  0.00     0.064 A 
ATOM     88  C   UNL A   1      44.656  26.181  34.933  1.00  0.00     0.173 A 
ATOM     89  C   UNL A   1      45.995  28.061  34.261  1.00  0.00     0.173 A 
ATOM     90  F   UNL A   1      43.492  25.517  34.960  1.00  0.00    -0.203 F 
ATOM     91  C   UNL A   1      45.743  25.660  35.631  1.00  0.00     0.198 A 
ATOM     92  C   UNL A   1      47.088  27.524  34.938  1.00  0.00     0.198 A 
ATOM     93  F   UNL A   1      46.148  29.226  33.614  1.00  0.00    -0.203 F 
ATOM     94  F   UNL A   1      45.611  24.517  36.318  1.00  0.00    -0.200 F 
ATOM     95  C   UNL A   1      46.960  26.327  35.626  1.00  0.00     0.200 A 
ATOM     96  F   UNL A   1      48.265  28.165  34.923  1.00  0.00    -0.200 F 
ATOM     97  F   UNL A   1      48.007  25.820  36.291  1.00  0.00    -0.200 F 
ENDBRANCH  64  87
ENDBRANCH  38  39
ENDBRANCH  30  33
ENDBRANCH  28  29
ENDBRANCH  27  28
ENDBRANCH   1  27
TORSDOF 15
ENDMDL
MODEL 2
REMARK VINA RESULT:     -13.3      0.933      3.662
REMARK SMILES Cc1cc(NC(=O)/C=C/c2ccco2)cc(C(=O)NCCCCNC(=O)c2ccc(-c3c4nc(c(-c5c(F)c(F)c(F)c(F)c5F)c5ccc([nH]5)c(-c5c(F)c(F)c(F)c(F)c5F)c5nc(c(-c6c(F)c(F)c(F)c(F)c6F)c6ccc3[nH]6)C=C5)C=C4)cc2)c1O
REMARK SMILES IDX 21 1 20 2 19 3 17 4 18 5 16 7 1 8 2 9 3 10 90 11 4 12 15 13
REMARK SMILES IDX 91 14 5 16 6 17 7 19 8 20 9 21 10 22 11 23 14 24 12 25 13 26
REMARK SMILES IDX 22 27 23 28 24 29 25 30 26 32 27 33 28 34 89 35 29 36 88 37
REMARK SMILES IDX 30 38 31 39 32 40 82 41 33 42 87 43 81 44 83 45 34 46 86 47
REMARK SMILES IDX 80 48 79 49 35 51 67 52 47 53 66 54 48 55 51 56 65 57 84 58
REMARK SMILES IDX 49 59 50 60 64 62 85 63 52 64 36 65 37 66 45 67 38 68 39 69
REMARK SMILES IDX 43 70 46 71 40 72 41 73 44 74 42 75 68 76 69 77 77 78 70 79
REMARK SMILES IDX 71 80 75 81 78 82 72 83 73 84 76 85 74 86 53 87 54 88 62 89
REMARK SMILES IDX 55 90 56 91 60 92 63 93 57 94 58 95 61 96 59 97
REMARK H PARENT 19 6 91 15 5 18 24 31 83 50 51 61
REMARK Flexibility Score: inf
ROOT
ATOM      1  C   UNL A   1      32.174  27.364  26.420  1.00  0.00     0.023 C 
ENDROOT
BRANCH   1   2
ATOM      2  C   UNL A   1      31.230  26.222  26.054  1.00  0.00     0.116 C 
BRANCH   2   3
ATOM      3  N   UNL A   1      31.195  25.064  26.930  1.00  0.00    -0.352 N 
ATOM      4  C   UNL A   1      31.723  23.788  26.751  1.00  0.00     0.255 C 
ATOM      5  O   UNL A   1      31.784  23.056  27.738  1.00  0.00    -0.269 OA
ATOM      6  H   UNL A   1      30.725  25.203  27.785  1.00  0.00     0.163 HD
BRANCH   4   7
ATOM      7  C   UNL A   1      32.200  23.292  25.412  1.00  0.00     0.083 A 
ATOM      8  C   UNL A   1      32.256  20.099  23.286  1.00  0.00     0.048 C 
ATOM      9  C   UNL A   1      32.398  21.527  23.732  1.00  0.00    -0.006 A 
ATOM     10  C   UNL A   1      32.903  22.472  22.822  1.00  0.00     0.033 A 
ATOM     11  C   UNL A   1      32.033  21.954  25.023  1.00  0.00     0.131 A 
ATOM     12  C   UNL A   1      33.130  23.796  23.203  1.00  0.00     0.042 A 
ATOM     13  C   UNL A   1      32.842  24.161  24.520  1.00  0.00     0.044 A 
BRANCH  11  14
ATOM     14  O   UNL A   1      31.463  21.058  25.885  1.00  0.00    -0.507 OA
ATOM     15  H   UNL A   1      30.539  21.078  26.038  1.00  0.00     0.293 HD
ENDBRANCH  11  14
BRANCH  12  16
ATOM     16  N   UNL A   1      33.519  24.699  22.185  1.00  0.00    -0.322 N 
ATOM     17  C   UNL A   1      32.810  25.579  21.410  1.00  0.00     0.248 C 
ATOM     18  H   UNL A   1      34.486  24.694  21.998  1.00  0.00     0.170 HD
ATOM     19  O   UNL A   1      33.262  26.015  20.358  1.00  0.00    -0.270 OA
BRANCH  17  20
ATOM     20  C   UNL A   1      31.537  26.070  21.953  1.00  0.00     0.075 C 
ATOM     21  C   UNL A   1      31.456  27.312  22.449  1.00  0.00     0.053 C 
BRANCH  21  22
ATOM     22  C   UNL A   1      30.170  27.918  22.504  1.00  0.00     0.126 A 
ATOM     23  C   UNL A   1      29.093  27.651  23.334  1.00  0.00     0.050 A 
ATOM     24  O   UNL A   1      29.860  29.060  21.791  1.00  0.00    -0.465 OA
ATOM     25  C   UNL A   1      28.158  28.706  23.189  1.00  0.00     0.042 A 
ATOM     26  C   UNL A   1      28.674  29.536  22.229  1.00  0.00     0.195 A 
ENDBRANCH  21  22
ENDBRANCH  17  20
ENDBRANCH  12  16
ENDBRANCH   4   7
ENDBRANCH   2   3
ENDBRANCH   1   2
BRANCH   1  27
ATOM     27  C   UNL A   1      31.750  28.806  26.123  1.00  0.00     0.023 C 
BRANCH  27  28
ATOM     28  C   UNL A   1      32.825  29.886  25.968  1.00  0.00     0.116 C 
BRANCH  28  29
ATOM     29  N   UNL A   1      32.589  31.138  26.673  1.00  0.00    -0.352 N 
ATOM     30  C   UNL A   1      33.457  31.843  27.486  1.00  0.00     0.251 C 
ATOM     31  H   UNL A   1      31.694  31.534  26.556  1.00  0.00     0.163 HD
ATOM     32  O   UNL A   1      33.116  32.920  27.967  1.00  0.00    -0.269 OA
BRANCH  30  33
ATOM     33  C   UNL A   1      34.788  31.284  27.824  1.00  0.00     0.039 A 
ATOM     34  C   UNL A   1      35.870  32.161  27.948  1.00  0.00     0.014 A 
ATOM     35  C   UNL A   1      34.972  29.921  28.064  1.00  0.00     0.014 A 
ATOM     36  C   UNL A   1      37.091  31.694  28.448  1.00  0.00     0.010 A 
ATOM     37  C   UNL A   1      36.177  29.460  28.600  1.00  0.00     0.010 A 
ATOM     38  C   UNL A   1      37.228  30.353  28.847  1.00  0.00    -0.014 A 
BRANCH  38  39
ATOM     39  C   UNL A   1      38.391  29.922  29.670  1.00  0.00     0.031 A 
ATOM     40  C   UNL A   1      38.630  30.455  31.052  1.00  0.00     0.074 A 
ATOM     41  C   UNL A   1      39.297  29.093  29.112  1.00  0.00     0.049 A 
ATOM     42  N   UNL A   1      39.609  30.187  31.881  1.00  0.00    -0.248 NA
ATOM     43  C   UNL A   1      37.657  31.428  31.565  1.00  0.00     0.031 C 
ATOM     44  C   UNL A   1      39.221  28.560  27.750  1.00  0.00     0.029 A 
ATOM     45  N   UNL A   1      40.460  28.562  29.611  1.00  0.00    -0.354 N 
ATOM     46  C   UNL A   1      39.372  30.953  33.013  1.00  0.00     0.074 A 
ATOM     47  C   UNL A   1      38.179  31.732  32.747  1.00  0.00     0.031 C 
ATOM     48  C   UNL A   1      40.276  27.760  27.531  1.00  0.00     0.029 A 
ATOM     49  C   UNL A   1      41.119  27.747  28.721  1.00  0.00     0.049 A 
ATOM     50  H   UNL A   1      40.792  28.746  30.519  1.00  0.00     0.167 HD
ATOM     51  C   UNL A   1      40.074  30.989  34.172  1.00  0.00     0.037 A 
ATOM     52  C   UNL A   1      42.273  27.064  28.846  1.00  0.00     0.037 A 
ATOM     53  C   UNL A   1      41.259  30.211  34.439  1.00  0.00     0.049 A 
ATOM     54  C   UNL A   1      43.032  27.123  30.141  1.00  0.00     0.074 A 
ATOM     55  C   UNL A   1      41.999  30.139  35.608  1.00  0.00     0.029 A 
ATOM     56  N   UNL A   1      41.884  29.379  33.521  1.00  0.00    -0.354 N 
ATOM     57  N   UNL A   1      42.744  27.778  31.238  1.00  0.00    -0.248 NA
ATOM     58  C   UNL A   1      44.273  26.339  30.219  1.00  0.00     0.031 C 
ATOM     59  C   UNL A   1      43.096  29.299  35.383  1.00  0.00     0.029 A 
ATOM     60  C   UNL A   1      43.013  28.810  34.090  1.00  0.00     0.049 A 
ATOM     61  H   UNL A   1      41.573  29.219  32.601  1.00  0.00     0.167 HD
ATOM     62  C   UNL A   1      43.745  27.462  32.145  1.00  0.00     0.074 A 
ATOM     63  C   UNL A   1      44.646  26.549  31.474  1.00  0.00     0.031 C 
ATOM     64  C   UNL A   1      43.899  27.891  33.421  1.00  0.00     0.037 A 
BRANCH  51  65
ATOM     65  C   UNL A   1      39.576  31.899  35.258  1.00  0.00     0.064 A 
ATOM     66  C   UNL A   1      39.969  33.244  35.323  1.00  0.00     0.173 A 
ATOM     67  C   UNL A   1      38.652  31.438  36.209  1.00  0.00     0.173 A 
ATOM     68  F   UNL A   1      40.852  33.732  34.439  1.00  0.00    -0.203 F 
ATOM     69  C   UNL A   1      39.478  34.087  36.317  1.00  0.00     0.198 A 
ATOM     70  C   UNL A   1      38.143  32.292  37.185  1.00  0.00     0.198 A 
ATOM     71  F   UNL A   1      38.233  30.164  36.184  1.00  0.00    -0.203 F 
ATOM     72  F   UNL A   1      39.900  35.357  36.384  1.00  0.00    -0.200 F 
ATOM     73  C   UNL A   1      38.562  33.612  37.243  1.00  0.00     0.200 A 
ATOM     74  F   UNL A   1      37.246  31.835  38.070  1.00  0.00    -0.200 F 
ATOM     75  F   UNL A   1      38.084  34.426  38.194  1.00  0.00    -0.200 F 
ENDBRANCH  51  65
BRANCH  52  76
ATOM     76  C   UNL A   1      42.763  26.233  27.716  1.00  0.00     0.064 A 
ATOM     77  C   UNL A   1      43.685  26.749  26.794  1.00  0.00     0.173 A 
ATOM     78  C   UNL A   1      42.327  24.914  27.536  1.00  0.00     0.173 A 
ATOM     79  F   UNL A   1      44.117  28.013  26.916  1.00  0.00    -0.203 F 
ATOM     80  C   UNL A   1      44.138  25.982  25.724  1.00  0.00     0.198 A 
ATOM     81  C   UNL A   1      42.801  24.137  26.481  1.00  0.00     0.198 A 
ATOM     82  F   UNL A   1      41.451  24.372  28.396  1.00  0.00    -0.203 F 
ATOM     83  F   UNL A   1      44.986  26.512  24.834  1.00  0.00    -0.200 F 
ATOM     84  C   UNL A   1      43.700  24.675  25.571  1.00  0.00     0.200 A 
ATOM     85  F   UNL A   1      42.387  22.870  26.344  1.00  0.00    -0.200 F 
ATOM     86  F   UNL A   1      44.139  23.935  24.544  1.00  0.00    -0.200 F 
ENDBRANCH  52  76
BRANCH  64  87
ATOM     87  C   UNL A   1      45.065  27.350  34.196  1.00  0.00     0.064 A 
ATOM     88  C   UNL A   1      44.974  26.157  34.928  1.00  0.00     0.173 A 
ATOM     89  C   UNL A   1      46.301  28.013  34.171  1.00  0.00     0.173 A 
ATOM     90  F   UNL A   1      43.810  25.495  34.998  1.00  0.00    -0.203 F 
ATOM     91  C   UNL A   1      46.074  25.658  35.622  1.00  0.00     0.198 A 
ATOM     92  C   UNL A   1      47.406  27.498  34.845  1.00  0.00     0.198 A 
ATOM     93  F   UNL A   1      46.442  29.157  33.484  1.00  0.00    -0.203 F 
ATOM     94  F   UNL A   1      45.953  24.538  36.348  1.00  0.00    -0.200 F 
ATOM     95  C   UNL A   1      47.290  26.324  35.574  1.00  0.00     0.200 A 
ATOM     96  F   UNL A   1      48.582  28.137  34.788  1.00  0.00    -0.200 F 
ATOM     97  F   UNL A   1      48.350  25.838  36.235  1.00  0.00    -0.200 F 
ENDBRANCH  64  87
ENDBRANCH  38  39
ENDBRANCH  30  33
ENDBRANCH  28  29
ENDBRANCH  27  28
ENDBRANCH   1  27
TORSDOF 15
ENDMDL
MODEL 3
REMARK VINA RESULT:     -13.3      1.056      2.213
REMARK SMILES Cc1cc(NC(=O)/C=C/c2ccco2)cc(C(=O)NCCCCNC(=O)c2ccc(-c3c4nc(c(-c5c(F)c(F)c(F)c(F)c5F)c5ccc([nH]5)c(-c5c(F)c(F)c(F)c(F)c5F)c5nc(c(-c6c(F)c(F)c(F)c(F)c6F)c6ccc3[nH]6)C=C5)C=C4)cc2)c1O
REMARK SMILES IDX 21 1 20 2 19 3 17 4 18 5 16 7 1 8 2 9 3 10 90 11 4 12 15 13
REMARK SMILES IDX 91 14 5 16 6 17 7 19 8 20 9 21 10 22 11 23 14 24 12 25 13 26
REMARK SMILES IDX 22 27 23 28 24 29 25 30 26 32 27 33 28 34 89 35 29 36 88 37
REMARK SMILES IDX 30 38 31 39 32 40 82 41 33 42 87 43 81 44 83 45 34 46 86 47
REMARK SMILES IDX 80 48 79 49 35 51 67 52 47 53 66 54 48 55 51 56 65 57 84 58
REMARK SMILES IDX 49 59 50 60 64 62 85 63 52 64 36 65 37 66 45 67 38 68 39 69
REMARK SMILES IDX 43 70 46 71 40 72 41 73 44 74 42 75 68 76 69 77 77 78 70 79
REMARK SMILES IDX 71 80 75 81 78 82 72 83 73 84 76 85 74 86 53 87 54 88 62 89
REMARK SMILES IDX 55 90 56 91 60 92 63 93 57 94 58 95 61 96 59 97
REMARK H PARENT 19 6 91 15 5 18 24 31 83 50 51 61
REMARK Flexibility Score: inf
ROOT
ATOM      1  C   UNL A   1      33.319  29.201  24.771  1.00  0.00     0.023 C 
ENDROOT
BRANCH   1   2
ATOM      2  C   UNL A   1      33.332  28.974  23.261  1.00  0.00     0.116 C 
BRANCH   2   3
ATOM      3  N   UNL A   1      32.074  29.100  22.546  1.00  0.00    -0.352 N 
ATOM      4  C   UNL A   1      31.020  28.199  22.419  1.00  0.00     0.255 C 
ATOM      5  O   UNL A   1      29.957  28.630  21.974  1.00  0.00    -0.269 OA
ATOM      6  H   UNL A   1      31.947  29.958  22.077  1.00  0.00     0.163 HD
BRANCH   4   7
ATOM      7  C   UNL A   1      31.148  26.748  22.796  1.00  0.00     0.083 A 
ATOM      8  C   UNL A   1      32.985  23.558  21.712  1.00  0.00     0.048 C 
ATOM      9  C   UNL A   1      32.143  24.537  22.483  1.00  0.00    -0.006 A 
ATOM     10  C   UNL A   1      31.529  24.110  23.672  1.00  0.00     0.033 A 
ATOM     11  C   UNL A   1      31.959  25.867  22.062  1.00  0.00     0.131 A 
ATOM     12  C   UNL A   1      30.673  24.949  24.389  1.00  0.00     0.042 A 
ATOM     13  C   UNL A   1      30.441  26.233  23.891  1.00  0.00     0.044 A 
BRANCH  11  14
ATOM     14  O   UNL A   1      32.621  26.314  20.952  1.00  0.00    -0.507 OA
ATOM     15  H   UNL A   1      33.408  25.890  20.674  1.00  0.00     0.293 HD
ENDBRANCH  11  14
BRANCH  12  16
ATOM     16  N   UNL A   1      30.204  24.473  25.636  1.00  0.00    -0.322 N 
ATOM     17  C   UNL A   1      30.795  23.725  26.621  1.00  0.00     0.248 C 
ATOM     18  H   UNL A   1      29.275  24.729  25.835  1.00  0.00     0.170 HD
ATOM     19  O   UNL A   1      30.128  23.126  27.458  1.00  0.00    -0.270 OA
BRANCH  17  20
ATOM     20  C   UNL A   1      32.260  23.769  26.705  1.00  0.00     0.075 C 
ATOM     21  C   UNL A   1      32.974  22.649  26.533  1.00  0.00     0.053 C 
BRANCH  21  22
ATOM     22  C   UNL A   1      34.334  22.788  26.136  1.00  0.00     0.126 A 
ATOM     23  C   UNL A   1      35.080  23.931  25.898  1.00  0.00     0.050 A 
ATOM     24  O   UNL A   1      35.206  21.718  26.097  1.00  0.00    -0.465 OA
ATOM     25  C   UNL A   1      36.443  23.552  25.810  1.00  0.00     0.042 A 
ATOM     26  C   UNL A   1      36.462  22.187  25.932  1.00  0.00     0.195 A 
ENDBRANCH  21  22
ENDBRANCH  17  20
ENDBRANCH  12  16
ENDBRANCH   4   7
ENDBRANCH   2   3
ENDBRANCH   1   2
BRANCH   1  27
ATOM     27  C   UNL A   1      32.193  30.035  25.389  1.00  0.00     0.023 C 
BRANCH  27  28
ATOM     28  C   UNL A   1      32.268  30.413  26.871  1.00  0.00     0.116 C 
BRANCH  28  29
ATOM     29  N   UNL A   1      32.318  31.836  27.173  1.00  0.00    -0.352 N 
ATOM     30  C   UNL A   1      33.396  32.584  27.611  1.00  0.00     0.251 C 
ATOM     31  H   UNL A   1      31.476  32.331  27.049  1.00  0.00     0.163 HD
ATOM     32  O   UNL A   1      33.283  33.797  27.769  1.00  0.00    -0.269 OA
BRANCH  30  33
ATOM     33  C   UNL A   1      34.682  31.923  27.939  1.00  0.00     0.039 A 
ATOM     34  C   UNL A   1      35.830  32.713  28.053  1.00  0.00     0.014 A 
ATOM     35  C   UNL A   1      34.761  30.550  28.181  1.00  0.00     0.014 A 
ATOM     36  C   UNL A   1      37.014  32.152  28.545  1.00  0.00     0.010 A 
ATOM     37  C   UNL A   1      35.931  29.997  28.708  1.00  0.00     0.010 A 
ATOM     38  C   UNL A   1      37.050  30.806  28.946  1.00  0.00    -0.014 A 
BRANCH  38  39
ATOM     39  C   UNL A   1      38.182  30.287  29.761  1.00  0.00     0.031 A 
ATOM     40  C   UNL A   1      38.421  30.739  31.171  1.00  0.00     0.074 A 
ATOM     41  C   UNL A   1      39.062  29.450  29.173  1.00  0.00     0.049 A 
ATOM     42  N   UNL A   1      39.377  30.390  31.998  1.00  0.00    -0.248 NA
ATOM     43  C   UNL A   1      37.480  31.724  31.721  1.00  0.00     0.031 C 
ATOM     44  C   UNL A   1      38.986  28.991  27.785  1.00  0.00     0.029 A 
ATOM     45  N   UNL A   1      40.195  28.847  29.659  1.00  0.00    -0.354 N 
ATOM     46  C   UNL A   1      39.154  31.107  33.165  1.00  0.00     0.074 A 
ATOM     47  C   UNL A   1      37.996  31.946  32.923  1.00  0.00     0.031 C 
ATOM     48  C   UNL A   1      40.010  28.160  27.538  1.00  0.00     0.029 A 
ATOM     49  C   UNL A   1      40.834  28.052  28.737  1.00  0.00     0.049 A 
ATOM     50  H   UNL A   1      40.520  28.972  30.579  1.00  0.00     0.167 HD
ATOM     51  C   UNL A   1      39.839  31.055  34.333  1.00  0.00     0.037 A 
ATOM     52  C   UNL A   1      41.957  27.317  28.842  1.00  0.00     0.037 A 
ATOM     53  C   UNL A   1      40.987  30.217  34.575  1.00  0.00     0.049 A 
ATOM     54  C   UNL A   1      42.698  27.279  30.149  1.00  0.00     0.074 A 
ATOM     55  C   UNL A   1      41.706  30.055  35.748  1.00  0.00     0.029 A 
ATOM     56  N   UNL A   1      41.592  29.407  33.624  1.00  0.00    -0.354 N 
ATOM     57  N   UNL A   1      42.421  27.889  31.273  1.00  0.00    -0.248 NA
ATOM     58  C   UNL A   1      43.906  26.442  30.202  1.00  0.00     0.031 C 
ATOM     59  C   UNL A   1      42.771  29.184  35.494  1.00  0.00     0.029 A 
ATOM     60  C   UNL A   1      42.689  28.765  34.178  1.00  0.00     0.049 A 
ATOM     61  H   UNL A   1      41.289  29.306  32.693  1.00  0.00     0.167 HD
ATOM     62  C   UNL A   1      43.395  27.488  32.176  1.00  0.00     0.074 A 
ATOM     63  C   UNL A   1      44.268  26.573  31.471  1.00  0.00     0.031 C 
ATOM     64  C   UNL A   1      43.547  27.845  33.474  1.00  0.00     0.037 A 
BRANCH  51  65
ATOM     65  C   UNL A   1      39.361  31.929  35.457  1.00  0.00     0.064 A 
ATOM     66  C   UNL A   1      39.727  33.280  35.539  1.00  0.00     0.173 A 
ATOM     67  C   UNL A   1      38.484  31.425  36.431  1.00  0.00     0.173 A 
ATOM     68  F   UNL A   1      40.564  33.809  34.634  1.00  0.00    -0.203 F 
ATOM     69  C   UNL A   1      39.255  34.089  36.569  1.00  0.00     0.198 A 
ATOM     70  C   UNL A   1      37.993  32.245  37.444  1.00  0.00     0.198 A 
ATOM     71  F   UNL A   1      38.093  30.143  36.392  1.00  0.00    -0.203 F 
ATOM     72  F   UNL A   1      39.650  35.368  36.651  1.00  0.00    -0.200 F 
ATOM     73  C   UNL A   1      38.385  33.572  37.517  1.00  0.00     0.200 A 
ATOM     74  F   UNL A   1      37.140  31.748  38.351  1.00  0.00    -0.200 F 
ATOM     75  F   UNL A   1      37.925  34.354  38.504  1.00  0.00    -0.200 F 
ENDBRANCH  51  65
BRANCH  52  76
ATOM     76  C   UNL A   1      42.431  26.524  27.677  1.00  0.00     0.064 A 
ATOM     77  C   UNL A   1      43.387  27.048  26.796  1.00  0.00     0.173 A 
ATOM     78  C   UNL A   1      41.944  25.235  27.425  1.00  0.00     0.173 A 
ATOM     79  F   UNL A   1      43.869  28.285  26.988  1.00  0.00    -0.203 F 
ATOM     80  C   UNL A   1      43.825  26.318  25.694  1.00  0.00     0.198 A 
ATOM     81  C   UNL A   1      42.402  24.495  26.337  1.00  0.00     0.198 A 
ATOM     82  F   UNL A   1      41.033  24.688  28.243  1.00  0.00    -0.203 F 
ATOM     83  F   UNL A   1      44.708  26.857  24.844  1.00  0.00    -0.200 F 
ATOM     84  C   UNL A   1      43.336  25.040  25.468  1.00  0.00     0.200 A 
ATOM     85  F   UNL A   1      41.939  23.254  26.130  1.00  0.00    -0.200 F 
ATOM     86  F   UNL A   1      43.760  24.335  24.410  1.00  0.00    -0.200 F 
ENDBRANCH  52  76
BRANCH  64  87
ATOM     87  C   UNL A   1      44.678  27.218  34.235  1.00  0.00     0.064 A 
ATOM     88  C   UNL A   1      45.935  27.833  34.330  1.00  0.00     0.173 A 
ATOM     89  C   UNL A   1      44.489  26.003  34.913  1.00  0.00     0.173 A 
ATOM     90  F   UNL A   1      46.172  28.985  33.685  1.00  0.00    -0.203 F 
ATOM     91  C   UNL A   1      46.966  27.246  35.060  1.00  0.00     0.198 A 
ATOM     92  C   UNL A   1      45.513  25.433  35.664  1.00  0.00     0.198 A 
ATOM     93  F   UNL A   1      43.305  25.375  34.856  1.00  0.00    -0.203 F 
ATOM     94  F   UNL A   1      48.171  27.832  35.103  1.00  0.00    -0.200 F 
ATOM     95  C   UNL A   1      46.752  26.052  35.733  1.00  0.00     0.200 A 
ATOM     96  F   UNL A   1      45.301  24.284  36.321  1.00  0.00    -0.200 F 
ATOM     97  F   UNL A   1      47.742  25.493  36.442  1.00  0.00    -0.200 F 
ENDBRANCH  64  87
ENDBRANCH  38  39
ENDBRANCH  30  33
ENDBRANCH  28  29
ENDBRANCH  27  28
ENDBRANCH   1  27
TORSDOF 15
ENDMDL
