MODEL 1
REMARK VINA RESULT:     -13.2      0.000      0.000
REMARK SMILES Cc1c[nH]c(C[N@@H+](C)[C@@H](C(=O)NCCCCNC(=O)c2ccc(-c3c4nc(c(-c5c(F)c(F)c(F)c(F)c5F)c5ccc([nH]5)c(-c5c(F)c(F)c(F)c(F)c5F)c5nc(c(-c6c(F)c(F)c(F)c(F)c6F)c6ccc3[nH]6)C=C5)C=C4)cc2)c2ccc(NC(=O)N3CCCC3)cc2)n1
REMARK SMILES IDX 14 1 13 2 12 3 10 4 11 5 9 7 7 8 8 9 6 11 5 12 1 13 2 14
REMARK SMILES IDX 3 15 97 16 4 17 83 19 84 20 96 21 85 22 95 23 86 24 87 25
REMARK SMILES IDX 88 26 89 28 90 29 91 30 94 31 92 32 93 33 15 34 16 35 17 36
REMARK SMILES IDX 18 37 19 39 20 40 21 41 82 42 22 43 81 44 23 45 24 46 25 47
REMARK SMILES IDX 75 48 26 49 80 50 74 51 76 52 27 53 79 54 73 55 72 56 28 58
REMARK SMILES IDX 60 59 40 60 59 61 41 62 44 63 58 64 77 65 42 66 43 67 57 69
REMARK SMILES IDX 78 70 45 71 29 72 30 73 38 74 31 75 32 76 36 77 39 78 33 79
REMARK SMILES IDX 34 80 37 81 35 82 61 83 62 84 70 85 63 86 64 87 68 88 71 89
REMARK SMILES IDX 65 90 66 91 69 92 67 93 46 94 47 95 55 96 48 97 49 98 53 99
REMARK SMILES IDX 56 100 50 101 51 102 54 103 52 104
REMARK H PARENT 12 6 7 10 4 18 87 27 17 38 76 57 44 68
REMARK Flexibility Score: inf
ROOT
ATOM      1  C   UNL A   1      31.725  30.717  26.189  1.00  0.00     0.023 C 
ENDROOT
BRANCH   1   2
ATOM      2  C   UNL A   1      32.478  29.811  27.164  1.00  0.00     0.116 C 
BRANCH   2   3
ATOM      3  N   UNL A   1      31.687  28.635  27.450  1.00  0.00    -0.351 N 
ATOM      4  C   UNL A   1      31.472  27.549  26.647  1.00  0.00     0.283 C 
ATOM      5  O   UNL A   1      30.453  26.888  26.880  1.00  0.00    -0.268 OA
ATOM      6  H   UNL A   1      31.248  28.614  28.332  1.00  0.00     0.163 HD
BRANCH   4   7
ATOM      7  C   UNL A   1      32.496  27.182  25.521  1.00  0.00     0.305 C 
BRANCH   7   8
ATOM      8  N   UNL A   1      31.830  27.090  24.196  1.00  0.00    -0.317 N 
ATOM      9  C   UNL A   1      31.677  25.766  23.634  1.00  0.00     0.334 C 
ATOM     10  H   UNL A   1      30.895  27.350  24.508  1.00  0.00     0.349 HD
BRANCH   8  11
ATOM     11  C   UNL A   1      32.126  28.118  23.193  1.00  0.00     0.339 C 
BRANCH  11  12
ATOM     12  C   UNL A   1      30.927  28.935  22.826  1.00  0.00     0.161 A 
ATOM     13  C   UNL A   1      27.725  30.373  23.373  1.00  0.00     0.068 C 
ATOM     14  C   UNL A   1      29.021  29.932  22.816  1.00  0.00     0.056 A 
ATOM     15  C   UNL A   1      29.680  30.367  21.687  1.00  0.00     0.107 A 
ATOM     16  N   UNL A   1      29.776  28.991  23.471  1.00  0.00    -0.233 NA
ATOM     17  N   UNL A   1      30.902  29.754  21.725  1.00  0.00    -0.344 N 
ATOM     18  H   UNL A   1      31.634  29.878  21.078  1.00  0.00     0.167 HD
ENDBRANCH  11  12
ENDBRANCH   8  11
ENDBRANCH   7   8
BRANCH   7  19
ATOM     19  C   UNL A   1      33.292  25.907  25.848  1.00  0.00     0.019 A 
ATOM     20  C   UNL A   1      32.739  24.843  26.571  1.00  0.00     0.012 A 
ATOM     21  C   UNL A   1      34.616  25.763  25.403  1.00  0.00     0.012 A 
ATOM     22  C   UNL A   1      33.373  23.600  26.594  1.00  0.00     0.027 A 
ATOM     23  C   UNL A   1      35.239  24.513  25.407  1.00  0.00     0.027 A 
ATOM     24  C   UNL A   1      34.550  23.401  25.876  1.00  0.00     0.042 A 
BRANCH  24  25
ATOM     25  N   UNL A   1      35.059  22.128  25.570  1.00  0.00    -0.308 N 
ATOM     26  C   UNL A   1      34.538  21.118  24.819  1.00  0.00     0.321 C 
ATOM     27  H   UNL A   1      35.941  21.935  25.963  1.00  0.00     0.171 HD
ATOM     28  O   UNL A   1      34.918  19.966  25.043  1.00  0.00    -0.248 OA
ATOM     29  N   UNL A   1      33.631  21.389  23.835  1.00  0.00    -0.325 N 
ATOM     30  C   UNL A   1      33.654  22.484  22.884  1.00  0.00     0.121 C 
ATOM     31  C   UNL A   1      32.715  20.373  23.369  1.00  0.00     0.121 C 
ATOM     32  C   UNL A   1      32.214  22.562  22.416  1.00  0.00     0.023 C 
ATOM     33  C   UNL A   1      31.737  21.108  22.452  1.00  0.00     0.023 C 
ENDBRANCH  24  25
ENDBRANCH   7  19
ENDBRANCH   4   7
ENDBRANCH   2   3
ENDBRANCH   1   2
BRANCH   1  34
ATOM     34  C   UNL A   1      31.454  32.126  26.709  1.00  0.00     0.023 C 
BRANCH  34  35
ATOM     35  C   UNL A   1      32.664  32.830  27.299  1.00  0.00     0.116 C 
BRANCH  35  36
ATOM     36  N   UNL A   1      32.400  34.214  27.660  1.00  0.00    -0.352 N 
ATOM     37  C   UNL A   1      33.015  34.986  28.621  1.00  0.00     0.251 C 
ATOM     38  H   UNL A   1      31.685  34.659  27.148  1.00  0.00     0.163 HD
ATOM     39  O   UNL A   1      32.598  36.097  28.890  1.00  0.00    -0.269 OA
BRANCH  37  40
ATOM     40  C   UNL A   1      34.169  34.419  29.348  1.00  0.00     0.039 A 
ATOM     41  C   UNL A   1      33.936  33.663  30.498  1.00  0.00     0.014 A 
ATOM     42  C   UNL A   1      35.466  34.585  28.855  1.00  0.00     0.014 A 
ATOM     43  C   UNL A   1      35.003  33.009  31.116  1.00  0.00     0.010 A 
ATOM     44  C   UNL A   1      36.509  33.861  29.417  1.00  0.00     0.010 A 
ATOM     45  C   UNL A   1      36.289  33.071  30.555  1.00  0.00    -0.014 A 
BRANCH  45  46
ATOM     46  C   UNL A   1      37.428  32.330  31.149  1.00  0.00     0.031 A 
ATOM     47  C   UNL A   1      37.925  32.698  32.519  1.00  0.00     0.074 A 
ATOM     48  C   UNL A   1      38.062  31.387  30.427  1.00  0.00     0.049 A 
ATOM     49  N   UNL A   1      38.953  32.234  33.180  1.00  0.00    -0.248 NA
ATOM     50  C   UNL A   1      37.187  33.759  33.223  1.00  0.00     0.031 C 
ATOM     51  C   UNL A   1      37.711  30.985  29.064  1.00  0.00     0.029 A 
ATOM     52  N   UNL A   1      39.144  30.602  30.736  1.00  0.00    -0.354 N 
ATOM     53  C   UNL A   1      38.997  32.959  34.363  1.00  0.00     0.074 A 
ATOM     54  C   UNL A   1      37.933  33.936  34.302  1.00  0.00     0.031 C 
ATOM     55  C   UNL A   1      38.541  30.008  28.666  1.00  0.00     0.029 A 
ATOM     56  C   UNL A   1      39.505  29.740  29.729  1.00  0.00     0.049 A 
ATOM     57  H   UNL A   1      39.616  30.651  31.598  1.00  0.00     0.167 HD
ATOM     58  C   UNL A   1      39.833  32.805  35.418  1.00  0.00     0.037 A 
ATOM     59  C   UNL A   1      40.501  28.837  29.674  1.00  0.00     0.037 A 
ATOM     60  C   UNL A   1      40.864  31.806  35.487  1.00  0.00     0.049 A 
ATOM     61  C   UNL A   1      41.408  28.674  30.863  1.00  0.00     0.074 A 
ATOM     62  C   UNL A   1      41.715  31.514  36.538  1.00  0.00     0.029 A 
ATOM     63  N   UNL A   1      41.183  30.932  34.458  1.00  0.00    -0.354 N 
ATOM     64  N   UNL A   1      41.394  29.313  32.008  1.00  0.00    -0.248 NA
ATOM     65  C   UNL A   1      42.464  27.658  30.756  1.00  0.00     0.031 C 
ATOM     66  C   UNL A   1      42.579  30.492  36.129  1.00  0.00     0.029 A 
ATOM     67  C   UNL A   1      42.234  30.114  34.840  1.00  0.00     0.049 A 
ATOM     68  H   UNL A   1      40.730  30.898  33.584  1.00  0.00     0.167 HD
ATOM     69  C   UNL A   1      42.417  28.762  32.766  1.00  0.00     0.074 A 
ATOM     70  C   UNL A   1      43.024  27.726  31.955  1.00  0.00     0.031 C 
ATOM     71  C   UNL A   1      42.820  29.084  34.021  1.00  0.00     0.037 A 
BRANCH  58  72
ATOM     72  C   UNL A   1      39.655  33.740  36.579  1.00  0.00     0.064 A 
ATOM     73  C   UNL A   1      40.280  34.996  36.618  1.00  0.00     0.173 A 
ATOM     74  C   UNL A   1      38.841  33.379  37.664  1.00  0.00     0.173 A 
ATOM     75  F   UNL A   1      41.079  35.383  35.613  1.00  0.00    -0.203 F 
ATOM     76  C   UNL A   1      40.130  35.838  37.717  1.00  0.00     0.198 A 
ATOM     77  C   UNL A   1      38.667  34.238  38.746  1.00  0.00     0.198 A 
ATOM     78  F   UNL A   1      38.217  32.192  37.677  1.00  0.00    -0.203 F 
ATOM     79  F   UNL A   1      40.789  37.004  37.759  1.00  0.00    -0.200 F 
ATOM     80  C   UNL A   1      39.320  35.461  38.777  1.00  0.00     0.200 A 
ATOM     81  F   UNL A   1      37.875  33.878  39.765  1.00  0.00    -0.200 F 
ATOM     82  F   UNL A   1      39.177  36.273  39.834  1.00  0.00    -0.200 F 
ENDBRANCH  58  72
BRANCH  59  83
ATOM     83  C   UNL A   1      40.667  27.990  28.464  1.00  0.00     0.064 A 
ATOM     84  C   UNL A   1      41.456  28.425  27.389  1.00  0.00     0.173 A 
ATOM     85  C   UNL A   1      40.057  26.732  28.359  1.00  0.00     0.173 A 
ATOM     86  F   UNL A   1      42.045  29.628  27.436  1.00  0.00    -0.203 F 
ATOM     87  C   UNL A   1      41.615  27.640  26.249  1.00  0.00     0.198 A 
ATOM     88  C   UNL A   1      40.238  25.937  27.229  1.00  0.00     0.198 A 
ATOM     89  F   UNL A   1      39.298  26.267  29.363  1.00  0.00    -0.203 F 
ATOM     90  F   UNL A   1      42.344  28.096  25.221  1.00  0.00    -0.200 F 
ATOM     91  C   UNL A   1      41.011  26.395  26.172  1.00  0.00     0.200 A 
ATOM     92  F   UNL A   1      39.665  24.728  27.164  1.00  0.00    -0.200 F 
ATOM     93  F   UNL A   1      41.170  25.638  25.078  1.00  0.00    -0.200 F 
ENDBRANCH  59  83
BRANCH  71  94
ATOM     94  C   UNL A   1      43.949  28.287  34.605  1.00  0.00     0.064 A 
ATOM     95  C   UNL A   1      45.280  28.718  34.510  1.00  0.00     0.173 A 
ATOM     96  C   UNL A   1      43.689  27.100  35.307  1.00  0.00     0.173 A 
ATOM     97  F   UNL A   1      45.579  29.838  33.836  1.00  0.00    -0.203 F 
ATOM     98  C   UNL A   1      46.313  27.977  35.077  1.00  0.00     0.198 A 
ATOM     99  C   UNL A   1      44.721  26.377  35.898  1.00  0.00     0.198 A 
ATOM    100  F   UNL A   1      42.431  26.650  35.432  1.00  0.00    -0.203 F 
ATOM    101  F   UNL A   1      47.581  28.384  34.936  1.00  0.00    -0.200 F 
ATOM    102  C   UNL A   1      46.032  26.814  35.778  1.00  0.00     0.200 A 
ATOM    103  F   UNL A   1      44.446  25.261  36.586  1.00  0.00    -0.200 F 
ATOM    104  F   UNL A   1      47.027  26.106  36.330  1.00  0.00    -0.200 F 
ENDBRANCH  71  94
ENDBRANCH  45  46
ENDBRANCH  37  40
ENDBRANCH  35  36
ENDBRANCH  34  35
ENDBRANCH   1  34
TORSDOF 16
ENDMDL
MODEL 2
REMARK VINA RESULT:     -13.1      5.004     10.014
REMARK SMILES Cc1c[nH]c(C[N@@H+](C)[C@@H](C(=O)NCCCCNC(=O)c2ccc(-c3c4nc(c(-c5c(F)c(F)c(F)c(F)c5F)c5ccc([nH]5)c(-c5c(F)c(F)c(F)c(F)c5F)c5nc(c(-c6c(F)c(F)c(F)c(F)c6F)c6ccc3[nH]6)C=C5)C=C4)cc2)c2ccc(NC(=O)N3CCCC3)cc2)n1
REMARK SMILES IDX 14 1 13 2 12 3 10 4 11 5 9 7 7 8 8 9 6 11 5 12 1 13 2 14
REMARK SMILES IDX 3 15 97 16 4 17 83 19 84 20 96 21 85 22 95 23 86 24 87 25
REMARK SMILES IDX 88 26 89 28 90 29 91 30 94 31 92 32 93 33 15 34 16 35 17 36
REMARK SMILES IDX 18 37 19 39 20 40 21 41 82 42 22 43 81 44 23 45 24 46 25 47
REMARK SMILES IDX 75 48 26 49 80 50 74 51 76 52 27 53 79 54 73 55 72 56 28 58
REMARK SMILES IDX 60 59 40 60 59 61 41 62 44 63 58 64 77 65 42 66 43 67 57 69
REMARK SMILES IDX 78 70 45 71 29 72 30 73 38 74 31 75 32 76 36 77 39 78 33 79
REMARK SMILES IDX 34 80 37 81 35 82 61 83 62 84 70 85 63 86 64 87 68 88 71 89
REMARK SMILES IDX 65 90 66 91 69 92 67 93 46 94 47 95 55 96 48 97 49 98 53 99
REMARK SMILES IDX 56 100 50 101 51 102 54 103 52 104
REMARK H PARENT 12 6 7 10 4 18 87 27 17 38 76 57 44 68
REMARK Flexibility Score: inf
ROOT
ATOM      1  C   UNL A   1      36.573  20.679  25.326  1.00  0.00     0.023 C 
ENDROOT
BRANCH   1   2
ATOM      2  C   UNL A   1      36.462  22.174  25.628  1.00  0.00     0.116 C 
BRANCH   2   3
ATOM      3  N   UNL A   1      36.263  22.908  24.398  1.00  0.00    -0.351 N 
ATOM      4  C   UNL A   1      35.100  23.080  23.699  1.00  0.00     0.283 C 
ATOM      5  O   UNL A   1      35.218  23.346  22.497  1.00  0.00    -0.268 OA
ATOM      6  H   UNL A   1      37.065  23.337  24.017  1.00  0.00     0.163 HD
BRANCH   4   7
ATOM      7  C   UNL A   1      33.717  22.962  24.423  1.00  0.00     0.305 C 
BRANCH   7   8
ATOM      8  N   UNL A   1      33.117  21.618  24.221  1.00  0.00    -0.317 N 
ATOM      9  C   UNL A   1      32.177  21.480  23.131  1.00  0.00     0.334 C 
ATOM     10  H   UNL A   1      33.963  21.150  23.896  1.00  0.00     0.349 HD
BRANCH   8  11
ATOM     11  C   UNL A   1      32.756  20.830  25.405  1.00  0.00     0.339 C 
BRANCH  11  12
ATOM     12  C   UNL A   1      32.958  19.361  25.210  1.00  0.00     0.161 A 
ATOM     13  C   UNL A   1      34.122  16.473  23.498  1.00  0.00     0.068 C 
ATOM     14  C   UNL A   1      33.500  17.426  24.442  1.00  0.00     0.056 A 
ATOM     15  C   UNL A   1      33.006  17.203  25.708  1.00  0.00     0.107 A 
ATOM     16  N   UNL A   1      33.396  18.756  24.121  1.00  0.00    -0.233 NA
ATOM     17  N   UNL A   1      32.700  18.443  26.198  1.00  0.00    -0.344 N 
ATOM     18  H   UNL A   1      32.355  18.643  27.099  1.00  0.00     0.167 HD
ENDBRANCH  11  12
ENDBRANCH   8  11
ENDBRANCH   7   8
BRANCH   7  19
ATOM     19  C   UNL A   1      32.747  24.085  24.016  1.00  0.00     0.019 A 
ATOM     20  C   UNL A   1      31.678  24.482  24.829  1.00  0.00     0.012 A 
ATOM     21  C   UNL A   1      32.923  24.769  22.803  1.00  0.00     0.012 A 
ATOM     22  C   UNL A   1      31.009  25.681  24.577  1.00  0.00     0.027 A 
ATOM     23  C   UNL A   1      32.267  25.979  22.564  1.00  0.00     0.027 A 
ATOM     24  C   UNL A   1      31.415  26.503  23.529  1.00  0.00     0.042 A 
BRANCH  24  25
ATOM     25  N   UNL A   1      31.035  27.851  23.416  1.00  0.00    -0.308 N 
ATOM     26  C   UNL A   1      31.199  28.898  24.272  1.00  0.00     0.321 C 
ATOM     27  H   UNL A   1      30.573  28.076  22.576  1.00  0.00     0.171 HD
ATOM     28  O   UNL A   1      30.422  29.852  24.186  1.00  0.00    -0.248 OA
ATOM     29  N   UNL A   1      32.212  28.885  25.188  1.00  0.00    -0.325 N 
ATOM     30  C   UNL A   1      33.580  28.445  24.991  1.00  0.00     0.121 C 
ATOM     31  C   UNL A   1      32.137  29.685  26.389  1.00  0.00     0.121 C 
ATOM     32  C   UNL A   1      34.065  28.190  26.405  1.00  0.00     0.023 C 
ATOM     33  C   UNL A   1      33.324  29.236  27.241  1.00  0.00     0.023 C 
ENDBRANCH  24  25
ENDBRANCH   7  19
ENDBRANCH   4   7
ENDBRANCH   2   3
ENDBRANCH   1   2
BRANCH   1  34
ATOM     34  C   UNL A   1      37.946  20.227  24.839  1.00  0.00     0.023 C 
BRANCH  34  35
ATOM     35  C   UNL A   1      39.069  20.401  25.848  1.00  0.00     0.116 C 
BRANCH  35  36
ATOM     36  N   UNL A   1      39.983  19.272  25.886  1.00  0.00    -0.352 N 
ATOM     37  C   UNL A   1      41.350  19.275  26.061  1.00  0.00     0.251 C 
ATOM     38  H   UNL A   1      39.571  18.385  25.773  1.00  0.00     0.163 HD
ATOM     39  O   UNL A   1      41.997  18.251  25.947  1.00  0.00    -0.269 OA
BRANCH  37  40
ATOM     40  C   UNL A   1      42.020  20.560  26.348  1.00  0.00     0.039 A 
ATOM     41  C   UNL A   1      42.386  21.384  25.283  1.00  0.00     0.014 A 
ATOM     42  C   UNL A   1      42.225  20.970  27.669  1.00  0.00     0.014 A 
ATOM     43  C   UNL A   1      42.895  22.657  25.543  1.00  0.00     0.010 A 
ATOM     44  C   UNL A   1      42.644  22.269  27.924  1.00  0.00     0.010 A 
ATOM     45  C   UNL A   1      42.989  23.122  26.865  1.00  0.00    -0.014 A 
BRANCH  45  46
ATOM     46  C   UNL A   1      43.459  24.495  27.170  1.00  0.00     0.031 A 
ATOM     47  C   UNL A   1      42.496  25.508  27.721  1.00  0.00     0.074 A 
ATOM     48  C   UNL A   1      44.724  24.850  26.875  1.00  0.00     0.049 A 
ATOM     49  N   UNL A   1      42.684  26.777  27.976  1.00  0.00    -0.248 NA
ATOM     50  C   UNL A   1      41.127  25.038  27.987  1.00  0.00     0.031 C 
ATOM     51  C   UNL A   1      45.734  23.972  26.281  1.00  0.00     0.029 A 
ATOM     52  N   UNL A   1      45.375  26.048  27.026  1.00  0.00    -0.354 N 
ATOM     53  C   UNL A   1      41.456  27.260  28.407  1.00  0.00     0.074 A 
ATOM     54  C   UNL A   1      40.516  26.164  28.321  1.00  0.00     0.031 C 
ATOM     55  C   UNL A   1      46.883  24.651  26.146  1.00  0.00     0.029 A 
ATOM     56  C   UNL A   1      46.683  26.021  26.610  1.00  0.00     0.049 A 
ATOM     57  H   UNL A   1      44.945  26.851  27.399  1.00  0.00     0.167 HD
ATOM     58  C   UNL A   1      41.146  28.497  28.861  1.00  0.00     0.037 A 
ATOM     59  C   UNL A   1      47.613  26.994  26.603  1.00  0.00     0.037 A 
ATOM     60  C   UNL A   1      42.096  29.570  28.980  1.00  0.00     0.049 A 
ATOM     61  C   UNL A   1      47.250  28.357  27.126  1.00  0.00     0.074 A 
ATOM     62  C   UNL A   1      41.905  30.839  29.498  1.00  0.00     0.029 A 
ATOM     63  N   UNL A   1      43.420  29.498  28.572  1.00  0.00    -0.354 N 
ATOM     64  N   UNL A   1      46.105  28.783  27.603  1.00  0.00    -0.248 NA
ATOM     65  C   UNL A   1      48.311  29.374  27.116  1.00  0.00     0.031 C 
ATOM     66  C   UNL A   1      43.103  31.549  29.365  1.00  0.00     0.029 A 
ATOM     67  C   UNL A   1      44.053  30.708  28.807  1.00  0.00     0.049 A 
ATOM     68  H   UNL A   1      43.846  28.705  28.175  1.00  0.00     0.167 HD
ATOM     69  C   UNL A   1      46.313  30.103  27.974  1.00  0.00     0.074 A 
ATOM     70  C   UNL A   1      47.698  30.405  27.679  1.00  0.00     0.031 C 
ATOM     71  C   UNL A   1      45.436  30.987  28.512  1.00  0.00     0.037 A 
BRANCH  58  72
ATOM     72  C   UNL A   1      39.722  28.746  29.267  1.00  0.00     0.064 A 
ATOM     73  C   UNL A   1      38.773  29.241  28.359  1.00  0.00     0.173 A 
ATOM     74  C   UNL A   1      39.298  28.476  30.577  1.00  0.00     0.173 A 
ATOM     75  F   UNL A   1      39.129  29.528  27.098  1.00  0.00    -0.203 F 
ATOM     76  C   UNL A   1      37.463  29.496  28.759  1.00  0.00     0.198 A 
ATOM     77  C   UNL A   1      37.979  28.702  30.963  1.00  0.00     0.198 A 
ATOM     78  F   UNL A   1      40.163  27.999  31.483  1.00  0.00    -0.203 F 
ATOM     79  F   UNL A   1      36.592  30.030  27.891  1.00  0.00    -0.200 F 
ATOM     80  C   UNL A   1      37.066  29.222  30.058  1.00  0.00     0.200 A 
ATOM     81  F   UNL A   1      37.593  28.425  32.217  1.00  0.00    -0.200 F 
ATOM     82  F   UNL A   1      35.806  29.468  30.441  1.00  0.00    -0.200 F 
ENDBRANCH  58  72
BRANCH  59  83
ATOM     83  C   UNL A   1      48.989  26.701  26.122  1.00  0.00     0.064 A 
ATOM     84  C   UNL A   1      49.373  27.027  24.813  1.00  0.00     0.173 A 
ATOM     85  C   UNL A   1      49.946  26.105  26.954  1.00  0.00     0.173 A 
ATOM     86  F   UNL A   1      48.487  27.582  23.975  1.00  0.00    -0.203 F 
ATOM     87  C   UNL A   1      50.659  26.752  24.351  1.00  0.00     0.198 A 
ATOM     88  C   UNL A   1      51.239  25.855  26.499  1.00  0.00     0.198 A 
ATOM     89  F   UNL A   1      49.630  25.780  28.217  1.00  0.00    -0.203 F 
ATOM     90  F   UNL A   1      50.988  27.041  23.085  1.00  0.00    -0.200 F 
ATOM     91  C   UNL A   1      51.592  26.173  25.196  1.00  0.00     0.200 A 
ATOM     92  F   UNL A   1      52.143  25.308  27.323  1.00  0.00    -0.200 F 
ATOM     93  F   UNL A   1      52.831  25.916  24.753  1.00  0.00    -0.200 F 
ENDBRANCH  59  83
BRANCH  71  94
ATOM     94  C   UNL A   1      45.956  32.354  28.843  1.00  0.00     0.064 A 
ATOM     95  C   UNL A   1      45.886  33.412  27.925  1.00  0.00     0.173 A 
ATOM     96  C   UNL A   1      46.491  32.620  30.113  1.00  0.00     0.173 A 
ATOM     97  F   UNL A   1      45.397  33.203  26.693  1.00  0.00    -0.203 F 
ATOM     98  C   UNL A   1      46.354  34.679  28.257  1.00  0.00     0.198 A 
ATOM     99  C   UNL A   1      46.930  33.896  30.453  1.00  0.00     0.198 A 
ATOM    100  F   UNL A   1      46.573  31.644  31.030  1.00  0.00    -0.203 F 
ATOM    101  F   UNL A   1      46.318  35.663  27.349  1.00  0.00    -0.200 F 
ATOM    102  C   UNL A   1      46.867  34.923  29.523  1.00  0.00     0.200 A 
ATOM    103  F   UNL A   1      47.413  34.133  31.680  1.00  0.00    -0.200 F 
ATOM    104  F   UNL A   1      47.309  36.146  29.843  1.00  0.00    -0.200 F 
ENDBRANCH  71  94
ENDBRANCH  45  46
ENDBRANCH  37  40
ENDBRANCH  35  36
ENDBRANCH  34  35
ENDBRANCH   1  34
TORSDOF 16
ENDMDL
MODEL 3
REMARK VINA RESULT:     -12.9      5.133     10.260
REMARK SMILES Cc1c[nH]c(C[N@@H+](C)[C@@H](C(=O)NCCCCNC(=O)c2ccc(-c3c4nc(c(-c5c(F)c(F)c(F)c(F)c5F)c5ccc([nH]5)c(-c5c(F)c(F)c(F)c(F)c5F)c5nc(c(-c6c(F)c(F)c(F)c(F)c6F)c6ccc3[nH]6)C=C5)C=C4)cc2)c2ccc(NC(=O)N3CCCC3)cc2)n1
REMARK SMILES IDX 14 1 13 2 12 3 10 4 11 5 9 7 7 8 8 9 6 11 5 12 1 13 2 14
REMARK SMILES IDX 3 15 97 16 4 17 83 19 84 20 96 21 85 22 95 23 86 24 87 25
REMARK SMILES IDX 88 26 89 28 90 29 91 30 94 31 92 32 93 33 15 34 16 35 17 36
REMARK SMILES IDX 18 37 19 39 20 40 21 41 82 42 22 43 81 44 23 45 24 46 25 47
REMARK SMILES IDX 75 48 26 49 80 50 74 51 76 52 27 53 79 54 73 55 72 56 28 58
REMARK SMILES IDX 60 59 40 60 59 61 41 62 44 63 58 64 77 65 42 66 43 67 57 69
REMARK SMILES IDX 78 70 45 71 29 72 30 73 38 74 31 75 32 76 36 77 39 78 33 79
REMARK SMILES IDX 34 80 37 81 35 82 61 83 62 84 70 85 63 86 64 87 68 88 71 89
REMARK SMILES IDX 65 90 66 91 69 92 67 93 46 94 47 95 55 96 48 97 49 98 53 99
REMARK SMILES IDX 56 100 50 101 51 102 54 103 52 104
REMARK H PARENT 12 6 7 10 4 18 87 27 17 38 76 57 44 68
REMARK Flexibility Score: inf
ROOT
ATOM      1  C   UNL A   1      37.387  21.344  24.649  1.00  0.00     0.023 C 
ENDROOT
BRANCH   1   2
ATOM      2  C   UNL A   1      35.869  21.165  24.623  1.00  0.00     0.116 C 
BRANCH   2   3
ATOM      3  N   UNL A   1      35.379  20.941  25.965  1.00  0.00    -0.351 N 
ATOM      4  C   UNL A   1      34.264  21.472  26.554  1.00  0.00     0.283 C 
ATOM      5  O   UNL A   1      34.265  21.512  27.790  1.00  0.00    -0.268 OA
ATOM      6  H   UNL A   1      35.915  20.331  26.523  1.00  0.00     0.163 HD
BRANCH   4   7
ATOM      7  C   UNL A   1      33.066  21.969  25.677  1.00  0.00     0.305 C 
BRANCH   7   8
ATOM      8  N   UNL A   1      32.951  21.180  24.424  1.00  0.00    -0.317 N 
ATOM      9  C   UNL A   1      32.824  21.927  23.193  1.00  0.00     0.334 C 
ATOM     10  H   UNL A   1      33.907  20.822  24.414  1.00  0.00     0.349 HD
BRANCH   8  11
ATOM     11  C   UNL A   1      32.153  19.950  24.445  1.00  0.00     0.339 C 
BRANCH  11  12
ATOM     12  C   UNL A   1      32.970  18.722  24.189  1.00  0.00     0.161 A 
ATOM     13  C   UNL A   1      35.153  16.066  25.083  1.00  0.00     0.068 C 
ATOM     14  C   UNL A   1      34.277  17.024  24.376  1.00  0.00     0.056 A 
ATOM     15  C   UNL A   1      33.731  16.941  23.115  1.00  0.00     0.107 A 
ATOM     16  N   UNL A   1      33.853  18.171  25.001  1.00  0.00    -0.233 NA
ATOM     17  N   UNL A   1      32.876  18.004  23.022  1.00  0.00    -0.344 N 
ATOM     18  H   UNL A   1      32.296  18.218  22.255  1.00  0.00     0.167 HD
ENDBRANCH  11  12
ENDBRANCH   8  11
ENDBRANCH   7   8
BRANCH   7  19
ATOM     19  C   UNL A   1      33.137  23.480  25.395  1.00  0.00     0.019 A 
ATOM     20  C   UNL A   1      34.348  24.142  25.161  1.00  0.00     0.012 A 
ATOM     21  C   UNL A   1      31.963  24.247  25.342  1.00  0.00     0.012 A 
ATOM     22  C   UNL A   1      34.355  25.429  24.622  1.00  0.00     0.027 A 
ATOM     23  C   UNL A   1      31.970  25.527  24.782  1.00  0.00     0.027 A 
ATOM     24  C   UNL A   1      33.157  26.056  24.289  1.00  0.00     0.042 A 
BRANCH  24  25
ATOM     25  N   UNL A   1      33.082  27.178  23.447  1.00  0.00    -0.308 N 
ATOM     26  C   UNL A   1      32.691  28.458  23.701  1.00  0.00     0.321 C 
ATOM     27  H   UNL A   1      33.362  27.011  22.518  1.00  0.00     0.171 HD
ATOM     28  O   UNL A   1      32.282  29.143  22.761  1.00  0.00    -0.248 OA
ATOM     29  N   UNL A   1      32.770  28.963  24.968  1.00  0.00    -0.325 N 
ATOM     30  C   UNL A   1      33.841  28.783  25.930  1.00  0.00     0.121 C 
ATOM     31  C   UNL A   1      31.946  30.078  25.375  1.00  0.00     0.121 C 
ATOM     32  C   UNL A   1      33.175  29.116  27.251  1.00  0.00     0.023 C 
ATOM     33  C   UNL A   1      32.155  30.197  26.885  1.00  0.00     0.023 C 
ENDBRANCH  24  25
ENDBRANCH   7  19
ENDBRANCH   4   7
ENDBRANCH   2   3
ENDBRANCH   1   2
BRANCH   1  34
ATOM     34  C   UNL A   1      38.172  20.084  25.002  1.00  0.00     0.023 C 
BRANCH  34  35
ATOM     35  C   UNL A   1      39.326  20.303  25.966  1.00  0.00     0.116 C 
BRANCH  35  36
ATOM     36  N   UNL A   1      40.263  19.192  25.996  1.00  0.00    -0.352 N 
ATOM     37  C   UNL A   1      41.635  19.225  26.126  1.00  0.00     0.251 C 
ATOM     38  H   UNL A   1      39.865  18.295  25.911  1.00  0.00     0.163 HD
ATOM     39  O   UNL A   1      42.298  18.212  26.011  1.00  0.00    -0.269 OA
BRANCH  37  40
ATOM     40  C   UNL A   1      42.288  20.528  26.369  1.00  0.00     0.039 A 
ATOM     41  C   UNL A   1      42.620  21.330  25.277  1.00  0.00     0.014 A 
ATOM     42  C   UNL A   1      42.510  20.974  27.675  1.00  0.00     0.014 A 
ATOM     43  C   UNL A   1      43.112  22.618  25.496  1.00  0.00     0.010 A 
ATOM     44  C   UNL A   1      42.911  22.286  27.890  1.00  0.00     0.010 A 
ATOM     45  C   UNL A   1      43.222  23.118  26.804  1.00  0.00    -0.014 A 
BRANCH  45  46
ATOM     46  C   UNL A   1      43.674  24.506  27.066  1.00  0.00     0.031 A 
ATOM     47  C   UNL A   1      42.696  25.525  27.578  1.00  0.00     0.074 A 
ATOM     48  C   UNL A   1      44.936  24.866  26.766  1.00  0.00     0.049 A 
ATOM     49  N   UNL A   1      42.867  26.804  27.792  1.00  0.00    -0.248 NA
ATOM     50  C   UNL A   1      41.331  25.047  27.853  1.00  0.00     0.031 C 
ATOM     51  C   UNL A   1      45.959  23.981  26.206  1.00  0.00     0.029 A 
ATOM     52  N   UNL A   1      45.572  26.076  26.881  1.00  0.00    -0.354 N 
ATOM     53  C   UNL A   1      41.631  27.285  28.200  1.00  0.00     0.074 A 
ATOM     54  C   UNL A   1      40.704  26.176  28.146  1.00  0.00     0.031 C 
ATOM     55  C   UNL A   1      47.101  24.670  26.055  1.00  0.00     0.029 A 
ATOM     56  C   UNL A   1      46.883  26.051  26.472  1.00  0.00     0.049 A 
ATOM     57  H   UNL A   1      45.130  26.885  27.225  1.00  0.00     0.167 HD
ATOM     58  C   UNL A   1      41.304  28.533  28.612  1.00  0.00     0.037 A 
ATOM     59  C   UNL A   1      47.801  27.035  26.438  1.00  0.00     0.037 A 
ATOM     60  C   UNL A   1      42.240  29.621  28.700  1.00  0.00     0.049 A 
ATOM     61  C   UNL A   1      47.419  28.410  26.914  1.00  0.00     0.074 A 
ATOM     62  C   UNL A   1      42.031  30.904  29.175  1.00  0.00     0.029 A 
ATOM     63  N   UNL A   1      43.567  29.552  28.302  1.00  0.00    -0.354 N 
ATOM     64  N   UNL A   1      46.266  28.837  27.371  1.00  0.00    -0.248 NA
ATOM     65  C   UNL A   1      48.467  29.439  26.876  1.00  0.00     0.031 C 
ATOM     66  C   UNL A   1      43.221  31.624  29.024  1.00  0.00     0.029 A 
ATOM     67  C   UNL A   1      44.185  30.776  28.500  1.00  0.00     0.049 A 
ATOM     68  H   UNL A   1      44.005  28.751  27.933  1.00  0.00     0.167 HD
ATOM     69  C   UNL A   1      46.456  30.171  27.699  1.00  0.00     0.074 A 
ATOM     70  C   UNL A   1      47.839  30.481  27.402  1.00  0.00     0.031 C 
ATOM     71  C   UNL A   1      45.565  31.062  28.203  1.00  0.00     0.037 A 
BRANCH  58  72
ATOM     72  C   UNL A   1      39.874  28.778  29.002  1.00  0.00     0.064 A 
ATOM     73  C   UNL A   1      39.431  28.607  30.322  1.00  0.00     0.173 A 
ATOM     74  C   UNL A   1      38.938  29.198  28.045  1.00  0.00     0.173 A 
ATOM     75  F   UNL A   1      40.282  28.193  31.273  1.00  0.00    -0.203 F 
ATOM     76  C   UNL A   1      38.095  28.807  30.662  1.00  0.00     0.198 A 
ATOM     77  C   UNL A   1      37.611  29.429  28.395  1.00  0.00     0.198 A 
ATOM     78  F   UNL A   1      39.310  29.380  26.769  1.00  0.00    -0.203 F 
ATOM     79  F   UNL A   1      37.683  28.575  31.915  1.00  0.00    -0.200 F 
ATOM     80  C   UNL A   1      37.188  29.223  29.700  1.00  0.00     0.200 A 
ATOM     81  F   UNL A   1      36.736  29.843  27.467  1.00  0.00    -0.200 F 
ATOM     82  F   UNL A   1      35.903  29.416  30.028  1.00  0.00    -0.200 F 
ENDBRANCH  58  72
BRANCH  59  83
ATOM     83  C   UNL A   1      49.183  26.743  25.974  1.00  0.00     0.064 A 
ATOM     84  C   UNL A   1      49.554  26.977  24.643  1.00  0.00     0.173 A 
ATOM     85  C   UNL A   1      50.158  26.239  26.845  1.00  0.00     0.173 A 
ATOM     86  F   UNL A   1      48.650  27.442  23.768  1.00  0.00    -0.203 F 
ATOM     87  C   UNL A   1      50.845  26.703  24.197  1.00  0.00     0.198 A 
ATOM     88  C   UNL A   1      51.456  25.989  26.404  1.00  0.00     0.198 A 
ATOM     89  F   UNL A   1      49.855  26.004  28.131  1.00  0.00    -0.203 F 
ATOM     90  F   UNL A   1      51.163  26.901  22.910  1.00  0.00    -0.200 F 
ATOM     91  C   UNL A   1      51.797  26.215  25.079  1.00  0.00     0.200 A 
ATOM     92  F   UNL A   1      52.377  25.532  27.263  1.00  0.00    -0.200 F 
ATOM     93  F   UNL A   1      53.040  25.959  24.651  1.00  0.00    -0.200 F 
ENDBRANCH  59  83
BRANCH  71  94
ATOM     94  C   UNL A   1      46.067  32.446  28.492  1.00  0.00     0.064 A 
ATOM     95  C   UNL A   1      46.635  32.779  29.730  1.00  0.00     0.173 A 
ATOM     96  C   UNL A   1      46.020  33.438  27.500  1.00  0.00     0.173 A 
ATOM     97  F   UNL A   1      46.688  31.869  30.714  1.00  0.00    -0.203 F 
ATOM     98  C   UNL A   1      47.116  34.062  29.973  1.00  0.00     0.198 A 
ATOM     99  C   UNL A   1      46.529  34.711  27.737  1.00  0.00     0.198 A 
ATOM    100  F   UNL A   1      45.494  33.167  26.297  1.00  0.00    -0.203 F 
ATOM    101  F   UNL A   1      47.613  34.371  31.178  1.00  0.00    -0.200 F 
ATOM    102  C   UNL A   1      47.071  35.024  28.975  1.00  0.00     0.200 A 
ATOM    103  F   UNL A   1      46.497  35.635  26.767  1.00  0.00    -0.200 F 
ATOM    104  F   UNL A   1      47.542  36.256  29.209  1.00  0.00    -0.200 F 
ENDBRANCH  71  94
ENDBRANCH  45  46
ENDBRANCH  37  40
ENDBRANCH  35  36
ENDBRANCH  34  35
ENDBRANCH   1  34
TORSDOF 16
ENDMDL
