MODEL 1
REMARK VINA RESULT:     -12.5      0.000      0.000
REMARK SMILES O=C1NC[C@@H](CSc2ccnc(C(=O)NCCCCNC(=O)c3ccc(-c4c5nc(c(-c6c(F)c(F)c(F)c(F)c6F)c6ccc([nH]6)c(-c6c(F)c(F)c(F)c(F)c6F)c6nc(c(-c7c(F)c(F)c(F)c(F)c7F)c7ccc4[nH]7)C=C6)C=C5)cc3)c2)O1
REMARK SMILES IDX 17 1 16 2 15 3 13 4 14 5 12 7 8 8 9 9 86 10 10 11 11 12 7 13
REMARK SMILES IDX 6 14 5 15 1 16 2 17 3 18 87 19 4 20 18 22 19 23 20 24 21 25
REMARK SMILES IDX 22 27 23 28 24 29 85 30 25 31 84 32 26 33 27 34 28 35 78 36
REMARK SMILES IDX 29 37 83 38 77 39 79 40 30 41 82 42 76 43 75 44 31 46 63 47
REMARK SMILES IDX 43 48 62 49 44 50 47 51 61 52 80 53 45 54 46 55 60 57 81 58
REMARK SMILES IDX 48 59 32 60 33 61 41 62 34 63 35 64 39 65 42 66 36 67 37 68
REMARK SMILES IDX 40 69 38 70 64 71 65 72 73 73 66 74 67 75 71 76 74 77 68 78
REMARK SMILES IDX 69 79 72 80 70 81 49 82 50 83 58 84 51 85 52 86 56 87 59 88
REMARK SMILES IDX 53 89 54 90 57 91 55 92
REMARK H PARENT 15 6 3 21 20 26 79 45 47 56
REMARK Flexibility Score: inf
ROOT
ATOM      1  C   UNL A   1      31.729  30.821  26.365  1.00  0.00     0.023 C 
ENDROOT
BRANCH   1   2
ATOM      2  C   UNL A   1      32.793  30.152  27.238  1.00  0.00     0.116 C 
BRANCH   2   3
ATOM      3  N   UNL A   1      32.346  28.823  27.601  1.00  0.00    -0.351 N 
ATOM      4  C   UNL A   1      31.933  27.748  26.844  1.00  0.00     0.269 C 
ATOM      5  O   UNL A   1      31.489  26.778  27.462  1.00  0.00    -0.268 OA
ATOM      6  H   UNL A   1      32.335  28.656  28.570  1.00  0.00     0.163 HD
BRANCH   4   7
ATOM      7  C   UNL A   1      32.087  27.689  25.350  1.00  0.00     0.129 A 
ATOM      8  C   UNL A   1      31.480  28.292  23.120  1.00  0.00     0.011 A 
ATOM      9  C   UNL A   1      32.772  27.973  22.717  1.00  0.00     0.035 A 
ATOM     10  C   UNL A   1      31.114  28.104  24.451  1.00  0.00     0.049 A 
ATOM     11  C   UNL A   1      33.628  27.417  23.644  1.00  0.00     0.113 A 
ATOM     12  N   UNL A   1      33.317  27.281  24.944  1.00  0.00    -0.251 NA
BRANCH   8  13
ATOM     13  S   UNL A   1      30.382  29.131  21.999  1.00  0.00    -0.122 SA
BRANCH  13  14
ATOM     14  C   UNL A   1      28.924  29.475  23.054  1.00  0.00     0.122 C 
BRANCH  14  15
ATOM     15  C   UNL A   1      27.906  30.499  22.533  1.00  0.00     0.208 C 
ATOM     16  O   UNL A   1      28.663  33.841  22.959  1.00  0.00    -0.225 OA
ATOM     17  C   UNL A   1      28.393  32.721  22.555  1.00  0.00     0.407 C 
ATOM     18  N   UNL A   1      28.527  32.308  21.264  1.00  0.00    -0.318 N 
ATOM     19  O   UNL A   1      27.914  31.703  23.324  1.00  0.00    -0.443 OA
ATOM     20  C   UNL A   1      28.111  30.961  21.104  1.00  0.00     0.165 C 
ATOM     21  H   UNL A   1      28.869  32.872  20.534  1.00  0.00     0.167 HD
ENDBRANCH  14  15
ENDBRANCH  13  14
ENDBRANCH   8  13
ENDBRANCH   4   7
ENDBRANCH   2   3
ENDBRANCH   1   2
BRANCH   1  22
ATOM     22  C   UNL A   1      31.491  32.292  26.720  1.00  0.00     0.023 C 
BRANCH  22  23
ATOM     23  C   UNL A   1      32.682  32.982  27.374  1.00  0.00     0.116 C 
BRANCH  23  24
ATOM     24  N   UNL A   1      32.398  34.353  27.769  1.00  0.00    -0.352 N 
ATOM     25  C   UNL A   1      33.014  35.104  28.738  1.00  0.00     0.251 C 
ATOM     26  H   UNL A   1      31.670  34.799  27.279  1.00  0.00     0.163 HD
ATOM     27  O   UNL A   1      32.573  36.204  29.053  1.00  0.00    -0.269 OA
BRANCH  25  28
ATOM     28  C   UNL A   1      34.193  34.548  29.425  1.00  0.00     0.039 A 
ATOM     29  C   UNL A   1      34.004  33.817  30.598  1.00  0.00     0.014 A 
ATOM     30  C   UNL A   1      35.470  34.704  28.880  1.00  0.00     0.014 A 
ATOM     31  C   UNL A   1      35.097  33.191  31.195  1.00  0.00     0.010 A 
ATOM     32  C   UNL A   1      36.541  34.008  29.426  1.00  0.00     0.010 A 
ATOM     33  C   UNL A   1      36.366  33.251  30.594  1.00  0.00    -0.014 A 
BRANCH  33  34
ATOM     34  C   UNL A   1      37.516  32.522  31.181  1.00  0.00     0.031 A 
ATOM     35  C   UNL A   1      38.027  32.889  32.546  1.00  0.00     0.074 A 
ATOM     36  C   UNL A   1      38.123  31.555  30.465  1.00  0.00     0.049 A 
ATOM     37  N   UNL A   1      39.018  32.370  33.224  1.00  0.00    -0.248 NA
ATOM     38  C   UNL A   1      37.354  34.006  33.229  1.00  0.00     0.031 C 
ATOM     39  C   UNL A   1      37.755  31.155  29.106  1.00  0.00     0.029 A 
ATOM     40  N   UNL A   1      39.175  30.734  30.780  1.00  0.00    -0.354 N 
ATOM     41  C   UNL A   1      39.089  33.096  34.405  1.00  0.00     0.074 A 
ATOM     42  C   UNL A   1      38.089  34.137  34.323  1.00  0.00     0.031 C 
ATOM     43  C   UNL A   1      38.541  30.138  28.718  1.00  0.00     0.029 A 
ATOM     44  C   UNL A   1      39.494  29.843  29.784  1.00  0.00     0.049 A 
ATOM     45  H   UNL A   1      39.656  30.778  31.637  1.00  0.00     0.167 HD
ATOM     46  C   UNL A   1      39.896  32.894  35.474  1.00  0.00     0.037 A 
ATOM     47  C   UNL A   1      40.449  28.895  29.738  1.00  0.00     0.037 A 
ATOM     48  C   UNL A   1      40.880  31.847  35.553  1.00  0.00     0.049 A 
ATOM     49  C   UNL A   1      41.339  28.698  30.937  1.00  0.00     0.074 A 
ATOM     50  C   UNL A   1      41.709  31.520  36.612  1.00  0.00     0.029 A 
ATOM     51  N   UNL A   1      41.173  30.960  34.528  1.00  0.00    -0.354 N 
ATOM     52  N   UNL A   1      41.340  29.336  32.081  1.00  0.00    -0.248 NA
ATOM     53  C   UNL A   1      42.353  27.641  30.838  1.00  0.00     0.031 C 
ATOM     54  C   UNL A   1      42.545  30.476  36.206  1.00  0.00     0.029 A 
ATOM     55  C   UNL A   1      42.191  30.105  34.918  1.00  0.00     0.049 A 
ATOM     56  H   UNL A   1      40.724  30.941  33.652  1.00  0.00     0.167 HD
ATOM     57  C   UNL A   1      42.330  28.740  32.850  1.00  0.00     0.074 A 
ATOM     58  C   UNL A   1      42.893  27.674  32.048  1.00  0.00     0.031 C 
ATOM     59  C   UNL A   1      42.739  29.047  34.106  1.00  0.00     0.037 A 
BRANCH  46  60
ATOM     60  C   UNL A   1      39.745  33.825  36.644  1.00  0.00     0.064 A 
ATOM     61  C   UNL A   1      40.416  35.058  36.698  1.00  0.00     0.173 A 
ATOM     62  C   UNL A   1      38.894  33.498  37.710  1.00  0.00     0.173 A 
ATOM     63  F   UNL A   1      41.252  35.416  35.712  1.00  0.00    -0.203 F 
ATOM     64  C   UNL A   1      40.265  35.909  37.789  1.00  0.00     0.198 A 
ATOM     65  C   UNL A   1      38.718  34.368  38.783  1.00  0.00     0.198 A 
ATOM     66  F   UNL A   1      38.225  32.334  37.710  1.00  0.00    -0.203 F 
ATOM     67  F   UNL A   1      40.959  37.055  37.843  1.00  0.00    -0.200 F 
ATOM     68  C   UNL A   1      39.410  35.569  38.825  1.00  0.00     0.200 A 
ATOM     69  F   UNL A   1      37.879  34.043  39.776  1.00  0.00    -0.200 F 
ATOM     70  F   UNL A   1      39.258  36.395  39.870  1.00  0.00    -0.200 F 
ENDBRANCH  46  60
BRANCH  47  71
ATOM     71  C   UNL A   1      40.597  28.042  28.528  1.00  0.00     0.064 A 
ATOM     72  C   UNL A   1      41.378  28.459  27.441  1.00  0.00     0.173 A 
ATOM     73  C   UNL A   1      39.952  26.800  28.427  1.00  0.00     0.173 A 
ATOM     74  F   UNL A   1      42.002  29.645  27.480  1.00  0.00    -0.203 F 
ATOM     75  C   UNL A   1      41.485  27.681  26.290  1.00  0.00     0.198 A 
ATOM     76  C   UNL A   1      40.086  26.008  27.289  1.00  0.00     0.198 A 
ATOM     77  F   UNL A   1      39.198  26.350  29.441  1.00  0.00    -0.203 F 
ATOM     78  F   UNL A   1      42.193  28.130  25.244  1.00  0.00    -0.200 F 
ATOM     79  C   UNL A   1      40.843  26.454  26.216  1.00  0.00     0.200 A 
ATOM     80  F   UNL A   1      39.480  24.815  27.231  1.00  0.00    -0.200 F 
ATOM     81  F   UNL A   1      40.948  25.705  25.110  1.00  0.00    -0.200 F 
ENDBRANCH  47  71
BRANCH  59  82
ATOM     82  C   UNL A   1      43.823  28.194  34.704  1.00  0.00     0.064 A 
ATOM     83  C   UNL A   1      45.179  28.540  34.601  1.00  0.00     0.173 A 
ATOM     84  C   UNL A   1      43.497  27.027  35.411  1.00  0.00     0.173 A 
ATOM     85  F   UNL A   1      45.546  29.639  33.925  1.00  0.00    -0.203 F 
ATOM     86  C   UNL A   1      46.169  27.730  35.150  1.00  0.00     0.198 A 
ATOM     87  C   UNL A   1      44.487  26.239  35.992  1.00  0.00     0.198 A 
ATOM     88  F   UNL A   1      42.216  26.653  35.548  1.00  0.00    -0.203 F 
ATOM     89  F   UNL A   1      47.460  28.047  34.983  1.00  0.00    -0.200 F 
ATOM     90  C   UNL A   1      45.821  26.584  35.851  1.00  0.00     0.200 A 
ATOM     91  F   UNL A   1      44.147  25.142  36.684  1.00  0.00    -0.200 F 
ATOM     92  F   UNL A   1      46.776  25.808  36.383  1.00  0.00    -0.200 F 
ENDBRANCH  59  82
ENDBRANCH  33  34
ENDBRANCH  25  28
ENDBRANCH  23  24
ENDBRANCH  22  23
ENDBRANCH   1  22
TORSDOF 14
ENDMDL
MODEL 2
REMARK VINA RESULT:     -12.5      0.578      7.510
REMARK SMILES O=C1NC[C@@H](CSc2ccnc(C(=O)NCCCCNC(=O)c3ccc(-c4c5nc(c(-c6c(F)c(F)c(F)c(F)c6F)c6ccc([nH]6)c(-c6c(F)c(F)c(F)c(F)c6F)c6nc(c(-c7c(F)c(F)c(F)c(F)c7F)c7ccc4[nH]7)C=C6)C=C5)cc3)c2)O1
REMARK SMILES IDX 17 1 16 2 15 3 13 4 14 5 12 7 8 8 9 9 86 10 10 11 11 12 7 13
REMARK SMILES IDX 6 14 5 15 1 16 2 17 3 18 87 19 4 20 18 22 19 23 20 24 21 25
REMARK SMILES IDX 22 27 23 28 24 29 85 30 25 31 84 32 26 33 27 34 28 35 78 36
REMARK SMILES IDX 29 37 83 38 77 39 79 40 30 41 82 42 76 43 75 44 31 46 63 47
REMARK SMILES IDX 43 48 62 49 44 50 47 51 61 52 80 53 45 54 46 55 60 57 81 58
REMARK SMILES IDX 48 59 32 60 33 61 41 62 34 63 35 64 39 65 42 66 36 67 37 68
REMARK SMILES IDX 40 69 38 70 64 71 65 72 73 73 66 74 67 75 71 76 74 77 68 78
REMARK SMILES IDX 69 79 72 80 70 81 49 82 50 83 58 84 51 85 52 86 56 87 59 88
REMARK SMILES IDX 53 89 54 90 57 91 55 92
REMARK H PARENT 15 6 3 21 20 26 79 45 47 56
REMARK Flexibility Score: inf
ROOT
ATOM      1  C   UNL A   1      31.793  30.938  26.375  1.00  0.00     0.023 C 
ENDROOT
BRANCH   1   2
ATOM      2  C   UNL A   1      32.862  30.234  27.212  1.00  0.00     0.116 C 
BRANCH   2   3
ATOM      3  N   UNL A   1      32.372  28.931  27.612  1.00  0.00    -0.351 N 
ATOM      4  C   UNL A   1      31.920  27.850  26.887  1.00  0.00     0.269 C 
ATOM      5  O   UNL A   1      31.447  26.912  27.533  1.00  0.00    -0.268 OA
ATOM      6  H   UNL A   1      32.360  28.791  28.586  1.00  0.00     0.163 HD
BRANCH   4   7
ATOM      7  C   UNL A   1      32.066  27.745  25.394  1.00  0.00     0.129 A 
ATOM      8  C   UNL A   1      31.466  28.300  23.151  1.00  0.00     0.011 A 
ATOM      9  C   UNL A   1      32.747  27.936  22.753  1.00  0.00     0.035 A 
ATOM     10  C   UNL A   1      31.101  28.159  24.488  1.00  0.00     0.049 A 
ATOM     11  C   UNL A   1      33.593  27.384  23.691  1.00  0.00     0.113 A 
ATOM     12  N   UNL A   1      33.284  27.293  24.996  1.00  0.00    -0.251 NA
BRANCH   8  13
ATOM     13  S   UNL A   1      30.386  29.135  22.010  1.00  0.00    -0.122 SA
BRANCH  13  14
ATOM     14  C   UNL A   1      28.901  29.458  23.034  1.00  0.00     0.122 C 
BRANCH  14  15
ATOM     15  C   UNL A   1      27.880  30.469  22.492  1.00  0.00     0.208 C 
ATOM     16  O   UNL A   1      28.615  33.820  22.880  1.00  0.00    -0.225 OA
ATOM     17  C   UNL A   1      28.355  32.694  22.489  1.00  0.00     0.407 C 
ATOM     18  N   UNL A   1      28.500  32.265  21.204  1.00  0.00    -0.318 N 
ATOM     19  O   UNL A   1      27.876  31.683  23.268  1.00  0.00    -0.443 OA
ATOM     20  C   UNL A   1      28.092  30.914  21.059  1.00  0.00     0.165 C 
ATOM     21  H   UNL A   1      28.844  32.822  20.470  1.00  0.00     0.167 HD
ENDBRANCH  14  15
ENDBRANCH  13  14
ENDBRANCH   8  13
ENDBRANCH   4   7
ENDBRANCH   2   3
ENDBRANCH   1   2
BRANCH   1  22
ATOM     22  C   UNL A   1      31.523  32.378  26.824  1.00  0.00     0.023 C 
BRANCH  22  23
ATOM     23  C   UNL A   1      32.698  33.050  27.524  1.00  0.00     0.116 C 
BRANCH  23  24
ATOM     24  N   UNL A   1      32.475  34.465  27.776  1.00  0.00    -0.352 N 
ATOM     25  C   UNL A   1      33.109  35.278  28.682  1.00  0.00     0.251 C 
ATOM     26  H   UNL A   1      31.781  34.895  27.227  1.00  0.00     0.163 HD
ATOM     27  O   UNL A   1      32.718  36.423  28.876  1.00  0.00    -0.269 OA
BRANCH  25  28
ATOM     28  C   UNL A   1      34.244  34.736  29.450  1.00  0.00     0.039 A 
ATOM     29  C   UNL A   1      34.006  34.202  30.716  1.00  0.00     0.014 A 
ATOM     30  C   UNL A   1      35.526  34.708  28.894  1.00  0.00     0.014 A 
ATOM     31  C   UNL A   1      35.049  33.585  31.404  1.00  0.00     0.010 A 
ATOM     32  C   UNL A   1      36.542  34.017  29.542  1.00  0.00     0.010 A 
ATOM     33  C   UNL A   1      36.315  33.455  30.807  1.00  0.00    -0.014 A 
BRANCH  33  34
ATOM     34  C   UNL A   1      37.407  32.731  31.501  1.00  0.00     0.031 A 
ATOM     35  C   UNL A   1      38.081  31.563  30.836  1.00  0.00     0.074 A 
ATOM     36  C   UNL A   1      37.763  33.103  32.746  1.00  0.00     0.049 A 
ATOM     37  N   UNL A   1      39.051  30.806  31.282  1.00  0.00    -0.248 NA
ATOM     38  C   UNL A   1      37.581  31.176  29.507  1.00  0.00     0.031 C 
ATOM     39  C   UNL A   1      37.138  34.180  33.515  1.00  0.00     0.029 A 
ATOM     40  N   UNL A   1      38.735  32.618  33.582  1.00  0.00    -0.354 N 
ATOM     41  C   UNL A   1      39.273  29.856  30.294  1.00  0.00     0.074 A 
ATOM     42  C   UNL A   1      38.291  30.087  29.257  1.00  0.00     0.031 C 
ATOM     43  C   UNL A   1      37.769  34.302  34.694  1.00  0.00     0.029 A 
ATOM     44  C   UNL A   1      38.813  33.286  34.780  1.00  0.00     0.049 A 
ATOM     45  H   UNL A   1      39.323  31.864  33.347  1.00  0.00     0.167 HD
ATOM     46  C   UNL A   1      40.227  28.897  30.243  1.00  0.00     0.037 A 
ATOM     47  C   UNL A   1      39.636  33.097  35.830  1.00  0.00     0.037 A 
ATOM     48  C   UNL A   1      41.209  28.683  31.273  1.00  0.00     0.049 A 
ATOM     49  C   UNL A   1      40.682  32.017  35.751  1.00  0.00     0.074 A 
ATOM     50  C   UNL A   1      42.255  27.777  31.294  1.00  0.00     0.029 A 
ATOM     51  N   UNL A   1      41.261  29.381  32.471  1.00  0.00    -0.354 N 
ATOM     52  N   UNL A   1      40.937  31.181  34.775  1.00  0.00    -0.248 NA
ATOM     53  C   UNL A   1      41.561  31.865  36.917  1.00  0.00     0.031 C 
ATOM     54  C   UNL A   1      42.901  27.885  32.529  1.00  0.00     0.029 A 
ATOM     55  C   UNL A   1      42.303  28.905  33.252  1.00  0.00     0.049 A 
ATOM     56  H   UNL A   1      40.648  30.107  32.729  1.00  0.00     0.167 HD
ATOM     57  C   UNL A   1      42.022  30.423  35.194  1.00  0.00     0.074 A 
ATOM     58  C   UNL A   1      42.391  30.918  36.504  1.00  0.00     0.031 C 
ATOM     59  C   UNL A   1      42.657  29.410  34.554  1.00  0.00     0.037 A 
BRANCH  46  60
ATOM     60  C   UNL A   1      40.257  28.009  29.031  1.00  0.00     0.064 A 
ATOM     61  C   UNL A   1      40.997  28.346  27.886  1.00  0.00     0.173 A 
ATOM     62  C   UNL A   1      39.565  26.789  29.025  1.00  0.00     0.173 A 
ATOM     63  F   UNL A   1      41.667  29.507  27.832  1.00  0.00    -0.203 F 
ATOM     64  C   UNL A   1      41.015  27.511  26.772  1.00  0.00     0.198 A 
ATOM     65  C   UNL A   1      39.614  25.939  27.923  1.00  0.00     0.198 A 
ATOM     66  F   UNL A   1      38.844  26.414  30.094  1.00  0.00    -0.203 F 
ATOM     67  F   UNL A   1      41.683  27.881  25.670  1.00  0.00    -0.200 F 
ATOM     68  C   UNL A   1      40.332  26.305  26.794  1.00  0.00     0.200 A 
ATOM     69  F   UNL A   1      38.966  24.767  27.953  1.00  0.00    -0.200 F 
ATOM     70  F   UNL A   1      40.359  25.498  25.725  1.00  0.00    -0.200 F 
ENDBRANCH  46  60
BRANCH  47  71
ATOM     71  C   UNL A   1      39.522  33.965  37.033  1.00  0.00     0.064 A 
ATOM     72  C   UNL A   1      38.772  33.562  38.146  1.00  0.00     0.173 A 
ATOM     73  C   UNL A   1      40.149  35.219  37.090  1.00  0.00     0.173 A 
ATOM     74  F   UNL A   1      38.139  32.380  38.135  1.00  0.00    -0.203 F 
ATOM     75  C   UNL A   1      38.630  34.391  39.258  1.00  0.00     0.198 A 
ATOM     76  C   UNL A   1      40.034  36.032  38.215  1.00  0.00     0.198 A 
ATOM     77  F   UNL A   1      40.884  35.650  36.055  1.00  0.00    -0.203 F 
ATOM     78  F   UNL A   1      37.861  34.003  40.285  1.00  0.00    -0.200 F 
ATOM     79  C   UNL A   1      39.264  35.622  39.294  1.00  0.00     0.200 A 
ATOM     80  F   UNL A   1      40.665  37.213  38.252  1.00  0.00    -0.200 F 
ATOM     81  F   UNL A   1      39.130  36.418  40.364  1.00  0.00    -0.200 F 
ENDBRANCH  47  71
BRANCH  59  82
ATOM     82  C   UNL A   1      43.840  28.793  35.248  1.00  0.00     0.064 A 
ATOM     83  C   UNL A   1      43.699  27.712  36.131  1.00  0.00     0.173 A 
ATOM     84  C   UNL A   1      45.134  29.277  35.005  1.00  0.00     0.173 A 
ATOM     85  F   UNL A   1      42.482  27.220  36.408  1.00  0.00    -0.203 F 
ATOM     86  C   UNL A   1      44.806  27.163  36.773  1.00  0.00     0.198 A 
ATOM     87  C   UNL A   1      46.243  28.701  35.619  1.00  0.00     0.198 A 
ATOM     88  F   UNL A   1      45.327  30.303  34.162  1.00  0.00    -0.203 F 
ATOM     89  F   UNL A   1      44.639  26.173  37.661  1.00  0.00    -0.200 F 
ATOM     90  C   UNL A   1      46.077  27.654  36.512  1.00  0.00     0.200 A 
ATOM     91  F   UNL A   1      47.472  29.164  35.351  1.00  0.00    -0.200 F 
ATOM     92  F   UNL A   1      47.141  27.121  37.128  1.00  0.00    -0.200 F 
ENDBRANCH  59  82
ENDBRANCH  33  34
ENDBRANCH  25  28
ENDBRANCH  23  24
ENDBRANCH  22  23
ENDBRANCH   1  22
TORSDOF 14
ENDMDL
MODEL 3
REMARK VINA RESULT:     -12.4      0.836      1.502
REMARK SMILES O=C1NC[C@@H](CSc2ccnc(C(=O)NCCCCNC(=O)c3ccc(-c4c5nc(c(-c6c(F)c(F)c(F)c(F)c6F)c6ccc([nH]6)c(-c6c(F)c(F)c(F)c(F)c6F)c6nc(c(-c7c(F)c(F)c(F)c(F)c7F)c7ccc4[nH]7)C=C6)C=C5)cc3)c2)O1
REMARK SMILES IDX 17 1 16 2 15 3 13 4 14 5 12 7 8 8 9 9 86 10 10 11 11 12 7 13
REMARK SMILES IDX 6 14 5 15 1 16 2 17 3 18 87 19 4 20 18 22 19 23 20 24 21 25
REMARK SMILES IDX 22 27 23 28 24 29 85 30 25 31 84 32 26 33 27 34 28 35 78 36
REMARK SMILES IDX 29 37 83 38 77 39 79 40 30 41 82 42 76 43 75 44 31 46 63 47
REMARK SMILES IDX 43 48 62 49 44 50 47 51 61 52 80 53 45 54 46 55 60 57 81 58
REMARK SMILES IDX 48 59 32 60 33 61 41 62 34 63 35 64 39 65 42 66 36 67 37 68
REMARK SMILES IDX 40 69 38 70 64 71 65 72 73 73 66 74 67 75 71 76 74 77 68 78
REMARK SMILES IDX 69 79 72 80 70 81 49 82 50 83 58 84 51 85 52 86 56 87 59 88
REMARK SMILES IDX 53 89 54 90 57 91 55 92
REMARK H PARENT 15 6 3 21 20 26 79 45 47 56
REMARK Flexibility Score: inf
ROOT
ATOM      1  C   UNL A   1      31.604  30.586  26.638  1.00  0.00     0.023 C 
ENDROOT
BRANCH   1   2
ATOM      2  C   UNL A   1      33.043  30.103  26.830  1.00  0.00     0.116 C 
BRANCH   2   3
ATOM      3  N   UNL A   1      33.614  29.781  25.538  1.00  0.00    -0.351 N 
ATOM      4  C   UNL A   1      33.224  28.907  24.546  1.00  0.00     0.269 C 
ATOM      5  O   UNL A   1      34.000  28.766  23.599  1.00  0.00    -0.268 OA
ATOM      6  H   UNL A   1      34.435  30.281  25.328  1.00  0.00     0.163 HD
BRANCH   4   7
ATOM      7  C   UNL A   1      31.889  28.215  24.542  1.00  0.00     0.129 A 
ATOM      8  C   UNL A   1      29.672  27.869  23.724  1.00  0.00     0.011 A 
ATOM      9  C   UNL A   1      29.729  26.570  24.217  1.00  0.00     0.035 A 
ATOM     10  C   UNL A   1      30.752  28.724  23.929  1.00  0.00     0.049 A 
ATOM     11  C   UNL A   1      30.834  26.196  24.952  1.00  0.00     0.113 A 
ATOM     12  N   UNL A   1      31.911  26.983  25.113  1.00  0.00    -0.251 NA
BRANCH   8  13
ATOM     13  S   UNL A   1      28.331  28.356  22.661  1.00  0.00    -0.122 SA
BRANCH  13  14
ATOM     14  C   UNL A   1      27.747  29.906  23.446  1.00  0.00     0.122 C 
BRANCH  14  15
ATOM     15  C   UNL A   1      27.527  31.118  22.530  1.00  0.00     0.208 C 
ATOM     16  O   UNL A   1      29.295  33.993  23.258  1.00  0.00    -0.225 OA
ATOM     17  C   UNL A   1      28.796  32.990  22.773  1.00  0.00     0.407 C 
ATOM     18  N   UNL A   1      29.271  32.340  21.674  1.00  0.00    -0.318 N 
ATOM     19  O   UNL A   1      27.685  32.358  23.246  1.00  0.00    -0.443 OA
ATOM     20  C   UNL A   1      28.462  31.223  21.342  1.00  0.00     0.165 C 
ATOM     21  H   UNL A   1      30.074  32.611  21.174  1.00  0.00     0.167 HD
ENDBRANCH  14  15
ENDBRANCH  13  14
ENDBRANCH   8  13
ENDBRANCH   4   7
ENDBRANCH   2   3
ENDBRANCH   1   2
BRANCH   1  22
ATOM     22  C   UNL A   1      31.464  32.110  26.697  1.00  0.00     0.023 C 
BRANCH  22  23
ATOM     23  C   UNL A   1      32.673  32.832  27.281  1.00  0.00     0.116 C 
BRANCH  23  24
ATOM     24  N   UNL A   1      32.388  34.210  27.650  1.00  0.00    -0.352 N 
ATOM     25  C   UNL A   1      33.004  34.979  28.605  1.00  0.00     0.251 C 
ATOM     26  H   UNL A   1      31.661  34.646  27.152  1.00  0.00     0.163 HD
ATOM     27  O   UNL A   1      32.563  36.084  28.899  1.00  0.00    -0.269 OA
BRANCH  25  28
ATOM     28  C   UNL A   1      34.183  34.436  29.304  1.00  0.00     0.039 A 
ATOM     29  C   UNL A   1      33.991  33.699  30.472  1.00  0.00     0.014 A 
ATOM     30  C   UNL A   1      35.463  34.610  28.772  1.00  0.00     0.014 A 
ATOM     31  C   UNL A   1      35.084  33.085  31.079  1.00  0.00     0.010 A 
ATOM     32  C   UNL A   1      36.537  33.926  29.329  1.00  0.00     0.010 A 
ATOM     33  C   UNL A   1      36.360  33.163  30.492  1.00  0.00    -0.014 A 
BRANCH  33  34
ATOM     34  C   UNL A   1      37.512  32.447  31.090  1.00  0.00     0.031 A 
ATOM     35  C   UNL A   1      38.007  32.820  32.459  1.00  0.00     0.074 A 
ATOM     36  C   UNL A   1      38.136  31.487  30.379  1.00  0.00     0.049 A 
ATOM     37  N   UNL A   1      38.998  32.312  33.146  1.00  0.00    -0.248 NA
ATOM     38  C   UNL A   1      37.316  33.929  33.135  1.00  0.00     0.031 C 
ATOM     39  C   UNL A   1      37.784  31.082  29.017  1.00  0.00     0.029 A 
ATOM     40  N   UNL A   1      39.194  30.677  30.704  1.00  0.00    -0.354 N 
ATOM     41  C   UNL A   1      39.050  33.039  34.328  1.00  0.00     0.074 A 
ATOM     42  C   UNL A   1      38.039  34.069  34.236  1.00  0.00     0.031 C 
ATOM     43  C   UNL A   1      38.585  30.074  28.637  1.00  0.00     0.029 A 
ATOM     44  C   UNL A   1      39.532  29.789  29.712  1.00  0.00     0.049 A 
ATOM     45  H   UNL A   1      39.667  30.726  31.566  1.00  0.00     0.167 HD
ATOM     46  C   UNL A   1      39.849  32.847  35.403  1.00  0.00     0.037 A 
ATOM     47  C   UNL A   1      40.498  28.852  29.674  1.00  0.00     0.037 A 
ATOM     48  C   UNL A   1      40.844  31.810  35.492  1.00  0.00     0.049 A 
ATOM     49  C   UNL A   1      41.379  28.665  30.881  1.00  0.00     0.074 A 
ATOM     50  C   UNL A   1      41.667  31.493  36.558  1.00  0.00     0.029 A 
ATOM     51  N   UNL A   1      41.156  30.926  34.469  1.00  0.00    -0.354 N 
ATOM     52  N   UNL A   1      41.362  29.304  32.025  1.00  0.00    -0.248 NA
ATOM     53  C   UNL A   1      42.406  27.620  30.792  1.00  0.00     0.031 C 
ATOM     54  C   UNL A   1      42.518  30.458  36.160  1.00  0.00     0.029 A 
ATOM     55  C   UNL A   1      42.180  30.082  34.869  1.00  0.00     0.049 A 
ATOM     56  H   UNL A   1      40.715  30.902  33.590  1.00  0.00     0.167 HD
ATOM     57  C   UNL A   1      42.353  28.719  32.803  1.00  0.00     0.074 A 
ATOM     58  C   UNL A   1      42.934  27.659  32.006  1.00  0.00     0.031 C 
ATOM     59  C   UNL A   1      42.747  29.031  34.063  1.00  0.00     0.037 A 
BRANCH  46  60
ATOM     60  C   UNL A   1      39.678  33.776  36.572  1.00  0.00     0.064 A 
ATOM     61  C   UNL A   1      38.873  33.438  37.672  1.00  0.00     0.173 A 
ATOM     62  C   UNL A   1      40.353  35.004  36.611  1.00  0.00     0.173 A 
ATOM     63  F   UNL A   1      38.194  32.280  37.683  1.00  0.00    -0.203 F 
ATOM     64  C   UNL A   1      38.726  34.309  38.748  1.00  0.00     0.198 A 
ATOM     65  C   UNL A   1      40.232  35.858  37.705  1.00  0.00     0.198 A 
ATOM     66  F   UNL A   1      41.139  35.378  35.588  1.00  0.00    -0.203 F 
ATOM     67  F   UNL A   1      37.908  33.988  39.760  1.00  0.00    -0.200 F 
ATOM     68  C   UNL A   1      39.412  35.513  38.768  1.00  0.00     0.200 A 
ATOM     69  F   UNL A   1      40.908  37.014  37.728  1.00  0.00    -0.200 F 
ATOM     70  F   UNL A   1      39.277  36.346  39.809  1.00  0.00    -0.200 F 
ENDBRANCH  46  60
BRANCH  47  71
ATOM     71  C   UNL A   1      40.665  28.000  28.466  1.00  0.00     0.064 A 
ATOM     72  C   UNL A   1      41.449  28.427  27.385  1.00  0.00     0.173 A 
ATOM     73  C   UNL A   1      40.037  26.751  28.360  1.00  0.00     0.173 A 
ATOM     74  F   UNL A   1      42.058  29.621  27.428  1.00  0.00    -0.203 F 
ATOM     75  C   UNL A   1      41.575  27.650  26.234  1.00  0.00     0.198 A 
ATOM     76  C   UNL A   1      40.190  25.960  27.224  1.00  0.00     0.198 A 
ATOM     77  F   UNL A   1      39.282  26.292  29.369  1.00  0.00    -0.203 F 
ATOM     78  F   UNL A   1      42.285  28.108  25.194  1.00  0.00    -0.200 F 
ATOM     79  C   UNL A   1      40.950  26.415  26.157  1.00  0.00     0.200 A 
ATOM     80  F   UNL A   1      39.600  24.759  27.162  1.00  0.00    -0.200 F 
ATOM     81  F   UNL A   1      41.073  25.667  25.052  1.00  0.00    -0.200 F 
ENDBRANCH  47  71
BRANCH  59  82
ATOM     82  C   UNL A   1      43.835  28.190  34.670  1.00  0.00     0.064 A 
ATOM     83  C   UNL A   1      45.186  28.563  34.601  1.00  0.00     0.173 A 
ATOM     84  C   UNL A   1      43.517  27.006  35.353  1.00  0.00     0.173 A 
ATOM     85  F   UNL A   1      45.545  29.680  33.949  1.00  0.00    -0.203 F 
ATOM     86  C   UNL A   1      46.179  27.764  35.159  1.00  0.00     0.198 A 
ATOM     87  C   UNL A   1      44.510  26.229  35.943  1.00  0.00     0.198 A 
ATOM     88  F   UNL A   1      42.241  26.606  35.458  1.00  0.00    -0.203 F 
ATOM     89  F   UNL A   1      47.468  28.109  35.024  1.00  0.00    -0.200 F 
ATOM     90  C   UNL A   1      45.840  26.601  35.835  1.00  0.00     0.200 A 
ATOM     91  F   UNL A   1      44.178  25.115  36.612  1.00  0.00    -0.200 F 
ATOM     92  F   UNL A   1      46.799  25.836  36.375  1.00  0.00    -0.200 F 
ENDBRANCH  59  82
ENDBRANCH  33  34
ENDBRANCH  25  28
ENDBRANCH  23  24
ENDBRANCH  22  23
ENDBRANCH   1  22
TORSDOF 14
ENDMDL
