MODEL 1
REMARK VINA RESULT:     -12.9      0.000      0.000
REMARK SMILES C[C@H]1[C@H](C(=O)NCCCCNC(=O)c2ccc(-c3c4nc(c(-c5c(F)c(F)c(F)c(F)c5F)c5ccc([nH]5)c(-c5c(F)c(F)c(F)c(F)c5F)c5nc(c(-c6c(F)c(F)c(F)c(F)c6F)c6ccc3[nH]6)C=C5)C=C4)cc2)CC[N@@H+]1Cc1ccc(C(F)(F)F)cc1
REMARK SMILES IDX 8 1 7 2 6 3 4 4 5 5 3 7 1 8 2 9 79 10 77 11 78 12 80 14
REMARK SMILES IDX 81 15 82 16 90 17 83 18 89 19 84 20 85 21 86 22 87 23 88 24
REMARK SMILES IDX 9 25 10 26 11 27 12 28 13 30 14 31 15 32 76 33 16 34 75 35
REMARK SMILES IDX 17 36 18 37 19 38 69 39 20 40 74 41 68 42 70 43 21 44 73 45
REMARK SMILES IDX 67 46 66 47 22 49 54 50 34 51 53 52 35 53 38 54 52 55 71 56
REMARK SMILES IDX 36 57 37 58 51 60 72 61 39 62 23 63 24 64 32 65 25 66 26 67
REMARK SMILES IDX 30 68 33 69 27 70 28 71 31 72 29 73 55 74 56 75 64 76 57 77
REMARK SMILES IDX 58 78 62 79 65 80 59 81 60 82 63 83 61 84 40 85 41 86 49 87
REMARK SMILES IDX 42 88 43 89 47 90 50 91 44 92 45 93 48 94 46 95
REMARK H PARENT 6 6 79 13 11 29 70 48 38 59
REMARK Flexibility Score: inf
ROOT
ATOM      1  C   UNL A   1      31.864  27.991  27.113  1.00  0.00     0.023 C 
ENDROOT
BRANCH   1   2
ATOM      2  C   UNL A   1      31.160  26.956  26.227  1.00  0.00     0.116 C 
BRANCH   2   3
ATOM      3  N   UNL A   1      31.092  25.660  26.859  1.00  0.00    -0.356 N 
ATOM      4  C   UNL A   1      31.649  24.472  26.515  1.00  0.00     0.229 C 
ATOM      5  O   UNL A   1      31.447  23.535  27.297  1.00  0.00    -0.275 OA
ATOM      6  H   UNL A   1      30.548  25.633  27.678  1.00  0.00     0.163 HD
BRANCH   4   7
ATOM      7  C   UNL A   1      32.543  24.243  25.299  1.00  0.00     0.142 C 
ATOM      8  C   UNL A   1      31.776  22.584  23.577  1.00  0.00     0.076 C 
ATOM      9  C   UNL A   1      31.922  24.077  23.900  1.00  0.00     0.193 C 
ATOM     10  N   UNL A   1      32.891  24.666  22.950  1.00  0.00    -0.328 N 
ATOM     11  C   UNL A   1      33.629  25.289  25.107  1.00  0.00     0.081 C 
ATOM     12  C   UNL A   1      34.106  24.976  23.697  1.00  0.00     0.263 C 
ATOM     13  H   UNL A   1      33.099  23.964  22.240  1.00  0.00     0.348 HD
BRANCH  10  14
ATOM     14  C   UNL A   1      32.408  25.687  22.002  1.00  0.00     0.299 C 
BRANCH  14  15
ATOM     15  C   UNL A   1      31.590  26.858  22.528  1.00  0.00     0.006 A 
ATOM     16  C   UNL A   1      32.192  28.101  22.767  1.00  0.00     0.010 A 
ATOM     17  C   UNL A   1      30.224  26.740  22.820  1.00  0.00     0.010 A 
ATOM     18  C   UNL A   1      31.415  29.217  23.099  1.00  0.00     0.013 A 
ATOM     19  C   UNL A   1      29.438  27.862  23.094  1.00  0.00     0.013 A 
ATOM     20  C   UNL A   1      30.022  29.127  23.181  1.00  0.00     0.056 A 
BRANCH  20  21
ATOM     21  C   UNL A   1      29.171  30.369  23.259  1.00  0.00     0.416 C 
ATOM     22  F   UNL A   1      29.161  31.101  22.113  1.00  0.00    -0.166 F 
ATOM     23  F   UNL A   1      27.862  30.060  23.505  1.00  0.00    -0.166 F 
ATOM     24  F   UNL A   1      29.537  31.225  24.253  1.00  0.00    -0.166 F 
ENDBRANCH  20  21
ENDBRANCH  14  15
ENDBRANCH  10  14
ENDBRANCH   4   7
ENDBRANCH   2   3
ENDBRANCH   1   2
BRANCH   1  25
ATOM     25  C   UNL A   1      31.404  29.440  26.904  1.00  0.00     0.023 C 
BRANCH  25  26
ATOM     26  C   UNL A   1      32.464  30.389  26.345  1.00  0.00     0.116 C 
BRANCH  26  27
ATOM     27  N   UNL A   1      32.437  31.719  26.929  1.00  0.00    -0.352 N 
ATOM     28  C   UNL A   1      33.432  32.406  27.599  1.00  0.00     0.251 C 
ATOM     29  H   UNL A   1      31.584  32.203  26.835  1.00  0.00     0.163 HD
ATOM     30  O   UNL A   1      33.221  33.533  28.007  1.00  0.00    -0.269 OA
BRANCH  28  31
ATOM     31  C   UNL A   1      34.718  31.731  27.896  1.00  0.00     0.039 A 
ATOM     32  C   UNL A   1      35.850  32.539  28.051  1.00  0.00     0.014 A 
ATOM     33  C   UNL A   1      34.805  30.356  28.111  1.00  0.00     0.014 A 
ATOM     34  C   UNL A   1      37.023  31.991  28.567  1.00  0.00     0.010 A 
ATOM     35  C   UNL A   1      35.954  29.820  28.687  1.00  0.00     0.010 A 
ATOM     36  C   UNL A   1      37.053  30.645  28.964  1.00  0.00    -0.014 A 
BRANCH  36  37
ATOM     37  C   UNL A   1      38.167  30.127  29.793  1.00  0.00     0.031 A 
ATOM     38  C   UNL A   1      38.363  30.592  31.202  1.00  0.00     0.074 A 
ATOM     39  C   UNL A   1      39.058  29.295  29.217  1.00  0.00     0.049 A 
ATOM     40  N   UNL A   1      39.303  30.266  32.052  1.00  0.00    -0.248 NA
ATOM     41  C   UNL A   1      37.394  31.567  31.717  1.00  0.00     0.031 C 
ATOM     42  C   UNL A   1      39.008  28.839  27.825  1.00  0.00     0.029 A 
ATOM     43  N   UNL A   1      40.183  28.694  29.720  1.00  0.00    -0.354 N 
ATOM     44  C   UNL A   1      39.041  30.997  33.201  1.00  0.00     0.074 A 
ATOM     45  C   UNL A   1      37.881  31.818  32.925  1.00  0.00     0.031 C 
ATOM     46  C   UNL A   1      40.042  28.015  27.593  1.00  0.00     0.029 A 
ATOM     47  C   UNL A   1      40.840  27.905  28.809  1.00  0.00     0.049 A 
ATOM     48  H   UNL A   1      40.492  28.818  30.648  1.00  0.00     0.167 HD
ATOM     49  C   UNL A   1      39.701  30.969  34.385  1.00  0.00     0.037 A 
ATOM     50  C   UNL A   1      41.962  27.174  28.939  1.00  0.00     0.037 A 
ATOM     51  C   UNL A   1      40.849  30.143  34.652  1.00  0.00     0.049 A 
ATOM     52  C   UNL A   1      42.660  27.142  30.268  1.00  0.00     0.074 A 
ATOM     53  C   UNL A   1      41.555  29.998  35.833  1.00  0.00     0.029 A 
ATOM     54  N   UNL A   1      41.466  29.324  33.715  1.00  0.00    -0.354 N 
ATOM     55  N   UNL A   1      42.352  27.770  31.376  1.00  0.00    -0.248 NA
ATOM     56  C   UNL A   1      43.855  26.295  30.369  1.00  0.00     0.031 C 
ATOM     57  C   UNL A   1      42.619  29.118  35.604  1.00  0.00     0.029 A 
ATOM     58  C   UNL A   1      42.554  28.685  34.289  1.00  0.00     0.049 A 
ATOM     59  H   UNL A   1      41.174  29.213  32.782  1.00  0.00     0.167 HD
ATOM     60  C   UNL A   1      43.296  27.377  32.313  1.00  0.00     0.074 A 
ATOM     61  C   UNL A   1      44.182  26.445  31.645  1.00  0.00     0.031 C 
ATOM     62  C   UNL A   1      43.420  27.756  33.608  1.00  0.00     0.037 A 
BRANCH  49  63
ATOM     63  C   UNL A   1      39.187  31.855  35.480  1.00  0.00     0.064 A 
ATOM     64  C   UNL A   1      38.349  31.359  36.489  1.00  0.00     0.173 A 
ATOM     65  C   UNL A   1      39.556  33.208  35.538  1.00  0.00     0.173 A 
ATOM     66  F   UNL A   1      37.958  30.076  36.472  1.00  0.00    -0.203 F 
ATOM     67  C   UNL A   1      37.874  32.191  37.500  1.00  0.00     0.198 A 
ATOM     68  C   UNL A   1      39.102  34.030  36.565  1.00  0.00     0.198 A 
ATOM     69  F   UNL A   1      40.361  33.730  34.601  1.00  0.00    -0.203 F 
ATOM     70  F   UNL A   1      37.037  31.705  38.427  1.00  0.00    -0.200 F 
ATOM     71  C   UNL A   1      38.255  33.523  37.541  1.00  0.00     0.200 A 
ATOM     72  F   UNL A   1      39.478  35.316  36.609  1.00  0.00    -0.200 F 
ATOM     73  F   UNL A   1      37.800  34.322  38.516  1.00  0.00    -0.200 F 
ENDBRANCH  49  63
BRANCH  50  74
ATOM     74  C   UNL A   1      42.465  26.380  27.789  1.00  0.00     0.064 A 
ATOM     75  C   UNL A   1      41.961  25.098  27.527  1.00  0.00     0.173 A 
ATOM     76  C   UNL A   1      43.443  26.888  26.921  1.00  0.00     0.173 A 
ATOM     77  F   UNL A   1      41.037  24.565  28.339  1.00  0.00    -0.203 F 
ATOM     78  C   UNL A   1      42.428  24.348  26.450  1.00  0.00     0.198 A 
ATOM     79  C   UNL A   1      43.892  26.145  25.831  1.00  0.00     0.198 A 
ATOM     80  F   UNL A   1      43.950  28.113  27.123  1.00  0.00    -0.203 F 
ATOM     81  F   UNL A   1      41.954  23.111  26.243  1.00  0.00    -0.200 F 
ATOM     82  C   UNL A   1      43.388  24.873  25.599  1.00  0.00     0.200 A 
ATOM     83  F   UNL A   1      44.809  26.662  25.003  1.00  0.00    -0.200 F 
ATOM     84  F   UNL A   1      43.832  24.153  24.561  1.00  0.00    -0.200 F 
ENDBRANCH  50  74
BRANCH  62  85
ATOM     85  C   UNL A   1      44.540  27.143  34.391  1.00  0.00     0.064 A 
ATOM     86  C   UNL A   1      45.799  27.754  34.472  1.00  0.00     0.173 A 
ATOM     87  C   UNL A   1      44.339  25.947  35.099  1.00  0.00     0.173 A 
ATOM     88  F   UNL A   1      46.042  28.888  33.797  1.00  0.00    -0.203 F 
ATOM     89  C   UNL A   1      46.825  27.180  35.216  1.00  0.00     0.198 A 
ATOM     90  C   UNL A   1      45.361  25.389  35.862  1.00  0.00     0.198 A 
ATOM     91  F   UNL A   1      43.151  25.327  35.054  1.00  0.00    -0.203 F 
ATOM     92  F   UNL A   1      48.033  27.759  35.246  1.00  0.00    -0.200 F 
ATOM     93  C   UNL A   1      46.603  26.002  35.915  1.00  0.00     0.200 A 
ATOM     94  F   UNL A   1      45.143  24.256  36.542  1.00  0.00    -0.200 F 
ATOM     95  F   UNL A   1      47.591  25.454  36.635  1.00  0.00    -0.200 F 
ENDBRANCH  62  85
ENDBRANCH  36  37
ENDBRANCH  28  31
ENDBRANCH  26  27
ENDBRANCH  25  26
ENDBRANCH   1  25
TORSDOF 14
ENDMDL
MODEL 2
REMARK VINA RESULT:     -12.9      0.081      1.585
REMARK SMILES C[C@H]1[C@H](C(=O)NCCCCNC(=O)c2ccc(-c3c4nc(c(-c5c(F)c(F)c(F)c(F)c5F)c5ccc([nH]5)c(-c5c(F)c(F)c(F)c(F)c5F)c5nc(c(-c6c(F)c(F)c(F)c(F)c6F)c6ccc3[nH]6)C=C5)C=C4)cc2)CC[N@@H+]1Cc1ccc(C(F)(F)F)cc1
REMARK SMILES IDX 8 1 7 2 6 3 4 4 5 5 3 7 1 8 2 9 79 10 77 11 78 12 80 14
REMARK SMILES IDX 81 15 82 16 90 17 83 18 89 19 84 20 85 21 86 22 87 23 88 24
REMARK SMILES IDX 9 25 10 26 11 27 12 28 13 30 14 31 15 32 76 33 16 34 75 35
REMARK SMILES IDX 17 36 18 37 19 38 69 39 20 40 74 41 68 42 70 43 21 44 73 45
REMARK SMILES IDX 67 46 66 47 22 49 54 50 34 51 53 52 35 53 38 54 52 55 71 56
REMARK SMILES IDX 36 57 37 58 51 60 72 61 39 62 23 63 24 64 32 65 25 66 26 67
REMARK SMILES IDX 30 68 33 69 27 70 28 71 31 72 29 73 55 74 56 75 64 76 57 77
REMARK SMILES IDX 58 78 62 79 65 80 59 81 60 82 63 83 61 84 40 85 41 86 49 87
REMARK SMILES IDX 42 88 43 89 47 90 50 91 44 92 45 93 48 94 46 95
REMARK H PARENT 6 6 79 13 11 29 70 48 38 59
REMARK Flexibility Score: inf
ROOT
ATOM      1  C   UNL A   1      31.827  28.111  27.150  1.00  0.00     0.023 C 
ENDROOT
BRANCH   1   2
ATOM      2  C   UNL A   1      31.174  27.065  26.239  1.00  0.00     0.116 C 
BRANCH   2   3
ATOM      3  N   UNL A   1      31.107  25.767  26.866  1.00  0.00    -0.356 N 
ATOM      4  C   UNL A   1      31.660  24.579  26.515  1.00  0.00     0.229 C 
ATOM      5  O   UNL A   1      31.460  23.639  27.295  1.00  0.00    -0.275 OA
ATOM      6  H   UNL A   1      30.566  25.738  27.688  1.00  0.00     0.163 HD
BRANCH   4   7
ATOM      7  C   UNL A   1      32.547  24.353  25.294  1.00  0.00     0.142 C 
ATOM      8  C   UNL A   1      31.778  22.687  23.579  1.00  0.00     0.076 C 
ATOM      9  C   UNL A   1      31.918  24.181  23.899  1.00  0.00     0.193 C 
ATOM     10  N   UNL A   1      32.878  24.774  22.942  1.00  0.00    -0.328 N 
ATOM     11  C   UNL A   1      33.627  25.404  25.094  1.00  0.00     0.081 C 
ATOM     12  C   UNL A   1      34.096  25.092  23.681  1.00  0.00     0.263 C 
ATOM     13  H   UNL A   1      33.086  24.072  22.232  1.00  0.00     0.348 HD
BRANCH  10  14
ATOM     14  C   UNL A   1      32.384  25.791  21.996  1.00  0.00     0.299 C 
BRANCH  14  15
ATOM     15  C   UNL A   1      31.568  26.961  22.526  1.00  0.00     0.006 A 
ATOM     16  C   UNL A   1      32.172  28.204  22.766  1.00  0.00     0.010 A 
ATOM     17  C   UNL A   1      30.202  26.845  22.820  1.00  0.00     0.010 A 
ATOM     18  C   UNL A   1      31.396  29.320  23.102  1.00  0.00     0.013 A 
ATOM     19  C   UNL A   1      29.418  27.967  23.098  1.00  0.00     0.013 A 
ATOM     20  C   UNL A   1      30.003  29.231  23.187  1.00  0.00     0.056 A 
BRANCH  20  21
ATOM     21  C   UNL A   1      29.153  30.474  23.270  1.00  0.00     0.416 C 
ATOM     22  F   UNL A   1      29.153  31.215  22.130  1.00  0.00    -0.166 F 
ATOM     23  F   UNL A   1      27.842  30.164  23.503  1.00  0.00    -0.166 F 
ATOM     24  F   UNL A   1      29.513  31.320  24.274  1.00  0.00    -0.166 F 
ENDBRANCH  20  21
ENDBRANCH  14  15
ENDBRANCH  10  14
ENDBRANCH   4   7
ENDBRANCH   2   3
ENDBRANCH   1   2
BRANCH   1  25
ATOM     25  C   UNL A   1      31.403  29.560  26.878  1.00  0.00     0.023 C 
BRANCH  25  26
ATOM     26  C   UNL A   1      32.511  30.482  26.368  1.00  0.00     0.116 C 
BRANCH  26  27
ATOM     27  N   UNL A   1      32.496  31.811  26.957  1.00  0.00    -0.352 N 
ATOM     28  C   UNL A   1      33.498  32.487  27.626  1.00  0.00     0.251 C 
ATOM     29  H   UNL A   1      31.647  32.301  26.865  1.00  0.00     0.163 HD
ATOM     30  O   UNL A   1      33.296  33.614  28.038  1.00  0.00    -0.269 OA
BRANCH  28  31
ATOM     31  C   UNL A   1      34.779  31.801  27.920  1.00  0.00     0.039 A 
ATOM     32  C   UNL A   1      35.918  32.599  28.071  1.00  0.00     0.014 A 
ATOM     33  C   UNL A   1      34.853  30.425  28.134  1.00  0.00     0.014 A 
ATOM     34  C   UNL A   1      37.088  32.040  28.583  1.00  0.00     0.010 A 
ATOM     35  C   UNL A   1      36.000  29.879  28.707  1.00  0.00     0.010 A 
ATOM     36  C   UNL A   1      37.107  30.695  28.980  1.00  0.00    -0.014 A 
BRANCH  36  37
ATOM     37  C   UNL A   1      38.219  30.167  29.805  1.00  0.00     0.031 A 
ATOM     38  C   UNL A   1      38.419  30.624  31.217  1.00  0.00     0.074 A 
ATOM     39  C   UNL A   1      39.105  29.334  29.225  1.00  0.00     0.049 A 
ATOM     40  N   UNL A   1      39.358  30.289  32.064  1.00  0.00    -0.248 NA
ATOM     41  C   UNL A   1      37.455  31.602  31.738  1.00  0.00     0.031 C 
ATOM     42  C   UNL A   1      39.052  28.884  27.831  1.00  0.00     0.029 A 
ATOM     43  N   UNL A   1      40.228  28.725  29.724  1.00  0.00    -0.354 N 
ATOM     44  C   UNL A   1      39.101  31.016  33.217  1.00  0.00     0.074 A 
ATOM     45  C   UNL A   1      37.945  31.845  32.946  1.00  0.00     0.031 C 
ATOM     46  C   UNL A   1      40.081  28.057  27.594  1.00  0.00     0.029 A 
ATOM     47  C   UNL A   1      40.880  27.937  28.808  1.00  0.00     0.049 A 
ATOM     48  H   UNL A   1      40.538  28.842  30.652  1.00  0.00     0.167 HD
ATOM     49  C   UNL A   1      39.761  30.979  34.400  1.00  0.00     0.037 A 
ATOM     50  C   UNL A   1      41.999  27.199  28.933  1.00  0.00     0.037 A 
ATOM     51  C   UNL A   1      40.906  30.146  34.661  1.00  0.00     0.049 A 
ATOM     52  C   UNL A   1      42.698  27.158  30.262  1.00  0.00     0.074 A 
ATOM     53  C   UNL A   1      41.612  29.992  35.842  1.00  0.00     0.029 A 
ATOM     54  N   UNL A   1      41.518  29.329  33.721  1.00  0.00    -0.354 N 
ATOM     55  N   UNL A   1      42.393  27.781  31.373  1.00  0.00    -0.248 NA
ATOM     56  C   UNL A   1      43.888  26.303  30.358  1.00  0.00     0.031 C 
ATOM     57  C   UNL A   1      42.672  29.107  35.607  1.00  0.00     0.029 A 
ATOM     58  C   UNL A   1      42.603  28.681  34.290  1.00  0.00     0.049 A 
ATOM     59  H   UNL A   1      41.225  29.224  32.788  1.00  0.00     0.167 HD
ATOM     60  C   UNL A   1      43.337  27.379  32.307  1.00  0.00     0.074 A 
ATOM     61  C   UNL A   1      44.217  26.446  31.634  1.00  0.00     0.031 C 
ATOM     62  C   UNL A   1      43.464  27.752  33.604  1.00  0.00     0.037 A 
BRANCH  49  63
ATOM     63  C   UNL A   1      39.254  31.862  35.499  1.00  0.00     0.064 A 
ATOM     64  C   UNL A   1      39.619  33.215  35.579  1.00  0.00     0.173 A 
ATOM     65  C   UNL A   1      38.372  31.362  36.471  1.00  0.00     0.173 A 
ATOM     66  F   UNL A   1      40.468  33.738  34.681  1.00  0.00    -0.203 F 
ATOM     67  C   UNL A   1      39.145  34.026  36.606  1.00  0.00     0.198 A 
ATOM     68  C   UNL A   1      37.880  32.183  37.481  1.00  0.00     0.198 A 
ATOM     69  F   UNL A   1      37.987  30.078  36.436  1.00  0.00    -0.203 F 
ATOM     70  F   UNL A   1      39.545  35.303  36.688  1.00  0.00    -0.200 F 
ATOM     71  C   UNL A   1      38.272  33.512  37.552  1.00  0.00     0.200 A 
ATOM     72  F   UNL A   1      37.028  31.688  38.390  1.00  0.00    -0.200 F 
ATOM     73  F   UNL A   1      37.814  34.295  38.539  1.00  0.00    -0.200 F 
ENDBRANCH  49  63
BRANCH  50  74
ATOM     74  C   UNL A   1      42.496  26.408  27.779  1.00  0.00     0.064 A 
ATOM     75  C   UNL A   1      43.468  26.934  26.916  1.00  0.00     0.173 A 
ATOM     76  C   UNL A   1      42.027  25.112  27.522  1.00  0.00     0.173 A 
ATOM     77  F   UNL A   1      43.936  28.175  27.113  1.00  0.00    -0.203 F 
ATOM     78  C   UNL A   1      43.940  26.199  25.830  1.00  0.00     0.198 A 
ATOM     79  C   UNL A   1      42.517  24.370  26.449  1.00  0.00     0.198 A 
ATOM     80  F   UNL A   1      41.104  24.562  28.324  1.00  0.00    -0.203 F 
ATOM     81  F   UNL A   1      44.844  26.739  25.001  1.00  0.00    -0.200 F 
ATOM     82  C   UNL A   1      43.469  24.916  25.601  1.00  0.00     0.200 A 
ATOM     83  F   UNL A   1      42.069  23.124  26.240  1.00  0.00    -0.200 F 
ATOM     84  F   UNL A   1      43.927  24.208  24.561  1.00  0.00    -0.200 F 
ENDBRANCH  50  74
BRANCH  62  85
ATOM     85  C   UNL A   1      44.581  27.128  34.383  1.00  0.00     0.064 A 
ATOM     86  C   UNL A   1      45.844  27.733  34.464  1.00  0.00     0.173 A 
ATOM     87  C   UNL A   1      44.375  25.931  35.086  1.00  0.00     0.173 A 
ATOM     88  F   UNL A   1      46.093  28.868  33.794  1.00  0.00    -0.203 F 
ATOM     89  C   UNL A   1      46.868  27.150  35.205  1.00  0.00     0.198 A 
ATOM     90  C   UNL A   1      45.394  25.364  35.845  1.00  0.00     0.198 A 
ATOM     91  F   UNL A   1      43.183  25.318  35.041  1.00  0.00    -0.203 F 
ATOM     92  F   UNL A   1      48.079  27.721  35.235  1.00  0.00    -0.200 F 
ATOM     93  C   UNL A   1      46.640  25.970  35.899  1.00  0.00     0.200 A 
ATOM     94  F   UNL A   1      45.171  24.229  36.522  1.00  0.00    -0.200 F 
ATOM     95  F   UNL A   1      47.626  25.413  36.616  1.00  0.00    -0.200 F 
ENDBRANCH  62  85
ENDBRANCH  36  37
ENDBRANCH  28  31
ENDBRANCH  26  27
ENDBRANCH  25  26
ENDBRANCH   1  25
TORSDOF 14
ENDMDL
MODEL 3
REMARK VINA RESULT:     -12.7      2.577      8.042
REMARK SMILES C[C@H]1[C@H](C(=O)NCCCCNC(=O)c2ccc(-c3c4nc(c(-c5c(F)c(F)c(F)c(F)c5F)c5ccc([nH]5)c(-c5c(F)c(F)c(F)c(F)c5F)c5nc(c(-c6c(F)c(F)c(F)c(F)c6F)c6ccc3[nH]6)C=C5)C=C4)cc2)CC[N@@H+]1Cc1ccc(C(F)(F)F)cc1
REMARK SMILES IDX 8 1 7 2 6 3 4 4 5 5 3 7 1 8 2 9 79 10 77 11 78 12 80 14
REMARK SMILES IDX 81 15 82 16 90 17 83 18 89 19 84 20 85 21 86 22 87 23 88 24
REMARK SMILES IDX 9 25 10 26 11 27 12 28 13 30 14 31 15 32 76 33 16 34 75 35
REMARK SMILES IDX 17 36 18 37 19 38 69 39 20 40 74 41 68 42 70 43 21 44 73 45
REMARK SMILES IDX 67 46 66 47 22 49 54 50 34 51 53 52 35 53 38 54 52 55 71 56
REMARK SMILES IDX 36 57 37 58 51 60 72 61 39 62 23 63 24 64 32 65 25 66 26 67
REMARK SMILES IDX 30 68 33 69 27 70 28 71 31 72 29 73 55 74 56 75 64 76 57 77
REMARK SMILES IDX 58 78 62 79 65 80 59 81 60 82 63 83 61 84 40 85 41 86 49 87
REMARK SMILES IDX 42 88 43 89 47 90 50 91 44 92 45 93 48 94 46 95
REMARK H PARENT 6 6 79 13 11 29 70 48 38 59
REMARK Flexibility Score: inf
ROOT
ATOM      1  C   UNL A   1      31.160  27.269  26.174  1.00  0.00     0.023 C 
ENDROOT
BRANCH   1   2
ATOM      2  C   UNL A   1      31.934  25.948  26.116  1.00  0.00     0.116 C 
BRANCH   2   3
ATOM      3  N   UNL A   1      31.322  24.926  26.931  1.00  0.00    -0.356 N 
ATOM      4  C   UNL A   1      31.009  23.635  26.654  1.00  0.00     0.229 C 
ATOM      5  O   UNL A   1      30.531  22.982  27.591  1.00  0.00    -0.275 OA
ATOM      6  H   UNL A   1      31.092  25.214  27.843  1.00  0.00     0.163 HD
BRANCH   4   7
ATOM      7  C   UNL A   1      31.270  22.937  25.322  1.00  0.00     0.142 C 
ATOM      8  C   UNL A   1      30.489  24.083  23.228  1.00  0.00     0.076 C 
ATOM      9  C   UNL A   1      31.712  23.753  24.093  1.00  0.00     0.193 C 
ATOM     10  N   UNL A   1      32.607  22.867  23.316  1.00  0.00    -0.328 N 
ATOM     11  C   UNL A   1      32.265  21.791  25.392  1.00  0.00     0.081 C 
ATOM     12  C   UNL A   1      32.542  21.539  23.917  1.00  0.00     0.263 C 
ATOM     13  H   UNL A   1      32.251  22.824  22.361  1.00  0.00     0.348 HD
BRANCH  10  14
ATOM     14  C   UNL A   1      33.942  23.372  22.947  1.00  0.00     0.299 C 
BRANCH  14  15
ATOM     15  C   UNL A   1      35.055  23.350  23.985  1.00  0.00     0.006 A 
ATOM     16  C   UNL A   1      36.188  22.545  23.802  1.00  0.00     0.010 A 
ATOM     17  C   UNL A   1      34.986  24.100  25.167  1.00  0.00     0.010 A 
ATOM     18  C   UNL A   1      37.280  22.642  24.673  1.00  0.00     0.013 A 
ATOM     19  C   UNL A   1      36.094  24.243  26.006  1.00  0.00     0.013 A 
ATOM     20  C   UNL A   1      37.276  23.554  25.734  1.00  0.00     0.056 A 
BRANCH  20  21
ATOM     21  C   UNL A   1      38.543  23.857  26.495  1.00  0.00     0.416 C 
ATOM     22  F   UNL A   1      39.400  24.676  25.828  1.00  0.00    -0.166 F 
ATOM     23  F   UNL A   1      38.273  24.495  27.673  1.00  0.00    -0.166 F 
ATOM     24  F   UNL A   1      39.260  22.750  26.833  1.00  0.00    -0.166 F 
ENDBRANCH  20  21
ENDBRANCH  14  15
ENDBRANCH  10  14
ENDBRANCH   4   7
ENDBRANCH   2   3
ENDBRANCH   1   2
BRANCH   1  25
ATOM     25  C   UNL A   1      31.752  28.324  27.119  1.00  0.00     0.023 C 
BRANCH  25  26
ATOM     26  C   UNL A   1      32.713  29.320  26.468  1.00  0.00     0.116 C 
BRANCH  26  27
ATOM     27  N   UNL A   1      32.536  30.692  26.913  1.00  0.00    -0.352 N 
ATOM     28  C   UNL A   1      33.462  31.569  27.447  1.00  0.00     0.251 C 
ATOM     29  H   UNL A   1      31.623  31.050  26.822  1.00  0.00     0.163 HD
ATOM     30  O   UNL A   1      33.122  32.697  27.749  1.00  0.00    -0.269 OA
BRANCH  28  31
ATOM     31  C   UNL A   1      34.838  31.099  27.734  1.00  0.00     0.039 A 
ATOM     32  C   UNL A   1      35.813  32.073  27.980  1.00  0.00     0.014 A 
ATOM     33  C   UNL A   1      35.154  29.746  27.851  1.00  0.00     0.014 A 
ATOM     34  C   UNL A   1      37.053  31.692  28.491  1.00  0.00     0.010 A 
ATOM     35  C   UNL A   1      36.367  29.370  28.422  1.00  0.00     0.010 A 
ATOM     36  C   UNL A   1      37.305  30.344  28.791  1.00  0.00    -0.014 A 
BRANCH  36  37
ATOM     37  C   UNL A   1      38.476  29.960  29.613  1.00  0.00     0.031 A 
ATOM     38  C   UNL A   1      39.477  28.964  29.116  1.00  0.00     0.074 A 
ATOM     39  C   UNL A   1      38.572  30.461  30.861  1.00  0.00     0.049 A 
ATOM     40  N   UNL A   1      40.538  28.493  29.720  1.00  0.00    -0.248 NA
ATOM     41  C   UNL A   1      39.243  28.404  27.778  1.00  0.00     0.031 C 
ATOM     42  C   UNL A   1      37.610  31.380  31.477  1.00  0.00     0.029 A 
ATOM     43  N   UNL A   1      39.511  30.262  31.840  1.00  0.00    -0.354 N 
ATOM     44  C   UNL A   1      41.098  27.580  28.838  1.00  0.00     0.074 A 
ATOM     45  C   UNL A   1      40.234  27.529  27.677  1.00  0.00     0.031 C 
ATOM     46  C   UNL A   1      38.020  31.680  32.719  1.00  0.00     0.029 A 
ATOM     47  C   UNL A   1      39.256  30.958  32.996  1.00  0.00     0.049 A 
ATOM     48  H   UNL A   1      40.294  29.676  31.725  1.00  0.00     0.167 HD
ATOM     49  C   UNL A   1      42.240  26.865  28.981  1.00  0.00     0.037 A 
ATOM     50  C   UNL A   1      39.944  31.008  34.152  1.00  0.00     0.037 A 
ATOM     51  C   UNL A   1      43.095  26.929  30.137  1.00  0.00     0.049 A 
ATOM     52  C   UNL A   1      41.218  30.224  34.275  1.00  0.00     0.074 A 
ATOM     53  C   UNL A   1      44.303  26.289  30.356  1.00  0.00     0.029 A 
ATOM     54  N   UNL A   1      42.827  27.676  31.276  1.00  0.00    -0.354 N 
ATOM     55  N   UNL A   1      41.787  29.431  33.399  1.00  0.00    -0.248 NA
ATOM     56  C   UNL A   1      41.953  30.347  35.540  1.00  0.00     0.031 C 
ATOM     57  C   UNL A   1      44.749  26.621  31.642  1.00  0.00     0.029 A 
ATOM     58  C   UNL A   1      43.838  27.498  32.208  1.00  0.00     0.049 A 
ATOM     59  H   UNL A   1      42.036  28.247  31.404  1.00  0.00     0.167 HD
ATOM     60  C   UNL A   1      42.955  28.980  33.995  1.00  0.00     0.074 A 
ATOM     61  C   UNL A   1      43.022  29.599  35.303  1.00  0.00     0.031 C 
ATOM     62  C   UNL A   1      43.888  28.128  33.503  1.00  0.00     0.037 A 
BRANCH  49  63
ATOM     63  C   UNL A   1      42.629  25.958  27.853  1.00  0.00     0.064 A 
ATOM     64  C   UNL A   1      42.145  24.643  27.771  1.00  0.00     0.173 A 
ATOM     65  C   UNL A   1      43.474  26.412  26.828  1.00  0.00     0.173 A 
ATOM     66  F   UNL A   1      41.345  24.158  28.732  1.00  0.00    -0.203 F 
ATOM     67  C   UNL A   1      42.516  23.807  26.721  1.00  0.00     0.198 A 
ATOM     68  C   UNL A   1      43.820  25.581  25.766  1.00  0.00     0.198 A 
ATOM     69  F   UNL A   1      43.958  27.662  26.855  1.00  0.00    -0.203 F 
ATOM     70  F   UNL A   1      42.078  22.541  26.689  1.00  0.00    -0.200 F 
ATOM     71  C   UNL A   1      43.347  24.277  25.717  1.00  0.00     0.200 A 
ATOM     72  F   UNL A   1      44.617  26.040  24.790  1.00  0.00    -0.200 F 
ATOM     73  F   UNL A   1      43.701  23.473  24.706  1.00  0.00    -0.200 F 
ENDBRANCH  49  63
BRANCH  50  74
ATOM     74  C   UNL A   1      39.460  31.866  35.264  1.00  0.00     0.064 A 
ATOM     75  C   UNL A   1      39.851  33.209  35.355  1.00  0.00     0.173 A 
ATOM     76  C   UNL A   1      38.589  31.370  36.245  1.00  0.00     0.173 A 
ATOM     77  F   UNL A   1      40.695  33.723  34.449  1.00  0.00    -0.203 F 
ATOM     78  C   UNL A   1      39.401  34.020  36.395  1.00  0.00     0.198 A 
ATOM     79  C   UNL A   1      38.122  32.188  37.271  1.00  0.00     0.198 A 
ATOM     80  F   UNL A   1      38.179  30.094  36.196  1.00  0.00    -0.203 F 
ATOM     81  F   UNL A   1      39.818  35.291  36.479  1.00  0.00    -0.200 F 
ATOM     82  C   UNL A   1      38.533  33.511  37.349  1.00  0.00     0.200 A 
ATOM     83  F   UNL A   1      37.272  31.697  38.182  1.00  0.00    -0.200 F 
ATOM     84  F   UNL A   1      38.096  34.292  38.345  1.00  0.00    -0.200 F 
ENDBRANCH  50  74
BRANCH  62  85
ATOM     85  C   UNL A   1      45.069  27.837  34.376  1.00  0.00     0.064 A 
ATOM     86  C   UNL A   1      46.232  28.619  34.320  1.00  0.00     0.173 A 
ATOM     87  C   UNL A   1      45.024  26.786  35.305  1.00  0.00     0.173 A 
ATOM     88  F   UNL A   1      46.328  29.622  33.434  1.00  0.00    -0.203 F 
ATOM     89  C   UNL A   1      47.317  28.346  35.148  1.00  0.00     0.198 A 
ATOM     90  C   UNL A   1      46.102  26.531  36.148  1.00  0.00     0.198 A 
ATOM     91  F   UNL A   1      43.933  26.012  35.397  1.00  0.00    -0.203 F 
ATOM     92  F   UNL A   1      48.434  29.079  35.049  1.00  0.00    -0.200 F 
ATOM     93  C   UNL A   1      47.248  27.307  36.065  1.00  0.00     0.200 A 
ATOM     94  F   UNL A   1      46.031  25.533  37.039  1.00  0.00    -0.200 F 
ATOM     95  F   UNL A   1      48.291  27.050  36.866  1.00  0.00    -0.200 F 
ENDBRANCH  62  85
ENDBRANCH  36  37
ENDBRANCH  28  31
ENDBRANCH  26  27
ENDBRANCH  25  26
ENDBRANCH   1  25
TORSDOF 14
ENDMDL
