MODEL 1
REMARK VINA RESULT:     -12.0      0.000      0.000
REMARK SMILES N#Cc1ccccc1NC(=O)C[N@H+]1CCCC[C@H]1C(=O)NCCCCNC(=O)c1ccc(-c2c3nc(c(-c4c(F)c(F)c(F)c(F)c4F)c4ccc([nH]4)c(-c4c(F)c(F)c(F)c(F)c4F)c4nc(c(-c5c(F)c(F)c(F)c(F)c5F)c5ccc2[nH]5)C=C4)C=C3)cc1
REMARK SMILES IDX 22 1 21 2 19 3 20 4 18 6 13 7 14 8 15 10 17 11 16 12 12 13
REMARK SMILES IDX 10 14 9 15 11 17 8 18 3 19 4 20 5 21 7 22 6 23 2 24 1 25
REMARK SMILES IDX 23 26 24 27 25 28 26 29 27 30 28 32 29 33 30 34 91 35 31 36
REMARK SMILES IDX 90 37 32 38 33 39 34 40 84 41 35 42 89 43 83 44 85 45 36 46
REMARK SMILES IDX 88 47 82 48 81 49 37 51 69 52 49 53 68 54 50 55 53 56 67 57
REMARK SMILES IDX 86 58 51 59 52 60 66 62 87 63 54 64 38 65 39 66 47 67 40 68
REMARK SMILES IDX 41 69 45 70 48 71 42 72 43 73 46 74 44 75 70 76 71 77 79 78
REMARK SMILES IDX 72 79 73 80 77 81 80 82 74 83 75 84 78 85 76 86 55 87 56 88
REMARK SMILES IDX 64 89 57 90 58 91 62 92 65 93 59 94 60 95 63 96 61 97
REMARK H PARENT 21 5 13 9 9 16 26 31 85 50 53 61
REMARK Flexibility Score: inf
ROOT
ATOM      1  C   UNL A   1      32.531  30.054  26.854  1.00  0.00     0.116 C 
ENDROOT
BRANCH   1   2
ATOM      2  N   UNL A   1      31.937  28.836  27.341  1.00  0.00    -0.351 N 
ATOM      3  C   UNL A   1      31.537  27.740  26.647  1.00  0.00     0.278 C 
ATOM      4  O   UNL A   1      30.687  27.050  27.213  1.00  0.00    -0.268 OA
ATOM      5  H   UNL A   1      31.800  28.791  28.316  1.00  0.00     0.163 HD
BRANCH   3   6
ATOM      6  C   UNL A   1      32.207  27.374  25.293  1.00  0.00     0.274 C 
ATOM      7  N   UNL A   1      32.250  25.917  25.058  1.00  0.00    -0.317 N 
ATOM      8  C   UNL A   1      30.925  25.310  24.895  1.00  0.00     0.263 C 
ATOM      9  H   UNL A   1      32.697  25.873  24.141  1.00  0.00     0.349 HD
ATOM     10  C   UNL A   1      30.063  26.040  23.845  1.00  0.00     0.062 C 
ATOM     11  C   UNL A   1      31.531  28.024  24.079  1.00  0.00     0.076 C 
ATOM     12  C   UNL A   1      30.094  27.558  23.962  1.00  0.00     0.012 C 
BRANCH   7  13
ATOM     13  C   UNL A   1      33.216  25.110  25.837  1.00  0.00     0.364 C 
BRANCH  13  14
ATOM     14  C   UNL A   1      32.711  23.895  26.629  1.00  0.00     0.279 C 
ATOM     15  N   UNL A   1      33.327  22.666  26.644  1.00  0.00    -0.320 N 
ATOM     16  H   UNL A   1      32.879  22.013  27.229  1.00  0.00     0.170 HD
ATOM     17  O   UNL A   1      31.678  23.995  27.307  1.00  0.00    -0.268 OA
BRANCH  15  18
ATOM     18  C   UNL A   1      34.471  22.144  25.996  1.00  0.00     0.059 A 
ATOM     19  C   UNL A   1      34.385  20.914  25.306  1.00  0.00     0.076 A 
ATOM     20  C   UNL A   1      35.556  20.262  24.875  1.00  0.00     0.021 A 
ATOM     21  C   UNL A   1      36.805  20.830  25.100  1.00  0.00     0.002 A 
ATOM     22  C   UNL A   1      35.720  22.763  26.068  1.00  0.00     0.027 A 
ATOM     23  C   UNL A   1      36.883  22.097  25.662  1.00  0.00     0.002 A 
BRANCH  19  24
ATOM     24  C   UNL A   1      33.153  20.199  25.148  1.00  0.00     0.101 C 
ATOM     25  N   UNL A   1      32.177  19.570  25.068  1.00  0.00    -0.192 NA
ENDBRANCH  19  24
ENDBRANCH  15  18
ENDBRANCH  13  14
ENDBRANCH   7  13
ENDBRANCH   3   6
ENDBRANCH   1   2
BRANCH   1  26
ATOM     26  C   UNL A   1      31.456  30.849  26.117  1.00  0.00     0.023 C 
BRANCH  26  27
ATOM     27  C   UNL A   1      31.320  32.283  26.649  1.00  0.00     0.023 C 
BRANCH  27  28
ATOM     28  C   UNL A   1      32.632  32.885  27.137  1.00  0.00     0.116 C 
BRANCH  28  29
ATOM     29  N   UNL A   1      32.443  34.245  27.620  1.00  0.00    -0.352 N 
ATOM     30  C   UNL A   1      33.036  34.856  28.691  1.00  0.00     0.251 C 
ATOM     31  H   UNL A   1      31.806  34.797  27.109  1.00  0.00     0.163 HD
ATOM     32  O   UNL A   1      32.595  35.911  29.131  1.00  0.00    -0.269 OA
BRANCH  30  33
ATOM     33  C   UNL A   1      34.209  34.216  29.310  1.00  0.00     0.039 A 
ATOM     34  C   UNL A   1      34.013  33.246  30.291  1.00  0.00     0.014 A 
ATOM     35  C   UNL A   1      35.499  34.570  28.900  1.00  0.00     0.014 A 
ATOM     36  C   UNL A   1      35.120  32.611  30.850  1.00  0.00     0.010 A 
ATOM     37  C   UNL A   1      36.592  33.867  29.385  1.00  0.00     0.010 A 
ATOM     38  C   UNL A   1      36.416  32.903  30.388  1.00  0.00    -0.014 A 
BRANCH  38  39
ATOM     39  C   UNL A   1      37.598  32.233  30.979  1.00  0.00     0.031 A 
ATOM     40  C   UNL A   1      38.069  32.616  32.355  1.00  0.00     0.074 A 
ATOM     41  C   UNL A   1      38.258  31.301  30.266  1.00  0.00     0.049 A 
ATOM     42  N   UNL A   1      39.065  32.134  33.053  1.00  0.00    -0.248 NA
ATOM     43  C   UNL A   1      37.338  33.702  33.029  1.00  0.00     0.031 C 
ATOM     44  C   UNL A   1      37.922  30.882  28.905  1.00  0.00     0.029 A 
ATOM     45  N   UNL A   1      39.344  30.530  30.594  1.00  0.00    -0.354 N 
ATOM     46  C   UNL A   1      39.087  32.864  34.233  1.00  0.00     0.074 A 
ATOM     47  C   UNL A   1      38.050  33.866  34.131  1.00  0.00     0.031 C 
ATOM     48  C   UNL A   1      38.752  29.896  28.533  1.00  0.00     0.029 A 
ATOM     49  C   UNL A   1      39.706  29.646  29.608  1.00  0.00     0.049 A 
ATOM     50  H   UNL A   1      39.819  30.605  31.453  1.00  0.00     0.167 HD
ATOM     51  C   UNL A   1      39.881  32.696  35.317  1.00  0.00     0.037 A 
ATOM     52  C   UNL A   1      40.697  28.735  29.581  1.00  0.00     0.037 A 
ATOM     53  C   UNL A   1      40.905  31.689  35.412  1.00  0.00     0.049 A 
ATOM     54  C   UNL A   1      41.586  28.591  30.787  1.00  0.00     0.074 A 
ATOM     55  C   UNL A   1      41.729  31.393  36.483  1.00  0.00     0.029 A 
ATOM     56  N   UNL A   1      41.258  30.824  34.385  1.00  0.00    -0.354 N 
ATOM     57  N   UNL A   1      41.542  29.225  31.934  1.00  0.00    -0.248 NA
ATOM     58  C   UNL A   1      42.659  27.592  30.695  1.00  0.00     0.031 C 
ATOM     59  C   UNL A   1      42.631  30.405  36.079  1.00  0.00     0.029 A 
ATOM     60  C   UNL A   1      42.314  30.020  34.786  1.00  0.00     0.049 A 
ATOM     61  H   UNL A   1      40.822  30.786  33.502  1.00  0.00     0.167 HD
ATOM     62  C   UNL A   1      42.552  28.676  32.714  1.00  0.00     0.074 A 
ATOM     63  C   UNL A   1      43.178  27.644  31.912  1.00  0.00     0.031 C 
ATOM     64  C   UNL A   1      42.924  28.993  33.979  1.00  0.00     0.037 A 
BRANCH  51  65
ATOM     65  C   UNL A   1      39.686  33.636  36.475  1.00  0.00     0.064 A 
ATOM     66  C   UNL A   1      40.345  34.875  36.549  1.00  0.00     0.173 A 
ATOM     67  C   UNL A   1      38.815  33.300  37.522  1.00  0.00     0.173 A 
ATOM     68  F   UNL A   1      41.198  35.247  35.581  1.00  0.00    -0.203 F 
ATOM     69  C   UNL A   1      40.174  35.716  37.646  1.00  0.00     0.198 A 
ATOM     70  C   UNL A   1      38.614  34.162  38.597  1.00  0.00     0.198 A 
ATOM     71  F   UNL A   1      38.153  32.132  37.503  1.00  0.00    -0.203 F 
ATOM     72  F   UNL A   1      40.868  36.859  37.726  1.00  0.00    -0.200 F 
ATOM     73  C   UNL A   1      39.303  35.362  38.665  1.00  0.00     0.200 A 
ATOM     74  F   UNL A   1      37.758  33.826  39.572  1.00  0.00    -0.200 F 
ATOM     75  F   UNL A   1      39.137  36.174  39.717  1.00  0.00    -0.200 F 
ENDBRANCH  51  65
BRANCH  52  76
ATOM     76  C   UNL A   1      40.878  27.864  28.389  1.00  0.00     0.064 A 
ATOM     77  C   UNL A   1      41.691  28.267  27.320  1.00  0.00     0.173 A 
ATOM     78  C   UNL A   1      40.232  26.624  28.283  1.00  0.00     0.173 A 
ATOM     79  F   UNL A   1      42.317  29.453  27.365  1.00  0.00    -0.203 F 
ATOM     80  C   UNL A   1      41.826  27.479  26.179  1.00  0.00     0.198 A 
ATOM     81  C   UNL A   1      40.396  25.819  27.157  1.00  0.00     0.198 A 
ATOM     82  F   UNL A   1      39.448  26.186  29.280  1.00  0.00    -0.203 F 
ATOM     83  F   UNL A   1      42.561  27.917  25.148  1.00  0.00    -0.200 F 
ATOM     84  C   UNL A   1      41.183  26.253  26.101  1.00  0.00     0.200 A 
ATOM     85  F   UNL A   1      39.789  24.627  27.094  1.00  0.00    -0.200 F 
ATOM     86  F   UNL A   1      41.314  25.494  25.005  1.00  0.00    -0.200 F 
ENDBRANCH  52  76
BRANCH  64  87
ATOM     87  C   UNL A   1      44.024  28.174  34.599  1.00  0.00     0.064 A 
ATOM     88  C   UNL A   1      45.368  28.577  34.559  1.00  0.00     0.173 A 
ATOM     89  C   UNL A   1      43.722  26.974  35.262  1.00  0.00     0.173 A 
ATOM     90  F   UNL A   1      45.716  29.710  33.930  1.00  0.00    -0.203 F 
ATOM     91  C   UNL A   1      46.369  27.786  35.117  1.00  0.00     0.198 A 
ATOM     92  C   UNL A   1      44.720  26.209  35.858  1.00  0.00     0.198 A 
ATOM     93  F   UNL A   1      42.452  26.545  35.342  1.00  0.00    -0.203 F 
ATOM     94  F   UNL A   1      47.653  28.155  35.001  1.00  0.00    -0.200 F 
ATOM     95  C   UNL A   1      46.044  26.608  35.772  1.00  0.00     0.200 A 
ATOM     96  F   UNL A   1      44.399  25.083  36.510  1.00  0.00    -0.200 F 
ATOM     97  F   UNL A   1      47.008  25.851  36.313  1.00  0.00    -0.200 F 
ENDBRANCH  64  87
ENDBRANCH  38  39
ENDBRANCH  30  33
ENDBRANCH  28  29
ENDBRANCH  27  28
ENDBRANCH  26  27
ENDBRANCH   1  26
TORSDOF 15
ENDMDL
MODEL 2
REMARK VINA RESULT:     -12.0      0.980      1.805
REMARK SMILES N#Cc1ccccc1NC(=O)C[N@H+]1CCCC[C@H]1C(=O)NCCCCNC(=O)c1ccc(-c2c3nc(c(-c4c(F)c(F)c(F)c(F)c4F)c4ccc([nH]4)c(-c4c(F)c(F)c(F)c(F)c4F)c4nc(c(-c5c(F)c(F)c(F)c(F)c5F)c5ccc2[nH]5)C=C4)C=C3)cc1
REMARK SMILES IDX 22 1 21 2 19 3 20 4 18 6 13 7 14 8 15 10 17 11 16 12 12 13
REMARK SMILES IDX 10 14 9 15 11 17 8 18 3 19 4 20 5 21 7 22 6 23 2 24 1 25
REMARK SMILES IDX 23 26 24 27 25 28 26 29 27 30 28 32 29 33 30 34 91 35 31 36
REMARK SMILES IDX 90 37 32 38 33 39 34 40 84 41 35 42 89 43 83 44 85 45 36 46
REMARK SMILES IDX 88 47 82 48 81 49 37 51 69 52 49 53 68 54 50 55 53 56 67 57
REMARK SMILES IDX 86 58 51 59 52 60 66 62 87 63 54 64 38 65 39 66 47 67 40 68
REMARK SMILES IDX 41 69 45 70 48 71 42 72 43 73 46 74 44 75 70 76 71 77 79 78
REMARK SMILES IDX 72 79 73 80 77 81 80 82 74 83 75 84 78 85 76 86 55 87 56 88
REMARK SMILES IDX 64 89 57 90 58 91 62 92 65 93 59 94 60 95 63 96 61 97
REMARK H PARENT 21 5 13 9 9 16 26 31 85 50 53 61
REMARK Flexibility Score: inf
ROOT
ATOM      1  C   UNL A   1      32.562  30.051  26.713  1.00  0.00     0.116 C 
ENDROOT
BRANCH   1   2
ATOM      2  N   UNL A   1      32.053  28.828  27.277  1.00  0.00    -0.351 N 
ATOM      3  C   UNL A   1      31.728  27.667  26.653  1.00  0.00     0.278 C 
ATOM      4  O   UNL A   1      30.929  26.957  27.265  1.00  0.00    -0.268 OA
ATOM      5  H   UNL A   1      31.922  28.834  28.253  1.00  0.00     0.163 HD
BRANCH   3   6
ATOM      6  C   UNL A   1      32.419  27.265  25.320  1.00  0.00     0.274 C 
ATOM      7  N   UNL A   1      32.278  25.827  25.020  1.00  0.00    -0.317 N 
ATOM      8  C   UNL A   1      30.893  25.415  24.761  1.00  0.00     0.263 C 
ATOM      9  H   UNL A   1      32.766  25.757  24.126  1.00  0.00     0.349 HD
ATOM     10  C   UNL A   1      30.201  26.297  23.703  1.00  0.00     0.062 C 
ATOM     11  C   UNL A   1      31.909  28.049  24.105  1.00  0.00     0.076 C 
ATOM     12  C   UNL A   1      30.431  27.791  23.892  1.00  0.00     0.012 C 
BRANCH   7  13
ATOM     13  C   UNL A   1      33.079  24.864  25.810  1.00  0.00     0.364 C 
BRANCH  13  14
ATOM     14  C   UNL A   1      34.496  24.505  25.340  1.00  0.00     0.279 C 
ATOM     15  N   UNL A   1      34.803  23.423  24.549  1.00  0.00    -0.320 N 
ATOM     16  H   UNL A   1      35.760  23.364  24.324  1.00  0.00     0.170 HD
ATOM     17  O   UNL A   1      35.451  25.216  25.685  1.00  0.00    -0.268 OA
BRANCH  15  18
ATOM     18  C   UNL A   1      34.031  22.378  23.991  1.00  0.00     0.059 A 
ATOM     19  C   UNL A   1      33.197  22.638  22.880  1.00  0.00     0.076 A 
ATOM     20  C   UNL A   1      32.244  21.686  22.473  1.00  0.00     0.021 A 
ATOM     21  C   UNL A   1      32.128  20.472  23.141  1.00  0.00     0.002 A 
ATOM     22  C   UNL A   1      33.999  21.095  24.541  1.00  0.00     0.027 A 
ATOM     23  C   UNL A   1      33.031  20.163  24.149  1.00  0.00     0.002 A 
BRANCH  19  24
ATOM     24  C   UNL A   1      33.162  23.909  22.219  1.00  0.00     0.101 C 
ATOM     25  N   UNL A   1      33.171  24.969  21.738  1.00  0.00    -0.192 NA
ENDBRANCH  19  24
ENDBRANCH  15  18
ENDBRANCH  13  14
ENDBRANCH   7  13
ENDBRANCH   3   6
ENDBRANCH   1   2
BRANCH   1  26
ATOM     26  C   UNL A   1      31.400  30.797  26.061  1.00  0.00     0.023 C 
BRANCH  26  27
ATOM     27  C   UNL A   1      31.328  32.267  26.499  1.00  0.00     0.023 C 
BRANCH  27  28
ATOM     28  C   UNL A   1      32.591  32.764  27.193  1.00  0.00     0.116 C 
BRANCH  28  29
ATOM     29  N   UNL A   1      32.455  34.153  27.607  1.00  0.00    -0.352 N 
ATOM     30  C   UNL A   1      33.093  34.801  28.629  1.00  0.00     0.251 C 
ATOM     31  H   UNL A   1      31.822  34.697  27.082  1.00  0.00     0.163 HD
ATOM     32  O   UNL A   1      32.695  35.892  29.021  1.00  0.00    -0.269 OA
BRANCH  30  33
ATOM     33  C   UNL A   1      34.263  34.159  29.252  1.00  0.00     0.039 A 
ATOM     34  C   UNL A   1      34.060  33.191  30.234  1.00  0.00     0.014 A 
ATOM     35  C   UNL A   1      35.554  34.509  28.846  1.00  0.00     0.014 A 
ATOM     36  C   UNL A   1      35.163  32.553  30.797  1.00  0.00     0.010 A 
ATOM     37  C   UNL A   1      36.644  33.803  29.336  1.00  0.00     0.010 A 
ATOM     38  C   UNL A   1      36.461  32.841  30.339  1.00  0.00    -0.014 A 
BRANCH  38  39
ATOM     39  C   UNL A   1      37.639  32.169  30.935  1.00  0.00     0.031 A 
ATOM     40  C   UNL A   1      38.101  32.545  32.316  1.00  0.00     0.074 A 
ATOM     41  C   UNL A   1      38.304  31.239  30.224  1.00  0.00     0.049 A 
ATOM     42  N   UNL A   1      39.093  32.060  33.019  1.00  0.00    -0.248 NA
ATOM     43  C   UNL A   1      37.366  33.628  32.990  1.00  0.00     0.031 C 
ATOM     44  C   UNL A   1      37.977  30.826  28.859  1.00  0.00     0.029 A 
ATOM     45  N   UNL A   1      39.387  30.467  30.555  1.00  0.00    -0.354 N 
ATOM     46  C   UNL A   1      39.107  32.785  34.202  1.00  0.00     0.074 A 
ATOM     47  C   UNL A   1      38.071  33.788  34.098  1.00  0.00     0.031 C 
ATOM     48  C   UNL A   1      38.809  29.841  28.488  1.00  0.00     0.029 A 
ATOM     49  C   UNL A   1      39.755  29.586  29.568  1.00  0.00     0.049 A 
ATOM     50  H   UNL A   1      39.857  30.537  31.417  1.00  0.00     0.167 HD
ATOM     51  C   UNL A   1      39.894  32.613  35.291  1.00  0.00     0.037 A 
ATOM     52  C   UNL A   1      40.747  28.675  29.544  1.00  0.00     0.037 A 
ATOM     53  C   UNL A   1      40.917  31.606  35.388  1.00  0.00     0.049 A 
ATOM     54  C   UNL A   1      41.627  28.526  30.755  1.00  0.00     0.074 A 
ATOM     55  C   UNL A   1      41.734  31.305  36.463  1.00  0.00     0.029 A 
ATOM     56  N   UNL A   1      41.276  30.744  34.360  1.00  0.00    -0.354 N 
ATOM     57  N   UNL A   1      41.577  29.156  31.905  1.00  0.00    -0.248 NA
ATOM     58  C   UNL A   1      42.701  27.527  30.666  1.00  0.00     0.031 C 
ATOM     59  C   UNL A   1      42.639  30.318  36.061  1.00  0.00     0.029 A 
ATOM     60  C   UNL A   1      42.330  29.939  34.765  1.00  0.00     0.049 A 
ATOM     61  H   UNL A   1      40.847  30.710  33.474  1.00  0.00     0.167 HD
ATOM     62  C   UNL A   1      42.581  28.603  32.688  1.00  0.00     0.074 A 
ATOM     63  C   UNL A   1      43.212  27.574  31.887  1.00  0.00     0.031 C 
ATOM     64  C   UNL A   1      42.945  28.914  33.958  1.00  0.00     0.037 A 
BRANCH  51  65
ATOM     65  C   UNL A   1      39.692  33.549  36.451  1.00  0.00     0.064 A 
ATOM     66  C   UNL A   1      38.866  33.220  37.539  1.00  0.00     0.173 A 
ATOM     67  C   UNL A   1      40.346  34.789  36.483  1.00  0.00     0.173 A 
ATOM     68  F   UNL A   1      38.207  32.050  37.559  1.00  0.00    -0.203 F 
ATOM     69  C   UNL A   1      38.668  34.115  38.587  1.00  0.00     0.198 A 
ATOM     70  C   UNL A   1      40.178  35.664  37.553  1.00  0.00     0.198 A 
ATOM     71  F   UNL A   1      41.152  35.156  35.475  1.00  0.00    -0.203 F 
ATOM     72  F   UNL A   1      37.819  33.806  39.578  1.00  0.00    -0.200 F 
ATOM     73  C   UNL A   1      39.329  35.332  38.597  1.00  0.00     0.200 A 
ATOM     74  F   UNL A   1      40.834  36.833  37.570  1.00  0.00    -0.200 F 
ATOM     75  F   UNL A   1      39.141  36.190  39.609  1.00  0.00    -0.200 F 
ENDBRANCH  51  65
BRANCH  52  76
ATOM     76  C   UNL A   1      40.935  27.809  28.350  1.00  0.00     0.064 A 
ATOM     77  C   UNL A   1      41.732  28.229  27.274  1.00  0.00     0.173 A 
ATOM     78  C   UNL A   1      40.312  26.557  28.247  1.00  0.00     0.173 A 
ATOM     79  F   UNL A   1      42.336  29.426  27.317  1.00  0.00    -0.203 F 
ATOM     80  C   UNL A   1      41.873  27.444  26.132  1.00  0.00     0.198 A 
ATOM     81  C   UNL A   1      40.484  25.756  27.119  1.00  0.00     0.198 A 
ATOM     82  F   UNL A   1      39.545  26.103  29.249  1.00  0.00    -0.203 F 
ATOM     83  F   UNL A   1      42.592  27.897  25.096  1.00  0.00    -0.200 F 
ATOM     84  C   UNL A   1      41.254  26.206  26.057  1.00  0.00     0.200 A 
ATOM     85  F   UNL A   1      39.899  24.552  27.059  1.00  0.00    -0.200 F 
ATOM     86  F   UNL A   1      41.391  25.451  24.960  1.00  0.00    -0.200 F 
ENDBRANCH  52  76
BRANCH  64  87
ATOM     87  C   UNL A   1      44.041  28.093  34.582  1.00  0.00     0.064 A 
ATOM     88  C   UNL A   1      45.384  28.499  34.559  1.00  0.00     0.173 A 
ATOM     89  C   UNL A   1      43.735  26.886  35.230  1.00  0.00     0.173 A 
ATOM     90  F   UNL A   1      45.735  29.638  33.943  1.00  0.00    -0.203 F 
ATOM     91  C   UNL A   1      46.381  27.706  35.120  1.00  0.00     0.198 A 
ATOM     92  C   UNL A   1      44.729  26.118  35.829  1.00  0.00     0.198 A 
ATOM     93  F   UNL A   1      42.465  26.454  35.294  1.00  0.00    -0.203 F 
ATOM     94  F   UNL A   1      47.665  28.079  35.020  1.00  0.00    -0.200 F 
ATOM     95  C   UNL A   1      46.053  26.521  35.761  1.00  0.00     0.200 A 
ATOM     96  F   UNL A   1      44.404  24.985  36.468  1.00  0.00    -0.200 F 
ATOM     97  F   UNL A   1      47.013  25.762  36.305  1.00  0.00    -0.200 F 
ENDBRANCH  64  87
ENDBRANCH  38  39
ENDBRANCH  30  33
ENDBRANCH  28  29
ENDBRANCH  27  28
ENDBRANCH  26  27
ENDBRANCH   1  26
TORSDOF 15
ENDMDL
MODEL 3
REMARK VINA RESULT:     -12.0      0.568      7.259
REMARK SMILES N#Cc1ccccc1NC(=O)C[N@H+]1CCCC[C@H]1C(=O)NCCCCNC(=O)c1ccc(-c2c3nc(c(-c4c(F)c(F)c(F)c(F)c4F)c4ccc([nH]4)c(-c4c(F)c(F)c(F)c(F)c4F)c4nc(c(-c5c(F)c(F)c(F)c(F)c5F)c5ccc2[nH]5)C=C4)C=C3)cc1
REMARK SMILES IDX 22 1 21 2 19 3 20 4 18 6 13 7 14 8 15 10 17 11 16 12 12 13
REMARK SMILES IDX 10 14 9 15 11 17 8 18 3 19 4 20 5 21 7 22 6 23 2 24 1 25
REMARK SMILES IDX 23 26 24 27 25 28 26 29 27 30 28 32 29 33 30 34 91 35 31 36
REMARK SMILES IDX 90 37 32 38 33 39 34 40 84 41 35 42 89 43 83 44 85 45 36 46
REMARK SMILES IDX 88 47 82 48 81 49 37 51 69 52 49 53 68 54 50 55 53 56 67 57
REMARK SMILES IDX 86 58 51 59 52 60 66 62 87 63 54 64 38 65 39 66 47 67 40 68
REMARK SMILES IDX 41 69 45 70 48 71 42 72 43 73 46 74 44 75 70 76 71 77 79 78
REMARK SMILES IDX 72 79 73 80 77 81 80 82 74 83 75 84 78 85 76 86 55 87 56 88
REMARK SMILES IDX 64 89 57 90 58 91 62 92 65 93 59 94 60 95 63 96 61 97
REMARK H PARENT 21 5 13 9 9 16 26 31 85 50 53 61
REMARK Flexibility Score: inf
ROOT
ATOM      1  C   UNL A   1      32.556  30.054  26.869  1.00  0.00     0.116 C 
ENDROOT
BRANCH   1   2
ATOM      2  N   UNL A   1      31.932  28.858  27.374  1.00  0.00    -0.351 N 
ATOM      3  C   UNL A   1      31.571  27.733  26.707  1.00  0.00     0.278 C 
ATOM      4  O   UNL A   1      30.689  27.068  27.254  1.00  0.00    -0.268 OA
ATOM      5  H   UNL A   1      31.740  28.857  28.341  1.00  0.00     0.163 HD
BRANCH   3   6
ATOM      6  C   UNL A   1      32.316  27.308  25.411  1.00  0.00     0.274 C 
ATOM      7  N   UNL A   1      32.327  25.844  25.218  1.00  0.00    -0.317 N 
ATOM      8  C   UNL A   1      30.995  25.274  24.983  1.00  0.00     0.263 C 
ATOM      9  H   UNL A   1      32.831  25.760  24.334  1.00  0.00     0.349 HD
ATOM     10  C   UNL A   1      30.229  26.000  23.859  1.00  0.00     0.062 C 
ATOM     11  C   UNL A   1      31.743  27.943  24.138  1.00  0.00     0.076 C 
ATOM     12  C   UNL A   1      30.302  27.519  23.938  1.00  0.00     0.012 C 
BRANCH   7  13
ATOM     13  C   UNL A   1      33.212  25.030  26.081  1.00  0.00     0.364 C 
BRANCH  13  14
ATOM     14  C   UNL A   1      32.662  23.748  26.722  1.00  0.00     0.279 C 
ATOM     15  N   UNL A   1      33.266  22.516  26.638  1.00  0.00    -0.320 N 
ATOM     16  H   UNL A   1      32.786  21.812  27.133  1.00  0.00     0.170 HD
ATOM     17  O   UNL A   1      31.601  23.792  27.360  1.00  0.00    -0.268 OA
BRANCH  15  18
ATOM     18  C   UNL A   1      34.433  22.047  25.990  1.00  0.00     0.059 A 
ATOM     19  C   UNL A   1      34.407  20.811  25.308  1.00  0.00     0.076 A 
ATOM     20  C   UNL A   1      35.608  20.214  24.878  1.00  0.00     0.021 A 
ATOM     21  C   UNL A   1      36.827  20.846  25.096  1.00  0.00     0.002 A 
ATOM     22  C   UNL A   1      35.651  22.727  26.056  1.00  0.00     0.027 A 
ATOM     23  C   UNL A   1      36.844  22.118  25.651  1.00  0.00     0.002 A 
BRANCH  19  24
ATOM     24  C   UNL A   1      33.212  20.034  25.156  1.00  0.00     0.101 C 
ATOM     25  N   UNL A   1      32.203  19.460  25.058  1.00  0.00    -0.192 NA
ENDBRANCH  19  24
ENDBRANCH  15  18
ENDBRANCH  13  14
ENDBRANCH   7  13
ENDBRANCH   3   6
ENDBRANCH   1   2
BRANCH   1  26
ATOM     26  C   UNL A   1      31.501  30.862  26.117  1.00  0.00     0.023 C 
BRANCH  26  27
ATOM     27  C   UNL A   1      31.351  32.286  26.669  1.00  0.00     0.023 C 
BRANCH  27  28
ATOM     28  C   UNL A   1      32.639  32.862  27.246  1.00  0.00     0.116 C 
BRANCH  28  29
ATOM     29  N   UNL A   1      32.473  34.258  27.622  1.00  0.00    -0.352 N 
ATOM     30  C   UNL A   1      33.043  34.929  28.670  1.00  0.00     0.251 C 
ATOM     31  H   UNL A   1      31.875  34.789  27.046  1.00  0.00     0.163 HD
ATOM     32  O   UNL A   1      32.617  36.026  29.013  1.00  0.00    -0.269 OA
BRANCH  30  33
ATOM     33  C   UNL A   1      34.170  34.303  29.381  1.00  0.00     0.039 A 
ATOM     34  C   UNL A   1      33.908  33.474  30.470  1.00  0.00     0.014 A 
ATOM     35  C   UNL A   1      35.482  34.529  28.952  1.00  0.00     0.014 A 
ATOM     36  C   UNL A   1      34.970  32.850  31.120  1.00  0.00     0.010 A 
ATOM     37  C   UNL A   1      36.527  33.829  29.537  1.00  0.00     0.010 A 
ATOM     38  C   UNL A   1      36.285  33.007  30.647  1.00  0.00    -0.014 A 
BRANCH  38  39
ATOM     39  C   UNL A   1      37.420  32.348  31.334  1.00  0.00     0.031 A 
ATOM     40  C   UNL A   1      38.150  31.217  30.664  1.00  0.00     0.074 A 
ATOM     41  C   UNL A   1      37.774  32.753  32.568  1.00  0.00     0.049 A 
ATOM     42  N   UNL A   1      39.178  30.528  31.089  1.00  0.00    -0.248 NA
ATOM     43  C   UNL A   1      37.644  30.785  29.351  1.00  0.00     0.031 C 
ATOM     44  C   UNL A   1      37.111  33.807  33.335  1.00  0.00     0.029 A 
ATOM     45  N   UNL A   1      38.789  32.332  33.389  1.00  0.00    -0.354 N 
ATOM     46  C   UNL A   1      39.429  29.580  30.107  1.00  0.00     0.074 A 
ATOM     47  C   UNL A   1      38.407  29.734  29.097  1.00  0.00     0.031 C 
ATOM     48  C   UNL A   1      37.765  33.985  34.493  1.00  0.00     0.029 A 
ATOM     49  C   UNL A   1      38.863  33.028  34.571  1.00  0.00     0.049 A 
ATOM     50  H   UNL A   1      39.403  31.600  33.155  1.00  0.00     0.167 HD
ATOM     51  C   UNL A   1      40.437  28.678  30.039  1.00  0.00     0.037 A 
ATOM     52  C   UNL A   1      39.725  32.904  35.597  1.00  0.00     0.037 A 
ATOM     53  C   UNL A   1      41.456  28.538  31.046  1.00  0.00     0.049 A 
ATOM     54  C   UNL A   1      40.817  31.873  35.511  1.00  0.00     0.074 A 
ATOM     55  C   UNL A   1      42.555  27.699  31.052  1.00  0.00     0.029 A 
ATOM     56  N   UNL A   1      41.487  29.247  32.240  1.00  0.00    -0.354 N 
ATOM     57  N   UNL A   1      41.101  31.040  34.537  1.00  0.00    -0.248 NA
ATOM     58  C   UNL A   1      41.719  31.773  36.666  1.00  0.00     0.031 C 
ATOM     59  C   UNL A   1      43.206  27.841  32.281  1.00  0.00     0.029 A 
ATOM     60  C   UNL A   1      42.567  28.834  33.006  1.00  0.00     0.049 A 
ATOM     61  H   UNL A   1      40.839  29.939  32.504  1.00  0.00     0.167 HD
ATOM     62  C   UNL A   1      42.234  30.348  34.944  1.00  0.00     0.074 A 
ATOM     63  C   UNL A   1      42.594  30.873  36.246  1.00  0.00     0.031 C 
ATOM     64  C   UNL A   1      42.917  29.370  34.298  1.00  0.00     0.037 A 
BRANCH  51  65
ATOM     65  C   UNL A   1      40.473  27.762  28.847  1.00  0.00     0.064 A 
ATOM     66  C   UNL A   1      41.247  28.048  27.710  1.00  0.00     0.173 A 
ATOM     67  C   UNL A   1      39.731  26.571  28.846  1.00  0.00     0.173 A 
ATOM     68  F   UNL A   1      41.970  29.178  27.649  1.00  0.00    -0.203 F 
ATOM     69  C   UNL A   1      41.240  27.201  26.604  1.00  0.00     0.198 A 
ATOM     70  C   UNL A   1      39.759  25.707  27.755  1.00  0.00     0.198 A 
ATOM     71  F   UNL A   1      38.977  26.242  29.906  1.00  0.00    -0.203 F 
ATOM     72  F   UNL A   1      41.931  27.533  25.505  1.00  0.00    -0.200 F 
ATOM     73  C   UNL A   1      40.502  26.028  26.630  1.00  0.00     0.200 A 
ATOM     74  F   UNL A   1      39.060  24.563  27.790  1.00  0.00    -0.200 F 
ATOM     75  F   UNL A   1      40.500  25.213  25.567  1.00  0.00    -0.200 F 
ENDBRANCH  51  65
BRANCH  52  76
ATOM     76  C   UNL A   1      39.614  33.803  36.777  1.00  0.00     0.064 A 
ATOM     77  C   UNL A   1      38.828  33.446  37.883  1.00  0.00     0.173 A 
ATOM     78  C   UNL A   1      40.272  35.040  36.820  1.00  0.00     0.173 A 
ATOM     79  F   UNL A   1      38.164  32.280  37.884  1.00  0.00    -0.203 F 
ATOM     80  C   UNL A   1      38.680  34.305  38.970  1.00  0.00     0.198 A 
ATOM     81  C   UNL A   1      40.153  35.883  37.924  1.00  0.00     0.198 A 
ATOM     82  F   UNL A   1      41.043  35.429  35.793  1.00  0.00    -0.203 F 
ATOM     83  F   UNL A   1      37.875  33.963  39.985  1.00  0.00    -0.200 F 
ATOM     84  C   UNL A   1      39.347  35.520  38.992  1.00  0.00     0.200 A 
ATOM     85  F   UNL A   1      40.814  37.048  37.950  1.00  0.00    -0.200 F 
ATOM     86  F   UNL A   1      39.206  36.345  40.038  1.00  0.00    -0.200 F 
ENDBRANCH  52  76
BRANCH  64  87
ATOM     87  C   UNL A   1      44.160  28.843  34.963  1.00  0.00     0.064 A 
ATOM     88  C   UNL A   1      45.422  29.420  34.752  1.00  0.00     0.173 A 
ATOM     89  C   UNL A   1      44.080  27.751  35.842  1.00  0.00     0.173 A 
ATOM     90  F   UNL A   1      45.558  30.459  33.914  1.00  0.00    -0.203 F 
ATOM     91  C   UNL A   1      46.560  28.894  35.358  1.00  0.00     0.198 A 
ATOM     92  C   UNL A   1      45.213  27.257  36.481  1.00  0.00     0.198 A 
ATOM     93  F   UNL A   1      42.898  27.166  36.091  1.00  0.00    -0.203 F 
ATOM     94  F   UNL A   1      47.764  29.416  35.083  1.00  0.00    -0.200 F 
ATOM     95  C   UNL A   1      46.454  27.819  36.228  1.00  0.00     0.200 A 
ATOM     96  F   UNL A   1      45.103  26.232  37.338  1.00  0.00    -0.200 F 
ATOM     97  F   UNL A   1      47.549  27.319  36.814  1.00  0.00    -0.200 F 
ENDBRANCH  64  87
ENDBRANCH  38  39
ENDBRANCH  30  33
ENDBRANCH  28  29
ENDBRANCH  27  28
ENDBRANCH  26  27
ENDBRANCH   1  26
TORSDOF 15
ENDMDL
