MODEL 1
REMARK VINA RESULT:     -12.3      0.000      0.000
REMARK SMILES CSCc1ccc(C(=O)Nc2cc(C)c(C(=O)NCCCCNC(=O)c3ccc(-c4c5nc(c(-c6c(F)c(F)c(F)c(F)c6F)c6ccc([nH]6)c(-c6c(F)c(F)c(F)c(F)c6F)c6nc(c(-c7c(F)c(F)c(F)c(F)c7F)c7ccc4[nH]7)C=C6)C=C5)cc3)s2)cc1
REMARK SMILES IDX 19 1 18 2 16 3 17 4 15 6 11 7 12 8 89 9 13 10 14 11 10 12
REMARK SMILES IDX 8 13 9 14 7 16 4 17 5 18 91 19 6 20 90 21 3 22 2 23 1 24
REMARK SMILES IDX 20 25 21 26 22 27 23 28 24 29 25 31 26 32 27 33 88 34 28 35
REMARK SMILES IDX 87 36 29 37 30 38 31 39 81 40 32 41 86 42 80 43 82 44 33 45
REMARK SMILES IDX 85 46 79 47 78 48 34 50 66 51 46 52 65 53 47 54 50 55 64 56
REMARK SMILES IDX 83 57 48 58 49 59 63 61 84 62 51 63 35 64 36 65 44 66 37 67
REMARK SMILES IDX 38 68 42 69 45 70 39 71 40 72 43 73 41 74 67 75 68 76 76 77
REMARK SMILES IDX 69 78 70 79 74 80 77 81 71 82 72 83 75 84 73 85 52 86 53 87
REMARK SMILES IDX 61 88 54 89 55 90 59 91 62 92 56 93 57 94 60 95 58 96
REMARK H PARENT 18 5 10 15 23 30 82 49 50 60
REMARK Flexibility Score: inf
ROOT
ATOM      1  C   UNL A   1      35.598  20.428  25.015  1.00  0.00     0.116 C 
ENDROOT
BRANCH   1   2
ATOM      2  N   UNL A   1      34.830  21.003  26.089  1.00  0.00    -0.351 N 
ATOM      3  C   UNL A   1      33.779  21.879  26.163  1.00  0.00     0.261 C 
ATOM      4  O   UNL A   1      33.442  22.088  27.337  1.00  0.00    -0.268 OA
ATOM      5  H   UNL A   1      35.128  20.696  26.975  1.00  0.00     0.163 HD
BRANCH   3   6
ATOM      6  C   UNL A   1      33.094  22.517  25.026  1.00  0.00     0.097 A 
ATOM      7  C   UNL A   1      31.199  23.750  23.993  1.00  0.00     0.096 A 
ATOM      8  C   UNL A   1      32.244  23.627  23.126  1.00  0.00     0.042 A 
ATOM      9  S   UNL A   1      31.364  22.696  25.295  1.00  0.00    -0.112 S 
ATOM     10  C   UNL A   1      33.413  23.095  23.789  1.00  0.00    -0.025 A 
ATOM     11  C   UNL A   1      34.721  23.340  23.125  1.00  0.00     0.046 C 
BRANCH   7  12
ATOM     12  N   UNL A   1      30.088  24.535  23.828  1.00  0.00    -0.314 N 
ATOM     13  C   UNL A   1      29.878  25.824  24.280  1.00  0.00     0.256 C 
ATOM     14  O   UNL A   1      28.769  26.332  24.098  1.00  0.00    -0.269 OA
ATOM     15  H   UNL A   1      29.347  24.130  23.322  1.00  0.00     0.171 HD
BRANCH  13  16
ATOM     16  C   UNL A   1      30.949  26.666  24.890  1.00  0.00     0.040 A 
ATOM     17  C   UNL A   1      32.903  28.435  25.917  1.00  0.00    -0.038 A 
ATOM     18  C   UNL A   1      32.778  28.218  24.535  1.00  0.00     0.005 A 
ATOM     19  C   UNL A   1      32.125  27.650  26.776  1.00  0.00     0.005 A 
ATOM     20  C   UNL A   1      31.809  27.348  24.026  1.00  0.00     0.014 A 
ATOM     21  C   UNL A   1      31.175  26.756  26.267  1.00  0.00     0.014 A 
BRANCH  17  22
ATOM     22  C   UNL A   1      33.920  29.449  26.396  1.00  0.00     0.104 C 
BRANCH  22  23
ATOM     23  S   UNL A   1      33.308  30.828  27.415  1.00  0.00    -0.161 SA
ATOM     24  C   UNL A   1      31.772  31.205  26.528  1.00  0.00     0.085 C 
ENDBRANCH  22  23
ENDBRANCH  17  22
ENDBRANCH  13  16
ENDBRANCH   7  12
ENDBRANCH   3   6
ENDBRANCH   1   2
BRANCH   1  25
ATOM     25  C   UNL A   1      37.033  20.966  25.038  1.00  0.00     0.023 C 
BRANCH  25  26
ATOM     26  C   UNL A   1      38.132  19.911  24.946  1.00  0.00     0.023 C 
BRANCH  26  27
ATOM     27  C   UNL A   1      39.366  20.217  25.783  1.00  0.00     0.116 C 
BRANCH  27  28
ATOM     28  N   UNL A   1      40.314  19.114  25.866  1.00  0.00    -0.352 N 
ATOM     29  C   UNL A   1      41.659  19.170  26.156  1.00  0.00     0.251 C 
ATOM     30  H   UNL A   1      39.948  18.217  25.692  1.00  0.00     0.163 HD
ATOM     31  O   UNL A   1      42.351  18.164  26.128  1.00  0.00    -0.269 OA
BRANCH  29  32
ATOM     32  C   UNL A   1      42.259  20.486  26.445  1.00  0.00     0.039 A 
ATOM     33  C   UNL A   1      42.728  21.257  25.379  1.00  0.00     0.014 A 
ATOM     34  C   UNL A   1      42.272  20.987  27.749  1.00  0.00     0.014 A 
ATOM     35  C   UNL A   1      43.136  22.569  25.611  1.00  0.00     0.010 A 
ATOM     36  C   UNL A   1      42.602  22.319  27.965  1.00  0.00     0.010 A 
ATOM     37  C   UNL A   1      43.031  23.123  26.898  1.00  0.00    -0.014 A 
BRANCH  37  38
ATOM     38  C   UNL A   1      43.357  24.546  27.152  1.00  0.00     0.031 A 
ATOM     39  C   UNL A   1      44.745  25.054  26.888  1.00  0.00     0.074 A 
ATOM     40  C   UNL A   1      42.429  25.356  27.697  1.00  0.00     0.049 A 
ATOM     41  N   UNL A   1      45.253  26.236  27.126  1.00  0.00    -0.248 NA
ATOM     42  C   UNL A   1      45.700  24.094  26.310  1.00  0.00     0.031 C 
ATOM     43  C   UNL A   1      41.065  24.961  28.054  1.00  0.00     0.029 A 
ATOM     44  N   UNL A   1      42.496  26.677  28.061  1.00  0.00    -0.354 N 
ATOM     45  C   UNL A   1      46.586  26.154  26.747  1.00  0.00     0.074 A 
ATOM     46  C   UNL A   1      46.824  24.795  26.315  1.00  0.00     0.031 C 
ATOM     47  C   UNL A   1      40.419  26.022  28.563  1.00  0.00     0.029 A 
ATOM     48  C   UNL A   1      41.330  27.160  28.600  1.00  0.00     0.049 A 
ATOM     49  H   UNL A   1      43.306  27.227  27.945  1.00  0.00     0.167 HD
ATOM     50  C   UNL A   1      47.521  27.134  26.736  1.00  0.00     0.037 A 
ATOM     51  C   UNL A   1      41.034  28.386  29.074  1.00  0.00     0.037 A 
ATOM     52  C   UNL A   1      47.270  28.494  27.134  1.00  0.00     0.049 A 
ATOM     53  C   UNL A   1      42.086  29.461  29.033  1.00  0.00     0.074 A 
ATOM     54  C   UNL A   1      48.131  29.576  27.097  1.00  0.00     0.029 A 
ATOM     55  N   UNL A   1      46.064  28.956  27.638  1.00  0.00    -0.354 N 
ATOM     56  N   UNL A   1      43.322  29.392  28.605  1.00  0.00    -0.248 NA
ATOM     57  C   UNL A   1      41.697  30.787  29.534  1.00  0.00     0.031 C 
ATOM     58  C   UNL A   1      47.456  30.687  27.614  1.00  0.00     0.029 A 
ATOM     59  C   UNL A   1      46.162  30.306  27.931  1.00  0.00     0.049 A 
ATOM     60  H   UNL A   1      45.257  28.407  27.770  1.00  0.00     0.167 HD
ATOM     61  C   UNL A   1      43.850  30.667  28.755  1.00  0.00     0.074 A 
ATOM     62  C   UNL A   1      42.794  31.493  29.305  1.00  0.00     0.031 C 
ATOM     63  C   UNL A   1      45.096  31.114  28.464  1.00  0.00     0.037 A 
BRANCH  50  64
ATOM     64  C   UNL A   1      48.899  26.770  26.269  1.00  0.00     0.064 A 
ATOM     65  C   UNL A   1      49.290  26.938  24.932  1.00  0.00     0.173 A 
ATOM     66  C   UNL A   1      49.848  26.270  27.173  1.00  0.00     0.173 A 
ATOM     67  F   UNL A   1      48.414  27.398  24.025  1.00  0.00    -0.203 F 
ATOM     68  C   UNL A   1      50.571  26.593  24.511  1.00  0.00     0.198 A 
ATOM     69  C   UNL A   1      51.138  25.955  26.754  1.00  0.00     0.198 A 
ATOM     70  F   UNL A   1      49.527  26.092  28.463  1.00  0.00    -0.203 F 
ATOM     71  F   UNL A   1      50.905  26.715  23.218  1.00  0.00    -0.200 F 
ATOM     72  C   UNL A   1      51.496  26.108  25.423  1.00  0.00     0.200 A 
ATOM     73  F   UNL A   1      52.035  25.496  27.639  1.00  0.00    -0.200 F 
ATOM     74  F   UNL A   1      52.731  25.782  25.017  1.00  0.00    -0.200 F 
ENDBRANCH  50  64
BRANCH  51  75
ATOM     75  C   UNL A   1      39.673  28.670  29.596  1.00  0.00     0.064 A 
ATOM     76  C   UNL A   1      38.685  29.212  28.761  1.00  0.00     0.173 A 
ATOM     77  C   UNL A   1      39.330  28.412  30.930  1.00  0.00     0.173 A 
ATOM     78  F   UNL A   1      38.972  29.494  27.481  1.00  0.00    -0.203 F 
ATOM     79  C   UNL A   1      37.412  29.503  29.246  1.00  0.00     0.198 A 
ATOM     80  C   UNL A   1      38.048  28.679  31.408  1.00  0.00     0.198 A 
ATOM     81  F   UNL A   1      40.237  27.888  31.767  1.00  0.00    -0.203 F 
ATOM     82  F   UNL A   1      36.500  30.060  28.438  1.00  0.00    -0.200 F 
ATOM     83  C   UNL A   1      37.093  29.231  30.568  1.00  0.00     0.200 A 
ATOM     84  F   UNL A   1      37.740  28.403  32.682  1.00  0.00    -0.200 F 
ATOM     85  F   UNL A   1      35.868  29.509  31.034  1.00  0.00    -0.200 F 
ENDBRANCH  51  75
BRANCH  63  86
ATOM     86  C   UNL A   1      45.376  32.570  28.695  1.00  0.00     0.064 A 
ATOM     87  C   UNL A   1      45.935  33.030  29.894  1.00  0.00     0.173 A 
ATOM     88  C   UNL A   1      45.124  33.508  27.681  1.00  0.00     0.173 A 
ATOM     89  F   UNL A   1      46.179  32.174  30.898  1.00  0.00    -0.203 F 
ATOM     90  C   UNL A   1      46.216  34.381  30.079  1.00  0.00     0.198 A 
ATOM     91  C   UNL A   1      45.432  34.853  27.859  1.00  0.00     0.198 A 
ATOM     92  F   UNL A   1      44.595  33.114  26.513  1.00  0.00    -0.203 F 
ATOM     93  F   UNL A   1      46.713  34.806  31.248  1.00  0.00    -0.200 F 
ATOM     94  C   UNL A   1      45.971  35.290  29.060  1.00  0.00     0.200 A 
ATOM     95  F   UNL A   1      45.206  35.726  26.868  1.00  0.00    -0.200 F 
ATOM     96  F   UNL A   1      46.251  36.588  29.236  1.00  0.00    -0.200 F 
ENDBRANCH  63  86
ENDBRANCH  37  38
ENDBRANCH  29  32
ENDBRANCH  27  28
ENDBRANCH  26  27
ENDBRANCH  25  26
ENDBRANCH   1  25
TORSDOF 15
ENDMDL
MODEL 2
REMARK VINA RESULT:     -12.3      5.432     11.011
REMARK SMILES CSCc1ccc(C(=O)Nc2cc(C)c(C(=O)NCCCCNC(=O)c3ccc(-c4c5nc(c(-c6c(F)c(F)c(F)c(F)c6F)c6ccc([nH]6)c(-c6c(F)c(F)c(F)c(F)c6F)c6nc(c(-c7c(F)c(F)c(F)c(F)c7F)c7ccc4[nH]7)C=C6)C=C5)cc3)s2)cc1
REMARK SMILES IDX 19 1 18 2 16 3 17 4 15 6 11 7 12 8 89 9 13 10 14 11 10 12
REMARK SMILES IDX 8 13 9 14 7 16 4 17 5 18 91 19 6 20 90 21 3 22 2 23 1 24
REMARK SMILES IDX 20 25 21 26 22 27 23 28 24 29 25 31 26 32 27 33 88 34 28 35
REMARK SMILES IDX 87 36 29 37 30 38 31 39 81 40 32 41 86 42 80 43 82 44 33 45
REMARK SMILES IDX 85 46 79 47 78 48 34 50 66 51 46 52 65 53 47 54 50 55 64 56
REMARK SMILES IDX 83 57 48 58 49 59 63 61 84 62 51 63 35 64 36 65 44 66 37 67
REMARK SMILES IDX 38 68 42 69 45 70 39 71 40 72 43 73 41 74 67 75 68 76 76 77
REMARK SMILES IDX 69 78 70 79 74 80 77 81 71 82 72 83 75 84 73 85 52 86 53 87
REMARK SMILES IDX 61 88 54 89 55 90 59 91 62 92 56 93 57 94 60 95 58 96
REMARK H PARENT 18 5 10 15 23 30 82 49 50 60
REMARK Flexibility Score: inf
ROOT
ATOM      1  C   UNL A   1      31.886  29.585  27.270  1.00  0.00     0.116 C 
ENDROOT
BRANCH   1   2
ATOM      2  N   UNL A   1      33.037  28.737  27.096  1.00  0.00    -0.351 N 
ATOM      3  C   UNL A   1      33.383  27.746  26.216  1.00  0.00     0.261 C 
ATOM      4  O   UNL A   1      34.508  27.289  26.465  1.00  0.00    -0.268 OA
ATOM      5  H   UNL A   1      33.740  28.910  27.764  1.00  0.00     0.163 HD
BRANCH   3   6
ATOM      6  C   UNL A   1      32.566  27.252  25.095  1.00  0.00     0.097 A 
ATOM      7  C   UNL A   1      32.275  26.350  22.798  1.00  0.00     0.096 A 
ATOM      8  C   UNL A   1      31.100  26.337  23.489  1.00  0.00     0.042 A 
ATOM      9  S   UNL A   1      33.414  27.329  23.555  1.00  0.00    -0.112 S 
ATOM     10  C   UNL A   1      31.310  26.667  24.881  1.00  0.00    -0.025 A 
ATOM     11  C   UNL A   1      30.245  26.246  25.830  1.00  0.00     0.046 C 
BRANCH   7  12
ATOM     12  N   UNL A   1      32.520  25.747  21.591  1.00  0.00    -0.314 N 
ATOM     13  C   UNL A   1      33.021  24.481  21.355  1.00  0.00     0.256 C 
ATOM     14  O   UNL A   1      33.249  24.152  20.188  1.00  0.00    -0.269 OA
ATOM     15  H   UNL A   1      32.311  26.284  20.792  1.00  0.00     0.171 HD
BRANCH  13  16
ATOM     16  C   UNL A   1      33.210  23.459  22.426  1.00  0.00     0.040 A 
ATOM     17  C   UNL A   1      33.631  21.693  24.596  1.00  0.00    -0.038 A 
ATOM     18  C   UNL A   1      34.649  22.555  24.157  1.00  0.00     0.005 A 
ATOM     19  C   UNL A   1      32.451  21.637  23.845  1.00  0.00     0.005 A 
ATOM     20  C   UNL A   1      34.440  23.433  23.088  1.00  0.00     0.014 A 
ATOM     21  C   UNL A   1      32.253  22.494  22.756  1.00  0.00     0.014 A 
BRANCH  17  22
ATOM     22  C   UNL A   1      33.898  20.826  25.808  1.00  0.00     0.104 C 
BRANCH  22  23
ATOM     23  S   UNL A   1      34.034  21.663  27.419  1.00  0.00    -0.161 SA
ATOM     24  C   UNL A   1      32.588  22.751  27.322  1.00  0.00     0.085 C 
ENDBRANCH  22  23
ENDBRANCH  17  22
ENDBRANCH  13  16
ENDBRANCH   7  12
ENDBRANCH   3   6
ENDBRANCH   1   2
BRANCH   1  25
ATOM     25  C   UNL A   1      31.852  30.668  26.186  1.00  0.00     0.023 C 
BRANCH  25  26
ATOM     26  C   UNL A   1      31.475  32.067  26.666  1.00  0.00     0.023 C 
BRANCH  26  27
ATOM     27  C   UNL A   1      32.607  32.819  27.354  1.00  0.00     0.116 C 
BRANCH  27  28
ATOM     28  N   UNL A   1      32.301  34.213  27.644  1.00  0.00    -0.352 N 
ATOM     29  C   UNL A   1      32.941  35.059  28.522  1.00  0.00     0.251 C 
ATOM     30  H   UNL A   1      31.541  34.599  27.151  1.00  0.00     0.163 HD
ATOM     31  O   UNL A   1      32.534  36.194  28.712  1.00  0.00    -0.269 OA
BRANCH  29  32
ATOM     32  C   UNL A   1      34.099  34.540  29.274  1.00  0.00     0.039 A 
ATOM     33  C   UNL A   1      33.873  33.904  30.497  1.00  0.00     0.014 A 
ATOM     34  C   UNL A   1      35.383  34.604  28.728  1.00  0.00     0.014 A 
ATOM     35  C   UNL A   1      34.929  33.256  31.136  1.00  0.00     0.010 A 
ATOM     36  C   UNL A   1      36.415  33.891  29.325  1.00  0.00     0.010 A 
ATOM     37  C   UNL A   1      36.196  33.205  30.531  1.00  0.00    -0.014 A 
BRANCH  37  38
ATOM     38  C   UNL A   1      37.308  32.435  31.136  1.00  0.00     0.031 A 
ATOM     39  C   UNL A   1      37.799  32.785  32.510  1.00  0.00     0.074 A 
ATOM     40  C   UNL A   1      37.926  31.480  30.415  1.00  0.00     0.049 A 
ATOM     41  N   UNL A   1      38.811  32.293  33.178  1.00  0.00    -0.248 NA
ATOM     42  C   UNL A   1      37.077  33.856  33.216  1.00  0.00     0.031 C 
ATOM     43  C   UNL A   1      37.577  31.091  29.047  1.00  0.00     0.029 A 
ATOM     44  N   UNL A   1      38.988  30.669  30.729  1.00  0.00    -0.354 N 
ATOM     45  C   UNL A   1      38.857  33.006  34.368  1.00  0.00     0.074 A 
ATOM     46  C   UNL A   1      37.809  34.000  34.311  1.00  0.00     0.031 C 
ATOM     47  C   UNL A   1      38.395  30.104  28.648  1.00  0.00     0.029 A 
ATOM     48  C   UNL A   1      39.344  29.812  29.717  1.00  0.00     0.049 A 
ATOM     49  H   UNL A   1      39.450  30.700  31.598  1.00  0.00     0.167 HD
ATOM     50  C   UNL A   1      39.686  32.829  35.425  1.00  0.00     0.037 A 
ATOM     51  C   UNL A   1      40.330  28.897  29.660  1.00  0.00     0.037 A 
ATOM     52  C   UNL A   1      40.704  31.815  35.491  1.00  0.00     0.049 A 
ATOM     53  C   UNL A   1      41.224  28.708  30.856  1.00  0.00     0.074 A 
ATOM     54  C   UNL A   1      41.550  31.510  36.543  1.00  0.00     0.029 A 
ATOM     55  N   UNL A   1      41.010  30.938  34.462  1.00  0.00    -0.354 N 
ATOM     56  N   UNL A   1      41.212  29.338  32.004  1.00  0.00    -0.248 NA
ATOM     57  C   UNL A   1      42.262  27.673  30.749  1.00  0.00     0.031 C 
ATOM     58  C   UNL A   1      42.394  30.472  36.136  1.00  0.00     0.029 A 
ATOM     59  C   UNL A   1      42.044  30.101  34.847  1.00  0.00     0.049 A 
ATOM     60  H   UNL A   1      40.561  30.915  33.586  1.00  0.00     0.167 HD
ATOM     61  C   UNL A   1      42.217  28.759  32.767  1.00  0.00     0.074 A 
ATOM     62  C   UNL A   1      42.812  27.719  31.954  1.00  0.00     0.031 C 
ATOM     63  C   UNL A   1      42.612  29.062  34.028  1.00  0.00     0.037 A 
BRANCH  50  64
ATOM     64  C   UNL A   1      39.514  33.747  36.599  1.00  0.00     0.064 A 
ATOM     65  C   UNL A   1      38.734  33.384  37.707  1.00  0.00     0.173 A 
ATOM     66  C   UNL A   1      40.157  34.993  36.628  1.00  0.00     0.173 A 
ATOM     67  F   UNL A   1      38.085  32.209  37.721  1.00  0.00    -0.203 F 
ATOM     68  C   UNL A   1      38.580  34.247  38.789  1.00  0.00     0.198 A 
ATOM     69  C   UNL A   1      40.026  35.840  37.726  1.00  0.00     0.198 A 
ATOM     70  F   UNL A   1      40.917  35.387  35.595  1.00  0.00    -0.203 F 
ATOM     71  F   UNL A   1      37.788  33.899  39.813  1.00  0.00    -0.200 F 
ATOM     72  C   UNL A   1      39.232  35.470  38.800  1.00  0.00     0.200 A 
ATOM     73  F   UNL A   1      40.665  37.018  37.741  1.00  0.00    -0.200 F 
ATOM     74  F   UNL A   1      39.087  36.297  39.845  1.00  0.00    -0.200 F 
ENDBRANCH  50  64
BRANCH  51  75
ATOM     75  C   UNL A   1      40.502  28.066  28.441  1.00  0.00     0.064 A 
ATOM     76  C   UNL A   1      39.905  26.800  28.347  1.00  0.00     0.173 A 
ATOM     77  C   UNL A   1      41.262  28.511  27.351  1.00  0.00     0.173 A 
ATOM     78  F   UNL A   1      39.184  26.323  29.372  1.00  0.00    -0.203 F 
ATOM     79  C   UNL A   1      40.077  26.005  27.217  1.00  0.00     0.198 A 
ATOM     80  C   UNL A   1      41.413  27.725  26.210  1.00  0.00     0.198 A 
ATOM     81  F   UNL A   1      41.848  29.717  27.389  1.00  0.00    -0.203 F 
ATOM     82  F   UNL A   1      39.531  24.782  27.170  1.00  0.00    -0.200 F 
ATOM     83  C   UNL A   1      40.827  26.470  26.147  1.00  0.00     0.200 A 
ATOM     84  F   UNL A   1      42.128  28.183  25.173  1.00  0.00    -0.200 F 
ATOM     85  F   UNL A   1      40.992  25.706  25.059  1.00  0.00    -0.200 F 
ENDBRANCH  51  75
BRANCH  63  86
ATOM     86  C   UNL A   1      43.711  28.231  34.623  1.00  0.00     0.064 A 
ATOM     87  C   UNL A   1      43.446  27.024  35.282  1.00  0.00     0.173 A 
ATOM     88  C   UNL A   1      45.050  28.629  34.485  1.00  0.00     0.173 A 
ATOM     89  F   UNL A   1      42.181  26.610  35.452  1.00  0.00    -0.203 F 
ATOM     90  C   UNL A   1      44.482  26.252  35.801  1.00  0.00     0.198 A 
ATOM     91  C   UNL A   1      46.084  27.841  34.981  1.00  0.00     0.198 A 
ATOM     92  F   UNL A   1      45.354  29.774  33.856  1.00  0.00    -0.203 F 
ATOM     93  F   UNL A   1      44.205  25.121  36.464  1.00  0.00    -0.200 F 
ATOM     94  C   UNL A   1      45.799  26.657  35.644  1.00  0.00     0.200 A 
ATOM     95  F   UNL A   1      47.356  28.228  34.818  1.00  0.00    -0.200 F 
ATOM     96  F   UNL A   1      46.795  25.907  36.136  1.00  0.00    -0.200 F 
ENDBRANCH  63  86
ENDBRANCH  37  38
ENDBRANCH  29  32
ENDBRANCH  27  28
ENDBRANCH  26  27
ENDBRANCH  25  26
ENDBRANCH   1  25
TORSDOF 15
ENDMDL
MODEL 3
REMARK VINA RESULT:     -12.2      4.565     10.357
REMARK SMILES CSCc1ccc(C(=O)Nc2cc(C)c(C(=O)NCCCCNC(=O)c3ccc(-c4c5nc(c(-c6c(F)c(F)c(F)c(F)c6F)c6ccc([nH]6)c(-c6c(F)c(F)c(F)c(F)c6F)c6nc(c(-c7c(F)c(F)c(F)c(F)c7F)c7ccc4[nH]7)C=C6)C=C5)cc3)s2)cc1
REMARK SMILES IDX 19 1 18 2 16 3 17 4 15 6 11 7 12 8 89 9 13 10 14 11 10 12
REMARK SMILES IDX 8 13 9 14 7 16 4 17 5 18 91 19 6 20 90 21 3 22 2 23 1 24
REMARK SMILES IDX 20 25 21 26 22 27 23 28 24 29 25 31 26 32 27 33 88 34 28 35
REMARK SMILES IDX 87 36 29 37 30 38 31 39 81 40 32 41 86 42 80 43 82 44 33 45
REMARK SMILES IDX 85 46 79 47 78 48 34 50 66 51 46 52 65 53 47 54 50 55 64 56
REMARK SMILES IDX 83 57 48 58 49 59 63 61 84 62 51 63 35 64 36 65 44 66 37 67
REMARK SMILES IDX 38 68 42 69 45 70 39 71 40 72 43 73 41 74 67 75 68 76 76 77
REMARK SMILES IDX 69 78 70 79 74 80 77 81 71 82 72 83 75 84 73 85 52 86 53 87
REMARK SMILES IDX 61 88 54 89 55 90 59 91 62 92 56 93 57 94 60 95 58 96
REMARK H PARENT 18 5 10 15 23 30 82 49 50 60
REMARK Flexibility Score: inf
ROOT
ATOM      1  C   UNL A   1      33.990  28.577  22.858  1.00  0.00     0.116 C 
ENDROOT
BRANCH   1   2
ATOM      2  N   UNL A   1      33.723  27.587  21.847  1.00  0.00    -0.351 N 
ATOM      3  C   UNL A   1      33.188  26.326  21.847  1.00  0.00     0.261 C 
ATOM      4  O   UNL A   1      33.158  25.845  20.705  1.00  0.00    -0.268 OA
ATOM      5  H   UNL A   1      33.985  27.886  20.946  1.00  0.00     0.163 HD
BRANCH   3   6
ATOM      6  C   UNL A   1      32.691  25.591  23.021  1.00  0.00     0.097 A 
ATOM      7  C   UNL A   1      32.998  24.413  25.188  1.00  0.00     0.096 A 
ATOM      8  C   UNL A   1      31.677  24.581  24.897  1.00  0.00     0.042 A 
ATOM      9  S   UNL A   1      33.957  24.675  23.831  1.00  0.00    -0.112 S 
ATOM     10  C   UNL A   1      31.501  25.440  23.747  1.00  0.00    -0.025 A 
ATOM     11  C   UNL A   1      30.168  26.083  23.598  1.00  0.00     0.046 C 
BRANCH   7  12
ATOM     12  N   UNL A   1      33.524  23.990  26.381  1.00  0.00    -0.314 N 
ATOM     13  C   UNL A   1      33.735  22.694  26.811  1.00  0.00     0.256 C 
ATOM     14  O   UNL A   1      34.144  22.519  27.961  1.00  0.00    -0.269 OA
ATOM     15  H   UNL A   1      33.786  24.700  27.011  1.00  0.00     0.171 HD
BRANCH  13  16
ATOM     16  C   UNL A   1      33.584  21.501  25.926  1.00  0.00     0.040 A 
ATOM     17  C   UNL A   1      33.430  19.124  24.398  1.00  0.00    -0.038 A 
ATOM     18  C   UNL A   1      34.671  19.685  24.742  1.00  0.00     0.005 A 
ATOM     19  C   UNL A   1      32.274  19.847  24.718  1.00  0.00     0.005 A 
ATOM     20  C   UNL A   1      34.749  20.856  25.503  1.00  0.00     0.014 A 
ATOM     21  C   UNL A   1      32.352  21.037  25.452  1.00  0.00     0.014 A 
BRANCH  17  22
ATOM     22  C   UNL A   1      33.418  17.813  23.643  1.00  0.00     0.104 C 
BRANCH  22  23
ATOM     23  S   UNL A   1      34.297  16.407  24.395  1.00  0.00    -0.161 SA
ATOM     24  C   UNL A   1      33.020  15.827  25.543  1.00  0.00     0.085 C 
ENDBRANCH  22  23
ENDBRANCH  17  22
ENDBRANCH  13  16
ENDBRANCH   7  12
ENDBRANCH   3   6
ENDBRANCH   1   2
BRANCH   1  25
ATOM     25  C   UNL A   1      32.693  29.279  23.273  1.00  0.00     0.023 C 
BRANCH  25  26
ATOM     26  C   UNL A   1      32.231  29.013  24.704  1.00  0.00     0.023 C 
BRANCH  26  27
ATOM     27  C   UNL A   1      33.172  29.547  25.775  1.00  0.00     0.116 C 
BRANCH  27  28
ATOM     28  N   UNL A   1      32.778  30.839  26.320  1.00  0.00    -0.352 N 
ATOM     29  C   UNL A   1      33.457  31.621  27.228  1.00  0.00     0.251 C 
ATOM     30  H   UNL A   1      31.920  31.198  25.999  1.00  0.00     0.163 HD
ATOM     31  O   UNL A   1      32.973  32.661  27.648  1.00  0.00    -0.269 OA
BRANCH  29  32
ATOM     32  C   UNL A   1      34.759  31.142  27.729  1.00  0.00     0.039 A 
ATOM     33  C   UNL A   1      35.779  32.073  27.940  1.00  0.00     0.014 A 
ATOM     34  C   UNL A   1      34.935  29.799  28.071  1.00  0.00     0.014 A 
ATOM     35  C   UNL A   1      36.952  31.669  28.575  1.00  0.00     0.010 A 
ATOM     36  C   UNL A   1      36.070  29.417  28.774  1.00  0.00     0.010 A 
ATOM     37  C   UNL A   1      37.086  30.349  29.037  1.00  0.00    -0.014 A 
BRANCH  37  38
ATOM     38  C   UNL A   1      38.277  29.921  29.807  1.00  0.00     0.031 A 
ATOM     39  C   UNL A   1      38.488  30.428  31.204  1.00  0.00     0.074 A 
ATOM     40  C   UNL A   1      39.207  29.144  29.218  1.00  0.00     0.049 A 
ATOM     41  N   UNL A   1      39.503  30.242  32.008  1.00  0.00    -0.248 NA
ATOM     42  C   UNL A   1      37.430  31.288  31.760  1.00  0.00     0.031 C 
ATOM     43  C   UNL A   1      39.142  28.638  27.846  1.00  0.00     0.029 A 
ATOM     44  N   UNL A   1      40.396  28.654  29.695  1.00  0.00    -0.354 N 
ATOM     45  C   UNL A   1      39.216  30.975  33.151  1.00  0.00     0.074 A 
ATOM     46  C   UNL A   1      37.960  31.652  32.919  1.00  0.00     0.031 C 
ATOM     47  C   UNL A   1      40.231  27.892  27.600  1.00  0.00     0.029 A 
ATOM     48  C   UNL A   1      41.085  27.895  28.783  1.00  0.00     0.049 A 
ATOM     49  H   UNL A   1      40.725  28.831  30.607  1.00  0.00     0.167 HD
ATOM     50  C   UNL A   1      39.925  31.055  34.302  1.00  0.00     0.037 A 
ATOM     51  C   UNL A   1      42.275  27.273  28.891  1.00  0.00     0.037 A 
ATOM     52  C   UNL A   1      41.157  30.351  34.541  1.00  0.00     0.049 A 
ATOM     53  C   UNL A   1      43.034  27.363  30.187  1.00  0.00     0.074 A 
ATOM     54  C   UNL A   1      41.917  30.313  35.696  1.00  0.00     0.029 A 
ATOM     55  N   UNL A   1      41.805  29.559  33.606  1.00  0.00    -0.354 N 
ATOM     56  N   UNL A   1      42.718  28.000  31.287  1.00  0.00    -0.248 NA
ATOM     57  C   UNL A   1      44.311  26.639  30.258  1.00  0.00     0.031 C 
ATOM     58  C   UNL A   1      43.046  29.525  35.448  1.00  0.00     0.029 A 
ATOM     59  C   UNL A   1      42.966  29.038  34.153  1.00  0.00     0.049 A 
ATOM     60  H   UNL A   1      41.488  29.391  32.689  1.00  0.00     0.167 HD
ATOM     61  C   UNL A   1      43.737  27.731  32.190  1.00  0.00     0.074 A 
ATOM     62  C   UNL A   1      44.678  26.864  31.511  1.00  0.00     0.031 C 
ATOM     63  C   UNL A   1      43.881  28.164  33.466  1.00  0.00     0.037 A 
BRANCH  50  64
ATOM     64  C   UNL A   1      39.378  31.928  35.392  1.00  0.00     0.064 A 
ATOM     65  C   UNL A   1      38.543  31.413  36.395  1.00  0.00     0.173 A 
ATOM     66  C   UNL A   1      39.711  33.289  35.450  1.00  0.00     0.173 A 
ATOM     67  F   UNL A   1      38.182  30.120  36.376  1.00  0.00    -0.203 F 
ATOM     68  C   UNL A   1      38.039  32.234  37.401  1.00  0.00     0.198 A 
ATOM     69  C   UNL A   1      39.230  34.101  36.474  1.00  0.00     0.198 A 
ATOM     70  F   UNL A   1      40.508  33.831  34.517  1.00  0.00    -0.203 F 
ATOM     71  F   UNL A   1      37.202  31.729  38.318  1.00  0.00    -0.200 F 
ATOM     72  C   UNL A   1      38.388  33.575  37.443  1.00  0.00     0.200 A 
ATOM     73  F   UNL A   1      39.577  35.394  36.521  1.00  0.00    -0.200 F 
ATOM     74  F   UNL A   1      37.906  34.363  38.414  1.00  0.00    -0.200 F 
ENDBRANCH  50  64
BRANCH  51  75
ATOM     75  C   UNL A   1      42.806  26.483  27.750  1.00  0.00     0.064 A 
ATOM     76  C   UNL A   1      43.614  27.087  26.775  1.00  0.00     0.173 A 
ATOM     77  C   UNL A   1      42.519  25.119  27.606  1.00  0.00     0.173 A 
ATOM     78  F   UNL A   1      43.900  28.394  26.860  1.00  0.00    -0.203 F 
ATOM     79  C   UNL A   1      44.098  26.360  25.691  1.00  0.00     0.198 A 
ATOM     80  C   UNL A   1      43.025  24.386  26.534  1.00  0.00     0.198 A 
ATOM     81  F   UNL A   1      41.756  24.494  28.515  1.00  0.00    -0.203 F 
ATOM     82  F   UNL A   1      44.833  26.971  24.751  1.00  0.00    -0.200 F 
ATOM     83  C   UNL A   1      43.808  25.009  25.574  1.00  0.00     0.200 A 
ATOM     84  F   UNL A   1      42.753  23.078  26.431  1.00  0.00    -0.200 F 
ATOM     85  F   UNL A   1      44.276  24.309  24.532  1.00  0.00    -0.200 F 
ENDBRANCH  51  75
BRANCH  63  86
ATOM     86  C   UNL A   1      45.078  27.674  34.228  1.00  0.00     0.064 A 
ATOM     87  C   UNL A   1      46.277  28.398  34.258  1.00  0.00     0.173 A 
ATOM     88  C   UNL A   1      45.003  26.488  34.975  1.00  0.00     0.173 A 
ATOM     89  F   UNL A   1      46.402  29.529  33.547  1.00  0.00    -0.203 F 
ATOM     90  C   UNL A   1      47.367  27.942  34.994  1.00  0.00     0.198 A 
ATOM     91  C   UNL A   1      46.085  26.051  35.732  1.00  0.00     0.198 A 
ATOM     92  F   UNL A   1      43.874  25.764  34.983  1.00  0.00    -0.203 F 
ATOM     93  F   UNL A   1      48.518  28.628  34.977  1.00  0.00    -0.200 F 
ATOM     94  C   UNL A   1      47.269  26.775  35.736  1.00  0.00     0.200 A 
ATOM     95  F   UNL A   1      45.984  24.929  36.457  1.00  0.00    -0.200 F 
ATOM     96  F   UNL A   1      48.316  26.343  36.452  1.00  0.00    -0.200 F 
ENDBRANCH  63  86
ENDBRANCH  37  38
ENDBRANCH  29  32
ENDBRANCH  27  28
ENDBRANCH  26  27
ENDBRANCH  25  26
ENDBRANCH   1  25
TORSDOF 15
ENDMDL
