MODEL 1
REMARK VINA RESULT:     -11.8      0.000      0.000
REMARK SMILES COCc1c(C(=O)NCCCCNC(=O)c2ccc(-c3c4nc(c(-c5c(F)c(F)c(F)c(F)c5F)c5ccc([nH]5)c(-c5c(F)c(F)c(F)c(F)c5F)c5nc(c(-c6c(F)c(F)c(F)c(F)c6F)c6ccc3[nH]6)C=C5)C=C4)cc2)sc2ccccc12
REMARK SMILES IDX 10 1 9 2 8 3 6 4 7 5 5 7 4 8 85 9 79 10 80 11 84 12 81 13
REMARK SMILES IDX 83 14 82 15 3 16 2 17 1 18 11 19 12 20 13 21 14 22 15 24
REMARK SMILES IDX 16 25 17 26 78 27 18 28 77 29 19 30 20 31 21 32 71 33 22 34
REMARK SMILES IDX 76 35 70 36 72 37 23 38 75 39 69 40 68 41 24 43 56 44 36 45
REMARK SMILES IDX 55 46 37 47 40 48 54 49 73 50 38 51 39 52 53 54 74 55 41 56
REMARK SMILES IDX 25 57 26 58 34 59 27 60 28 61 32 62 35 63 29 64 30 65 33 66
REMARK SMILES IDX 31 67 57 68 58 69 66 70 59 71 60 72 64 73 67 74 61 75 62 76
REMARK SMILES IDX 65 77 63 78 42 79 43 80 51 81 44 82 45 83 49 84 52 85 46 86
REMARK SMILES IDX 47 87 50 88 48 89
REMARK H PARENT 8 6 13 23 72 42 40 53
REMARK Flexibility Score: inf
ROOT
ATOM      1  C   UNL A   1      31.738  30.529  26.399  1.00  0.00     0.023 C 
ENDROOT
BRANCH   1   2
ATOM      2  C   UNL A   1      33.189  30.072  26.278  1.00  0.00     0.116 C 
BRANCH   2   3
ATOM      3  N   UNL A   1      33.527  29.627  24.940  1.00  0.00    -0.351 N 
ATOM      4  C   UNL A   1      33.457  28.433  24.262  1.00  0.00     0.261 C 
ATOM      5  O   UNL A   1      33.873  28.517  23.101  1.00  0.00    -0.268 OA
ATOM      6  H   UNL A   1      33.893  30.353  24.384  1.00  0.00     0.163 HD
BRANCH   4   7
ATOM      7  C   UNL A   1      32.970  27.167  24.816  1.00  0.00     0.099 A 
ATOM      8  C   UNL A   1      31.633  26.765  24.933  1.00  0.00     0.009 A 
ATOM      9  C   UNL A   1      31.501  25.474  25.602  1.00  0.00    -0.001 A 
ATOM     10  S   UNL A   1      33.997  26.016  25.535  1.00  0.00    -0.130 S 
ATOM     11  C   UNL A   1      32.740  24.952  25.959  1.00  0.00     0.035 A 
ATOM     12  C   UNL A   1      30.355  24.708  25.943  1.00  0.00     0.010 A 
ATOM     13  C   UNL A   1      32.878  23.709  26.607  1.00  0.00     0.019 A 
ATOM     14  C   UNL A   1      30.480  23.483  26.610  1.00  0.00     0.001 A 
ATOM     15  C   UNL A   1      31.733  22.986  26.931  1.00  0.00     0.001 A 
BRANCH   8  16
ATOM     16  C   UNL A   1      30.437  27.559  24.465  1.00  0.00     0.197 C 
BRANCH  16  17
ATOM     17  O   UNL A   1      30.254  27.505  23.046  1.00  0.00    -0.380 OA
ATOM     18  C   UNL A   1      29.987  28.778  22.474  1.00  0.00     0.195 C 
ENDBRANCH  16  17
ENDBRANCH   8  16
ENDBRANCH   4   7
ENDBRANCH   2   3
ENDBRANCH   1   2
BRANCH   1  19
ATOM     19  C   UNL A   1      31.545  32.037  26.578  1.00  0.00     0.023 C 
BRANCH  19  20
ATOM     20  C   UNL A   1      32.673  32.772  27.297  1.00  0.00     0.116 C 
BRANCH  20  21
ATOM     21  N   UNL A   1      32.345  34.142  27.665  1.00  0.00    -0.352 N 
ATOM     22  C   UNL A   1      32.959  34.962  28.579  1.00  0.00     0.251 C 
ATOM     23  H   UNL A   1      31.578  34.536  27.191  1.00  0.00     0.163 HD
ATOM     24  O   UNL A   1      32.517  36.085  28.798  1.00  0.00    -0.269 OA
BRANCH  22  25
ATOM     25  C   UNL A   1      34.126  34.468  29.338  1.00  0.00     0.039 A 
ATOM     26  C   UNL A   1      33.902  33.832  30.561  1.00  0.00     0.014 A 
ATOM     27  C   UNL A   1      35.424  34.603  28.839  1.00  0.00     0.014 A 
ATOM     28  C   UNL A   1      34.975  33.268  31.252  1.00  0.00     0.010 A 
ATOM     29  C   UNL A   1      36.482  33.980  29.492  1.00  0.00     0.010 A 
ATOM     30  C   UNL A   1      36.268  33.306  30.705  1.00  0.00    -0.014 A 
BRANCH  30  31
ATOM     31  C   UNL A   1      37.407  32.647  31.389  1.00  0.00     0.031 A 
ATOM     32  C   UNL A   1      38.128  31.509  30.725  1.00  0.00     0.074 A 
ATOM     33  C   UNL A   1      37.750  33.034  32.633  1.00  0.00     0.049 A 
ATOM     34  N   UNL A   1      39.107  30.770  31.182  1.00  0.00    -0.248 NA
ATOM     35  C   UNL A   1      37.668  31.131  29.380  1.00  0.00     0.031 C 
ATOM     36  C   UNL A   1      37.089  34.088  33.404  1.00  0.00     0.029 A 
ATOM     37  N   UNL A   1      38.734  32.577  33.473  1.00  0.00    -0.354 N 
ATOM     38  C   UNL A   1      39.367  29.835  30.189  1.00  0.00     0.074 A 
ATOM     39  C   UNL A   1      38.409  30.063  29.130  1.00  0.00     0.031 C 
ATOM     40  C   UNL A   1      37.701  34.214  34.592  1.00  0.00     0.029 A 
ATOM     41  C   UNL A   1      38.775  33.230  34.680  1.00  0.00     0.049 A 
ATOM     42  H   UNL A   1      39.353  31.850  33.232  1.00  0.00     0.167 HD
ATOM     43  C   UNL A   1      40.336  28.889  30.154  1.00  0.00     0.037 A 
ATOM     44  C   UNL A   1      39.589  33.052  35.738  1.00  0.00     0.037 A 
ATOM     45  C   UNL A   1      41.306  28.684  31.197  1.00  0.00     0.049 A 
ATOM     46  C   UNL A   1      40.667  32.005  35.665  1.00  0.00     0.074 A 
ATOM     47  C   UNL A   1      42.361  27.791  31.233  1.00  0.00     0.029 A 
ATOM     48  N   UNL A   1      41.337  29.388  32.393  1.00  0.00    -0.354 N 
ATOM     49  N   UNL A   1      40.949  31.173  34.693  1.00  0.00    -0.248 NA
ATOM     50  C   UNL A   1      41.548  31.882  36.836  1.00  0.00     0.031 C 
ATOM     51  C   UNL A   1      43.008  27.927  32.465  1.00  0.00     0.029 A 
ATOM     52  C   UNL A   1      42.386  28.939  33.179  1.00  0.00     0.049 A 
ATOM     53  H   UNL A   1      40.707  30.102  32.644  1.00  0.00     0.167 HD
ATOM     54  C   UNL A   1      42.055  30.450  35.118  1.00  0.00     0.074 A 
ATOM     55  C   UNL A   1      42.402  30.952  36.431  1.00  0.00     0.031 C 
ATOM     56  C   UNL A   1      42.725  29.460  34.478  1.00  0.00     0.037 A 
BRANCH  43  57
ATOM     57  C   UNL A   1      40.395  28.005  28.941  1.00  0.00     0.064 A 
ATOM     58  C   UNL A   1      39.695  26.790  28.881  1.00  0.00     0.173 A 
ATOM     59  C   UNL A   1      41.137  28.391  27.815  1.00  0.00     0.173 A 
ATOM     60  F   UNL A   1      38.983  26.370  29.937  1.00  0.00    -0.203 F 
ATOM     61  C   UNL A   1      39.762  25.980  27.752  1.00  0.00     0.198 A 
ATOM     62  C   UNL A   1      41.176  27.592  26.675  1.00  0.00     0.198 A 
ATOM     63  F   UNL A   1      41.821  29.545  27.816  1.00  0.00    -0.203 F 
ATOM     64  F   UNL A   1      39.128  24.799  27.739  1.00  0.00    -0.200 F 
ATOM     65  C   UNL A   1      40.496  26.384  26.647  1.00  0.00     0.200 A 
ATOM     66  F   UNL A   1      41.876  27.989  25.603  1.00  0.00    -0.200 F 
ATOM     67  F   UNL A   1      40.554  25.604  25.558  1.00  0.00    -0.200 F 
ENDBRANCH  43  57
BRANCH  44  68
ATOM     68  C   UNL A   1      39.441  33.912  36.941  1.00  0.00     0.064 A 
ATOM     69  C   UNL A   1      40.027  35.184  36.990  1.00  0.00     0.173 A 
ATOM     70  C   UNL A   1      38.720  33.481  38.063  1.00  0.00     0.173 A 
ATOM     71  F   UNL A   1      40.743  35.632  35.950  1.00  0.00    -0.203 F 
ATOM     72  C   UNL A   1      39.915  35.985  38.125  1.00  0.00     0.198 A 
ATOM     73  C   UNL A   1      38.586  34.293  39.188  1.00  0.00     0.198 A 
ATOM     74  F   UNL A   1      38.135  32.274  38.063  1.00  0.00    -0.203 F 
ATOM     75  F   UNL A   1      40.524  37.178  38.163  1.00  0.00    -0.200 F 
ATOM     76  C   UNL A   1      39.191  35.541  39.221  1.00  0.00     0.200 A 
ATOM     77  F   UNL A   1      37.873  33.866  40.239  1.00  0.00    -0.200 F 
ATOM     78  F   UNL A   1      39.081  36.312  40.311  1.00  0.00    -0.200 F 
ENDBRANCH  44  68
BRANCH  56  79
ATOM     79  C   UNL A   1      43.923  28.884  35.171  1.00  0.00     0.064 A 
ATOM     80  C   UNL A   1      45.216  29.377  34.941  1.00  0.00     0.173 A 
ATOM     81  C   UNL A   1      43.771  27.847  36.104  1.00  0.00     0.173 A 
ATOM     82  F   UNL A   1      45.415  30.357  34.047  1.00  0.00    -0.203 F 
ATOM     83  C   UNL A   1      46.316  28.832  35.598  1.00  0.00     0.198 A 
ATOM     84  C   UNL A   1      44.870  27.325  36.781  1.00  0.00     0.198 A 
ATOM     85  F   UNL A   1      42.554  27.345  36.365  1.00  0.00    -0.203 F 
ATOM     86  F   UNL A   1      47.548  29.283  35.325  1.00  0.00    -0.200 F 
ATOM     87  C   UNL A   1      46.141  27.812  36.522  1.00  0.00     0.200 A 
ATOM     88  F   UNL A   1      44.698  26.348  37.683  1.00  0.00    -0.200 F 
ATOM     89  F   UNL A   1      47.201  27.292  37.156  1.00  0.00    -0.200 F 
ENDBRANCH  56  79
ENDBRANCH  30  31
ENDBRANCH  22  25
ENDBRANCH  20  21
ENDBRANCH  19  20
ENDBRANCH   1  19
TORSDOF 13
ENDMDL
MODEL 2
REMARK VINA RESULT:     -11.6      2.296      8.125
REMARK SMILES COCc1c(C(=O)NCCCCNC(=O)c2ccc(-c3c4nc(c(-c5c(F)c(F)c(F)c(F)c5F)c5ccc([nH]5)c(-c5c(F)c(F)c(F)c(F)c5F)c5nc(c(-c6c(F)c(F)c(F)c(F)c6F)c6ccc3[nH]6)C=C5)C=C4)cc2)sc2ccccc12
REMARK SMILES IDX 10 1 9 2 8 3 6 4 7 5 5 7 4 8 85 9 79 10 80 11 84 12 81 13
REMARK SMILES IDX 83 14 82 15 3 16 2 17 1 18 11 19 12 20 13 21 14 22 15 24
REMARK SMILES IDX 16 25 17 26 78 27 18 28 77 29 19 30 20 31 21 32 71 33 22 34
REMARK SMILES IDX 76 35 70 36 72 37 23 38 75 39 69 40 68 41 24 43 56 44 36 45
REMARK SMILES IDX 55 46 37 47 40 48 54 49 73 50 38 51 39 52 53 54 74 55 41 56
REMARK SMILES IDX 25 57 26 58 34 59 27 60 28 61 32 62 35 63 29 64 30 65 33 66
REMARK SMILES IDX 31 67 57 68 58 69 66 70 59 71 60 72 64 73 67 74 61 75 62 76
REMARK SMILES IDX 65 77 63 78 42 79 43 80 51 81 44 82 45 83 49 84 52 85 46 86
REMARK SMILES IDX 47 87 50 88 48 89
REMARK H PARENT 8 6 13 23 72 42 40 53
REMARK Flexibility Score: inf
ROOT
ATOM      1  C   UNL A   1      31.438  27.795  25.291  1.00  0.00     0.023 C 
ENDROOT
BRANCH   1   2
ATOM      2  C   UNL A   1      32.028  27.123  26.527  1.00  0.00     0.116 C 
BRANCH   2   3
ATOM      3  N   UNL A   1      31.409  25.844  26.820  1.00  0.00    -0.351 N 
ATOM      4  C   UNL A   1      31.775  24.527  26.670  1.00  0.00     0.261 C 
ATOM      5  O   UNL A   1      30.905  23.742  27.064  1.00  0.00    -0.268 OA
ATOM      6  H   UNL A   1      30.516  25.943  27.223  1.00  0.00     0.163 HD
BRANCH   4   7
ATOM      7  C   UNL A   1      33.035  24.053  26.093  1.00  0.00     0.099 A 
ATOM      8  C   UNL A   1      33.424  24.137  24.750  1.00  0.00     0.009 A 
ATOM      9  C   UNL A   1      34.713  23.496  24.506  1.00  0.00    -0.001 A 
ATOM     10  S   UNL A   1      34.196  23.189  26.990  1.00  0.00    -0.130 S 
ATOM     11  C   UNL A   1      35.247  22.959  25.673  1.00  0.00     0.035 A 
ATOM     12  C   UNL A   1      35.467  23.330  23.315  1.00  0.00     0.010 A 
ATOM     13  C   UNL A   1      36.491  22.298  25.701  1.00  0.00     0.019 A 
ATOM     14  C   UNL A   1      36.693  22.653  23.327  1.00  0.00     0.001 A 
ATOM     15  C   UNL A   1      37.202  22.149  24.513  1.00  0.00     0.001 A 
BRANCH   8  16
ATOM     16  C   UNL A   1      32.618  24.778  23.644  1.00  0.00     0.197 C 
BRANCH  16  17
ATOM     17  O   UNL A   1      33.266  25.919  23.074  1.00  0.00    -0.380 OA
ATOM     18  C   UNL A   1      32.966  26.094  21.696  1.00  0.00     0.195 C 
ENDBRANCH  16  17
ENDBRANCH   8  16
ENDBRANCH   4   7
ENDBRANCH   2   3
ENDBRANCH   1   2
BRANCH   1  19
ATOM     19  C   UNL A   1      31.631  29.311  25.221  1.00  0.00     0.023 C 
BRANCH  19  20
ATOM     20  C   UNL A   1      32.754  29.880  26.083  1.00  0.00     0.116 C 
BRANCH  20  21
ATOM     21  N   UNL A   1      32.544  31.261  26.492  1.00  0.00    -0.352 N 
ATOM     22  C   UNL A   1      33.325  32.054  27.295  1.00  0.00     0.251 C 
ATOM     23  H   UNL A   1      31.728  31.687  26.143  1.00  0.00     0.163 HD
ATOM     24  O   UNL A   1      32.970  33.193  27.577  1.00  0.00    -0.269 OA
BRANCH  22  25
ATOM     25  C   UNL A   1      34.576  31.511  27.864  1.00  0.00     0.039 A 
ATOM     26  C   UNL A   1      35.669  32.370  28.007  1.00  0.00     0.014 A 
ATOM     27  C   UNL A   1      34.665  30.181  28.280  1.00  0.00     0.014 A 
ATOM     28  C   UNL A   1      36.829  31.912  28.632  1.00  0.00     0.010 A 
ATOM     29  C   UNL A   1      35.795  29.746  28.966  1.00  0.00     0.010 A 
ATOM     30  C   UNL A   1      36.888  30.608  29.148  1.00  0.00    -0.014 A 
BRANCH  30  31
ATOM     31  C   UNL A   1      38.085  30.130  29.881  1.00  0.00     0.031 A 
ATOM     32  C   UNL A   1      38.345  30.595  31.285  1.00  0.00     0.074 A 
ATOM     33  C   UNL A   1      38.968  29.324  29.259  1.00  0.00     0.049 A 
ATOM     34  N   UNL A   1      39.360  30.335  32.070  1.00  0.00    -0.248 NA
ATOM     35  C   UNL A   1      37.345  31.498  31.877  1.00  0.00     0.031 C 
ATOM     36  C   UNL A   1      38.854  28.849  27.880  1.00  0.00     0.029 A 
ATOM     37  N   UNL A   1      40.142  28.771  29.704  1.00  0.00    -0.354 N 
ATOM     38  C   UNL A   1      39.128  31.053  33.236  1.00  0.00     0.074 A 
ATOM     39  C   UNL A   1      37.907  31.800  33.037  1.00  0.00     0.031 C 
ATOM     40  C   UNL A   1      39.901  28.058  27.599  1.00  0.00     0.029 A 
ATOM     41  C   UNL A   1      40.776  27.994  28.766  1.00  0.00     0.049 A 
ATOM     42  H   UNL A   1      40.497  28.917  30.612  1.00  0.00     0.167 HD
ATOM     43  C   UNL A   1      39.856  31.064  34.378  1.00  0.00     0.037 A 
ATOM     44  C   UNL A   1      41.932  27.309  28.841  1.00  0.00     0.037 A 
ATOM     45  C   UNL A   1      41.056  30.296  34.582  1.00  0.00     0.049 A 
ATOM     46  C   UNL A   1      42.712  27.326  30.128  1.00  0.00     0.074 A 
ATOM     47  C   UNL A   1      41.835  30.195  35.720  1.00  0.00     0.029 A 
ATOM     48  N   UNL A   1      41.650  29.493  33.618  1.00  0.00    -0.354 N 
ATOM     49  N   UNL A   1      42.447  27.952  31.248  1.00  0.00    -0.248 NA
ATOM     50  C   UNL A   1      43.947  26.530  30.162  1.00  0.00     0.031 C 
ATOM     51  C   UNL A   1      42.921  29.361  35.435  1.00  0.00     0.029 A 
ATOM     52  C   UNL A   1      42.793  28.903  34.133  1.00  0.00     0.049 A 
ATOM     53  H   UNL A   1      41.308  29.361  32.704  1.00  0.00     0.167 HD
ATOM     54  C   UNL A   1      43.461  27.603  32.129  1.00  0.00     0.074 A 
ATOM     55  C   UNL A   1      44.340  26.699  31.417  1.00  0.00     0.031 C 
ATOM     56  C   UNL A   1      43.648  27.995  33.414  1.00  0.00     0.037 A 
BRANCH  43  57
ATOM     57  C   UNL A   1      39.367  31.935  35.500  1.00  0.00     0.064 A 
ATOM     58  C   UNL A   1      38.476  31.452  36.470  1.00  0.00     0.173 A 
ATOM     59  C   UNL A   1      39.817  33.258  35.623  1.00  0.00     0.173 A 
ATOM     60  F   UNL A   1      38.005  30.198  36.389  1.00  0.00    -0.203 F 
ATOM     61  C   UNL A   1      38.028  32.270  37.502  1.00  0.00     0.198 A 
ATOM     62  C   UNL A   1      39.390  34.064  36.676  1.00  0.00     0.198 A 
ATOM     63  F   UNL A   1      40.673  33.770  34.727  1.00  0.00    -0.203 F 
ATOM     64  F   UNL A   1      37.135  31.802  38.386  1.00  0.00    -0.200 F 
ATOM     65  C   UNL A   1      38.490  33.573  37.609  1.00  0.00     0.200 A 
ATOM     66  F   UNL A   1      39.848  35.319  36.784  1.00  0.00    -0.200 F 
ATOM     67  F   UNL A   1      38.062  34.358  38.608  1.00  0.00    -0.200 F 
ENDBRANCH  43  57
BRANCH  44  68
ATOM     68  C   UNL A   1      42.403  26.517  27.675  1.00  0.00     0.064 A 
ATOM     69  C   UNL A   1      41.899  25.233  27.429  1.00  0.00     0.173 A 
ATOM     70  C   UNL A   1      43.366  27.022  26.789  1.00  0.00     0.173 A 
ATOM     71  F   UNL A   1      40.991  24.699  28.259  1.00  0.00    -0.203 F 
ATOM     72  C   UNL A   1      42.355  24.474  26.353  1.00  0.00     0.198 A 
ATOM     73  C   UNL A   1      43.802  26.273  25.698  1.00  0.00     0.198 A 
ATOM     74  F   UNL A   1      43.875  28.248  26.978  1.00  0.00    -0.203 F 
ATOM     75  F   UNL A   1      41.890  23.231  26.168  1.00  0.00    -0.200 F 
ATOM     76  C   UNL A   1      43.303  24.996  25.486  1.00  0.00     0.200 A 
ATOM     77  F   UNL A   1      44.707  26.786  24.854  1.00  0.00    -0.200 F 
ATOM     78  F   UNL A   1      43.740  24.267  24.450  1.00  0.00    -0.200 F 
ENDBRANCH  44  68
BRANCH  56  79
ATOM     79  C   UNL A   1      44.824  27.416  34.143  1.00  0.00     0.064 A 
ATOM     80  C   UNL A   1      44.727  26.216  34.863  1.00  0.00     0.173 A 
ATOM     81  C   UNL A   1      46.073  28.054  34.092  1.00  0.00     0.173 A 
ATOM     82  F   UNL A   1      43.550  25.577  34.955  1.00  0.00    -0.203 F 
ATOM     83  C   UNL A   1      45.830  25.692  35.530  1.00  0.00     0.198 A 
ATOM     84  C   UNL A   1      47.181  27.510  34.735  1.00  0.00     0.198 A 
ATOM     85  F   UNL A   1      46.220  29.200  33.410  1.00  0.00    -0.203 F 
ATOM     86  F   UNL A   1      45.704  24.571  36.255  1.00  0.00    -0.200 F 
ATOM     87  C   UNL A   1      47.058  26.335  35.460  1.00  0.00     0.200 A 
ATOM     88  F   UNL A   1      48.369  28.127  34.656  1.00  0.00    -0.200 F 
ATOM     89  F   UNL A   1      48.120  25.826  36.099  1.00  0.00    -0.200 F 
ENDBRANCH  56  79
ENDBRANCH  30  31
ENDBRANCH  22  25
ENDBRANCH  20  21
ENDBRANCH  19  20
ENDBRANCH   1  19
TORSDOF 13
ENDMDL
MODEL 3
REMARK VINA RESULT:     -11.5      2.064      8.156
REMARK SMILES COCc1c(C(=O)NCCCCNC(=O)c2ccc(-c3c4nc(c(-c5c(F)c(F)c(F)c(F)c5F)c5ccc([nH]5)c(-c5c(F)c(F)c(F)c(F)c5F)c5nc(c(-c6c(F)c(F)c(F)c(F)c6F)c6ccc3[nH]6)C=C5)C=C4)cc2)sc2ccccc12
REMARK SMILES IDX 10 1 9 2 8 3 6 4 7 5 5 7 4 8 85 9 79 10 80 11 84 12 81 13
REMARK SMILES IDX 83 14 82 15 3 16 2 17 1 18 11 19 12 20 13 21 14 22 15 24
REMARK SMILES IDX 16 25 17 26 78 27 18 28 77 29 19 30 20 31 21 32 71 33 22 34
REMARK SMILES IDX 76 35 70 36 72 37 23 38 75 39 69 40 68 41 24 43 56 44 36 45
REMARK SMILES IDX 55 46 37 47 40 48 54 49 73 50 38 51 39 52 53 54 74 55 41 56
REMARK SMILES IDX 25 57 26 58 34 59 27 60 28 61 32 62 35 63 29 64 30 65 33 66
REMARK SMILES IDX 31 67 57 68 58 69 66 70 59 71 60 72 64 73 67 74 61 75 62 76
REMARK SMILES IDX 65 77 63 78 42 79 43 80 51 81 44 82 45 83 49 84 52 85 46 86
REMARK SMILES IDX 47 87 50 88 48 89
REMARK H PARENT 8 6 13 23 72 42 40 53
REMARK Flexibility Score: inf
ROOT
ATOM      1  C   UNL A   1      32.259  27.446  26.490  1.00  0.00     0.023 C 
ENDROOT
BRANCH   1   2
ATOM      2  C   UNL A   1      33.688  27.204  26.012  1.00  0.00     0.116 C 
BRANCH   2   3
ATOM      3  N   UNL A   1      33.744  26.552  24.717  1.00  0.00    -0.351 N 
ATOM      4  C   UNL A   1      32.958  26.557  23.588  1.00  0.00     0.261 C 
ATOM      5  O   UNL A   1      33.399  25.823  22.696  1.00  0.00    -0.268 OA
ATOM      6  H   UNL A   1      34.531  25.967  24.624  1.00  0.00     0.163 HD
BRANCH   4   7
ATOM      7  C   UNL A   1      31.717  27.315  23.418  1.00  0.00     0.099 A 
ATOM      8  C   UNL A   1      30.417  26.862  23.681  1.00  0.00     0.009 A 
ATOM      9  C   UNL A   1      29.405  27.852  23.327  1.00  0.00    -0.001 A 
ATOM     10  S   UNL A   1      31.670  28.873  22.733  1.00  0.00    -0.130 S 
ATOM     11  C   UNL A   1      29.978  29.012  22.817  1.00  0.00     0.035 A 
ATOM     12  C   UNL A   1      27.987  27.813  23.407  1.00  0.00     0.010 A 
ATOM     13  C   UNL A   1      29.209  30.122  22.415  1.00  0.00     0.019 A 
ATOM     14  C   UNL A   1      27.212  28.900  22.985  1.00  0.00     0.001 A 
ATOM     15  C   UNL A   1      27.820  30.047  22.501  1.00  0.00     0.001 A 
BRANCH   8  16
ATOM     16  C   UNL A   1      30.061  25.502  24.234  1.00  0.00     0.197 C 
BRANCH  16  17
ATOM     17  O   UNL A   1      30.324  24.440  23.312  1.00  0.00    -0.380 OA
ATOM     18  C   UNL A   1      31.041  23.363  23.900  1.00  0.00     0.195 C 
ENDBRANCH  16  17
ENDBRANCH   8  16
ENDBRANCH   4   7
ENDBRANCH   2   3
ENDBRANCH   1   2
BRANCH   1  19
ATOM     19  C   UNL A   1      31.853  28.917  26.606  1.00  0.00     0.023 C 
BRANCH  19  20
ATOM     20  C   UNL A   1      32.867  29.931  26.082  1.00  0.00     0.116 C 
BRANCH  20  21
ATOM     21  N   UNL A   1      32.630  31.292  26.539  1.00  0.00    -0.352 N 
ATOM     22  C   UNL A   1      33.388  32.066  27.382  1.00  0.00     0.251 C 
ATOM     23  H   UNL A   1      31.812  31.719  26.194  1.00  0.00     0.163 HD
ATOM     24  O   UNL A   1      33.011  33.189  27.700  1.00  0.00    -0.269 OA
BRANCH  22  25
ATOM     25  C   UNL A   1      34.639  31.521  27.948  1.00  0.00     0.039 A 
ATOM     26  C   UNL A   1      35.732  32.379  28.093  1.00  0.00     0.014 A 
ATOM     27  C   UNL A   1      34.728  30.189  28.359  1.00  0.00     0.014 A 
ATOM     28  C   UNL A   1      36.893  31.919  28.715  1.00  0.00     0.010 A 
ATOM     29  C   UNL A   1      35.858  29.751  29.042  1.00  0.00     0.010 A 
ATOM     30  C   UNL A   1      36.952  30.612  29.227  1.00  0.00    -0.014 A 
BRANCH  30  31
ATOM     31  C   UNL A   1      38.149  30.131  29.958  1.00  0.00     0.031 A 
ATOM     32  C   UNL A   1      38.413  30.596  31.361  1.00  0.00     0.074 A 
ATOM     33  C   UNL A   1      39.029  29.324  29.334  1.00  0.00     0.049 A 
ATOM     34  N   UNL A   1      39.429  30.333  32.143  1.00  0.00    -0.248 NA
ATOM     35  C   UNL A   1      37.417  31.501  31.955  1.00  0.00     0.031 C 
ATOM     36  C   UNL A   1      38.911  28.849  27.955  1.00  0.00     0.029 A 
ATOM     37  N   UNL A   1      40.202  28.767  29.776  1.00  0.00    -0.354 N 
ATOM     38  C   UNL A   1      39.201  31.051  33.310  1.00  0.00     0.074 A 
ATOM     39  C   UNL A   1      37.981  31.802  33.114  1.00  0.00     0.031 C 
ATOM     40  C   UNL A   1      39.955  28.055  27.671  1.00  0.00     0.029 A 
ATOM     41  C   UNL A   1      40.832  27.989  28.836  1.00  0.00     0.049 A 
ATOM     42  H   UNL A   1      40.560  28.912  30.683  1.00  0.00     0.167 HD
ATOM     43  C   UNL A   1      39.932  31.061  34.451  1.00  0.00     0.037 A 
ATOM     44  C   UNL A   1      41.987  27.301  28.910  1.00  0.00     0.037 A 
ATOM     45  C   UNL A   1      41.130  30.290  34.652  1.00  0.00     0.049 A 
ATOM     46  C   UNL A   1      42.769  27.316  30.194  1.00  0.00     0.074 A 
ATOM     47  C   UNL A   1      41.911  30.187  35.789  1.00  0.00     0.029 A 
ATOM     48  N   UNL A   1      41.720  29.485  33.687  1.00  0.00    -0.354 N 
ATOM     49  N   UNL A   1      42.508  27.942  31.315  1.00  0.00    -0.248 NA
ATOM     50  C   UNL A   1      44.003  26.517  30.226  1.00  0.00     0.031 C 
ATOM     51  C   UNL A   1      42.994  29.350  35.502  1.00  0.00     0.029 A 
ATOM     52  C   UNL A   1      42.863  28.893  34.200  1.00  0.00     0.049 A 
ATOM     53  H   UNL A   1      41.376  29.354  32.774  1.00  0.00     0.167 HD
ATOM     54  C   UNL A   1      43.523  27.590  32.194  1.00  0.00     0.074 A 
ATOM     55  C   UNL A   1      44.398  26.684  31.481  1.00  0.00     0.031 C 
ATOM     56  C   UNL A   1      43.714  27.983  33.479  1.00  0.00     0.037 A 
BRANCH  43  57
ATOM     57  C   UNL A   1      39.447  31.933  35.573  1.00  0.00     0.064 A 
ATOM     58  C   UNL A   1      39.859  33.268  35.698  1.00  0.00     0.173 A 
ATOM     59  C   UNL A   1      38.539  31.436  36.520  1.00  0.00     0.173 A 
ATOM     60  F   UNL A   1      40.738  33.787  34.826  1.00  0.00    -0.203 F 
ATOM     61  C   UNL A   1      39.405  34.064  36.745  1.00  0.00     0.198 A 
ATOM     62  C   UNL A   1      38.062  32.245  37.548  1.00  0.00     0.198 A 
ATOM     63  F   UNL A   1      38.108  30.168  36.446  1.00  0.00    -0.203 F 
ATOM     64  F   UNL A   1      39.854  35.321  36.872  1.00  0.00    -0.200 F 
ATOM     65  C   UNL A   1      38.502  33.555  37.665  1.00  0.00     0.200 A 
ATOM     66  F   UNL A   1      37.180  31.755  38.430  1.00  0.00    -0.200 F 
ATOM     67  F   UNL A   1      38.061  34.325  38.670  1.00  0.00    -0.200 F 
ENDBRANCH  43  57
BRANCH  44  68
ATOM     68  C   UNL A   1      42.453  26.508  27.742  1.00  0.00     0.064 A 
ATOM     69  C   UNL A   1      41.974  25.210  27.519  1.00  0.00     0.173 A 
ATOM     70  C   UNL A   1      43.387  27.025  26.833  1.00  0.00     0.173 A 
ATOM     71  F   UNL A   1      41.095  24.665  28.372  1.00  0.00    -0.203 F 
ATOM     72  C   UNL A   1      42.427  24.451  26.442  1.00  0.00     0.198 A 
ATOM     73  C   UNL A   1      43.820  26.275  25.741  1.00  0.00     0.198 A 
ATOM     74  F   UNL A   1      43.872  28.264  27.000  1.00  0.00    -0.203 F 
ATOM     75  F   UNL A   1      41.986  23.196  26.278  1.00  0.00    -0.200 F 
ATOM     76  C   UNL A   1      43.346  24.985  25.551  1.00  0.00     0.200 A 
ATOM     77  F   UNL A   1      44.697  26.800  24.875  1.00  0.00    -0.200 F 
ATOM     78  F   UNL A   1      43.779  24.256  24.515  1.00  0.00    -0.200 F 
ENDBRANCH  44  68
BRANCH  56  79
ATOM     79  C   UNL A   1      44.890  27.400  34.205  1.00  0.00     0.064 A 
ATOM     80  C   UNL A   1      46.130  28.053  34.244  1.00  0.00     0.173 A 
ATOM     81  C   UNL A   1      44.762  26.188  34.901  1.00  0.00     0.173 A 
ATOM     82  F   UNL A   1      46.307  29.207  33.582  1.00  0.00    -0.203 F 
ATOM     83  C   UNL A   1      47.208  27.499  34.928  1.00  0.00     0.198 A 
ATOM     84  C   UNL A   1      45.834  25.652  35.609  1.00  0.00     0.198 A 
ATOM     85  F   UNL A   1      43.593  25.528  34.901  1.00  0.00    -0.203 F 
ATOM     86  F   UNL A   1      48.400  28.113  34.910  1.00  0.00    -0.200 F 
ATOM     87  C   UNL A   1      47.057  26.302  35.615  1.00  0.00     0.200 A 
ATOM     88  F   UNL A   1      45.682  24.502  36.282  1.00  0.00    -0.200 F 
ATOM     89  F   UNL A   1      48.095  25.773  36.277  1.00  0.00    -0.200 F 
ENDBRANCH  56  79
ENDBRANCH  30  31
ENDBRANCH  22  25
ENDBRANCH  20  21
ENDBRANCH  19  20
ENDBRANCH   1  19
TORSDOF 13
ENDMDL
