MODEL 1
REMARK VINA RESULT:     -12.1      0.000      0.000
REMARK SMILES CC1=C(C)C(=O)N(C[C@H](CC(C)C)C(=O)NCCCCNC(=O)c2ccc(-c3c4nc(c(-c5c(F)c(F)c(F)c(F)c5F)c5ccc([nH]5)c(-c5c(F)c(F)c(F)c(F)c5F)c5nc(c(-c6c(F)c(F)c(F)c(F)c6F)c6ccc3[nH]6)C=C5)C=C4)cc2)C1=O
REMARK SMILES IDX 18 1 17 2 16 3 14 4 15 5 9 7 8 8 7 9 1 10 2 11 3 12 87 13
REMARK SMILES IDX 4 14 5 15 88 16 6 17 10 18 11 19 12 20 13 21 19 22 20 23
REMARK SMILES IDX 21 24 22 25 23 27 24 28 25 29 86 30 26 31 85 32 27 33 28 34
REMARK SMILES IDX 29 35 79 36 30 37 84 38 78 39 80 40 31 41 83 42 77 43 76 44
REMARK SMILES IDX 32 46 64 47 44 48 63 49 45 50 48 51 62 52 81 53 46 54 47 55
REMARK SMILES IDX 61 57 82 58 49 59 33 60 34 61 42 62 35 63 36 64 40 65 43 66
REMARK SMILES IDX 37 67 38 68 41 69 39 70 65 71 66 72 74 73 67 74 68 75 72 76
REMARK SMILES IDX 75 77 69 78 70 79 73 80 71 81 50 82 51 83 59 84 52 85 53 86
REMARK SMILES IDX 57 87 60 88 54 89 55 90 58 91 56 92
REMARK H PARENT 16 6 21 26 80 45 48 56
REMARK Flexibility Score: inf
ROOT
ATOM      1  C   UNL A   1      32.200  30.419  26.731  1.00  0.00     0.023 C 
ENDROOT
BRANCH   1   2
ATOM      2  C   UNL A   1      32.050  29.814  25.342  1.00  0.00     0.116 C 
BRANCH   2   3
ATOM      3  N   UNL A   1      33.254  29.639  24.576  1.00  0.00    -0.356 N 
ATOM      4  C   UNL A   1      33.572  28.541  23.829  1.00  0.00     0.224 C 
ATOM      5  O   UNL A   1      34.284  28.723  22.838  1.00  0.00    -0.275 OA
ATOM      6  H   UNL A   1      33.906  30.375  24.591  1.00  0.00     0.163 HD
BRANCH   4   7
ATOM      7  C   UNL A   1      33.110  27.121  24.209  1.00  0.00     0.099 C 
BRANCH   7   8
ATOM      8  C   UNL A   1      33.713  26.495  25.489  1.00  0.00     0.142 C 
BRANCH   8   9
ATOM      9  N   UNL A   1      33.166  25.228  25.953  1.00  0.00    -0.274 N 
ATOM     10  C   UNL A   1      30.439  22.962  26.797  1.00  0.00     0.051 C 
ATOM     11  C   UNL A   1      31.774  23.581  26.649  1.00  0.00     0.023 C 
ATOM     12  C   UNL A   1      32.982  23.026  26.531  1.00  0.00     0.023 C 
ATOM     13  C   UNL A   1      31.972  25.032  26.552  1.00  0.00     0.256 C 
ATOM     14  C   UNL A   1      33.390  21.611  26.660  1.00  0.00     0.051 C 
ATOM     15  C   UNL A   1      33.914  24.103  26.139  1.00  0.00     0.256 C 
ATOM     16  O   UNL A   1      31.185  25.850  26.997  1.00  0.00    -0.269 OA
ATOM     17  O   UNL A   1      35.115  23.965  26.050  1.00  0.00    -0.269 OA
ENDBRANCH   8   9
ENDBRANCH   7   8
BRANCH   7  18
ATOM     18  C   UNL A   1      32.709  26.228  22.995  1.00  0.00     0.018 C 
BRANCH  18  19
ATOM     19  C   UNL A   1      31.273  25.722  22.723  1.00  0.00    -0.017 C 
ATOM     20  C   UNL A   1      31.033  24.256  23.071  1.00  0.00     0.007 C 
ATOM     21  C   UNL A   1      30.286  26.589  23.522  1.00  0.00     0.007 C 
ENDBRANCH  18  19
ENDBRANCH   7  18
ENDBRANCH   4   7
ENDBRANCH   2   3
ENDBRANCH   1   2
BRANCH   1  22
ATOM     22  C   UNL A   1      31.819  31.895  26.811  1.00  0.00     0.023 C 
BRANCH  22  23
ATOM     23  C   UNL A   1      32.826  32.821  27.492  1.00  0.00     0.116 C 
BRANCH  23  24
ATOM     24  N   UNL A   1      32.367  34.171  27.766  1.00  0.00    -0.352 N 
ATOM     25  C   UNL A   1      32.952  35.087  28.621  1.00  0.00     0.251 C 
ATOM     26  H   UNL A   1      31.555  34.466  27.294  1.00  0.00     0.163 HD
ATOM     27  O   UNL A   1      32.473  36.200  28.798  1.00  0.00    -0.269 OA
BRANCH  25  28
ATOM     28  C   UNL A   1      34.156  34.672  29.376  1.00  0.00     0.039 A 
ATOM     29  C   UNL A   1      33.994  34.131  30.652  1.00  0.00     0.014 A 
ATOM     30  C   UNL A   1      35.417  34.699  28.772  1.00  0.00     0.014 A 
ATOM     31  C   UNL A   1      35.084  33.527  31.285  1.00  0.00     0.010 A 
ATOM     32  C   UNL A   1      36.481  34.028  29.370  1.00  0.00     0.010 A 
ATOM     33  C   UNL A   1      36.322  33.421  30.627  1.00  0.00    -0.014 A 
BRANCH  33  34
ATOM     34  C   UNL A   1      37.442  32.650  31.229  1.00  0.00     0.031 A 
ATOM     35  C   UNL A   1      37.958  32.996  32.597  1.00  0.00     0.074 A 
ATOM     36  C   UNL A   1      38.035  31.668  30.520  1.00  0.00     0.049 A 
ATOM     37  N   UNL A   1      38.935  32.451  33.277  1.00  0.00    -0.248 NA
ATOM     38  C   UNL A   1      37.304  34.120  33.285  1.00  0.00     0.031 C 
ATOM     39  C   UNL A   1      37.671  31.272  29.158  1.00  0.00     0.029 A 
ATOM     40  N   UNL A   1      39.071  30.825  30.842  1.00  0.00    -0.354 N 
ATOM     41  C   UNL A   1      39.017  33.167  34.464  1.00  0.00     0.074 A 
ATOM     42  C   UNL A   1      38.034  34.226  34.385  1.00  0.00     0.031 C 
ATOM     43  C   UNL A   1      38.448  30.246  28.775  1.00  0.00     0.029 A 
ATOM     44  C   UNL A   1      39.390  29.935  29.846  1.00  0.00     0.049 A 
ATOM     45  H   UNL A   1      39.541  30.856  31.707  1.00  0.00     0.167 HD
ATOM     46  C   UNL A   1      39.821  32.946  35.532  1.00  0.00     0.037 A 
ATOM     47  C   UNL A   1      40.336  28.976  29.798  1.00  0.00     0.037 A 
ATOM     48  C   UNL A   1      40.787  31.882  35.614  1.00  0.00     0.049 A 
ATOM     49  C   UNL A   1      41.224  28.758  30.995  1.00  0.00     0.074 A 
ATOM     50  C   UNL A   1      41.604  31.539  36.678  1.00  0.00     0.029 A 
ATOM     51  N   UNL A   1      41.076  30.994  34.587  1.00  0.00    -0.354 N 
ATOM     52  N   UNL A   1      41.234  29.388  32.144  1.00  0.00    -0.248 NA
ATOM     53  C   UNL A   1      42.227  27.687  30.890  1.00  0.00     0.031 C 
ATOM     54  C   UNL A   1      42.427  30.483  36.276  1.00  0.00     0.029 A 
ATOM     55  C   UNL A   1      42.079  30.124  34.984  1.00  0.00     0.049 A 
ATOM     56  H   UNL A   1      40.634  30.984  33.708  1.00  0.00     0.167 HD
ATOM     57  C   UNL A   1      42.217  28.774  32.909  1.00  0.00     0.074 A 
ATOM     58  C   UNL A   1      42.773  27.711  32.098  1.00  0.00     0.031 C 
ATOM     59  C   UNL A   1      42.621  29.064  34.170  1.00  0.00     0.037 A 
BRANCH  46  60
ATOM     60  C   UNL A   1      39.687  33.879  36.703  1.00  0.00     0.064 A 
ATOM     61  C   UNL A   1      38.881  33.565  37.809  1.00  0.00     0.173 A 
ATOM     62  C   UNL A   1      40.397  35.089  36.733  1.00  0.00     0.173 A 
ATOM     63  F   UNL A   1      38.173  32.425  37.827  1.00  0.00    -0.203 F 
ATOM     64  C   UNL A   1      38.764  34.443  38.883  1.00  0.00     0.198 A 
ATOM     65  C   UNL A   1      40.304  35.948  37.825  1.00  0.00     0.198 A 
ATOM     66  F   UNL A   1      41.186  35.437  35.706  1.00  0.00    -0.203 F 
ATOM     67  F   UNL A   1      37.943  34.147  39.901  1.00  0.00    -0.200 F 
ATOM     68  C   UNL A   1      39.481  35.629  38.894  1.00  0.00     0.200 A 
ATOM     69  F   UNL A   1      41.009  37.088  37.841  1.00  0.00    -0.200 F 
ATOM     70  F   UNL A   1      39.370  36.471  39.931  1.00  0.00    -0.200 F 
ENDBRANCH  46  60
BRANCH  47  71
ATOM     71  C   UNL A   1      40.479  28.132  28.581  1.00  0.00     0.064 A 
ATOM     72  C   UNL A   1      39.833  26.891  28.483  1.00  0.00     0.173 A 
ATOM     73  C   UNL A   1      41.263  28.545  27.495  1.00  0.00     0.173 A 
ATOM     74  F   UNL A   1      39.088  26.442  29.505  1.00  0.00    -0.203 F 
ATOM     75  C   UNL A   1      39.985  26.086  27.355  1.00  0.00     0.198 A 
ATOM     76  C   UNL A   1      41.389  27.754  26.355  1.00  0.00     0.198 A 
ATOM     77  F   UNL A   1      41.899  29.725  27.535  1.00  0.00    -0.203 F 
ATOM     78  F   UNL A   1      39.395  24.883  27.309  1.00  0.00    -0.200 F 
ATOM     79  C   UNL A   1      40.757  26.521  26.290  1.00  0.00     0.200 A 
ATOM     80  F   UNL A   1      42.124  28.185  25.321  1.00  0.00    -0.200 F 
ATOM     81  F   UNL A   1      40.897  25.750  25.202  1.00  0.00    -0.200 F 
ENDBRANCH  47  71
BRANCH  59  82
ATOM     82  C   UNL A   1      43.691  28.197  34.773  1.00  0.00     0.064 A 
ATOM     83  C   UNL A   1      43.387  26.997  35.433  1.00  0.00     0.173 A 
ATOM     84  C   UNL A   1      45.043  28.553  34.648  1.00  0.00     0.173 A 
ATOM     85  F   UNL A   1      42.110  26.620  35.592  1.00  0.00    -0.203 F 
ATOM     86  C   UNL A   1      44.395  26.200  35.968  1.00  0.00     0.198 A 
ATOM     87  C   UNL A   1      46.050  27.736  35.154  1.00  0.00     0.198 A 
ATOM     88  F   UNL A   1      45.390  29.687  34.020  1.00  0.00    -0.203 F 
ATOM     89  F   UNL A   1      44.078  25.083  36.637  1.00  0.00    -0.200 F 
ATOM     90  C   UNL A   1      45.726  26.564  35.820  1.00  0.00     0.200 A 
ATOM     91  F   UNL A   1      47.335  28.082  34.996  1.00  0.00    -0.200 F 
ATOM     92  F   UNL A   1      46.694  25.789  36.327  1.00  0.00    -0.200 F 
ENDBRANCH  59  82
ENDBRANCH  33  34
ENDBRANCH  25  28
ENDBRANCH  23  24
ENDBRANCH  22  23
ENDBRANCH   1  22
TORSDOF 15
ENDMDL
MODEL 2
REMARK VINA RESULT:     -12.0      0.611      7.374
REMARK SMILES CC1=C(C)C(=O)N(C[C@H](CC(C)C)C(=O)NCCCCNC(=O)c2ccc(-c3c4nc(c(-c5c(F)c(F)c(F)c(F)c5F)c5ccc([nH]5)c(-c5c(F)c(F)c(F)c(F)c5F)c5nc(c(-c6c(F)c(F)c(F)c(F)c6F)c6ccc3[nH]6)C=C5)C=C4)cc2)C1=O
REMARK SMILES IDX 18 1 17 2 16 3 14 4 15 5 9 7 8 8 7 9 1 10 2 11 3 12 87 13
REMARK SMILES IDX 4 14 5 15 88 16 6 17 10 18 11 19 12 20 13 21 19 22 20 23
REMARK SMILES IDX 21 24 22 25 23 27 24 28 25 29 86 30 26 31 85 32 27 33 28 34
REMARK SMILES IDX 29 35 79 36 30 37 84 38 78 39 80 40 31 41 83 42 77 43 76 44
REMARK SMILES IDX 32 46 64 47 44 48 63 49 45 50 48 51 62 52 81 53 46 54 47 55
REMARK SMILES IDX 61 57 82 58 49 59 33 60 34 61 42 62 35 63 36 64 40 65 43 66
REMARK SMILES IDX 37 67 38 68 41 69 39 70 65 71 66 72 74 73 67 74 68 75 72 76
REMARK SMILES IDX 75 77 69 78 70 79 73 80 71 81 50 82 51 83 59 84 52 85 53 86
REMARK SMILES IDX 57 87 60 88 54 89 55 90 58 91 56 92
REMARK H PARENT 16 6 21 26 80 45 48 56
REMARK Flexibility Score: inf
ROOT
ATOM      1  C   UNL A   1      32.459  30.152  26.819  1.00  0.00     0.023 C 
ENDROOT
BRANCH   1   2
ATOM      2  C   UNL A   1      32.208  29.476  25.479  1.00  0.00     0.116 C 
BRANCH   2   3
ATOM      3  N   UNL A   1      33.268  29.541  24.509  1.00  0.00    -0.356 N 
ATOM      4  C   UNL A   1      33.601  28.558  23.623  1.00  0.00     0.224 C 
ATOM      5  O   UNL A   1      34.090  28.913  22.547  1.00  0.00    -0.275 OA
ATOM      6  H   UNL A   1      33.800  30.368  24.482  1.00  0.00     0.163 HD
BRANCH   4   7
ATOM      7  C   UNL A   1      33.423  27.062  23.943  1.00  0.00     0.099 C 
BRANCH   7   8
ATOM      8  C   UNL A   1      33.801  26.589  25.367  1.00  0.00     0.142 C 
BRANCH   8   9
ATOM      9  N   UNL A   1      33.206  25.354  25.858  1.00  0.00    -0.274 N 
ATOM     10  C   UNL A   1      30.394  23.221  26.769  1.00  0.00     0.051 C 
ATOM     11  C   UNL A   1      31.753  23.780  26.596  1.00  0.00     0.023 C 
ATOM     12  C   UNL A   1      32.935  23.171  26.475  1.00  0.00     0.023 C 
ATOM     13  C   UNL A   1      32.012  25.219  26.473  1.00  0.00     0.256 C 
ATOM     14  C   UNL A   1      33.283  21.743  26.623  1.00  0.00     0.051 C 
ATOM     15  C   UNL A   1      33.907  24.201  26.054  1.00  0.00     0.256 C 
ATOM     16  O   UNL A   1      31.265  26.078  26.913  1.00  0.00    -0.269 OA
ATOM     17  O   UNL A   1      35.100  24.010  25.955  1.00  0.00    -0.269 OA
ENDBRANCH   8   9
ENDBRANCH   7   8
BRANCH   7  18
ATOM     18  C   UNL A   1      33.592  26.115  22.715  1.00  0.00     0.018 C 
BRANCH  18  19
ATOM     19  C   UNL A   1      32.526  25.096  22.248  1.00  0.00    -0.017 C 
ATOM     20  C   UNL A   1      32.847  23.640  22.570  1.00  0.00     0.007 C 
ATOM     21  C   UNL A   1      31.179  25.463  22.892  1.00  0.00     0.007 C 
ENDBRANCH  18  19
ENDBRANCH   7  18
ENDBRANCH   4   7
ENDBRANCH   2   3
ENDBRANCH   1   2
BRANCH   1  22
ATOM     22  C   UNL A   1      31.985  31.602  26.882  1.00  0.00     0.023 C 
BRANCH  22  23
ATOM     23  C   UNL A   1      32.955  32.608  27.500  1.00  0.00     0.116 C 
BRANCH  23  24
ATOM     24  N   UNL A   1      32.439  33.951  27.700  1.00  0.00    -0.352 N 
ATOM     25  C   UNL A   1      32.957  34.920  28.540  1.00  0.00     0.251 C 
ATOM     26  H   UNL A   1      31.639  34.199  27.183  1.00  0.00     0.163 HD
ATOM     27  O   UNL A   1      32.433  36.022  28.652  1.00  0.00    -0.269 OA
BRANCH  25  28
ATOM     28  C   UNL A   1      34.141  34.577  29.360  1.00  0.00     0.039 A 
ATOM     29  C   UNL A   1      33.945  34.130  30.668  1.00  0.00     0.014 A 
ATOM     30  C   UNL A   1      35.419  34.576  28.794  1.00  0.00     0.014 A 
ATOM     31  C   UNL A   1      35.021  33.589  31.376  1.00  0.00     0.010 A 
ATOM     32  C   UNL A   1      36.471  33.965  29.473  1.00  0.00     0.010 A 
ATOM     33  C   UNL A   1      36.280  33.451  30.766  1.00  0.00    -0.014 A 
BRANCH  33  34
ATOM     34  C   UNL A   1      37.389  32.741  31.458  1.00  0.00     0.031 A 
ATOM     35  C   UNL A   1      38.063  31.565  30.809  1.00  0.00     0.074 A 
ATOM     36  C   UNL A   1      37.757  33.123  32.698  1.00  0.00     0.049 A 
ATOM     37  N   UNL A   1      39.032  30.811  31.264  1.00  0.00    -0.248 NA
ATOM     38  C   UNL A   1      37.566  31.167  29.484  1.00  0.00     0.031 C 
ATOM     39  C   UNL A   1      37.144  34.209  33.463  1.00  0.00     0.029 A 
ATOM     40  N   UNL A   1      38.732  32.638  33.536  1.00  0.00    -0.354 N 
ATOM     41  C   UNL A   1      39.255  29.850  30.287  1.00  0.00     0.074 A 
ATOM     42  C   UNL A   1      38.278  30.076  29.244  1.00  0.00     0.031 C 
ATOM     43  C   UNL A   1      37.776  34.328  34.643  1.00  0.00     0.029 A 
ATOM     44  C   UNL A   1      38.813  33.304  34.734  1.00  0.00     0.049 A 
ATOM     45  H   UNL A   1      39.318  31.883  33.299  1.00  0.00     0.167 HD
ATOM     46  C   UNL A   1      40.204  28.884  30.250  1.00  0.00     0.037 A 
ATOM     47  C   UNL A   1      39.628  33.113  35.789  1.00  0.00     0.037 A 
ATOM     48  C   UNL A   1      41.185  28.671  31.282  1.00  0.00     0.049 A 
ATOM     49  C   UNL A   1      40.668  32.025  35.729  1.00  0.00     0.074 A 
ATOM     50  C   UNL A   1      42.226  27.758  31.307  1.00  0.00     0.029 A 
ATOM     51  N   UNL A   1      41.241  29.373  32.478  1.00  0.00    -0.354 N 
ATOM     52  N   UNL A   1      40.923  31.177  34.762  1.00  0.00    -0.248 NA
ATOM     53  C   UNL A   1      41.539  31.874  36.904  1.00  0.00     0.031 C 
ATOM     54  C   UNL A   1      42.874  27.868  32.541  1.00  0.00     0.029 A 
ATOM     55  C   UNL A   1      42.280  28.892  33.260  1.00  0.00     0.049 A 
ATOM     56  H   UNL A   1      40.633  30.104  32.733  1.00  0.00     0.167 HD
ATOM     57  C   UNL A   1      42.000  30.415  35.196  1.00  0.00     0.074 A 
ATOM     58  C   UNL A   1      42.360  30.911  36.508  1.00  0.00     0.031 C 
ATOM     59  C   UNL A   1      42.634  29.398  34.563  1.00  0.00     0.037 A 
BRANCH  46  60
ATOM     60  C   UNL A   1      40.225  27.980  29.050  1.00  0.00     0.064 A 
ATOM     61  C   UNL A   1      40.959  28.301  27.896  1.00  0.00     0.173 A 
ATOM     62  C   UNL A   1      39.528  26.762  29.064  1.00  0.00     0.173 A 
ATOM     63  F   UNL A   1      41.635  29.458  27.826  1.00  0.00    -0.203 F 
ATOM     64  C   UNL A   1      40.963  27.455  26.791  1.00  0.00     0.198 A 
ATOM     65  C   UNL A   1      39.564  25.903  27.969  1.00  0.00     0.198 A 
ATOM     66  F   UNL A   1      38.816  26.402  30.142  1.00  0.00    -0.203 F 
ATOM     67  F   UNL A   1      41.623  27.811  25.680  1.00  0.00    -0.200 F 
ATOM     68  C   UNL A   1      40.272  26.254  26.831  1.00  0.00     0.200 A 
ATOM     69  F   UNL A   1      38.907  24.735  28.015  1.00  0.00    -0.200 F 
ATOM     70  F   UNL A   1      40.282  25.438  25.767  1.00  0.00    -0.200 F 
ENDBRANCH  46  60
BRANCH  47  71
ATOM     71  C   UNL A   1      39.511  33.987  36.988  1.00  0.00     0.064 A 
ATOM     72  C   UNL A   1      38.767  33.585  38.106  1.00  0.00     0.173 A 
ATOM     73  C   UNL A   1      40.137  35.241  37.040  1.00  0.00     0.173 A 
ATOM     74  F   UNL A   1      38.132  32.403  38.097  1.00  0.00    -0.203 F 
ATOM     75  C   UNL A   1      38.634  34.412  39.220  1.00  0.00     0.198 A 
ATOM     76  C   UNL A   1      40.030  36.054  38.167  1.00  0.00     0.198 A 
ATOM     77  F   UNL A   1      40.865  35.673  36.000  1.00  0.00    -0.203 F 
ATOM     78  F   UNL A   1      37.877  34.022  40.255  1.00  0.00    -0.200 F 
ATOM     79  C   UNL A   1      39.271  35.643  39.252  1.00  0.00     0.200 A 
ATOM     80  F   UNL A   1      40.660  37.236  38.200  1.00  0.00    -0.200 F 
ATOM     81  F   UNL A   1      39.149  36.435  40.327  1.00  0.00    -0.200 F 
ENDBRANCH  47  71
BRANCH  59  82
ATOM     82  C   UNL A   1      43.810  28.773  35.259  1.00  0.00     0.064 A 
ATOM     83  C   UNL A   1      43.654  27.727  36.182  1.00  0.00     0.173 A 
ATOM     84  C   UNL A   1      45.115  29.198  34.964  1.00  0.00     0.173 A 
ATOM     85  F   UNL A   1      42.428  27.294  36.509  1.00  0.00    -0.203 F 
ATOM     86  C   UNL A   1      44.759  27.150  36.802  1.00  0.00     0.198 A 
ATOM     87  C   UNL A   1      46.218  28.595  35.560  1.00  0.00     0.198 A 
ATOM     88  F   UNL A   1      45.321  30.189  34.084  1.00  0.00    -0.203 F 
ATOM     89  F   UNL A   1      44.583  26.186  37.716  1.00  0.00    -0.200 F 
ATOM     90  C   UNL A   1      46.040  27.577  36.484  1.00  0.00     0.200 A 
ATOM     91  F   UNL A   1      47.455  28.999  35.240  1.00  0.00    -0.200 F 
ATOM     92  F   UNL A   1      47.102  27.012  37.074  1.00  0.00    -0.200 F 
ENDBRANCH  59  82
ENDBRANCH  33  34
ENDBRANCH  25  28
ENDBRANCH  23  24
ENDBRANCH  22  23
ENDBRANCH   1  22
TORSDOF 15
ENDMDL
MODEL 3
REMARK VINA RESULT:     -11.8      1.266      7.642
REMARK SMILES CC1=C(C)C(=O)N(C[C@H](CC(C)C)C(=O)NCCCCNC(=O)c2ccc(-c3c4nc(c(-c5c(F)c(F)c(F)c(F)c5F)c5ccc([nH]5)c(-c5c(F)c(F)c(F)c(F)c5F)c5nc(c(-c6c(F)c(F)c(F)c(F)c6F)c6ccc3[nH]6)C=C5)C=C4)cc2)C1=O
REMARK SMILES IDX 18 1 17 2 16 3 14 4 15 5 9 7 8 8 7 9 1 10 2 11 3 12 87 13
REMARK SMILES IDX 4 14 5 15 88 16 6 17 10 18 11 19 12 20 13 21 19 22 20 23
REMARK SMILES IDX 21 24 22 25 23 27 24 28 25 29 86 30 26 31 85 32 27 33 28 34
REMARK SMILES IDX 29 35 79 36 30 37 84 38 78 39 80 40 31 41 83 42 77 43 76 44
REMARK SMILES IDX 32 46 64 47 44 48 63 49 45 50 48 51 62 52 81 53 46 54 47 55
REMARK SMILES IDX 61 57 82 58 49 59 33 60 34 61 42 62 35 63 36 64 40 65 43 66
REMARK SMILES IDX 37 67 38 68 41 69 39 70 65 71 66 72 74 73 67 74 68 75 72 76
REMARK SMILES IDX 75 77 69 78 70 79 73 80 71 81 50 82 51 83 59 84 52 85 53 86
REMARK SMILES IDX 57 87 60 88 54 89 55 90 58 91 56 92
REMARK H PARENT 16 6 21 26 80 45 48 56
REMARK Flexibility Score: inf
ROOT
ATOM      1  C   UNL A   1      32.368  30.083  27.009  1.00  0.00     0.023 C 
ENDROOT
BRANCH   1   2
ATOM      2  C   UNL A   1      31.873  29.212  25.863  1.00  0.00     0.116 C 
BRANCH   2   3
ATOM      3  N   UNL A   1      32.819  28.899  24.827  1.00  0.00    -0.356 N 
ATOM      4  C   UNL A   1      32.551  28.843  23.490  1.00  0.00     0.224 C 
ATOM      5  O   UNL A   1      33.474  29.122  22.719  1.00  0.00    -0.275 OA
ATOM      6  H   UNL A   1      33.743  28.709  25.108  1.00  0.00     0.163 HD
BRANCH   4   7
ATOM      7  C   UNL A   1      31.177  28.414  22.940  1.00  0.00     0.099 C 
BRANCH   7   8
ATOM      8  C   UNL A   1      31.091  27.040  22.234  1.00  0.00     0.142 C 
BRANCH   8   9
ATOM      9  N   UNL A   1      31.767  25.909  22.854  1.00  0.00    -0.274 N 
ATOM     10  C   UNL A   1      31.928  23.008  25.055  1.00  0.00     0.051 C 
ATOM     11  C   UNL A   1      32.283  24.126  24.155  1.00  0.00     0.023 C 
ATOM     12  C   UNL A   1      33.284  24.256  23.281  1.00  0.00     0.023 C 
ATOM     13  C   UNL A   1      31.478  25.349  24.049  1.00  0.00     0.256 C 
ATOM     14  C   UNL A   1      34.449  23.378  23.040  1.00  0.00     0.051 C 
ATOM     15  C   UNL A   1      32.992  25.453  22.467  1.00  0.00     0.256 C 
ATOM     16  O   UNL A   1      30.744  25.751  24.936  1.00  0.00    -0.269 OA
ATOM     17  O   UNL A   1      33.753  25.921  21.647  1.00  0.00    -0.269 OA
ENDBRANCH   8   9
ENDBRANCH   7   8
BRANCH   7  18
ATOM     18  C   UNL A   1      30.260  29.597  22.502  1.00  0.00     0.018 C 
BRANCH  18  19
ATOM     19  C   UNL A   1      29.012  30.067  23.285  1.00  0.00    -0.017 C 
ATOM     20  C   UNL A   1      29.108  31.478  23.856  1.00  0.00     0.007 C 
ATOM     21  C   UNL A   1      27.790  29.990  22.355  1.00  0.00     0.007 C 
ENDBRANCH  18  19
ENDBRANCH   7  18
ENDBRANCH   4   7
ENDBRANCH   2   3
ENDBRANCH   1   2
BRANCH   1  22
ATOM     22  C   UNL A   1      31.987  31.555  26.880  1.00  0.00     0.023 C 
BRANCH  22  23
ATOM     23  C   UNL A   1      32.956  32.565  27.495  1.00  0.00     0.116 C 
BRANCH  23  24
ATOM     24  N   UNL A   1      32.442  33.910  27.682  1.00  0.00    -0.352 N 
ATOM     25  C   UNL A   1      32.957  34.884  28.516  1.00  0.00     0.251 C 
ATOM     26  H   UNL A   1      31.644  34.154  27.159  1.00  0.00     0.163 HD
ATOM     27  O   UNL A   1      32.435  35.988  28.617  1.00  0.00    -0.269 OA
BRANCH  25  28
ATOM     28  C   UNL A   1      34.137  34.546  29.344  1.00  0.00     0.039 A 
ATOM     29  C   UNL A   1      33.932  34.049  30.632  1.00  0.00     0.014 A 
ATOM     30  C   UNL A   1      35.424  34.600  28.801  1.00  0.00     0.014 A 
ATOM     31  C   UNL A   1      35.011  33.514  31.341  1.00  0.00     0.010 A 
ATOM     32  C   UNL A   1      36.481  33.995  29.477  1.00  0.00     0.010 A 
ATOM     33  C   UNL A   1      36.283  33.432  30.748  1.00  0.00    -0.014 A 
BRANCH  33  34
ATOM     34  C   UNL A   1      37.401  32.729  31.434  1.00  0.00     0.031 A 
ATOM     35  C   UNL A   1      38.085  31.563  30.778  1.00  0.00     0.074 A 
ATOM     36  C   UNL A   1      37.767  33.108  32.675  1.00  0.00     0.049 A 
ATOM     37  N   UNL A   1      39.062  30.816  31.227  1.00  0.00    -0.248 NA
ATOM     38  C   UNL A   1      37.589  31.167  29.452  1.00  0.00     0.031 C 
ATOM     39  C   UNL A   1      37.146  34.185  33.447  1.00  0.00     0.029 A 
ATOM     40  N   UNL A   1      38.748  32.629  33.509  1.00  0.00    -0.354 N 
ATOM     41  C   UNL A   1      39.292  29.862  30.245  1.00  0.00     0.074 A 
ATOM     42  C   UNL A   1      38.311  30.084  29.205  1.00  0.00     0.031 C 
ATOM     43  C   UNL A   1      37.778  34.304  34.626  1.00  0.00     0.029 A 
ATOM     44  C   UNL A   1      38.826  33.290  34.710  1.00  0.00     0.049 A 
ATOM     45  H   UNL A   1      39.341  31.881  33.267  1.00  0.00     0.167 HD
ATOM     46  C   UNL A   1      40.250  28.905  30.202  1.00  0.00     0.037 A 
ATOM     47  C   UNL A   1      39.644  33.101  35.763  1.00  0.00     0.037 A 
ATOM     48  C   UNL A   1      41.235  28.697  31.231  1.00  0.00     0.049 A 
ATOM     49  C   UNL A   1      40.695  32.024  35.695  1.00  0.00     0.074 A 
ATOM     50  C   UNL A   1      42.285  27.794  31.250  1.00  0.00     0.029 A 
ATOM     51  N   UNL A   1      41.287  29.393  32.430  1.00  0.00    -0.354 N 
ATOM     52  N   UNL A   1      40.956  31.183  34.724  1.00  0.00    -0.248 NA
ATOM     53  C   UNL A   1      41.569  31.876  36.868  1.00  0.00     0.031 C 
ATOM     54  C   UNL A   1      42.935  27.904  32.483  1.00  0.00     0.029 A 
ATOM     55  C   UNL A   1      42.332  28.919  33.208  1.00  0.00     0.049 A 
ATOM     56  H   UNL A   1      40.672  30.117  32.690  1.00  0.00     0.167 HD
ATOM     57  C   UNL A   1      42.041  30.430  35.152  1.00  0.00     0.074 A 
ATOM     58  C   UNL A   1      42.398  30.922  36.466  1.00  0.00     0.031 C 
ATOM     59  C   UNL A   1      42.683  29.421  34.513  1.00  0.00     0.037 A 
BRANCH  46  60
ATOM     60  C   UNL A   1      40.278  28.008  28.997  1.00  0.00     0.064 A 
ATOM     61  C   UNL A   1      41.007  28.340  27.845  1.00  0.00     0.173 A 
ATOM     62  C   UNL A   1      39.591  26.783  29.006  1.00  0.00     0.173 A 
ATOM     63  F   UNL A   1      41.674  29.503  27.779  1.00  0.00    -0.203 F 
ATOM     64  C   UNL A   1      41.018  27.500  26.735  1.00  0.00     0.198 A 
ATOM     65  C   UNL A   1      39.633  25.930  27.907  1.00  0.00     0.198 A 
ATOM     66  F   UNL A   1      38.883  26.412  30.083  1.00  0.00    -0.203 F 
ATOM     67  F   UNL A   1      41.673  27.867  25.625  1.00  0.00    -0.200 F 
ATOM     68  C   UNL A   1      40.337  26.293  26.770  1.00  0.00     0.200 A 
ATOM     69  F   UNL A   1      38.987  24.756  27.948  1.00  0.00    -0.200 F 
ATOM     70  F   UNL A   1      40.352  25.482  25.702  1.00  0.00    -0.200 F 
ENDBRANCH  46  60
BRANCH  47  71
ATOM     71  C   UNL A   1      39.522  33.969  36.966  1.00  0.00     0.064 A 
ATOM     72  C   UNL A   1      38.767  33.562  38.076  1.00  0.00     0.173 A 
ATOM     73  C   UNL A   1      40.150  35.220  37.030  1.00  0.00     0.173 A 
ATOM     74  F   UNL A   1      38.129  32.382  38.055  1.00  0.00    -0.203 F 
ATOM     75  C   UNL A   1      38.629  34.383  39.194  1.00  0.00     0.198 A 
ATOM     76  C   UNL A   1      40.038  36.026  38.162  1.00  0.00     0.198 A 
ATOM     77  F   UNL A   1      40.887  35.656  35.998  1.00  0.00    -0.203 F 
ATOM     78  F   UNL A   1      37.863  33.988  40.221  1.00  0.00    -0.200 F 
ATOM     79  C   UNL A   1      39.270  35.611  39.238  1.00  0.00     0.200 A 
ATOM     80  F   UNL A   1      40.671  37.206  38.206  1.00  0.00    -0.200 F 
ATOM     81  F   UNL A   1      39.142  36.397  40.317  1.00  0.00    -0.200 F 
ENDBRANCH  47  71
BRANCH  59  82
ATOM     82  C   UNL A   1      43.867  28.804  35.204  1.00  0.00     0.064 A 
ATOM     83  C   UNL A   1      45.176  29.253  34.974  1.00  0.00     0.173 A 
ATOM     84  C   UNL A   1      43.681  27.778  36.143  1.00  0.00     0.173 A 
ATOM     85  F   UNL A   1      45.408  30.222  34.075  1.00  0.00    -0.203 F 
ATOM     86  C   UNL A   1      46.256  28.680  35.639  1.00  0.00     0.198 A 
ATOM     87  C   UNL A   1      44.760  27.231  36.831  1.00  0.00     0.198 A 
ATOM     88  F   UNL A   1      42.449  27.315  36.406  1.00  0.00    -0.203 F 
ATOM     89  F   UNL A   1      47.502  29.092  35.368  1.00  0.00    -0.200 F 
ATOM     90  C   UNL A   1      46.048  27.676  36.574  1.00  0.00     0.200 A 
ATOM     91  F   UNL A   1      44.554  26.272  37.744  1.00  0.00    -0.200 F 
ATOM     92  F   UNL A   1      47.088  27.134  37.220  1.00  0.00    -0.200 F 
ENDBRANCH  59  82
ENDBRANCH  33  34
ENDBRANCH  25  28
ENDBRANCH  23  24
ENDBRANCH  22  23
ENDBRANCH   1  22
TORSDOF 15
ENDMDL
