MODEL 1
REMARK VINA RESULT:     -12.1      0.000      0.000
REMARK SMILES CCC(CC)(Nc1cc2ccccc2c(=O)[nH]1)C(=O)NCCCCNC(=O)c1ccc(-c2c3nc(c(-c4c(F)c(F)c(F)c(F)c4F)c4ccc([nH]4)c(-c4c(F)c(F)c(F)c(F)c4F)c4nc(c(-c5c(F)c(F)c(F)c(F)c5F)c5ccc2[nH]5)C=C4)C=C3)cc1
REMARK SMILES IDX 22 1 21 2 20 3 18 4 19 5 3 7 2 8 1 9 4 10 5 11 6 12 7 14
REMARK SMILES IDX 8 15 17 16 9 17 15 18 10 20 14 21 16 22 11 23 13 24 12 25
REMARK SMILES IDX 23 26 24 27 25 28 26 29 27 31 28 32 29 33 90 34 30 35 89 36
REMARK SMILES IDX 31 37 32 38 33 39 83 40 34 41 88 42 82 43 84 44 35 45 87 46
REMARK SMILES IDX 81 47 80 48 36 50 68 51 48 52 67 53 49 54 52 55 66 56 85 57
REMARK SMILES IDX 50 58 51 59 65 61 86 62 53 63 37 64 38 65 46 66 39 67 40 68
REMARK SMILES IDX 44 69 47 70 41 71 42 72 45 73 43 74 69 75 70 76 78 77 71 78
REMARK SMILES IDX 72 79 76 80 79 81 73 82 74 83 77 84 75 85 54 86 55 87 63 88
REMARK SMILES IDX 56 89 57 90 61 91 64 92 58 93 59 94 62 95 60 96
REMARK H PARENT 20 6 6 13 17 19 25 30 84 49 52 60
REMARK Flexibility Score: inf
ROOT
ATOM      1  C   UNL A   1      36.852  20.008  25.060  1.00  0.00     0.023 C 
ENDROOT
BRANCH   1   2
ATOM      2  C   UNL A   1      36.374  21.438  25.298  1.00  0.00     0.116 C 
BRANCH   2   3
ATOM      3  N   UNL A   1      36.163  22.251  24.104  1.00  0.00    -0.354 N 
ATOM      4  C   UNL A   1      35.005  22.681  23.502  1.00  0.00     0.245 C 
ATOM      5  O   UNL A   1      35.142  23.365  22.484  1.00  0.00    -0.272 OA
ATOM      6  H   UNL A   1      36.991  22.540  23.654  1.00  0.00     0.163 HD
BRANCH   4   7
ATOM      7  C   UNL A   1      33.608  22.232  24.032  1.00  0.00     0.117 C 
BRANCH   7   8
ATOM      8  C   UNL A   1      33.554  20.714  24.389  1.00  0.00     0.035 C 
ATOM      9  C   UNL A   1      32.921  20.324  25.722  1.00  0.00     0.007 C 
ENDBRANCH   7   8
BRANCH   7  10
ATOM     10  C   UNL A   1      32.606  22.544  22.873  1.00  0.00     0.035 C 
ATOM     11  C   UNL A   1      31.951  21.372  22.166  1.00  0.00     0.007 C 
ENDBRANCH   7  10
BRANCH   7  12
ATOM     12  N   UNL A   1      33.279  22.939  25.313  1.00  0.00    -0.357 N 
ATOM     13  H   UNL A   1      33.419  22.402  26.126  1.00  0.00     0.163 HD
BRANCH  12  14
ATOM     14  C   UNL A   1      32.806  24.237  25.543  1.00  0.00     0.107 A 
ATOM     15  C   UNL A   1      33.661  25.275  25.690  1.00  0.00     0.053 A 
ATOM     16  N   UNL A   1      31.471  24.518  25.714  1.00  0.00    -0.308 N 
ATOM     17  C   UNL A   1      33.194  26.603  26.130  1.00  0.00    -0.009 A 
ATOM     18  C   UNL A   1      30.929  25.665  26.238  1.00  0.00     0.257 A 
ATOM     19  H   UNL A   1      30.835  23.822  25.430  1.00  0.00     0.171 HD
ATOM     20  C   UNL A   1      34.045  27.705  26.244  1.00  0.00     0.009 A 
ATOM     21  C   UNL A   1      31.865  26.757  26.537  1.00  0.00     0.047 A 
ATOM     22  O   UNL A   1      29.726  25.773  26.467  1.00  0.00    -0.269 OA
ATOM     23  C   UNL A   1      33.587  28.897  26.826  1.00  0.00     0.001 A 
ATOM     24  C   UNL A   1      31.415  27.918  27.172  1.00  0.00     0.014 A 
ATOM     25  C   UNL A   1      32.286  28.990  27.326  1.00  0.00     0.001 A 
ENDBRANCH  12  14
ENDBRANCH   7  12
ENDBRANCH   4   7
ENDBRANCH   2   3
ENDBRANCH   1   2
BRANCH   1  26
ATOM     26  C   UNL A   1      38.317  19.863  24.690  1.00  0.00     0.023 C 
BRANCH  26  27
ATOM     27  C   UNL A   1      39.264  20.159  25.835  1.00  0.00     0.116 C 
BRANCH  27  28
ATOM     28  N   UNL A   1      40.290  19.135  25.975  1.00  0.00    -0.352 N 
ATOM     29  C   UNL A   1      41.641  19.280  26.167  1.00  0.00     0.251 C 
ATOM     30  H   UNL A   1      39.969  18.207  25.925  1.00  0.00     0.163 HD
ATOM     31  O   UNL A   1      42.391  18.319  26.030  1.00  0.00    -0.269 OA
BRANCH  29  32
ATOM     32  C   UNL A   1      42.189  20.602  26.530  1.00  0.00     0.039 A 
ATOM     33  C   UNL A   1      42.603  21.470  25.518  1.00  0.00     0.014 A 
ATOM     34  C   UNL A   1      42.288  20.986  27.869  1.00  0.00     0.014 A 
ATOM     35  C   UNL A   1      43.064  22.744  25.852  1.00  0.00     0.010 A 
ATOM     36  C   UNL A   1      42.630  22.292  28.190  1.00  0.00     0.010 A 
ATOM     37  C   UNL A   1      43.048  23.177  27.188  1.00  0.00    -0.014 A 
BRANCH  37  38
ATOM     38  C   UNL A   1      43.504  24.536  27.569  1.00  0.00     0.031 A 
ATOM     39  C   UNL A   1      42.491  25.588  27.933  1.00  0.00     0.074 A 
ATOM     40  C   UNL A   1      44.816  24.836  27.530  1.00  0.00     0.049 A 
ATOM     41  N   UNL A   1      42.676  26.848  28.232  1.00  0.00    -0.248 NA
ATOM     42  C   UNL A   1      41.076  25.179  27.925  1.00  0.00     0.031 C 
ATOM     43  C   UNL A   1      45.884  23.915  27.140  1.00  0.00     0.029 A 
ATOM     44  N   UNL A   1      45.474  26.006  27.816  1.00  0.00    -0.354 N 
ATOM     45  C   UNL A   1      41.407  27.380  28.424  1.00  0.00     0.074 A 
ATOM     46  C   UNL A   1      40.457  26.327  28.144  1.00  0.00     0.031 C 
ATOM     47  C   UNL A   1      47.066  24.542  27.246  1.00  0.00     0.029 A 
ATOM     48  C   UNL A   1      46.837  25.921  27.664  1.00  0.00     0.049 A 
ATOM     49  H   UNL A   1      45.013  26.827  28.101  1.00  0.00     0.167 HD
ATOM     50  C   UNL A   1      41.065  28.626  28.827  1.00  0.00     0.037 A 
ATOM     51  C   UNL A   1      47.790  26.855  27.839  1.00  0.00     0.037 A 
ATOM     52  C   UNL A   1      42.020  29.657  29.134  1.00  0.00     0.049 A 
ATOM     53  C   UNL A   1      47.382  28.236  28.280  1.00  0.00     0.074 A 
ATOM     54  C   UNL A   1      41.786  30.932  29.616  1.00  0.00     0.029 A 
ATOM     55  N   UNL A   1      43.394  29.531  28.982  1.00  0.00    -0.354 N 
ATOM     56  N   UNL A   1      46.186  28.704  28.539  1.00  0.00    -0.248 NA
ATOM     57  C   UNL A   1      48.461  29.217  28.460  1.00  0.00     0.031 C 
ATOM     58  C   UNL A   1      43.012  31.598  29.699  1.00  0.00     0.029 A 
ATOM     59  C   UNL A   1      44.017  30.716  29.333  1.00  0.00     0.049 A 
ATOM     60  H   UNL A   1      43.855  28.719  28.670  1.00  0.00     0.167 HD
ATOM     61  C   UNL A   1      46.369  30.020  28.942  1.00  0.00     0.074 A 
ATOM     62  C   UNL A   1      47.795  30.270  28.910  1.00  0.00     0.031 C 
ATOM     63  C   UNL A   1      45.441  30.940  29.305  1.00  0.00     0.037 A 
BRANCH  50  64
ATOM     64  C   UNL A   1      39.603  28.942  28.960  1.00  0.00     0.064 A 
ATOM     65  C   UNL A   1      38.826  29.335  27.857  1.00  0.00     0.173 A 
ATOM     66  C   UNL A   1      38.959  28.817  30.200  1.00  0.00     0.173 A 
ATOM     67  F   UNL A   1      39.392  29.481  26.651  1.00  0.00    -0.203 F 
ATOM     68  C   UNL A   1      37.471  29.621  28.000  1.00  0.00     0.198 A 
ATOM     69  C   UNL A   1      37.596  29.070  30.332  1.00  0.00     0.198 A 
ATOM     70  F   UNL A   1      39.650  28.441  31.287  1.00  0.00    -0.203 F 
ATOM     71  F   UNL A   1      36.764  30.048  26.944  1.00  0.00    -0.200 F 
ATOM     72  C   UNL A   1      36.855  29.480  29.234  1.00  0.00     0.200 A 
ATOM     73  F   UNL A   1      36.999  28.917  31.522  1.00  0.00    -0.200 F 
ATOM     74  F   UNL A   1      35.548  29.746  29.367  1.00  0.00    -0.200 F 
ENDBRANCH  50  64
BRANCH  51  75
ATOM     75  C   UNL A   1      49.221  26.512  27.626  1.00  0.00     0.064 A 
ATOM     76  C   UNL A   1      50.079  26.296  28.714  1.00  0.00     0.173 A 
ATOM     77  C   UNL A   1      49.766  26.406  26.337  1.00  0.00     0.173 A 
ATOM     78  F   UNL A   1      49.612  26.405  29.966  1.00  0.00    -0.203 F 
ATOM     79  C   UNL A   1      51.431  26.015  28.522  1.00  0.00     0.198 A 
ATOM     80  C   UNL A   1      51.110  26.092  26.146  1.00  0.00     0.198 A 
ATOM     81  F   UNL A   1      48.988  26.598  25.262  1.00  0.00    -0.203 F 
ATOM     82  F   UNL A   1      52.238  25.868  29.581  1.00  0.00    -0.200 F 
ATOM     83  C   UNL A   1      51.943  25.907  27.238  1.00  0.00     0.200 A 
ATOM     84  F   UNL A   1      51.598  25.972  24.904  1.00  0.00    -0.200 F 
ATOM     85  F   UNL A   1      53.243  25.635  27.055  1.00  0.00    -0.200 F 
ENDBRANCH  51  75
BRANCH  63  86
ATOM     86  C   UNL A   1      45.941  32.287  29.742  1.00  0.00     0.064 A 
ATOM     87  C   UNL A   1      46.298  32.550  31.073  1.00  0.00     0.173 A 
ATOM     88  C   UNL A   1      46.107  33.318  28.803  1.00  0.00     0.173 A 
ATOM     89  F   UNL A   1      46.147  31.603  32.012  1.00  0.00    -0.203 F 
ATOM     90  C   UNL A   1      46.772  33.802  31.453  1.00  0.00     0.198 A 
ATOM     91  C   UNL A   1      46.616  34.556  29.180  1.00  0.00     0.198 A 
ATOM     92  F   UNL A   1      45.790  33.118  27.515  1.00  0.00    -0.203 F 
ATOM     93  F   UNL A   1      47.054  34.046  32.740  1.00  0.00    -0.200 F 
ATOM     94  C   UNL A   1      46.938  34.802  30.506  1.00  0.00     0.200 A 
ATOM     95  F   UNL A   1      46.794  35.514  28.259  1.00  0.00    -0.200 F 
ATOM     96  F   UNL A   1      47.404  36.003  30.871  1.00  0.00    -0.200 F 
ENDBRANCH  63  86
ENDBRANCH  37  38
ENDBRANCH  29  32
ENDBRANCH  27  28
ENDBRANCH  26  27
ENDBRANCH   1  26
TORSDOF 15
ENDMDL
MODEL 2
REMARK VINA RESULT:     -12.0      5.438     10.731
REMARK SMILES CCC(CC)(Nc1cc2ccccc2c(=O)[nH]1)C(=O)NCCCCNC(=O)c1ccc(-c2c3nc(c(-c4c(F)c(F)c(F)c(F)c4F)c4ccc([nH]4)c(-c4c(F)c(F)c(F)c(F)c4F)c4nc(c(-c5c(F)c(F)c(F)c(F)c5F)c5ccc2[nH]5)C=C4)C=C3)cc1
REMARK SMILES IDX 22 1 21 2 20 3 18 4 19 5 3 7 2 8 1 9 4 10 5 11 6 12 7 14
REMARK SMILES IDX 8 15 17 16 9 17 15 18 10 20 14 21 16 22 11 23 13 24 12 25
REMARK SMILES IDX 23 26 24 27 25 28 26 29 27 31 28 32 29 33 90 34 30 35 89 36
REMARK SMILES IDX 31 37 32 38 33 39 83 40 34 41 88 42 82 43 84 44 35 45 87 46
REMARK SMILES IDX 81 47 80 48 36 50 68 51 48 52 67 53 49 54 52 55 66 56 85 57
REMARK SMILES IDX 50 58 51 59 65 61 86 62 53 63 37 64 38 65 46 66 39 67 40 68
REMARK SMILES IDX 44 69 47 70 41 71 42 72 45 73 43 74 69 75 70 76 78 77 71 78
REMARK SMILES IDX 72 79 76 80 79 81 73 82 74 83 77 84 75 85 54 86 55 87 63 88
REMARK SMILES IDX 56 89 57 90 61 91 64 92 58 93 59 94 62 95 60 96
REMARK H PARENT 20 6 6 13 17 19 25 30 84 49 52 60
REMARK Flexibility Score: inf
ROOT
ATOM      1  C   UNL A   1      31.435  30.698  26.680  1.00  0.00     0.023 C 
ENDROOT
BRANCH   1   2
ATOM      2  C   UNL A   1      32.040  30.035  25.445  1.00  0.00     0.116 C 
BRANCH   2   3
ATOM      3  N   UNL A   1      31.197  30.007  24.254  1.00  0.00    -0.354 N 
ATOM      4  C   UNL A   1      30.945  29.000  23.353  1.00  0.00     0.245 C 
ATOM      5  O   UNL A   1      30.177  29.276  22.428  1.00  0.00    -0.272 OA
ATOM      6  H   UNL A   1      30.730  30.853  24.064  1.00  0.00     0.163 HD
BRANCH   4   7
ATOM      7  C   UNL A   1      31.680  27.627  23.455  1.00  0.00     0.117 C 
BRANCH   7   8
ATOM      8  C   UNL A   1      32.896  27.516  22.484  1.00  0.00     0.035 C 
ATOM      9  C   UNL A   1      33.996  28.566  22.606  1.00  0.00     0.007 C 
ENDBRANCH   7   8
BRANCH   7  10
ATOM     10  C   UNL A   1      30.603  26.554  23.089  1.00  0.00     0.035 C 
ATOM     11  C   UNL A   1      29.366  26.463  23.963  1.00  0.00     0.007 C 
ENDBRANCH   7  10
BRANCH   7  12
ATOM     12  N   UNL A   1      32.266  27.444  24.824  1.00  0.00    -0.357 N 
ATOM     13  H   UNL A   1      32.362  28.274  25.344  1.00  0.00     0.163 HD
BRANCH  12  14
ATOM     14  C   UNL A   1      32.697  26.286  25.483  1.00  0.00     0.107 A 
ATOM     15  C   UNL A   1      33.935  25.784  25.273  1.00  0.00     0.053 A 
ATOM     16  N   UNL A   1      31.873  25.554  26.307  1.00  0.00    -0.308 N 
ATOM     17  C   UNL A   1      34.331  24.463  25.799  1.00  0.00    -0.009 A 
ATOM     18  C   UNL A   1      32.077  24.271  26.749  1.00  0.00     0.257 A 
ATOM     19  H   UNL A   1      31.050  25.998  26.612  1.00  0.00     0.171 HD
ATOM     20  C   UNL A   1      35.617  23.940  25.638  1.00  0.00     0.009 A 
ATOM     21  C   UNL A   1      33.366  23.656  26.408  1.00  0.00     0.047 A 
ATOM     22  O   UNL A   1      31.221  23.656  27.382  1.00  0.00    -0.269 OA
ATOM     23  C   UNL A   1      35.893  22.615  26.008  1.00  0.00     0.001 A 
ATOM     24  C   UNL A   1      33.615  22.317  26.724  1.00  0.00     0.014 A 
ATOM     25  C   UNL A   1      34.884  21.792  26.513  1.00  0.00     0.001 A 
ENDBRANCH  12  14
ENDBRANCH   7  12
ENDBRANCH   4   7
ENDBRANCH   2   3
ENDBRANCH   1   2
BRANCH   1  26
ATOM     26  C   UNL A   1      31.416  32.216  26.661  1.00  0.00     0.023 C 
BRANCH  26  27
ATOM     27  C   UNL A   1      32.669  32.847  27.234  1.00  0.00     0.116 C 
BRANCH  27  28
ATOM     28  N   UNL A   1      32.464  34.242  27.593  1.00  0.00    -0.352 N 
ATOM     29  C   UNL A   1      33.013  34.964  28.622  1.00  0.00     0.251 C 
ATOM     30  H   UNL A   1      31.842  34.740  27.015  1.00  0.00     0.163 HD
ATOM     31  O   UNL A   1      32.555  36.062  28.922  1.00  0.00    -0.269 OA
BRANCH  29  32
ATOM     32  C   UNL A   1      34.154  34.407  29.377  1.00  0.00     0.039 A 
ATOM     33  C   UNL A   1      33.911  33.681  30.544  1.00  0.00     0.014 A 
ATOM     34  C   UNL A   1      35.462  34.597  28.928  1.00  0.00     0.014 A 
ATOM     35  C   UNL A   1      34.980  33.100  31.227  1.00  0.00     0.010 A 
ATOM     36  C   UNL A   1      36.508  33.920  29.537  1.00  0.00     0.010 A 
ATOM     37  C   UNL A   1      36.283  33.186  30.709  1.00  0.00    -0.014 A 
BRANCH  37  38
ATOM     38  C   UNL A   1      37.435  32.554  31.397  1.00  0.00     0.031 A 
ATOM     39  C   UNL A   1      38.164  31.414  30.737  1.00  0.00     0.074 A 
ATOM     40  C   UNL A   1      37.783  32.963  32.632  1.00  0.00     0.049 A 
ATOM     41  N   UNL A   1      39.150  30.686  31.194  1.00  0.00    -0.248 NA
ATOM     42  C   UNL A   1      37.700  31.016  29.398  1.00  0.00     0.031 C 
ATOM     43  C   UNL A   1      37.115  34.020  33.393  1.00  0.00     0.029 A 
ATOM     44  N   UNL A   1      38.783  32.533  33.468  1.00  0.00    -0.354 N 
ATOM     45  C   UNL A   1      39.406  29.738  30.212  1.00  0.00     0.074 A 
ATOM     46  C   UNL A   1      38.431  29.937  29.163  1.00  0.00     0.031 C 
ATOM     47  C   UNL A   1      37.746  34.182  34.567  1.00  0.00     0.029 A 
ATOM     48  C   UNL A   1      38.829  33.210  34.662  1.00  0.00     0.049 A 
ATOM     49  H   UNL A   1      39.406  31.808  33.233  1.00  0.00     0.167 HD
ATOM     50  C   UNL A   1      40.383  28.803  30.174  1.00  0.00     0.037 A 
ATOM     51  C   UNL A   1      39.653  33.055  35.716  1.00  0.00     0.037 A 
ATOM     52  C   UNL A   1      41.369  28.634  31.207  1.00  0.00     0.049 A 
ATOM     53  C   UNL A   1      40.728  32.003  35.651  1.00  0.00     0.074 A 
ATOM     54  C   UNL A   1      42.445  27.765  31.239  1.00  0.00     0.029 A 
ATOM     55  N   UNL A   1      41.394  29.346  32.398  1.00  0.00    -0.354 N 
ATOM     56  N   UNL A   1      41.012  31.167  34.682  1.00  0.00    -0.248 NA
ATOM     57  C   UNL A   1      41.601  31.878  36.825  1.00  0.00     0.031 C 
ATOM     58  C   UNL A   1      43.085  27.909  32.473  1.00  0.00     0.029 A 
ATOM     59  C   UNL A   1      42.449  28.915  33.184  1.00  0.00     0.049 A 
ATOM     60  H   UNL A   1      40.755  30.053  32.647  1.00  0.00     0.167 HD
ATOM     61  C   UNL A   1      42.114  30.440  35.114  1.00  0.00     0.074 A 
ATOM     62  C   UNL A   1      42.457  30.948  36.426  1.00  0.00     0.031 C 
ATOM     63  C   UNL A   1      42.781  29.443  34.483  1.00  0.00     0.037 A 
BRANCH  50  64
ATOM     64  C   UNL A   1      40.437  27.895  28.978  1.00  0.00     0.064 A 
ATOM     65  C   UNL A   1      39.711  26.694  28.926  1.00  0.00     0.173 A 
ATOM     66  C   UNL A   1      41.198  28.247  27.853  1.00  0.00     0.173 A 
ATOM     67  F   UNL A   1      38.977  26.304  29.978  1.00  0.00    -0.203 F 
ATOM     68  C   UNL A   1      39.771  25.867  27.808  1.00  0.00     0.198 A 
ATOM     69  C   UNL A   1      41.228  27.434  26.722  1.00  0.00     0.198 A 
ATOM     70  F   UNL A   1      41.908  29.385  27.845  1.00  0.00    -0.203 F 
ATOM     71  F   UNL A   1      39.113  24.698  27.806  1.00  0.00    -0.200 F 
ATOM     72  C   UNL A   1      40.522  26.241  26.704  1.00  0.00     0.200 A 
ATOM     73  F   UNL A   1      41.941  27.805  25.650  1.00  0.00    -0.200 F 
ATOM     74  F   UNL A   1      40.570  25.448  25.625  1.00  0.00    -0.200 F 
ENDBRANCH  50  64
BRANCH  51  75
ATOM     75  C   UNL A   1      39.514  33.934  36.908  1.00  0.00     0.064 A 
ATOM     76  C   UNL A   1      40.125  35.196  36.947  1.00  0.00     0.173 A 
ATOM     77  C   UNL A   1      38.784  33.530  38.036  1.00  0.00     0.173 A 
ATOM     78  F   UNL A   1      40.851  35.620  35.903  1.00  0.00    -0.203 F 
ATOM     79  C   UNL A   1      40.034  36.006  38.077  1.00  0.00     0.198 A 
ATOM     80  C   UNL A   1      38.665  34.356  39.152  1.00  0.00     0.198 A 
ATOM     81  F   UNL A   1      38.174  32.335  38.049  1.00  0.00    -0.203 F 
ATOM     82  F   UNL A   1      40.673  37.183  38.107  1.00  0.00    -0.200 F 
ATOM     83  C   UNL A   1      39.298  35.588  39.176  1.00  0.00     0.200 A 
ATOM     84  F   UNL A   1      37.940  33.955  40.205  1.00  0.00    -0.200 F 
ATOM     85  F   UNL A   1      39.210  36.369  40.261  1.00  0.00    -0.200 F 
ENDBRANCH  51  75
BRANCH  63  86
ATOM     86  C   UNL A   1      43.978  28.866  35.183  1.00  0.00     0.064 A 
ATOM     87  C   UNL A   1      45.269  29.380  34.990  1.00  0.00     0.173 A 
ATOM     88  C   UNL A   1      43.822  27.809  36.094  1.00  0.00     0.173 A 
ATOM     89  F   UNL A   1      45.474  30.381  34.121  1.00  0.00    -0.203 F 
ATOM     90  C   UNL A   1      46.362  28.838  35.660  1.00  0.00     0.198 A 
ATOM     91  C   UNL A   1      44.912  27.294  36.788  1.00  0.00     0.198 A 
ATOM     92  F   UNL A   1      42.609  27.285  36.322  1.00  0.00    -0.203 F 
ATOM     93  F   UNL A   1      47.593  29.309  35.418  1.00  0.00    -0.200 F 
ATOM     94  C   UNL A   1      46.183  27.801  36.564  1.00  0.00     0.200 A 
ATOM     95  F   UNL A   1      44.732  26.305  37.676  1.00  0.00    -0.200 F 
ATOM     96  F   UNL A   1      47.234  27.288  37.214  1.00  0.00    -0.200 F 
ENDBRANCH  63  86
ENDBRANCH  37  38
ENDBRANCH  29  32
ENDBRANCH  27  28
ENDBRANCH  26  27
ENDBRANCH   1  26
TORSDOF 15
ENDMDL
MODEL 3
REMARK VINA RESULT:     -12.0      0.982      1.604
REMARK SMILES CCC(CC)(Nc1cc2ccccc2c(=O)[nH]1)C(=O)NCCCCNC(=O)c1ccc(-c2c3nc(c(-c4c(F)c(F)c(F)c(F)c4F)c4ccc([nH]4)c(-c4c(F)c(F)c(F)c(F)c4F)c4nc(c(-c5c(F)c(F)c(F)c(F)c5F)c5ccc2[nH]5)C=C4)C=C3)cc1
REMARK SMILES IDX 22 1 21 2 20 3 18 4 19 5 3 7 2 8 1 9 4 10 5 11 6 12 7 14
REMARK SMILES IDX 8 15 17 16 9 17 15 18 10 20 14 21 16 22 11 23 13 24 12 25
REMARK SMILES IDX 23 26 24 27 25 28 26 29 27 31 28 32 29 33 90 34 30 35 89 36
REMARK SMILES IDX 31 37 32 38 33 39 83 40 34 41 88 42 82 43 84 44 35 45 87 46
REMARK SMILES IDX 81 47 80 48 36 50 68 51 48 52 67 53 49 54 52 55 66 56 85 57
REMARK SMILES IDX 50 58 51 59 65 61 86 62 53 63 37 64 38 65 46 66 39 67 40 68
REMARK SMILES IDX 44 69 47 70 41 71 42 72 45 73 43 74 69 75 70 76 78 77 71 78
REMARK SMILES IDX 72 79 76 80 79 81 73 82 74 83 77 84 75 85 54 86 55 87 63 88
REMARK SMILES IDX 56 89 57 90 61 91 64 92 58 93 59 94 62 95 60 96
REMARK H PARENT 20 6 6 13 17 19 25 30 84 49 52 60
REMARK Flexibility Score: inf
ROOT
ATOM      1  C   UNL A   1      38.914  22.202  26.264  1.00  0.00     0.023 C 
ENDROOT
BRANCH   1   2
ATOM      2  C   UNL A   1      37.675  22.956  25.786  1.00  0.00     0.116 C 
BRANCH   2   3
ATOM      3  N   UNL A   1      37.470  23.001  24.342  1.00  0.00    -0.354 N 
ATOM      4  C   UNL A   1      36.317  22.943  23.595  1.00  0.00     0.245 C 
ATOM      5  O   UNL A   1      36.457  23.003  22.371  1.00  0.00    -0.272 OA
ATOM      6  H   UNL A   1      38.296  23.088  23.814  1.00  0.00     0.163 HD
BRANCH   4   7
ATOM      7  C   UNL A   1      34.931  22.709  24.272  1.00  0.00     0.117 C 
BRANCH   7   8
ATOM      8  C   UNL A   1      34.778  21.271  24.859  1.00  0.00     0.035 C 
ATOM      9  C   UNL A   1      34.128  21.134  26.233  1.00  0.00     0.007 C 
ENDBRANCH   7   8
BRANCH   7  10
ATOM     10  C   UNL A   1      33.875  22.941  23.143  1.00  0.00     0.035 C 
ATOM     11  C   UNL A   1      32.733  21.949  23.024  1.00  0.00     0.007 C 
ENDBRANCH   7  10
BRANCH   7  12
ATOM     12  N   UNL A   1      34.759  23.623  25.449  1.00  0.00    -0.357 N 
ATOM     13  H   UNL A   1      35.348  23.426  26.212  1.00  0.00     0.163 HD
BRANCH  12  14
ATOM     14  C   UNL A   1      33.898  24.711  25.640  1.00  0.00     0.107 A 
ATOM     15  C   UNL A   1      34.364  25.980  25.624  1.00  0.00     0.053 A 
ATOM     16  N   UNL A   1      32.563  24.555  25.934  1.00  0.00    -0.308 N 
ATOM     17  C   UNL A   1      33.514  27.119  26.021  1.00  0.00    -0.009 A 
ATOM     18  C   UNL A   1      31.711  25.507  26.434  1.00  0.00     0.257 A 
ATOM     19  H   UNL A   1      32.177  23.664  25.767  1.00  0.00     0.171 HD
ATOM     20  C   UNL A   1      33.953  28.445  25.969  1.00  0.00     0.009 A 
ATOM     21  C   UNL A   1      32.247  26.869  26.556  1.00  0.00     0.047 A 
ATOM     22  O   UNL A   1      30.563  25.237  26.782  1.00  0.00    -0.269 OA
ATOM     23  C   UNL A   1      33.168  29.472  26.515  1.00  0.00     0.001 A 
ATOM     24  C   UNL A   1      31.485  27.876  27.156  1.00  0.00     0.014 A 
ATOM     25  C   UNL A   1      31.955  29.184  27.143  1.00  0.00     0.001 A 
ENDBRANCH  12  14
ENDBRANCH   7  12
ENDBRANCH   4   7
ENDBRANCH   2   3
ENDBRANCH   1   2
BRANCH   1  26
ATOM     26  C   UNL A   1      39.220  20.914  25.520  1.00  0.00     0.023 C 
BRANCH  26  27
ATOM     27  C   UNL A   1      39.666  19.782  26.423  1.00  0.00     0.116 C 
BRANCH  27  28
ATOM     28  N   UNL A   1      40.896  19.160  25.954  1.00  0.00    -0.352 N 
ATOM     29  C   UNL A   1      42.134  19.719  25.761  1.00  0.00     0.251 C 
ATOM     30  H   UNL A   1      40.830  18.201  25.745  1.00  0.00     0.163 HD
ATOM     31  O   UNL A   1      42.998  19.109  25.140  1.00  0.00    -0.269 OA
BRANCH  29  32
ATOM     32  C   UNL A   1      42.417  21.066  26.296  1.00  0.00     0.039 A 
ATOM     33  C   UNL A   1      42.469  21.255  27.678  1.00  0.00     0.014 A 
ATOM     34  C   UNL A   1      42.638  22.140  25.432  1.00  0.00     0.014 A 
ATOM     35  C   UNL A   1      42.797  22.511  28.188  1.00  0.00     0.010 A 
ATOM     36  C   UNL A   1      43.082  23.354  25.936  1.00  0.00     0.010 A 
ATOM     37  C   UNL A   1      43.140  23.561  27.320  1.00  0.00    -0.014 A 
BRANCH  37  38
ATOM     38  C   UNL A   1      43.521  24.900  27.834  1.00  0.00     0.031 A 
ATOM     39  C   UNL A   1      42.450  25.910  28.150  1.00  0.00     0.074 A 
ATOM     40  C   UNL A   1      44.822  25.223  27.958  1.00  0.00     0.049 A 
ATOM     41  N   UNL A   1      42.573  27.150  28.547  1.00  0.00    -0.248 NA
ATOM     42  C   UNL A   1      41.055  25.479  27.962  1.00  0.00     0.031 C 
ATOM     43  C   UNL A   1      45.947  24.347  27.630  1.00  0.00     0.029 A 
ATOM     44  N   UNL A   1      45.418  26.382  28.388  1.00  0.00    -0.354 N 
ATOM     45  C   UNL A   1      41.278  27.648  28.632  1.00  0.00     0.074 A 
ATOM     46  C   UNL A   1      40.388  26.601  28.184  1.00  0.00     0.031 C 
ATOM     47  C   UNL A   1      47.096  24.985  27.904  1.00  0.00     0.029 A 
ATOM     48  C   UNL A   1      46.791  26.329  28.381  1.00  0.00     0.049 A 
ATOM     49  H   UNL A   1      44.910  27.175  28.672  1.00  0.00     0.167 HD
ATOM     50  C   UNL A   1      40.866  28.859  29.073  1.00  0.00     0.037 A 
ATOM     51  C   UNL A   1      47.698  27.266  28.718  1.00  0.00     0.037 A 
ATOM     52  C   UNL A   1      41.758  29.883  29.548  1.00  0.00     0.049 A 
ATOM     53  C   UNL A   1      47.213  28.607  29.198  1.00  0.00     0.074 A 
ATOM     54  C   UNL A   1      41.444  31.120  30.081  1.00  0.00     0.029 A 
ATOM     55  N   UNL A   1      43.143  29.790  29.539  1.00  0.00    -0.354 N 
ATOM     56  N   UNL A   1      45.984  29.039  29.354  1.00  0.00    -0.248 NA
ATOM     57  C   UNL A   1      48.243  29.592  29.557  1.00  0.00     0.031 C 
ATOM     58  C   UNL A   1      42.638  31.799  30.340  1.00  0.00     0.029 A 
ATOM     59  C   UNL A   1      43.697  30.959  30.031  1.00  0.00     0.049 A 
ATOM     60  H   UNL A   1      43.654  29.008  29.230  1.00  0.00     0.167 HD
ATOM     61  C   UNL A   1      46.092  30.328  29.857  1.00  0.00     0.074 A 
ATOM     62  C   UNL A   1      47.507  30.603  29.997  1.00  0.00     0.031 C 
ATOM     63  C   UNL A   1      45.110  31.207  30.174  1.00  0.00     0.037 A 
BRANCH  50  64
ATOM     64  C   UNL A   1      39.391  29.142  29.065  1.00  0.00     0.064 A 
ATOM     65  C   UNL A   1      38.702  29.449  27.880  1.00  0.00     0.173 A 
ATOM     66  C   UNL A   1      38.647  29.072  30.253  1.00  0.00     0.173 A 
ATOM     67  F   UNL A   1      39.365  29.542  26.718  1.00  0.00    -0.203 F 
ATOM     68  C   UNL A   1      37.333  29.706  27.892  1.00  0.00     0.198 A 
ATOM     69  C   UNL A   1      37.273  29.294  30.255  1.00  0.00     0.198 A 
ATOM     70  F   UNL A   1      39.253  28.778  31.414  1.00  0.00    -0.203 F 
ATOM     71  F   UNL A   1      36.709  30.052  26.757  1.00  0.00    -0.200 F 
ATOM     72  C   UNL A   1      36.619  29.620  29.076  1.00  0.00     0.200 A 
ATOM     73  F   UNL A   1      36.581  29.194  31.398  1.00  0.00    -0.200 F 
ATOM     74  F   UNL A   1      35.300  29.857  29.084  1.00  0.00    -0.200 F 
ENDBRANCH  50  64
BRANCH  51  75
ATOM     75  C   UNL A   1      49.151  26.960  28.642  1.00  0.00     0.064 A 
ATOM     76  C   UNL A   1      49.872  27.180  27.458  1.00  0.00     0.173 A 
ATOM     77  C   UNL A   1      49.848  26.431  29.738  1.00  0.00     0.173 A 
ATOM     78  F   UNL A   1      49.247  27.666  26.375  1.00  0.00    -0.203 F 
ATOM     79  C   UNL A   1      51.224  26.857  27.367  1.00  0.00     0.198 A 
ATOM     80  C   UNL A   1      51.208  26.140  29.656  1.00  0.00     0.198 A 
ATOM     81  F   UNL A   1      49.208  26.207  30.895  1.00  0.00    -0.203 F 
ATOM     82  F   UNL A   1      51.874  27.026  26.207  1.00  0.00    -0.200 F 
ATOM     83  C   UNL A   1      51.892  26.343  28.468  1.00  0.00     0.200 A 
ATOM     84  F   UNL A   1      51.854  25.659  30.727  1.00  0.00    -0.200 F 
ATOM     85  F   UNL A   1      53.194  26.034  28.380  1.00  0.00    -0.200 F 
ENDBRANCH  51  75
BRANCH  63  86
ATOM     86  C   UNL A   1      45.529  32.531  30.747  1.00  0.00     0.064 A 
ATOM     87  C   UNL A   1      45.722  32.714  32.124  1.00  0.00     0.173 A 
ATOM     88  C   UNL A   1      45.782  33.620  29.898  1.00  0.00     0.173 A 
ATOM     89  F   UNL A   1      45.481  31.709  32.979  1.00  0.00    -0.203 F 
ATOM     90  C   UNL A   1      46.123  33.946  32.632  1.00  0.00     0.198 A 
ATOM     91  C   UNL A   1      46.218  34.839  30.406  1.00  0.00     0.198 A 
ATOM     92  F   UNL A   1      45.621  33.496  28.572  1.00  0.00    -0.203 F 
ATOM     93  F   UNL A   1      46.248  34.113  33.956  1.00  0.00    -0.200 F 
ATOM     94  C   UNL A   1      46.379  35.005  31.773  1.00  0.00     0.200 A 
ATOM     95  F   UNL A   1      46.483  35.854  29.572  1.00  0.00    -0.200 F 
ATOM     96  F   UNL A   1      46.775  36.187  32.263  1.00  0.00    -0.200 F 
ENDBRANCH  63  86
ENDBRANCH  37  38
ENDBRANCH  29  32
ENDBRANCH  27  28
ENDBRANCH  26  27
ENDBRANCH   1  26
TORSDOF 15
ENDMDL
