MODEL 1
REMARK VINA RESULT:     -12.3      0.000      0.000
REMARK SMILES O=C(NCCCCNC(=O)c1cc(S(=O)(=O)NCc2ccncc2)c(Cl)cc1Cl)c1ccc(-c2c3nc(c(-c4c(F)c(F)c(F)c(F)c4F)c4ccc([nH]4)c(-c4c(F)c(F)c(F)c(F)c4F)c4nc(c(-c5c(F)c(F)c(F)c(F)c5F)c5ccc2[nH]5)C=C4)C=C3)cc1
REMARK SMILES IDX 6 1 5 2 4 3 3 4 1 5 2 6 30 8 31 9 92 10 32 11 91 12 33 13
REMARK SMILES IDX 34 14 35 15 85 16 36 17 90 18 84 19 86 20 37 21 89 22 83 23
REMARK SMILES IDX 82 24 38 26 70 27 50 28 69 29 51 30 54 31 68 32 87 33 52 34
REMARK SMILES IDX 53 35 67 37 88 38 55 39 39 40 40 41 48 42 41 43 42 44 46 45
REMARK SMILES IDX 49 46 43 47 44 48 47 49 45 50 71 51 72 52 80 53 73 54 74 55
REMARK SMILES IDX 78 56 81 57 75 58 76 59 79 60 77 61 56 62 57 63 65 64 58 65
REMARK SMILES IDX 59 66 63 67 66 68 60 69 61 70 64 71 62 72 7 73 8 74 9 75
REMARK SMILES IDX 10 77 11 78 12 79 28 80 13 81 27 82 29 83 25 84 26 85 14 86
REMARK SMILES IDX 15 87 16 88 17 89 18 91 19 92 20 93 24 94 21 95 23 96 22 97
REMARK H PARENT 3 7 86 25 54 36 8 76 17 90
REMARK Flexibility Score: inf
ROOT
ATOM      1  C   UNL A   1      30.647  31.839  25.386  1.00  0.00     0.023 C 
ENDROOT
BRANCH   1   2
ATOM      2  C   UNL A   1      31.233  31.832  26.796  1.00  0.00     0.023 C 
BRANCH   2   3
ATOM      3  C   UNL A   1      32.525  32.620  26.976  1.00  0.00     0.116 C 
BRANCH   3   4
ATOM      4  N   UNL A   1      32.305  33.979  27.443  1.00  0.00    -0.352 N 
ATOM      5  O   UNL A   1      32.544  35.785  28.773  1.00  0.00    -0.269 OA
ATOM      6  C   UNL A   1      32.960  34.685  28.424  1.00  0.00     0.251 C 
ATOM      7  H   UNL A   1      31.578  34.465  26.992  1.00  0.00     0.163 HD
BRANCH   6   8
ATOM      8  C   UNL A   1      34.153  34.111  29.085  1.00  0.00     0.039 A 
ATOM      9  C   UNL A   1      35.441  34.509  28.722  1.00  0.00     0.014 A 
ATOM     10  C   UNL A   1      33.973  33.164  30.100  1.00  0.00     0.014 A 
ATOM     11  C   UNL A   1      36.545  33.859  29.267  1.00  0.00     0.010 A 
ATOM     12  C   UNL A   1      35.085  32.570  30.705  1.00  0.00     0.010 A 
ATOM     13  C   UNL A   1      36.380  32.888  30.268  1.00  0.00    -0.014 A 
BRANCH  13  14
ATOM     14  C   UNL A   1      37.579  32.254  30.872  1.00  0.00     0.031 A 
ATOM     15  C   UNL A   1      38.044  32.627  32.251  1.00  0.00     0.074 A 
ATOM     16  C   UNL A   1      38.229  31.303  30.173  1.00  0.00     0.049 A 
ATOM     17  N   UNL A   1      39.053  32.150  32.939  1.00  0.00    -0.248 NA
ATOM     18  C   UNL A   1      37.285  33.674  32.951  1.00  0.00     0.031 C 
ATOM     19  C   UNL A   1      37.877  30.867  28.820  1.00  0.00     0.029 A 
ATOM     20  N   UNL A   1      39.303  30.519  30.507  1.00  0.00    -0.354 N 
ATOM     21  C   UNL A   1      39.056  32.843  34.141  1.00  0.00     0.074 A 
ATOM     22  C   UNL A   1      37.966  33.794  34.083  1.00  0.00     0.031 C 
ATOM     23  C   UNL A   1      38.690  29.865  28.457  1.00  0.00     0.029 A 
ATOM     24  C   UNL A   1      39.651  29.623  29.527  1.00  0.00     0.049 A 
ATOM     25  H   UNL A   1      39.779  30.593  31.365  1.00  0.00     0.167 HD
ATOM     26  C   UNL A   1      39.886  32.690  35.201  1.00  0.00     0.037 A 
ATOM     27  C   UNL A   1      40.641  28.712  29.490  1.00  0.00     0.037 A 
ATOM     28  C   UNL A   1      40.962  31.732  35.262  1.00  0.00     0.049 A 
ATOM     29  C   UNL A   1      41.552  28.573  30.675  1.00  0.00     0.074 A 
ATOM     30  C   UNL A   1      41.846  31.491  36.299  1.00  0.00     0.029 A 
ATOM     31  N   UNL A   1      41.298  30.856  34.241  1.00  0.00    -0.354 N 
ATOM     32  N   UNL A   1      41.531  29.221  31.814  1.00  0.00    -0.248 NA
ATOM     33  C   UNL A   1      42.628  27.579  30.567  1.00  0.00     0.031 C 
ATOM     34  C   UNL A   1      42.738  30.491  35.893  1.00  0.00     0.029 A 
ATOM     35  C   UNL A   1      42.385  30.083  34.618  1.00  0.00     0.049 A 
ATOM     36  H   UNL A   1      40.832  30.792  33.376  1.00  0.00     0.167 HD
ATOM     37  C   UNL A   1      42.578  28.708  32.563  1.00  0.00     0.074 A 
ATOM     38  C   UNL A   1      43.203  27.678  31.757  1.00  0.00     0.031 C 
ATOM     39  C   UNL A   1      42.992  29.063  33.804  1.00  0.00     0.037 A 
BRANCH  26  40
ATOM     40  C   UNL A   1      39.672  33.582  36.389  1.00  0.00     0.064 A 
ATOM     41  C   UNL A   1      40.250  34.858  36.460  1.00  0.00     0.173 A 
ATOM     42  C   UNL A   1      38.837  33.180  37.441  1.00  0.00     0.173 A 
ATOM     43  F   UNL A   1      41.065  35.284  35.484  1.00  0.00    -0.203 F 
ATOM     44  C   UNL A   1      40.011  35.693  37.550  1.00  0.00     0.198 A 
ATOM     45  C   UNL A   1      38.583  34.025  38.518  1.00  0.00     0.198 A 
ATOM     46  F   UNL A   1      38.255  31.971  37.419  1.00  0.00    -0.203 F 
ATOM     47  F   UNL A   1      40.600  36.895  37.612  1.00  0.00    -0.200 F 
ATOM     48  C   UNL A   1      39.173  35.277  38.573  1.00  0.00     0.200 A 
ATOM     49  F   UNL A   1      37.763  33.627  39.502  1.00  0.00    -0.200 F 
ATOM     50  F   UNL A   1      38.938  36.086  39.618  1.00  0.00    -0.200 F 
ENDBRANCH  26  40
BRANCH  27  51
ATOM     51  C   UNL A   1      40.811  27.860  28.287  1.00  0.00     0.064 A 
ATOM     52  C   UNL A   1      41.580  28.294  27.199  1.00  0.00     0.173 A 
ATOM     53  C   UNL A   1      40.221  26.590  28.208  1.00  0.00     0.173 A 
ATOM     54  F   UNL A   1      42.146  29.509  27.222  1.00  0.00    -0.203 F 
ATOM     55  C   UNL A   1      41.742  27.494  26.071  1.00  0.00     0.198 A 
ATOM     56  C   UNL A   1      40.407  25.779  27.092  1.00  0.00     0.198 A 
ATOM     57  F   UNL A   1      39.480  26.130  29.227  1.00  0.00    -0.203 F 
ATOM     58  F   UNL A   1      42.451  27.946  25.027  1.00  0.00    -0.200 F 
ATOM     59  C   UNL A   1      41.162  26.235  26.021  1.00  0.00     0.200 A 
ATOM     60  F   UNL A   1      39.856  24.558  27.054  1.00  0.00    -0.200 F 
ATOM     61  F   UNL A   1      41.325  25.461  24.939  1.00  0.00    -0.200 F 
ENDBRANCH  27  51
BRANCH  39  62
ATOM     62  C   UNL A   1      44.164  28.318  34.366  1.00  0.00     0.064 A 
ATOM     63  C   UNL A   1      45.475  28.791  34.206  1.00  0.00     0.173 A 
ATOM     64  C   UNL A   1      43.973  27.130  35.087  1.00  0.00     0.173 A 
ATOM     65  F   UNL A   1      45.708  29.912  33.509  1.00  0.00    -0.203 F 
ATOM     66  C   UNL A   1      46.557  28.085  34.727  1.00  0.00     0.198 A 
ATOM     67  C   UNL A   1      45.055  26.441  35.628  1.00  0.00     0.198 A 
ATOM     68  F   UNL A   1      42.738  26.641  35.270  1.00  0.00    -0.203 F 
ATOM     69  F   UNL A   1      47.804  28.529  34.524  1.00  0.00    -0.200 F 
ATOM     70  C   UNL A   1      46.346  26.914  35.441  1.00  0.00     0.200 A 
ATOM     71  F   UNL A   1      44.849  25.314  36.323  1.00  0.00    -0.200 F 
ATOM     72  F   UNL A   1      47.387  26.237  35.942  1.00  0.00    -0.200 F 
ENDBRANCH  39  62
ENDBRANCH  13  14
ENDBRANCH   6   8
ENDBRANCH   3   4
ENDBRANCH   2   3
ENDBRANCH   1   2
BRANCH   1  73
ATOM     73  C   UNL A   1      30.642  30.492  24.669  1.00  0.00     0.116 C 
BRANCH  73  74
ATOM     74  N   UNL A   1      30.120  30.582  23.313  1.00  0.00    -0.352 N 
ATOM     75  C   UNL A   1      29.847  29.597  22.401  1.00  0.00     0.252 C 
ATOM     76  H   UNL A   1      29.933  31.498  23.003  1.00  0.00     0.163 HD
ATOM     77  O   UNL A   1      29.426  29.896  21.289  1.00  0.00    -0.269 OA
BRANCH  75  78
ATOM     78  C   UNL A   1      29.999  28.175  22.769  1.00  0.00     0.059 A 
ATOM     79  C   UNL A   1      31.247  27.564  22.592  1.00  0.00     0.038 A 
ATOM     80  C   UNL A   1      28.962  27.452  23.360  1.00  0.00     0.055 A 
ATOM     81  C   UNL A   1      31.456  26.226  22.963  1.00  0.00     0.101 A 
ATOM     82  C   UNL A   1      29.193  26.141  23.795  1.00  0.00     0.043 A 
ATOM     83  Cl  UNL A   1      27.368  28.085  23.548  1.00  0.00    -0.083 Cl
ATOM     84  C   UNL A   1      30.444  25.529  23.620  1.00  0.00     0.062 A 
ATOM     85  Cl  UNL A   1      30.633  23.953  24.294  1.00  0.00    -0.083 Cl
BRANCH  81  86
ATOM     86  S   UNL A   1      33.031  25.541  22.530  1.00  0.00     0.242 S 
ATOM     87  O   UNL A   1      32.816  24.125  22.330  1.00  0.00    -0.207 OA
ATOM     88  O   UNL A   1      33.561  26.372  21.472  1.00  0.00    -0.207 OA
BRANCH  86  89
ATOM     89  N   UNL A   1      34.063  25.704  23.824  1.00  0.00    -0.207 NA
ATOM     90  H   UNL A   1      34.422  26.657  23.775  1.00  0.00     0.141 HD
BRANCH  89  91
ATOM     91  C   UNL A   1      33.666  25.504  25.213  1.00  0.00     0.134 C 
BRANCH  91  92
ATOM     92  C   UNL A   1      33.202  26.709  25.981  1.00  0.00    -0.030 A 
ATOM     93  C   UNL A   1      31.952  26.767  26.603  1.00  0.00     0.025 A 
ATOM     94  C   UNL A   1      34.080  27.784  26.166  1.00  0.00     0.025 A 
ATOM     95  C   UNL A   1      31.627  27.893  27.342  1.00  0.00     0.111 A 
ATOM     96  C   UNL A   1      33.668  28.864  26.931  1.00  0.00     0.111 A 
ATOM     97  N   UNL A   1      32.458  28.943  27.520  1.00  0.00    -0.265 NA
ENDBRANCH  91  92
ENDBRANCH  89  91
ENDBRANCH  86  89
ENDBRANCH  81  86
ENDBRANCH  75  78
ENDBRANCH  73  74
ENDBRANCH   1  73
TORSDOF 15
ENDMDL
MODEL 2
REMARK VINA RESULT:     -12.3      0.255      1.734
REMARK SMILES O=C(NCCCCNC(=O)c1cc(S(=O)(=O)NCc2ccncc2)c(Cl)cc1Cl)c1ccc(-c2c3nc(c(-c4c(F)c(F)c(F)c(F)c4F)c4ccc([nH]4)c(-c4c(F)c(F)c(F)c(F)c4F)c4nc(c(-c5c(F)c(F)c(F)c(F)c5F)c5ccc2[nH]5)C=C4)C=C3)cc1
REMARK SMILES IDX 6 1 5 2 4 3 3 4 1 5 2 6 30 8 31 9 92 10 32 11 91 12 33 13
REMARK SMILES IDX 34 14 35 15 85 16 36 17 90 18 84 19 86 20 37 21 89 22 83 23
REMARK SMILES IDX 82 24 38 26 70 27 50 28 69 29 51 30 54 31 68 32 87 33 52 34
REMARK SMILES IDX 53 35 67 37 88 38 55 39 39 40 40 41 48 42 41 43 42 44 46 45
REMARK SMILES IDX 49 46 43 47 44 48 47 49 45 50 71 51 72 52 80 53 73 54 74 55
REMARK SMILES IDX 78 56 81 57 75 58 76 59 79 60 77 61 56 62 57 63 65 64 58 65
REMARK SMILES IDX 59 66 63 67 66 68 60 69 61 70 64 71 62 72 7 73 8 74 9 75
REMARK SMILES IDX 10 77 11 78 12 79 28 80 13 81 27 82 29 83 25 84 26 85 14 86
REMARK SMILES IDX 15 87 16 88 17 89 18 91 19 92 20 93 24 94 21 95 23 96 22 97
REMARK H PARENT 3 7 86 25 54 36 8 76 17 90
REMARK Flexibility Score: inf
ROOT
ATOM      1  C   UNL A   1      30.532  31.916  25.348  1.00  0.00     0.023 C 
ENDROOT
BRANCH   1   2
ATOM      2  C   UNL A   1      31.139  31.953  26.749  1.00  0.00     0.023 C 
BRANCH   2   3
ATOM      3  C   UNL A   1      32.458  32.705  26.876  1.00  0.00     0.116 C 
BRANCH   3   4
ATOM      4  N   UNL A   1      32.309  34.020  27.478  1.00  0.00    -0.352 N 
ATOM      5  O   UNL A   1      32.655  35.674  28.972  1.00  0.00    -0.269 OA
ATOM      6  C   UNL A   1      33.014  34.596  28.509  1.00  0.00     0.251 C 
ATOM      7  H   UNL A   1      31.598  34.580  27.092  1.00  0.00     0.163 HD
BRANCH   6   8
ATOM      8  C   UNL A   1      34.190  33.907  29.084  1.00  0.00     0.039 A 
ATOM      9  C   UNL A   1      34.039  32.809  29.934  1.00  0.00     0.014 A 
ATOM     10  C   UNL A   1      35.470  34.364  28.751  1.00  0.00     0.014 A 
ATOM     11  C   UNL A   1      35.153  32.263  30.563  1.00  0.00     0.010 A 
ATOM     12  C   UNL A   1      36.595  33.761  29.322  1.00  0.00     0.010 A 
ATOM     13  C   UNL A   1      36.444  32.729  30.260  1.00  0.00    -0.014 A 
BRANCH  13  14
ATOM     14  C   UNL A   1      37.618  32.087  30.903  1.00  0.00     0.031 A 
ATOM     15  C   UNL A   1      38.028  32.443  32.304  1.00  0.00     0.074 A 
ATOM     16  C   UNL A   1      38.296  31.144  30.219  1.00  0.00     0.049 A 
ATOM     17  N   UNL A   1      39.009  31.956  33.026  1.00  0.00    -0.248 NA
ATOM     18  C   UNL A   1      37.242  33.481  32.986  1.00  0.00     0.031 C 
ATOM     19  C   UNL A   1      37.998  30.726  28.847  1.00  0.00     0.029 A 
ATOM     20  N   UNL A   1      39.356  30.356  30.585  1.00  0.00    -0.354 N 
ATOM     21  C   UNL A   1      38.964  32.634  34.235  1.00  0.00     0.074 A 
ATOM     22  C   UNL A   1      37.877  33.586  34.146  1.00  0.00     0.031 C 
ATOM     23  C   UNL A   1      38.826  29.729  28.504  1.00  0.00     0.029 A 
ATOM     24  C   UNL A   1      39.743  29.473  29.609  1.00  0.00     0.049 A 
ATOM     25  H   UNL A   1      39.797  30.419  31.463  1.00  0.00     0.167 HD
ATOM     26  C   UNL A   1      39.751  32.467  35.326  1.00  0.00     0.037 A 
ATOM     27  C   UNL A   1      40.733  28.562  29.600  1.00  0.00     0.037 A 
ATOM     28  C   UNL A   1      40.824  31.508  35.418  1.00  0.00     0.049 A 
ATOM     29  C   UNL A   1      41.597  28.408  30.818  1.00  0.00     0.074 A 
ATOM     30  C   UNL A   1      41.666  31.254  36.486  1.00  0.00     0.029 A 
ATOM     31  N   UNL A   1      41.200  30.645  34.399  1.00  0.00    -0.354 N 
ATOM     32  N   UNL A   1      41.530  29.041  31.964  1.00  0.00    -0.248 NA
ATOM     33  C   UNL A   1      42.676  27.415  30.741  1.00  0.00     0.031 C 
ATOM     34  C   UNL A   1      42.573  30.259  36.104  1.00  0.00     0.029 A 
ATOM     35  C   UNL A   1      42.271  29.867  34.810  1.00  0.00     0.049 A 
ATOM     36  H   UNL A   1      40.769  30.592  33.516  1.00  0.00     0.167 HD
ATOM     37  C   UNL A   1      42.547  28.518  32.747  1.00  0.00     0.074 A 
ATOM     38  C   UNL A   1      43.204  27.498  31.954  1.00  0.00     0.031 C 
ATOM     39  C   UNL A   1      42.911  28.857  34.008  1.00  0.00     0.037 A 
BRANCH  26  40
ATOM     40  C   UNL A   1      39.490  33.344  36.515  1.00  0.00     0.064 A 
ATOM     41  C   UNL A   1      40.069  34.617  36.628  1.00  0.00     0.173 A 
ATOM     42  C   UNL A   1      38.608  32.932  37.525  1.00  0.00     0.173 A 
ATOM     43  F   UNL A   1      40.927  35.053  35.694  1.00  0.00    -0.203 F 
ATOM     44  C   UNL A   1      39.787  35.438  37.718  1.00  0.00     0.198 A 
ATOM     45  C   UNL A   1      38.311  33.764  38.602  1.00  0.00     0.198 A 
ATOM     46  F   UNL A   1      38.023  31.726  37.462  1.00  0.00    -0.203 F 
ATOM     47  F   UNL A   1      40.377  36.637  37.822  1.00  0.00    -0.200 F 
ATOM     48  C   UNL A   1      38.904  35.013  38.699  1.00  0.00     0.200 A 
ATOM     49  F   UNL A   1      37.449  33.357  39.544  1.00  0.00    -0.200 F 
ATOM     50  F   UNL A   1      38.627  35.808  39.743  1.00  0.00    -0.200 F 
ENDBRANCH  26  40
BRANCH  27  51
ATOM     51  C   UNL A   1      40.952  27.725  28.393  1.00  0.00     0.064 A 
ATOM     52  C   UNL A   1      40.300  26.494  28.242  1.00  0.00     0.173 A 
ATOM     53  C   UNL A   1      41.803  28.147  27.362  1.00  0.00     0.173 A 
ATOM     54  F   UNL A   1      39.492  26.041  29.212  1.00  0.00    -0.203 F 
ATOM     55  C   UNL A   1      40.502  25.710  27.109  1.00  0.00     0.198 A 
ATOM     56  C   UNL A   1      41.983  27.375  26.218  1.00  0.00     0.198 A 
ATOM     57  F   UNL A   1      42.446  29.321  27.460  1.00  0.00    -0.203 F 
ATOM     58  F   UNL A   1      39.897  24.519  27.005  1.00  0.00    -0.200 F 
ATOM     59  C   UNL A   1      41.338  26.154  26.095  1.00  0.00     0.200 A 
ATOM     60  F   UNL A   1      42.780  27.815  25.234  1.00  0.00    -0.200 F 
ATOM     61  F   UNL A   1      41.525  25.403  25.001  1.00  0.00    -0.200 F 
ENDBRANCH  27  51
BRANCH  39  62
ATOM     62  C   UNL A   1      44.060  28.105  34.607  1.00  0.00     0.064 A 
ATOM     63  C   UNL A   1      43.858  26.922  35.334  1.00  0.00     0.173 A 
ATOM     64  C   UNL A   1      45.375  28.560  34.436  1.00  0.00     0.173 A 
ATOM     65  F   UNL A   1      42.617  26.458  35.538  1.00  0.00    -0.203 F 
ATOM     66  C   UNL A   1      44.934  26.235  35.892  1.00  0.00     0.198 A 
ATOM     67  C   UNL A   1      46.450  27.857  34.974  1.00  0.00     0.198 A 
ATOM     68  F   UNL A   1      45.618  29.683  33.746  1.00  0.00    -0.203 F 
ATOM     69  F   UNL A   1      44.716  25.133  36.621  1.00  0.00    -0.200 F 
ATOM     70  C   UNL A   1      46.228  26.700  35.707  1.00  0.00     0.200 A 
ATOM     71  F   UNL A   1      47.699  28.303  34.790  1.00  0.00    -0.200 F 
ATOM     72  F   UNL A   1      47.261  26.039  36.245  1.00  0.00    -0.200 F 
ENDBRANCH  39  62
ENDBRANCH  13  14
ENDBRANCH   6   8
ENDBRANCH   3   4
ENDBRANCH   2   3
ENDBRANCH   1   2
BRANCH   1  73
ATOM     73  C   UNL A   1      30.547  30.555  24.659  1.00  0.00     0.116 C 
BRANCH  73  74
ATOM     74  N   UNL A   1      30.068  30.617  23.286  1.00  0.00    -0.352 N 
ATOM     75  C   UNL A   1      29.840  29.614  22.381  1.00  0.00     0.252 C 
ATOM     76  H   UNL A   1      29.878  31.526  22.956  1.00  0.00     0.163 HD
ATOM     77  O   UNL A   1      29.451  29.891  21.251  1.00  0.00    -0.269 OA
BRANCH  75  78
ATOM     78  C   UNL A   1      30.000  28.201  22.775  1.00  0.00     0.059 A 
ATOM     79  C   UNL A   1      31.256  27.599  22.626  1.00  0.00     0.038 A 
ATOM     80  C   UNL A   1      28.961  27.477  23.364  1.00  0.00     0.055 A 
ATOM     81  C   UNL A   1      31.473  26.269  23.023  1.00  0.00     0.101 A 
ATOM     82  C   UNL A   1      29.199  26.176  23.824  1.00  0.00     0.043 A 
ATOM     83  Cl  UNL A   1      27.359  28.098  23.519  1.00  0.00    -0.083 Cl
ATOM     84  C   UNL A   1      30.459  25.574  23.677  1.00  0.00     0.062 A 
ATOM     85  Cl  UNL A   1      30.653  24.012  24.381  1.00  0.00    -0.083 Cl
BRANCH  81  86
ATOM     86  S   UNL A   1      33.060  25.593  22.623  1.00  0.00     0.242 S 
ATOM     87  O   UNL A   1      32.845  24.189  22.352  1.00  0.00    -0.207 OA
ATOM     88  O   UNL A   1      33.637  26.466  21.626  1.00  0.00    -0.207 OA
BRANCH  86  89
ATOM     89  N   UNL A   1      34.039  25.691  23.964  1.00  0.00    -0.207 NA
ATOM     90  H   UNL A   1      34.459  26.621  23.934  1.00  0.00     0.141 HD
BRANCH  89  91
ATOM     91  C   UNL A   1      33.568  25.517  25.333  1.00  0.00     0.134 C 
BRANCH  91  92
ATOM     92  C   UNL A   1      33.208  26.755  26.103  1.00  0.00    -0.030 A 
ATOM     93  C   UNL A   1      34.027  27.886  26.131  1.00  0.00     0.025 A 
ATOM     94  C   UNL A   1      31.965  26.826  26.746  1.00  0.00     0.025 A 
ATOM     95  C   UNL A   1      33.591  29.008  26.818  1.00  0.00     0.111 A 
ATOM     96  C   UNL A   1      31.613  27.996  27.400  1.00  0.00     0.111 A 
ATOM     97  N   UNL A   1      32.401  29.088  27.452  1.00  0.00    -0.265 NA
ENDBRANCH  91  92
ENDBRANCH  89  91
ENDBRANCH  86  89
ENDBRANCH  81  86
ENDBRANCH  75  78
ENDBRANCH  73  74
ENDBRANCH   1  73
TORSDOF 15
ENDMDL
MODEL 3
REMARK VINA RESULT:     -12.2      1.488      2.442
REMARK SMILES O=C(NCCCCNC(=O)c1cc(S(=O)(=O)NCc2ccncc2)c(Cl)cc1Cl)c1ccc(-c2c3nc(c(-c4c(F)c(F)c(F)c(F)c4F)c4ccc([nH]4)c(-c4c(F)c(F)c(F)c(F)c4F)c4nc(c(-c5c(F)c(F)c(F)c(F)c5F)c5ccc2[nH]5)C=C4)C=C3)cc1
REMARK SMILES IDX 6 1 5 2 4 3 3 4 1 5 2 6 30 8 31 9 92 10 32 11 91 12 33 13
REMARK SMILES IDX 34 14 35 15 85 16 36 17 90 18 84 19 86 20 37 21 89 22 83 23
REMARK SMILES IDX 82 24 38 26 70 27 50 28 69 29 51 30 54 31 68 32 87 33 52 34
REMARK SMILES IDX 53 35 67 37 88 38 55 39 39 40 40 41 48 42 41 43 42 44 46 45
REMARK SMILES IDX 49 46 43 47 44 48 47 49 45 50 71 51 72 52 80 53 73 54 74 55
REMARK SMILES IDX 78 56 81 57 75 58 76 59 79 60 77 61 56 62 57 63 65 64 58 65
REMARK SMILES IDX 59 66 63 67 66 68 60 69 61 70 64 71 62 72 7 73 8 74 9 75
REMARK SMILES IDX 10 77 11 78 12 79 28 80 13 81 27 82 29 83 25 84 26 85 14 86
REMARK SMILES IDX 15 87 16 88 17 89 18 91 19 92 20 93 24 94 21 95 23 96 22 97
REMARK H PARENT 3 7 86 25 54 36 8 76 17 90
REMARK Flexibility Score: inf
ROOT
ATOM      1  C   UNL A   1      31.399  30.870  25.925  1.00  0.00     0.023 C 
ENDROOT
BRANCH   1   2
ATOM      2  C   UNL A   1      31.237  32.275  26.502  1.00  0.00     0.023 C 
BRANCH   2   3
ATOM      3  C   UNL A   1      32.478  32.864  27.160  1.00  0.00     0.116 C 
BRANCH   3   4
ATOM      4  N   UNL A   1      32.291  34.235  27.607  1.00  0.00    -0.352 N 
ATOM      5  O   UNL A   1      32.580  36.056  28.906  1.00  0.00    -0.269 OA
ATOM      6  C   UNL A   1      32.970  34.943  28.571  1.00  0.00     0.251 C 
ATOM      7  H   UNL A   1      31.571  34.730  27.154  1.00  0.00     0.163 HD
BRANCH   6   8
ATOM      8  C   UNL A   1      34.156  34.353  29.231  1.00  0.00     0.039 A 
ATOM      9  C   UNL A   1      35.444  34.589  28.746  1.00  0.00     0.014 A 
ATOM     10  C   UNL A   1      33.971  33.560  30.369  1.00  0.00     0.014 A 
ATOM     11  C   UNL A   1      36.528  33.919  29.306  1.00  0.00     0.010 A 
ATOM     12  C   UNL A   1      35.071  32.950  30.981  1.00  0.00     0.010 A 
ATOM     13  C   UNL A   1      36.354  33.097  30.433  1.00  0.00    -0.014 A 
BRANCH  13  14
ATOM     14  C   UNL A   1      37.538  32.442  31.044  1.00  0.00     0.031 A 
ATOM     15  C   UNL A   1      38.005  32.810  32.423  1.00  0.00     0.074 A 
ATOM     16  C   UNL A   1      38.171  31.475  30.351  1.00  0.00     0.049 A 
ATOM     17  N   UNL A   1      39.001  32.315  33.118  1.00  0.00    -0.248 NA
ATOM     18  C   UNL A   1      37.265  33.875  33.117  1.00  0.00     0.031 C 
ATOM     19  C   UNL A   1      37.816  31.042  28.998  1.00  0.00     0.029 A 
ATOM     20  N   UNL A   1      39.228  30.671  30.692  1.00  0.00    -0.354 N 
ATOM     21  C   UNL A   1      39.013  33.011  34.318  1.00  0.00     0.074 A 
ATOM     22  C   UNL A   1      37.943  33.984  34.251  1.00  0.00     0.031 C 
ATOM     23  C   UNL A   1      38.611  30.023  28.641  1.00  0.00     0.029 A 
ATOM     24  C   UNL A   1      39.562  29.765  29.717  1.00  0.00     0.049 A 
ATOM     25  H   UNL A   1      39.702  30.738  31.552  1.00  0.00     0.167 HD
ATOM     26  C   UNL A   1      39.836  32.845  35.382  1.00  0.00     0.037 A 
ATOM     27  C   UNL A   1      40.533  28.834  29.687  1.00  0.00     0.037 A 
ATOM     28  C   UNL A   1      40.892  31.866  35.451  1.00  0.00     0.049 A 
ATOM     29  C   UNL A   1      41.437  28.681  30.876  1.00  0.00     0.074 A 
ATOM     30  C   UNL A   1      41.767  31.611  36.492  1.00  0.00     0.029 A 
ATOM     31  N   UNL A   1      41.214  30.980  34.433  1.00  0.00    -0.354 N 
ATOM     32  N   UNL A   1      41.424  29.333  32.013  1.00  0.00    -0.248 NA
ATOM     33  C   UNL A   1      42.493  27.665  30.776  1.00  0.00     0.031 C 
ATOM     34  C   UNL A   1      42.639  30.592  36.093  1.00  0.00     0.029 A 
ATOM     35  C   UNL A   1      42.283  30.187  34.818  1.00  0.00     0.049 A 
ATOM     36  H   UNL A   1      40.751  30.922  33.567  1.00  0.00     0.167 HD
ATOM     37  C   UNL A   1      42.458  28.801  32.768  1.00  0.00     0.074 A 
ATOM     38  C   UNL A   1      43.065  27.756  31.969  1.00  0.00     0.031 C 
ATOM     39  C   UNL A   1      42.873  29.152  34.009  1.00  0.00     0.037 A 
BRANCH  26  40
ATOM     40  C   UNL A   1      39.635  33.745  36.565  1.00  0.00     0.064 A 
ATOM     41  C   UNL A   1      38.820  33.368  37.643  1.00  0.00     0.173 A 
ATOM     42  C   UNL A   1      40.306  34.974  36.649  1.00  0.00     0.173 A 
ATOM     43  F   UNL A   1      38.149  32.208  37.607  1.00  0.00    -0.203 F 
ATOM     44  C   UNL A   1      38.673  34.196  38.754  1.00  0.00     0.198 A 
ATOM     45  C   UNL A   1      40.175  35.789  37.770  1.00  0.00     0.198 A 
ATOM     46  F   UNL A   1      41.102  35.379  35.647  1.00  0.00    -0.203 F 
ATOM     47  F   UNL A   1      37.865  33.830  39.758  1.00  0.00    -0.200 F 
ATOM     48  C   UNL A   1      39.356  35.401  38.819  1.00  0.00     0.200 A 
ATOM     49  F   UNL A   1      40.844  36.949  37.837  1.00  0.00    -0.200 F 
ATOM     50  F   UNL A   1      39.220  36.192  39.893  1.00  0.00    -0.200 F 
ENDBRANCH  26  40
BRANCH  27  51
ATOM     51  C   UNL A   1      40.691  27.975  28.487  1.00  0.00     0.064 A 
ATOM     52  C   UNL A   1      41.477  28.387  27.403  1.00  0.00     0.173 A 
ATOM     53  C   UNL A   1      40.073  26.718  28.409  1.00  0.00     0.173 A 
ATOM     54  F   UNL A   1      42.072  29.589  27.426  1.00  0.00    -0.203 F 
ATOM     55  C   UNL A   1      41.628  27.580  26.278  1.00  0.00     0.198 A 
ATOM     56  C   UNL A   1      40.246  25.901  27.295  1.00  0.00     0.198 A 
ATOM     57  F   UNL A   1      39.314  26.279  29.424  1.00  0.00    -0.203 F 
ATOM     58  F   UNL A   1      42.354  28.013  25.238  1.00  0.00    -0.200 F 
ATOM     59  C   UNL A   1      41.019  26.335  26.228  1.00  0.00     0.200 A 
ATOM     60  F   UNL A   1      39.668  24.693  27.257  1.00  0.00    -0.200 F 
ATOM     61  F   UNL A   1      41.171  25.555  25.149  1.00  0.00    -0.200 F 
ENDBRANCH  27  51
BRANCH  39  62
ATOM     62  C   UNL A   1      44.028  28.385  34.579  1.00  0.00     0.064 A 
ATOM     63  C   UNL A   1      45.348  28.832  34.424  1.00  0.00     0.173 A 
ATOM     64  C   UNL A   1      43.810  27.203  35.302  1.00  0.00     0.173 A 
ATOM     65  F   UNL A   1      45.607  29.946  33.725  1.00  0.00    -0.203 F 
ATOM     66  C   UNL A   1      46.413  28.107  34.953  1.00  0.00     0.198 A 
ATOM     67  C   UNL A   1      44.876  26.495  35.850  1.00  0.00     0.198 A 
ATOM     68  F   UNL A   1      42.565  26.739  35.480  1.00  0.00    -0.203 F 
ATOM     69  F   UNL A   1      47.671  28.525  34.755  1.00  0.00    -0.200 F 
ATOM     70  C   UNL A   1      46.176  26.942  35.668  1.00  0.00     0.200 A 
ATOM     71  F   UNL A   1      44.644  25.374  36.547  1.00  0.00    -0.200 F 
ATOM     72  F   UNL A   1      47.201  26.245  36.176  1.00  0.00    -0.200 F 
ENDBRANCH  39  62
ENDBRANCH  13  14
ENDBRANCH   6   8
ENDBRANCH   3   4
ENDBRANCH   2   3
ENDBRANCH   1   2
BRANCH   1  73
ATOM     73  C   UNL A   1      32.642  30.112  26.379  1.00  0.00     0.116 C 
BRANCH  73  74
ATOM     74  N   UNL A   1      33.485  29.702  25.266  1.00  0.00    -0.352 N 
ATOM     75  C   UNL A   1      33.265  28.772  24.283  1.00  0.00     0.252 C 
ATOM     76  H   UNL A   1      34.351  30.167  25.210  1.00  0.00     0.163 HD
ATOM     77  O   UNL A   1      34.130  28.562  23.439  1.00  0.00    -0.269 OA
BRANCH  75  78
ATOM     78  C   UNL A   1      31.972  28.065  24.199  1.00  0.00     0.059 A 
ATOM     79  C   UNL A   1      31.699  27.049  25.123  1.00  0.00     0.038 A 
ATOM     80  C   UNL A   1      30.988  28.436  23.280  1.00  0.00     0.055 A 
ATOM     81  C   UNL A   1      30.468  26.372  25.112  1.00  0.00     0.101 A 
ATOM     82  C   UNL A   1      29.736  27.809  23.317  1.00  0.00     0.043 A 
ATOM     83  Cl  UNL A   1      31.253  29.618  22.051  1.00  0.00    -0.083 Cl
ATOM     84  C   UNL A   1      29.462  26.792  24.245  1.00  0.00     0.062 A 
ATOM     85  Cl  UNL A   1      27.851  26.177  24.260  1.00  0.00    -0.083 Cl
BRANCH  81  86
ATOM     86  S   UNL A   1      30.329  25.005  26.228  1.00  0.00     0.242 S 
ATOM     87  O   UNL A   1      31.564  24.967  26.978  1.00  0.00    -0.207 OA
ATOM     88  O   UNL A   1      29.054  25.148  26.894  1.00  0.00    -0.207 OA
BRANCH  86  89
ATOM     89  N   UNL A   1      30.247  23.597  25.345  1.00  0.00    -0.207 NA
ATOM     90  H   UNL A   1      29.637  23.801  24.553  1.00  0.00     0.141 HD
BRANCH  89  91
ATOM     91  C   UNL A   1      31.409  22.918  24.783  1.00  0.00     0.134 C 
BRANCH  91  92
ATOM     92  C   UNL A   1      32.272  23.697  23.832  1.00  0.00    -0.030 A 
ATOM     93  C   UNL A   1      31.771  24.269  22.660  1.00  0.00     0.025 A 
ATOM     94  C   UNL A   1      33.609  23.947  24.166  1.00  0.00     0.025 A 
ATOM     95  C   UNL A   1      32.623  25.024  21.869  1.00  0.00     0.111 A 
ATOM     96  C   UNL A   1      34.381  24.722  23.315  1.00  0.00     0.111 A 
ATOM     97  N   UNL A   1      33.917  25.264  22.172  1.00  0.00    -0.265 NA
ENDBRANCH  91  92
ENDBRANCH  89  91
ENDBRANCH  86  89
ENDBRANCH  81  86
ENDBRANCH  75  78
ENDBRANCH  73  74
ENDBRANCH   1  73
TORSDOF 15
ENDMDL
