MODEL 1
REMARK VINA RESULT:     -11.8      0.000      0.000
REMARK SMILES CCCC1(C(=O)N2CCO[C@@H](CC(=O)NCCCCNC(=O)c3ccc(-c4c5nc(c(-c6c(F)c(F)c(F)c(F)c6F)c6ccc([nH]6)c(-c6c(F)c(F)c(F)c(F)c6F)c6nc(c(-c7c(F)c(F)c(F)c(F)c7F)c7ccc4[nH]7)C=C6)C=C5)cc3)C2)CC[NH2+]CC1
REMARK SMILES IDX 16 1 15 2 13 3 14 4 12 6 11 7 7 8 8 9 86 10 9 11 10 12 5 13
REMARK SMILES IDX 6 14 4 15 87 16 91 17 88 18 90 19 89 20 3 23 2 24 1 25 17 26
REMARK SMILES IDX 18 27 19 28 20 29 21 30 22 32 23 33 24 34 85 35 25 36 84 37
REMARK SMILES IDX 26 38 27 39 28 40 78 41 29 42 83 43 77 44 79 45 30 46 82 47
REMARK SMILES IDX 76 48 75 49 31 51 63 52 43 53 62 54 44 55 47 56 61 57 80 58
REMARK SMILES IDX 45 59 46 60 60 62 81 63 48 64 32 65 33 66 41 67 34 68 35 69
REMARK SMILES IDX 39 70 42 71 36 72 37 73 40 74 38 75 64 76 65 77 73 78 66 79
REMARK SMILES IDX 67 80 71 81 74 82 68 83 69 84 72 85 70 86 49 87 50 88 58 89
REMARK SMILES IDX 51 90 52 91 56 92 59 93 53 94 54 95 57 96 55 97
REMARK H PARENT 15 5 89 21 89 22 20 31 79 50 47 61
REMARK Flexibility Score: inf
ROOT
ATOM      1  C   UNL A   1      35.733  21.051  25.581  1.00  0.00     0.116 C 
ENDROOT
BRANCH   1   2
ATOM      2  N   UNL A   1      34.951  19.967  25.004  1.00  0.00    -0.356 N 
ATOM      3  C   UNL A   1      33.601  19.765  24.965  1.00  0.00     0.222 C 
ATOM      4  O   UNL A   1      33.189  18.703  24.497  1.00  0.00    -0.275 OA
ATOM      5  H   UNL A   1      35.485  19.263  24.570  1.00  0.00     0.163 HD
BRANCH   3   6
ATOM      6  C   UNL A   1      32.636  20.797  25.514  1.00  0.00     0.133 C 
BRANCH   6   7
ATOM      7  C   UNL A   1      32.412  21.975  24.558  1.00  0.00     0.147 C 
ATOM      8  N   UNL A   1      33.057  24.383  24.265  1.00  0.00    -0.337 N 
ATOM      9  C   UNL A   1      33.757  24.023  23.041  1.00  0.00     0.148 C 
ATOM     10  C   UNL A   1      32.938  23.270  25.179  1.00  0.00     0.152 C 
ATOM     11  C   UNL A   1      33.077  22.800  22.420  1.00  0.00     0.182 C 
ATOM     12  O   UNL A   1      33.116  21.683  23.330  1.00  0.00    -0.374 OA
BRANCH   8  13
ATOM     13  C   UNL A   1      33.316  25.605  24.869  1.00  0.00     0.229 C 
ATOM     14  O   UNL A   1      34.131  25.697  25.787  1.00  0.00    -0.274 OA
BRANCH  13  15
ATOM     15  C   UNL A   1      32.574  26.832  24.261  1.00  0.00     0.060 C 
ATOM     16  C   UNL A   1      32.421  27.812  25.454  1.00  0.00     0.078 C 
ATOM     17  C   UNL A   1      33.408  27.469  23.118  1.00  0.00     0.078 C 
ATOM     18  C   UNL A   1      32.251  29.277  25.082  1.00  0.00     0.261 C 
ATOM     19  C   UNL A   1      33.153  28.953  22.881  1.00  0.00     0.261 C 
ATOM     20  N   UNL A   1      33.268  29.702  24.128  1.00  0.00    -0.346 N 
ATOM     21  H   UNL A   1      34.191  29.541  24.531  1.00  0.00     0.346 HD
ATOM     22  H   UNL A   1      33.135  30.693  23.927  1.00  0.00     0.346 HD
BRANCH  15  23
ATOM     23  C   UNL A   1      31.187  26.291  23.769  1.00  0.00     0.017 C 
BRANCH  23  24
ATOM     24  C   UNL A   1      29.894  27.017  24.164  1.00  0.00    -0.002 C 
ATOM     25  C   UNL A   1      29.419  28.040  23.140  1.00  0.00     0.004 C 
ENDBRANCH  23  24
ENDBRANCH  15  23
ENDBRANCH  13  15
ENDBRANCH   8  13
ENDBRANCH   6   7
ENDBRANCH   3   6
ENDBRANCH   1   2
BRANCH   1  26
ATOM     26  C   UNL A   1      37.090  21.201  24.883  1.00  0.00     0.023 C 
BRANCH  26  27
ATOM     27  C   UNL A   1      38.034  20.022  25.032  1.00  0.00     0.023 C 
BRANCH  27  28
ATOM     28  C   UNL A   1      39.244  20.312  25.896  1.00  0.00     0.116 C 
BRANCH  28  29
ATOM     29  N   UNL A   1      40.213  19.223  25.938  1.00  0.00    -0.352 N 
ATOM     30  C   UNL A   1      41.574  19.292  26.144  1.00  0.00     0.251 C 
ATOM     31  H   UNL A   1      39.846  18.320  25.800  1.00  0.00     0.163 HD
ATOM     32  O   UNL A   1      42.276  18.297  26.089  1.00  0.00    -0.269 OA
BRANCH  30  33
ATOM     33  C   UNL A   1      42.176  20.620  26.383  1.00  0.00     0.039 A 
ATOM     34  C   UNL A   1      42.465  21.437  25.289  1.00  0.00     0.014 A 
ATOM     35  C   UNL A   1      42.338  21.087  27.687  1.00  0.00     0.014 A 
ATOM     36  C   UNL A   1      42.834  22.764  25.507  1.00  0.00     0.010 A 
ATOM     37  C   UNL A   1      42.589  22.434  27.898  1.00  0.00     0.010 A 
ATOM     38  C   UNL A   1      42.849  23.284  26.811  1.00  0.00    -0.014 A 
BRANCH  38  39
ATOM     39  C   UNL A   1      43.171  24.705  27.086  1.00  0.00     0.031 A 
ATOM     40  C   UNL A   1      44.560  25.207  26.810  1.00  0.00     0.074 A 
ATOM     41  C   UNL A   1      42.257  25.507  27.666  1.00  0.00     0.049 A 
ATOM     42  N   UNL A   1      45.101  26.360  27.108  1.00  0.00    -0.248 NA
ATOM     43  C   UNL A   1      45.481  24.263  26.154  1.00  0.00     0.031 C 
ATOM     44  C   UNL A   1      40.896  25.118  28.035  1.00  0.00     0.029 A 
ATOM     45  N   UNL A   1      42.346  26.819  28.059  1.00  0.00    -0.354 N 
ATOM     46  C   UNL A   1      46.429  26.260  26.714  1.00  0.00     0.074 A 
ATOM     47  C   UNL A   1      46.629  24.919  26.216  1.00  0.00     0.031 C 
ATOM     48  C   UNL A   1      40.265  26.177  28.570  1.00  0.00     0.029 A 
ATOM     49  C   UNL A   1      41.190  27.305  28.618  1.00  0.00     0.049 A 
ATOM     50  H   UNL A   1      43.161  27.359  27.951  1.00  0.00     0.167 HD
ATOM     51  C   UNL A   1      47.388  27.215  26.733  1.00  0.00     0.037 A 
ATOM     52  C   UNL A   1      40.913  28.527  29.113  1.00  0.00     0.037 A 
ATOM     53  C   UNL A   1      47.166  28.565  27.173  1.00  0.00     0.049 A 
ATOM     54  C   UNL A   1      41.984  29.583  29.090  1.00  0.00     0.074 A 
ATOM     55  C   UNL A   1      48.045  29.632  27.165  1.00  0.00     0.029 A 
ATOM     56  N   UNL A   1      45.966  29.034  27.687  1.00  0.00    -0.354 N 
ATOM     57  N   UNL A   1      43.221  29.499  28.663  1.00  0.00    -0.248 NA
ATOM     58  C   UNL A   1      41.620  30.906  29.615  1.00  0.00     0.031 C 
ATOM     59  C   UNL A   1      47.385  30.742  27.703  1.00  0.00     0.029 A 
ATOM     60  C   UNL A   1      46.083  30.375  28.010  1.00  0.00     0.049 A 
ATOM     61  H   UNL A   1      45.152  28.493  27.806  1.00  0.00     0.167 HD
ATOM     62  C   UNL A   1      43.773  30.760  28.838  1.00  0.00     0.074 A 
ATOM     63  C   UNL A   1      42.734  31.594  29.404  1.00  0.00     0.031 C 
ATOM     64  C   UNL A   1      45.028  31.189  28.555  1.00  0.00     0.037 A 
BRANCH  51  65
ATOM     65  C   UNL A   1      48.755  26.824  26.253  1.00  0.00     0.064 A 
ATOM     66  C   UNL A   1      49.141  26.997  24.915  1.00  0.00     0.173 A 
ATOM     67  C   UNL A   1      49.689  26.266  27.137  1.00  0.00     0.173 A 
ATOM     68  F   UNL A   1      48.279  27.511  24.023  1.00  0.00    -0.203 F 
ATOM     69  C   UNL A   1      50.395  26.584  24.470  1.00  0.00     0.198 A 
ATOM     70  C   UNL A   1      50.954  25.885  26.697  1.00  0.00     0.198 A 
ATOM     71  F   UNL A   1      49.372  26.080  28.428  1.00  0.00    -0.203 F 
ATOM     72  F   UNL A   1      50.715  26.697  23.174  1.00  0.00    -0.200 F 
ATOM     73  C   UNL A   1      51.302  26.033  25.363  1.00  0.00     0.200 A 
ATOM     74  F   UNL A   1      51.834  25.362  27.563  1.00  0.00    -0.200 F 
ATOM     75  F   UNL A   1      52.507  25.635  24.935  1.00  0.00    -0.200 F 
ENDBRANCH  51  65
BRANCH  52  76
ATOM     76  C   UNL A   1      39.552  28.828  29.625  1.00  0.00     0.064 A 
ATOM     77  C   UNL A   1      39.215  28.551  30.957  1.00  0.00     0.173 A 
ATOM     78  C   UNL A   1      38.569  29.404  28.809  1.00  0.00     0.173 A 
ATOM     79  F   UNL A   1      40.116  27.982  31.771  1.00  0.00    -0.203 F 
ATOM     80  C   UNL A   1      37.939  28.823  31.450  1.00  0.00     0.198 A 
ATOM     81  C   UNL A   1      37.301  29.698  29.309  1.00  0.00     0.198 A 
ATOM     82  F   UNL A   1      38.843  29.694  27.528  1.00  0.00    -0.203 F 
ATOM     83  F   UNL A   1      37.633  28.513  32.717  1.00  0.00    -0.200 F 
ATOM     84  C   UNL A   1      36.986  29.401  30.626  1.00  0.00     0.200 A 
ATOM     85  F   UNL A   1      36.386  30.268  28.514  1.00  0.00    -0.200 F 
ATOM     86  F   UNL A   1      35.761  29.668  31.102  1.00  0.00    -0.200 F 
ENDBRANCH  52  76
BRANCH  64  87
ATOM     87  C   UNL A   1      45.334  32.633  28.814  1.00  0.00     0.064 A 
ATOM     88  C   UNL A   1      45.080  33.621  27.853  1.00  0.00     0.173 A 
ATOM     89  C   UNL A   1      45.831  33.036  30.063  1.00  0.00     0.173 A 
ATOM     90  F   UNL A   1      44.618  33.282  26.641  1.00  0.00    -0.203 F 
ATOM     91  C   UNL A   1      45.330  34.963  28.127  1.00  0.00     0.198 A 
ATOM     92  C   UNL A   1      46.055  34.381  30.342  1.00  0.00     0.198 A 
ATOM     93  F   UNL A   1      46.082  32.127  31.015  1.00  0.00    -0.203 F 
ATOM     94  F   UNL A   1      45.116  35.889  27.183  1.00  0.00    -0.200 F 
ATOM     95  C   UNL A   1      45.809  35.342  29.373  1.00  0.00     0.200 A 
ATOM     96  F   UNL A   1      46.506  34.746  31.550  1.00  0.00    -0.200 F 
ATOM     97  F   UNL A   1      46.039  36.635  29.638  1.00  0.00    -0.200 F 
ENDBRANCH  64  87
ENDBRANCH  38  39
ENDBRANCH  30  33
ENDBRANCH  28  29
ENDBRANCH  27  28
ENDBRANCH  26  27
ENDBRANCH   1  26
TORSDOF 16
ENDMDL
MODEL 2
REMARK VINA RESULT:     -11.7      0.812      7.410
REMARK SMILES CCCC1(C(=O)N2CCO[C@@H](CC(=O)NCCCCNC(=O)c3ccc(-c4c5nc(c(-c6c(F)c(F)c(F)c(F)c6F)c6ccc([nH]6)c(-c6c(F)c(F)c(F)c(F)c6F)c6nc(c(-c7c(F)c(F)c(F)c(F)c7F)c7ccc4[nH]7)C=C6)C=C5)cc3)C2)CC[NH2+]CC1
REMARK SMILES IDX 16 1 15 2 13 3 14 4 12 6 11 7 7 8 8 9 86 10 9 11 10 12 5 13
REMARK SMILES IDX 6 14 4 15 87 16 91 17 88 18 90 19 89 20 3 23 2 24 1 25 17 26
REMARK SMILES IDX 18 27 19 28 20 29 21 30 22 32 23 33 24 34 85 35 25 36 84 37
REMARK SMILES IDX 26 38 27 39 28 40 78 41 29 42 83 43 77 44 79 45 30 46 82 47
REMARK SMILES IDX 76 48 75 49 31 51 63 52 43 53 62 54 44 55 47 56 61 57 80 58
REMARK SMILES IDX 45 59 46 60 60 62 81 63 48 64 32 65 33 66 41 67 34 68 35 69
REMARK SMILES IDX 39 70 42 71 36 72 37 73 40 74 38 75 64 76 65 77 73 78 66 79
REMARK SMILES IDX 67 80 71 81 74 82 68 83 69 84 72 85 70 86 49 87 50 88 58 89
REMARK SMILES IDX 51 90 52 91 56 92 59 93 53 94 54 95 57 96 55 97
REMARK H PARENT 15 5 89 21 89 22 20 31 79 50 47 61
REMARK Flexibility Score: inf
ROOT
ATOM      1  C   UNL A   1      35.864  21.339  25.644  1.00  0.00     0.116 C 
ENDROOT
BRANCH   1   2
ATOM      2  N   UNL A   1      35.098  20.253  25.049  1.00  0.00    -0.356 N 
ATOM      3  C   UNL A   1      33.751  20.039  24.992  1.00  0.00     0.222 C 
ATOM      4  O   UNL A   1      33.354  18.978  24.510  1.00  0.00    -0.275 OA
ATOM      5  H   UNL A   1      35.644  19.557  24.615  1.00  0.00     0.163 HD
BRANCH   3   6
ATOM      6  C   UNL A   1      32.771  21.058  25.539  1.00  0.00     0.133 C 
BRANCH   6   7
ATOM      7  C   UNL A   1      32.547  22.242  24.590  1.00  0.00     0.147 C 
ATOM      8  N   UNL A   1      33.090  24.682  24.373  1.00  0.00    -0.337 N 
ATOM      9  C   UNL A   1      33.877  24.378  23.187  1.00  0.00     0.148 C 
ATOM     10  C   UNL A   1      32.972  23.549  25.261  1.00  0.00     0.152 C 
ATOM     11  C   UNL A   1      33.294  23.137  22.508  1.00  0.00     0.182 C 
ATOM     12  O   UNL A   1      33.334  22.006  23.401  1.00  0.00    -0.374 OA
BRANCH   8  13
ATOM     13  C   UNL A   1      33.255  25.903  25.011  1.00  0.00     0.229 C 
ATOM     14  O   UNL A   1      34.194  26.092  25.784  1.00  0.00    -0.274 OA
BRANCH  13  15
ATOM     15  C   UNL A   1      32.233  27.013  24.623  1.00  0.00     0.060 C 
ATOM     16  C   UNL A   1      33.066  28.021  23.788  1.00  0.00     0.078 C 
ATOM     17  C   UNL A   1      31.068  26.421  23.785  1.00  0.00     0.078 C 
ATOM     18  C   UNL A   1      32.272  28.891  22.825  1.00  0.00     0.261 C 
ATOM     19  C   UNL A   1      30.386  27.405  22.841  1.00  0.00     0.261 C 
ATOM     20  N   UNL A   1      31.370  28.088  22.008  1.00  0.00    -0.346 N 
ATOM     21  H   UNL A   1      31.914  27.393  21.495  1.00  0.00     0.346 HD
ATOM     22  H   UNL A   1      30.879  28.705  21.361  1.00  0.00     0.346 HD
BRANCH  15  23
ATOM     23  C   UNL A   1      31.747  27.638  25.977  1.00  0.00     0.017 C 
BRANCH  23  24
ATOM     24  C   UNL A   1      32.481  28.847  26.573  1.00  0.00    -0.002 C 
ATOM     25  C   UNL A   1      31.785  30.179  26.323  1.00  0.00     0.004 C 
ENDBRANCH  23  24
ENDBRANCH  15  23
ENDBRANCH  13  15
ENDBRANCH   8  13
ENDBRANCH   6   7
ENDBRANCH   3   6
ENDBRANCH   1   2
BRANCH   1  26
ATOM     26  C   UNL A   1      37.225  21.510  24.958  1.00  0.00     0.023 C 
BRANCH  26  27
ATOM     27  C   UNL A   1      38.120  20.285  24.968  1.00  0.00     0.023 C 
BRANCH  27  28
ATOM     28  C   UNL A   1      39.341  20.425  25.853  1.00  0.00     0.116 C 
BRANCH  28  29
ATOM     29  N   UNL A   1      40.182  19.235  25.892  1.00  0.00    -0.352 N 
ATOM     30  C   UNL A   1      41.535  19.145  26.138  1.00  0.00     0.251 C 
ATOM     31  H   UNL A   1      39.721  18.381  25.718  1.00  0.00     0.163 HD
ATOM     32  O   UNL A   1      42.123  18.080  26.075  1.00  0.00    -0.269 OA
BRANCH  30  33
ATOM     33  C   UNL A   1      42.274  20.391  26.429  1.00  0.00     0.039 A 
ATOM     34  C   UNL A   1      42.877  21.081  25.377  1.00  0.00     0.014 A 
ATOM     35  C   UNL A   1      42.260  20.924  27.719  1.00  0.00     0.014 A 
ATOM     36  C   UNL A   1      43.392  22.357  25.604  1.00  0.00     0.010 A 
ATOM     37  C   UNL A   1      42.665  22.234  27.915  1.00  0.00     0.010 A 
ATOM     38  C   UNL A   1      43.244  22.961  26.863  1.00  0.00    -0.014 A 
BRANCH  38  39
ATOM     39  C   UNL A   1      43.717  24.340  27.133  1.00  0.00     0.031 A 
ATOM     40  C   UNL A   1      42.744  25.356  27.662  1.00  0.00     0.074 A 
ATOM     41  C   UNL A   1      44.976  24.700  26.817  1.00  0.00     0.049 A 
ATOM     42  N   UNL A   1      42.897  26.644  27.829  1.00  0.00    -0.248 NA
ATOM     43  C   UNL A   1      41.398  24.863  27.999  1.00  0.00     0.031 C 
ATOM     44  C   UNL A   1      45.994  23.819  26.244  1.00  0.00     0.029 A 
ATOM     45  N   UNL A   1      45.609  25.912  26.923  1.00  0.00    -0.354 N 
ATOM     46  C   UNL A   1      41.660  27.114  28.249  1.00  0.00     0.074 A 
ATOM     47  C   UNL A   1      40.752  25.990  28.250  1.00  0.00     0.031 C 
ATOM     48  C   UNL A   1      47.134  24.511  26.080  1.00  0.00     0.029 A 
ATOM     49  C   UNL A   1      46.914  25.892  26.498  1.00  0.00     0.049 A 
ATOM     50  H   UNL A   1      45.167  26.721  27.270  1.00  0.00     0.167 HD
ATOM     51  C   UNL A   1      41.320  28.366  28.635  1.00  0.00     0.037 A 
ATOM     52  C   UNL A   1      47.827  26.881  26.453  1.00  0.00     0.037 A 
ATOM     53  C   UNL A   1      42.244  29.465  28.690  1.00  0.00     0.049 A 
ATOM     54  C   UNL A   1      47.437  28.256  26.921  1.00  0.00     0.074 A 
ATOM     55  C   UNL A   1      42.025  30.756  29.136  1.00  0.00     0.029 A 
ATOM     56  N   UNL A   1      43.573  29.394  28.298  1.00  0.00    -0.354 N 
ATOM     57  N   UNL A   1      46.281  28.680  27.371  1.00  0.00    -0.248 NA
ATOM     58  C   UNL A   1      48.480  29.291  26.878  1.00  0.00     0.031 C 
ATOM     59  C   UNL A   1      43.216  31.475  28.985  1.00  0.00     0.029 A 
ATOM     60  C   UNL A   1      44.186  30.621  28.482  1.00  0.00     0.049 A 
ATOM     61  H   UNL A   1      44.014  28.589  27.940  1.00  0.00     0.167 HD
ATOM     62  C   UNL A   1      46.463  30.018  27.693  1.00  0.00     0.074 A 
ATOM     63  C   UNL A   1      47.844  30.334  27.393  1.00  0.00     0.031 C 
ATOM     64  C   UNL A   1      45.568  30.905  28.193  1.00  0.00     0.037 A 
BRANCH  51  65
ATOM     65  C   UNL A   1      39.892  28.598  29.035  1.00  0.00     0.064 A 
ATOM     66  C   UNL A   1      38.940  29.068  28.118  1.00  0.00     0.173 A 
ATOM     67  C   UNL A   1      39.471  28.352  30.349  1.00  0.00     0.173 A 
ATOM     68  F   UNL A   1      39.295  29.335  26.851  1.00  0.00    -0.203 F 
ATOM     69  C   UNL A   1      37.630  29.326  28.513  1.00  0.00     0.198 A 
ATOM     70  C   UNL A   1      38.152  28.579  30.733  1.00  0.00     0.198 A 
ATOM     71  F   UNL A   1      40.341  27.899  31.266  1.00  0.00    -0.203 F 
ATOM     72  F   UNL A   1      36.756  29.840  27.636  1.00  0.00    -0.200 F 
ATOM     73  C   UNL A   1      37.236  29.077  29.819  1.00  0.00     0.200 A 
ATOM     74  F   UNL A   1      37.770  28.328  31.993  1.00  0.00    -0.200 F 
ATOM     75  F   UNL A   1      35.975  29.327  30.198  1.00  0.00    -0.200 F 
ENDBRANCH  51  65
BRANCH  52  76
ATOM     76  C   UNL A   1      49.210  26.593  25.992  1.00  0.00     0.064 A 
ATOM     77  C   UNL A   1      49.597  26.883  24.676  1.00  0.00     0.173 A 
ATOM     78  C   UNL A   1      50.170  26.037  26.848  1.00  0.00     0.173 A 
ATOM     79  F   UNL A   1      48.707  27.397  23.815  1.00  0.00    -0.203 F 
ATOM     80  C   UNL A   1      50.889  26.612  24.228  1.00  0.00     0.198 A 
ATOM     81  C   UNL A   1      51.469  25.789  26.406  1.00  0.00     0.198 A 
ATOM     82  F   UNL A   1      49.852  25.747  28.118  1.00  0.00    -0.203 F 
ATOM     83  F   UNL A   1      51.220  26.865  22.955  1.00  0.00    -0.200 F 
ATOM     84  C   UNL A   1      51.825  26.071  25.096  1.00  0.00     0.200 A 
ATOM     85  F   UNL A   1      52.375  25.278  27.250  1.00  0.00    -0.200 F 
ATOM     86  F   UNL A   1      53.069  25.816  24.667  1.00  0.00    -0.200 F 
ENDBRANCH  52  76
BRANCH  64  87
ATOM     87  C   UNL A   1      46.063  32.289  28.485  1.00  0.00     0.064 A 
ATOM     88  C   UNL A   1      46.634  32.618  29.722  1.00  0.00     0.173 A 
ATOM     89  C   UNL A   1      46.018  33.279  27.492  1.00  0.00     0.173 A 
ATOM     90  F   UNL A   1      46.687  31.708  30.706  1.00  0.00    -0.203 F 
ATOM     91  C   UNL A   1      47.129  33.898  29.961  1.00  0.00     0.198 A 
ATOM     92  C   UNL A   1      46.537  34.549  27.726  1.00  0.00     0.198 A 
ATOM     93  F   UNL A   1      45.486  33.008  26.291  1.00  0.00    -0.203 F 
ATOM     94  F   UNL A   1      47.638  34.203  31.161  1.00  0.00    -0.200 F 
ATOM     95  C   UNL A   1      47.087  34.858  28.960  1.00  0.00     0.200 A 
ATOM     96  F   UNL A   1      46.506  35.472  26.755  1.00  0.00    -0.200 F 
ATOM     97  F   UNL A   1      47.573  36.086  29.189  1.00  0.00    -0.200 F 
ENDBRANCH  64  87
ENDBRANCH  38  39
ENDBRANCH  30  33
ENDBRANCH  28  29
ENDBRANCH  27  28
ENDBRANCH  26  27
ENDBRANCH   1  26
TORSDOF 16
ENDMDL
MODEL 3
REMARK VINA RESULT:     -11.6      5.295     10.030
REMARK SMILES CCCC1(C(=O)N2CCO[C@@H](CC(=O)NCCCCNC(=O)c3ccc(-c4c5nc(c(-c6c(F)c(F)c(F)c(F)c6F)c6ccc([nH]6)c(-c6c(F)c(F)c(F)c(F)c6F)c6nc(c(-c7c(F)c(F)c(F)c(F)c7F)c7ccc4[nH]7)C=C6)C=C5)cc3)C2)CC[NH2+]CC1
REMARK SMILES IDX 16 1 15 2 13 3 14 4 12 6 11 7 7 8 8 9 86 10 9 11 10 12 5 13
REMARK SMILES IDX 6 14 4 15 87 16 91 17 88 18 90 19 89 20 3 23 2 24 1 25 17 26
REMARK SMILES IDX 18 27 19 28 20 29 21 30 22 32 23 33 24 34 85 35 25 36 84 37
REMARK SMILES IDX 26 38 27 39 28 40 78 41 29 42 83 43 77 44 79 45 30 46 82 47
REMARK SMILES IDX 76 48 75 49 31 51 63 52 43 53 62 54 44 55 47 56 61 57 80 58
REMARK SMILES IDX 45 59 46 60 60 62 81 63 48 64 32 65 33 66 41 67 34 68 35 69
REMARK SMILES IDX 39 70 42 71 36 72 37 73 40 74 38 75 64 76 65 77 73 78 66 79
REMARK SMILES IDX 67 80 71 81 74 82 68 83 69 84 72 85 70 86 49 87 50 88 58 89
REMARK SMILES IDX 51 90 52 91 56 92 59 93 53 94 54 95 57 96 55 97
REMARK H PARENT 15 5 89 21 89 22 20 31 79 50 47 61
REMARK Flexibility Score: inf
ROOT
ATOM      1  C   UNL A   1      32.034  29.699  25.328  1.00  0.00     0.116 C 
ENDROOT
BRANCH   1   2
ATOM      2  N   UNL A   1      33.155  29.535  24.415  1.00  0.00    -0.356 N 
ATOM      3  C   UNL A   1      33.280  28.784  23.281  1.00  0.00     0.222 C 
ATOM      4  O   UNL A   1      34.383  28.741  22.735  1.00  0.00    -0.275 OA
ATOM      5  H   UNL A   1      33.958  30.054  24.655  1.00  0.00     0.163 HD
BRANCH   3   6
ATOM      6  C   UNL A   1      32.109  27.995  22.729  1.00  0.00     0.133 C 
BRANCH   6   7
ATOM      7  C   UNL A   1      31.894  26.659  23.452  1.00  0.00     0.147 C 
ATOM      8  N   UNL A   1      33.159  24.952  24.787  1.00  0.00    -0.337 N 
ATOM      9  C   UNL A   1      32.325  25.267  25.937  1.00  0.00     0.148 C 
ATOM     10  C   UNL A   1      33.238  26.047  23.848  1.00  0.00     0.152 C 
ATOM     11  C   UNL A   1      30.956  25.741  25.443  1.00  0.00     0.182 C 
ATOM     12  O   UNL A   1      31.093  26.920  24.626  1.00  0.00    -0.374 OA
BRANCH   8  13
ATOM     13  C   UNL A   1      34.347  24.259  24.971  1.00  0.00     0.229 C 
ATOM     14  O   UNL A   1      35.366  24.837  25.347  1.00  0.00    -0.274 OA
BRANCH  13  15
ATOM     15  C   UNL A   1      34.273  22.719  24.746  1.00  0.00     0.060 C 
ATOM     16  C   UNL A   1      34.070  22.137  26.169  1.00  0.00     0.078 C 
ATOM     17  C   UNL A   1      33.085  22.354  23.818  1.00  0.00     0.078 C 
ATOM     18  C   UNL A   1      33.422  20.762  26.231  1.00  0.00     0.261 C 
ATOM     19  C   UNL A   1      32.518  20.952  24.015  1.00  0.00     0.261 C 
ATOM     20  N   UNL A   1      32.211  20.712  25.420  1.00  0.00    -0.346 N 
ATOM     21  H   UNL A   1      31.561  21.428  25.747  1.00  0.00     0.346 HD
ATOM     22  H   UNL A   1      31.795  19.785  25.511  1.00  0.00     0.346 HD
BRANCH  15  23
ATOM     23  C   UNL A   1      35.662  22.310  24.141  1.00  0.00     0.017 C 
BRANCH  23  24
ATOM     24  C   UNL A   1      36.644  21.471  24.970  1.00  0.00    -0.002 C 
ATOM     25  C   UNL A   1      37.892  22.229  25.406  1.00  0.00     0.004 C 
ENDBRANCH  23  24
ENDBRANCH  15  23
ENDBRANCH  13  15
ENDBRANCH   8  13
ENDBRANCH   6   7
ENDBRANCH   3   6
ENDBRANCH   1   2
BRANCH   1  26
ATOM     26  C   UNL A   1      32.471  30.344  26.648  1.00  0.00     0.023 C 
BRANCH  26  27
ATOM     27  C   UNL A   1      32.000  31.770  26.866  1.00  0.00     0.023 C 
BRANCH  27  28
ATOM     28  C   UNL A   1      33.040  32.668  27.504  1.00  0.00     0.116 C 
BRANCH  28  29
ATOM     29  N   UNL A   1      32.577  34.030  27.742  1.00  0.00    -0.352 N 
ATOM     30  C   UNL A   1      33.056  34.955  28.643  1.00  0.00     0.251 C 
ATOM     31  H   UNL A   1      31.820  34.326  27.186  1.00  0.00     0.163 HD
ATOM     32  O   UNL A   1      32.525  36.044  28.780  1.00  0.00    -0.269 OA
BRANCH  30  33
ATOM     33  C   UNL A   1      34.208  34.573  29.488  1.00  0.00     0.039 A 
ATOM     34  C   UNL A   1      33.968  33.991  30.733  1.00  0.00     0.014 A 
ATOM     35  C   UNL A   1      35.505  34.687  28.988  1.00  0.00     0.014 A 
ATOM     36  C   UNL A   1      35.033  33.438  31.443  1.00  0.00     0.010 A 
ATOM     37  C   UNL A   1      36.541  34.035  29.639  1.00  0.00     0.010 A 
ATOM     38  C   UNL A   1      36.318  33.412  30.877  1.00  0.00    -0.014 A 
BRANCH  38  39
ATOM     39  C   UNL A   1      37.467  32.776  31.565  1.00  0.00     0.031 A 
ATOM     40  C   UNL A   1      38.175  31.629  30.899  1.00  0.00     0.074 A 
ATOM     41  C   UNL A   1      37.808  33.159  32.811  1.00  0.00     0.049 A 
ATOM     42  N   UNL A   1      39.099  30.835  31.374  1.00  0.00    -0.248 NA
ATOM     43  C   UNL A   1      37.746  31.299  29.530  1.00  0.00     0.031 C 
ATOM     44  C   UNL A   1      37.160  34.219  33.582  1.00  0.00     0.029 A 
ATOM     45  N   UNL A   1      38.784  32.686  33.652  1.00  0.00    -0.354 N 
ATOM     46  C   UNL A   1      39.328  29.894  30.380  1.00  0.00     0.074 A 
ATOM     47  C   UNL A   1      38.405  30.174  29.304  1.00  0.00     0.031 C 
ATOM     48  C   UNL A   1      37.775  34.338  34.771  1.00  0.00     0.029 A 
ATOM     49  C   UNL A   1      38.834  33.338  34.859  1.00  0.00     0.049 A 
ATOM     50  H   UNL A   1      39.389  31.947  33.412  1.00  0.00     0.167 HD
ATOM     51  C   UNL A   1      40.252  28.905  30.351  1.00  0.00     0.037 A 
ATOM     52  C   UNL A   1      39.646  33.145  35.916  1.00  0.00     0.037 A 
ATOM     53  C   UNL A   1      41.207  28.671  31.398  1.00  0.00     0.049 A 
ATOM     54  C   UNL A   1      40.689  32.063  35.847  1.00  0.00     0.074 A 
ATOM     55  C   UNL A   1      42.235  27.746  31.440  1.00  0.00     0.029 A 
ATOM     56  N   UNL A   1      41.259  29.386  32.586  1.00  0.00    -0.354 N 
ATOM     57  N   UNL A   1      40.938  31.214  34.879  1.00  0.00    -0.248 NA
ATOM     58  C   UNL A   1      41.567  31.914  37.015  1.00  0.00     0.031 C 
ATOM     59  C   UNL A   1      42.890  27.881  32.668  1.00  0.00     0.029 A 
ATOM     60  C   UNL A   1      42.296  28.916  33.374  1.00  0.00     0.049 A 
ATOM     61  H   UNL A   1      40.648  30.117  32.833  1.00  0.00     0.167 HD
ATOM     62  C   UNL A   1      42.016  30.452  35.306  1.00  0.00     0.074 A 
ATOM     63  C   UNL A   1      42.380  30.945  36.619  1.00  0.00     0.031 C 
ATOM     64  C   UNL A   1      42.650  29.436  34.669  1.00  0.00     0.037 A 
BRANCH  51  65
ATOM     65  C   UNL A   1      40.269  28.017  29.141  1.00  0.00     0.064 A 
ATOM     66  C   UNL A   1      41.004  28.354  27.993  1.00  0.00     0.173 A 
ATOM     67  C   UNL A   1      39.539  26.821  29.124  1.00  0.00     0.173 A 
ATOM     68  F   UNL A   1      41.706  29.497  27.951  1.00  0.00    -0.203 F 
ATOM     69  C   UNL A   1      40.973  27.547  26.859  1.00  0.00     0.198 A 
ATOM     70  C   UNL A   1      39.536  25.999  28.000  1.00  0.00     0.198 A 
ATOM     71  F   UNL A   1      38.820  26.451  30.195  1.00  0.00    -0.203 F 
ATOM     72  F   UNL A   1      41.628  27.923  25.753  1.00  0.00    -0.200 F 
ATOM     73  C   UNL A   1      40.243  26.368  26.865  1.00  0.00     0.200 A 
ATOM     74  F   UNL A   1      38.839  24.854  28.010  1.00  0.00    -0.200 F 
ATOM     75  F   UNL A   1      40.212  25.593  25.773  1.00  0.00    -0.200 F 
ENDBRANCH  51  65
BRANCH  52  76
ATOM     76  C   UNL A   1      39.536  34.026  37.106  1.00  0.00     0.064 A 
ATOM     77  C   UNL A   1      40.188  35.267  37.136  1.00  0.00     0.173 A 
ATOM     78  C   UNL A   1      38.778  33.660  38.226  1.00  0.00     0.173 A 
ATOM     79  F   UNL A   1      40.941  35.652  36.096  1.00  0.00    -0.203 F 
ATOM     80  C   UNL A   1      40.098  36.102  38.249  1.00  0.00     0.198 A 
ATOM     81  C   UNL A   1      38.669  34.506  39.330  1.00  0.00     0.198 A 
ATOM     82  F   UNL A   1      38.130  32.485  38.245  1.00  0.00    -0.203 F 
ATOM     83  F   UNL A   1      40.762  37.266  38.265  1.00  0.00    -0.200 F 
ATOM     84  C   UNL A   1      39.335  35.722  39.342  1.00  0.00     0.200 A 
ATOM     85  F   UNL A   1      37.920  34.142  40.379  1.00  0.00    -0.200 F 
ATOM     86  F   UNL A   1      39.244  36.528  40.409  1.00  0.00    -0.200 F 
ENDBRANCH  52  76
BRANCH  64  87
ATOM     87  C   UNL A   1      43.825  28.818  35.363  1.00  0.00     0.064 A 
ATOM     88  C   UNL A   1      45.130  29.286  35.157  1.00  0.00     0.173 A 
ATOM     89  C   UNL A   1      43.633  27.783  36.292  1.00  0.00     0.173 A 
ATOM     90  F   UNL A   1      45.364  30.265  34.270  1.00  0.00    -0.203 F 
ATOM     91  C   UNL A   1      46.205  28.729  35.844  1.00  0.00     0.198 A 
ATOM     92  C   UNL A   1      44.706  27.246  36.995  1.00  0.00     0.198 A 
ATOM     93  F   UNL A   1      42.401  27.307  36.527  1.00  0.00    -0.203 F 
ATOM     94  F   UNL A   1      47.449  29.166  35.605  1.00  0.00    -0.200 F 
ATOM     95  C   UNL A   1      45.991  27.715  36.767  1.00  0.00     0.200 A 
ATOM     96  F   UNL A   1      44.497  26.276  37.895  1.00  0.00    -0.200 F 
ATOM     97  F   UNL A   1      47.026  27.187  37.435  1.00  0.00    -0.200 F 
ENDBRANCH  64  87
ENDBRANCH  38  39
ENDBRANCH  30  33
ENDBRANCH  28  29
ENDBRANCH  27  28
ENDBRANCH  26  27
ENDBRANCH   1  26
TORSDOF 16
ENDMDL
