MODEL 1
REMARK VINA RESULT:     -12.7      0.000      0.000
REMARK SMILES Cc1noc(C)c1[C@@H](C)NC(=O)N[C@H](CO)C(=O)NCCCCNC(=O)c1ccc(-c2c3nc(c(-c4c(F)c(F)c(F)c(F)c4F)c4ccc([nH]4)c(-c4c(F)c(F)c(F)c(F)c4F)c4nc(c(-c5c(F)c(F)c(F)c(F)c5F)c5ccc2[nH]5)C=C4)C=C3)cc1
REMARK SMILES IDX 21 1 20 2 19 3 17 4 18 5 14 7 13 8 10 9 11 10 12 12 8 14
REMARK SMILES IDX 9 15 7 16 1 17 2 18 3 19 4 20 5 21 6 22 15 23 16 24 22 26
REMARK SMILES IDX 23 27 24 28 25 29 26 31 27 32 28 33 89 34 29 35 88 36 30 37
REMARK SMILES IDX 31 38 32 39 82 40 33 41 87 42 81 43 83 44 34 45 86 46 80 47
REMARK SMILES IDX 79 48 35 50 67 51 47 52 66 53 48 54 51 55 65 56 84 57 49 58
REMARK SMILES IDX 50 59 64 61 85 62 52 63 36 64 37 65 45 66 38 67 39 68 43 69
REMARK SMILES IDX 46 70 40 71 41 72 44 73 42 74 68 75 69 76 77 77 70 78 71 79
REMARK SMILES IDX 75 80 78 81 72 82 73 83 76 84 74 85 53 86 54 87 62 88 55 89
REMARK SMILES IDX 56 90 60 91 63 92 57 93 58 94 61 95 59 96
REMARK H PARENT 19 6 10 11 13 13 16 25 24 30 83 49 51 60
REMARK Flexibility Score: inf
ROOT
ATOM      1  C   UNL A   1      32.182  30.415  26.797  1.00  0.00     0.023 C 
ENDROOT
BRANCH   1   2
ATOM      2  C   UNL A   1      31.808  29.724  25.494  1.00  0.00     0.116 C 
BRANCH   2   3
ATOM      3  N   UNL A   1      32.927  29.652  24.573  1.00  0.00    -0.354 N 
ATOM      4  C   UNL A   1      33.139  28.910  23.451  1.00  0.00     0.245 C 
ATOM      5  O   UNL A   1      34.168  29.176  22.818  1.00  0.00    -0.273 OA
ATOM      6  H   UNL A   1      33.674  30.252  24.803  1.00  0.00     0.163 HD
BRANCH   4   7
ATOM      7  C   UNL A   1      32.095  27.936  22.848  1.00  0.00     0.198 C 
BRANCH   7   8
ATOM      8  N   UNL A   1      32.520  26.776  22.060  1.00  0.00    -0.324 N 
ATOM      9  N   UNL A   1      33.100  24.946  23.459  1.00  0.00    -0.331 N 
ATOM     10  C   UNL A   1      32.924  25.528  22.276  1.00  0.00     0.315 C 
ATOM     11  H   UNL A   1      33.168  23.968  23.377  1.00  0.00     0.165 HD
ATOM     12  O   UNL A   1      33.084  24.829  21.272  1.00  0.00    -0.249 OA
ATOM     13  H   UNL A   1      32.501  26.978  21.097  1.00  0.00     0.166 HD
BRANCH   9  14
ATOM     14  C   UNL A   1      33.217  25.380  24.845  1.00  0.00     0.116 C 
ATOM     15  C   UNL A   1      34.624  25.023  25.322  1.00  0.00     0.036 C 
BRANCH  14  16
ATOM     16  C   UNL A   1      32.159  24.756  25.719  1.00  0.00     0.040 A 
ATOM     17  C   UNL A   1      33.406  22.837  27.045  1.00  0.00     0.071 C 
ATOM     18  C   UNL A   1      32.257  23.700  26.684  1.00  0.00     0.086 A 
ATOM     19  N   UNL A   1      31.091  23.489  27.307  1.00  0.00    -0.085 NA
ATOM     20  O   UNL A   1      30.198  24.364  26.745  1.00  0.00    -0.361 OA
ATOM     21  C   UNL A   1      30.822  25.118  25.807  1.00  0.00     0.139 A 
ATOM     22  C   UNL A   1      29.941  26.092  25.136  1.00  0.00     0.091 C 
ENDBRANCH  14  16
ENDBRANCH   9  14
ENDBRANCH   7   8
BRANCH   7  23
ATOM     23  C   UNL A   1      30.867  28.685  22.276  1.00  0.00     0.191 C 
BRANCH  23  24
ATOM     24  O   UNL A   1      31.178  29.979  21.757  1.00  0.00    -0.394 OA
ATOM     25  H   UNL A   1      31.982  30.315  22.185  1.00  0.00     0.210 HD
ENDBRANCH  23  24
ENDBRANCH   7  23
ENDBRANCH   4   7
ENDBRANCH   2   3
ENDBRANCH   1   2
BRANCH   1  26
ATOM     26  C   UNL A   1      31.773  31.873  26.911  1.00  0.00     0.023 C 
BRANCH  26  27
ATOM     27  C   UNL A   1      32.908  32.767  27.353  1.00  0.00     0.116 C 
BRANCH  27  28
ATOM     28  N   UNL A   1      32.497  34.137  27.656  1.00  0.00    -0.352 N 
ATOM     29  C   UNL A   1      32.991  35.013  28.605  1.00  0.00     0.251 C 
ATOM     30  H   UNL A   1      31.761  34.488  27.104  1.00  0.00     0.163 HD
ATOM     31  O   UNL A   1      32.463  36.094  28.786  1.00  0.00    -0.269 OA
BRANCH  29  32
ATOM     32  C   UNL A   1      34.145  34.592  29.435  1.00  0.00     0.039 A 
ATOM     33  C   UNL A   1      33.922  34.068  30.710  1.00  0.00     0.014 A 
ATOM     34  C   UNL A   1      35.437  34.640  28.919  1.00  0.00     0.014 A 
ATOM     35  C   UNL A   1      34.989  33.508  31.419  1.00  0.00     0.010 A 
ATOM     36  C   UNL A   1      36.450  33.934  29.541  1.00  0.00     0.010 A 
ATOM     37  C   UNL A   1      36.251  33.387  30.816  1.00  0.00    -0.014 A 
BRANCH  37  38
ATOM     38  C   UNL A   1      37.403  32.742  31.495  1.00  0.00     0.031 A 
ATOM     39  C   UNL A   1      38.113  31.597  30.815  1.00  0.00     0.074 A 
ATOM     40  C   UNL A   1      37.740  33.110  32.746  1.00  0.00     0.049 A 
ATOM     41  N   UNL A   1      39.042  30.803  31.280  1.00  0.00    -0.248 NA
ATOM     42  C   UNL A   1      37.674  31.258  29.448  1.00  0.00     0.031 C 
ATOM     43  C   UNL A   1      37.069  34.140  33.542  1.00  0.00     0.029 A 
ATOM     44  N   UNL A   1      38.731  32.649  33.576  1.00  0.00    -0.354 N 
ATOM     45  C   UNL A   1      39.257  29.855  30.287  1.00  0.00     0.074 A 
ATOM     46  C   UNL A   1      38.312  30.119  29.229  1.00  0.00     0.031 C 
ATOM     47  C   UNL A   1      37.692  34.261  34.726  1.00  0.00     0.029 A 
ATOM     48  C   UNL A   1      38.777  33.288  34.792  1.00  0.00     0.049 A 
ATOM     49  H   UNL A   1      39.352  31.927  33.325  1.00  0.00     0.167 HD
ATOM     50  C   UNL A   1      40.192  28.877  30.240  1.00  0.00     0.037 A 
ATOM     51  C   UNL A   1      39.604  33.105  35.838  1.00  0.00     0.037 A 
ATOM     52  C   UNL A   1      41.183  28.679  31.260  1.00  0.00     0.049 A 
ATOM     53  C   UNL A   1      40.680  32.057  35.731  1.00  0.00     0.074 A 
ATOM     54  C   UNL A   1      42.243  27.792  31.272  1.00  0.00     0.029 A 
ATOM     55  N   UNL A   1      41.242  29.396  32.446  1.00  0.00    -0.354 N 
ATOM     56  N   UNL A   1      40.930  31.224  34.749  1.00  0.00    -0.248 NA
ATOM     57  C   UNL A   1      41.595  31.930  36.872  1.00  0.00     0.031 C 
ATOM     58  C   UNL A   1      42.921  27.944  32.485  1.00  0.00     0.029 A 
ATOM     59  C   UNL A   1      42.313  28.960  33.206  1.00  0.00     0.049 A 
ATOM     60  H   UNL A   1      40.616  30.110  32.708  1.00  0.00     0.167 HD
ATOM     61  C   UNL A   1      42.044  30.495  35.142  1.00  0.00     0.074 A 
ATOM     62  C   UNL A   1      42.435  31.000  36.440  1.00  0.00     0.031 C 
ATOM     63  C   UNL A   1      42.684  29.492  34.491  1.00  0.00     0.037 A 
BRANCH  50  64
ATOM     64  C   UNL A   1      40.206  27.974  29.041  1.00  0.00     0.064 A 
ATOM     65  C   UNL A   1      40.928  28.295  27.881  1.00  0.00     0.173 A 
ATOM     66  C   UNL A   1      39.519  26.751  29.065  1.00  0.00     0.173 A 
ATOM     67  F   UNL A   1      41.591  29.459  27.798  1.00  0.00    -0.203 F 
ATOM     68  C   UNL A   1      40.940  27.440  26.782  1.00  0.00     0.198 A 
ATOM     69  C   UNL A   1      39.562  25.882  27.976  1.00  0.00     0.198 A 
ATOM     70  F   UNL A   1      38.812  26.392  30.147  1.00  0.00    -0.203 F 
ATOM     71  F   UNL A   1      41.594  27.795  25.667  1.00  0.00    -0.200 F 
ATOM     72  C   UNL A   1      40.265  26.230  26.833  1.00  0.00     0.200 A 
ATOM     73  F   UNL A   1      38.919  24.707  28.033  1.00  0.00    -0.200 F 
ATOM     74  F   UNL A   1      40.289  25.403  25.780  1.00  0.00    -0.200 F 
ENDBRANCH  50  64
BRANCH  51  75
ATOM     75  C   UNL A   1      39.473  33.947  37.057  1.00  0.00     0.064 A 
ATOM     76  C   UNL A   1      38.778  33.482  38.184  1.00  0.00     0.173 A 
ATOM     77  C   UNL A   1      40.021  35.237  37.120  1.00  0.00     0.173 A 
ATOM     78  F   UNL A   1      38.221  32.262  38.168  1.00  0.00    -0.203 F 
ATOM     79  C   UNL A   1      38.610  34.283  39.311  1.00  0.00     0.198 A 
ATOM     80  C   UNL A   1      39.878  36.027  38.261  1.00  0.00     0.198 A 
ATOM     81  F   UNL A   1      40.700  35.730  36.075  1.00  0.00    -0.203 F 
ATOM     82  F   UNL A   1      37.891  33.833  40.349  1.00  0.00    -0.200 F 
ATOM     83  C   UNL A   1      39.164  35.554  39.351  1.00  0.00     0.200 A 
ATOM     84  F   UNL A   1      40.427  37.248  38.301  1.00  0.00    -0.200 F 
ATOM     85  F   UNL A   1      38.998  36.324  40.434  1.00  0.00    -0.200 F 
ENDBRANCH  51  75
BRANCH  63  86
ATOM     86  C   UNL A   1      43.890  28.904  35.160  1.00  0.00     0.064 A 
ATOM     87  C   UNL A   1      43.782  27.833  36.058  1.00  0.00     0.173 A 
ATOM     88  C   UNL A   1      45.173  29.388  34.861  1.00  0.00     0.173 A 
ATOM     89  F   UNL A   1      42.576  27.344  36.384  1.00  0.00    -0.203 F 
ATOM     90  C   UNL A   1      44.913  27.288  36.658  1.00  0.00     0.198 A 
ATOM     91  C   UNL A   1      46.303  28.818  35.436  1.00  0.00     0.198 A 
ATOM     92  F   UNL A   1      45.329  30.403  33.999  1.00  0.00    -0.203 F 
ATOM     93  F   UNL A   1      44.784  26.299  37.553  1.00  0.00    -0.200 F 
ATOM     94  C   UNL A   1      46.172  27.775  36.341  1.00  0.00     0.200 A 
ATOM     95  F   UNL A   1      47.521  29.278  35.115  1.00  0.00    -0.200 F 
ATOM     96  F   UNL A   1      47.261  27.242  36.912  1.00  0.00    -0.200 F 
ENDBRANCH  63  86
ENDBRANCH  37  38
ENDBRANCH  29  32
ENDBRANCH  27  28
ENDBRANCH  26  27
ENDBRANCH   1  26
TORSDOF 16
ENDMDL
MODEL 2
REMARK VINA RESULT:     -12.7      0.709      7.360
REMARK SMILES Cc1noc(C)c1[C@@H](C)NC(=O)N[C@H](CO)C(=O)NCCCCNC(=O)c1ccc(-c2c3nc(c(-c4c(F)c(F)c(F)c(F)c4F)c4ccc([nH]4)c(-c4c(F)c(F)c(F)c(F)c4F)c4nc(c(-c5c(F)c(F)c(F)c(F)c5F)c5ccc2[nH]5)C=C4)C=C3)cc1
REMARK SMILES IDX 21 1 20 2 19 3 17 4 18 5 14 7 13 8 10 9 11 10 12 12 8 14
REMARK SMILES IDX 9 15 7 16 1 17 2 18 3 19 4 20 5 21 6 22 15 23 16 24 22 26
REMARK SMILES IDX 23 27 24 28 25 29 26 31 27 32 28 33 89 34 29 35 88 36 30 37
REMARK SMILES IDX 31 38 32 39 82 40 33 41 87 42 81 43 83 44 34 45 86 46 80 47
REMARK SMILES IDX 79 48 35 50 67 51 47 52 66 53 48 54 51 55 65 56 84 57 49 58
REMARK SMILES IDX 50 59 64 61 85 62 52 63 36 64 37 65 45 66 38 67 39 68 43 69
REMARK SMILES IDX 46 70 40 71 41 72 44 73 42 74 68 75 69 76 77 77 70 78 71 79
REMARK SMILES IDX 75 80 78 81 72 82 73 83 76 84 74 85 53 86 54 87 62 88 55 89
REMARK SMILES IDX 56 90 60 91 63 92 57 93 58 94 61 95 59 96
REMARK H PARENT 19 6 10 11 13 13 16 25 24 30 83 49 51 60
REMARK Flexibility Score: inf
ROOT
ATOM      1  C   UNL A   1      31.808  30.455  26.705  1.00  0.00     0.023 C 
ENDROOT
BRANCH   1   2
ATOM      2  C   UNL A   1      31.503  29.805  25.364  1.00  0.00     0.116 C 
BRANCH   2   3
ATOM      3  N   UNL A   1      32.688  29.682  24.535  1.00  0.00    -0.354 N 
ATOM      4  C   UNL A   1      32.969  28.900  23.456  1.00  0.00     0.245 C 
ATOM      5  O   UNL A   1      34.050  29.126  22.896  1.00  0.00    -0.273 OA
ATOM      6  H   UNL A   1      33.428  30.275  24.803  1.00  0.00     0.163 HD
BRANCH   4   7
ATOM      7  C   UNL A   1      31.955  27.927  22.804  1.00  0.00     0.198 C 
BRANCH   7   8
ATOM      8  N   UNL A   1      32.416  26.769  22.034  1.00  0.00    -0.324 N 
ATOM      9  N   UNL A   1      33.029  24.972  23.461  1.00  0.00    -0.331 N 
ATOM     10  C   UNL A   1      32.849  25.534  22.270  1.00  0.00     0.315 C 
ATOM     11  H   UNL A   1      33.123  23.995  23.393  1.00  0.00     0.165 HD
ATOM     12  O   UNL A   1      33.035  24.827  21.276  1.00  0.00    -0.249 OA
ATOM     13  H   UNL A   1      32.400  26.958  21.068  1.00  0.00     0.166 HD
BRANCH   9  14
ATOM     14  C   UNL A   1      33.124  25.426  24.842  1.00  0.00     0.116 C 
ATOM     15  C   UNL A   1      34.534  25.109  25.336  1.00  0.00     0.036 C 
BRANCH  14  16
ATOM     16  C   UNL A   1      32.074  24.788  25.715  1.00  0.00     0.040 A 
ATOM     17  C   UNL A   1      33.345  22.886  27.043  1.00  0.00     0.071 C 
ATOM     18  C   UNL A   1      32.185  23.733  26.681  1.00  0.00     0.086 A 
ATOM     19  N   UNL A   1      31.021  23.506  27.302  1.00  0.00    -0.085 NA
ATOM     20  O   UNL A   1      30.116  24.369  26.739  1.00  0.00    -0.361 OA
ATOM     21  C   UNL A   1      30.731  25.131  25.802  1.00  0.00     0.139 A 
ATOM     22  C   UNL A   1      29.837  26.092  25.129  1.00  0.00     0.091 C 
ENDBRANCH  14  16
ENDBRANCH   9  14
ENDBRANCH   7   8
BRANCH   7  23
ATOM     23  C   UNL A   1      30.754  28.677  22.177  1.00  0.00     0.191 C 
BRANCH  23  24
ATOM     24  O   UNL A   1      31.080  29.988  21.711  1.00  0.00    -0.394 OA
ATOM     25  H   UNL A   1      30.444  30.256  21.029  1.00  0.00     0.210 HD
ENDBRANCH  23  24
ENDBRANCH   7  23
ENDBRANCH   4   7
ENDBRANCH   2   3
ENDBRANCH   1   2
BRANCH   1  26
ATOM     26  C   UNL A   1      31.540  31.947  26.791  1.00  0.00     0.023 C 
BRANCH  26  27
ATOM     27  C   UNL A   1      32.755  32.736  27.221  1.00  0.00     0.116 C 
BRANCH  27  28
ATOM     28  N   UNL A   1      32.456  34.112  27.615  1.00  0.00    -0.352 N 
ATOM     29  C   UNL A   1      33.037  34.889  28.599  1.00  0.00     0.251 C 
ATOM     30  H   UNL A   1      31.736  34.550  27.105  1.00  0.00     0.163 HD
ATOM     31  O   UNL A   1      32.597  35.993  28.859  1.00  0.00    -0.269 OA
BRANCH  29  32
ATOM     32  C   UNL A   1      34.175  34.334  29.371  1.00  0.00     0.039 A 
ATOM     33  C   UNL A   1      33.925  33.511  30.471  1.00  0.00     0.014 A 
ATOM     34  C   UNL A   1      35.484  34.563  28.956  1.00  0.00     0.014 A 
ATOM     35  C   UNL A   1      34.990  32.846  31.087  1.00  0.00     0.010 A 
ATOM     36  C   UNL A   1      36.507  33.775  29.450  1.00  0.00     0.010 A 
ATOM     37  C   UNL A   1      36.283  32.930  30.545  1.00  0.00    -0.014 A 
BRANCH  37  38
ATOM     38  C   UNL A   1      37.438  32.194  31.117  1.00  0.00     0.031 A 
ATOM     39  C   UNL A   1      37.934  32.557  32.495  1.00  0.00     0.074 A 
ATOM     40  C   UNL A   1      38.096  31.285  30.371  1.00  0.00     0.049 A 
ATOM     41  N   UNL A   1      39.003  32.148  33.128  1.00  0.00    -0.248 NA
ATOM     42  C   UNL A   1      37.157  33.566  33.239  1.00  0.00     0.031 C 
ATOM     43  C   UNL A   1      37.767  30.916  28.992  1.00  0.00     0.029 A 
ATOM     44  N   UNL A   1      39.189  30.510  30.666  1.00  0.00    -0.354 N 
ATOM     45  C   UNL A   1      39.044  32.880  34.308  1.00  0.00     0.074 A 
ATOM     46  C   UNL A   1      37.945  33.813  34.273  1.00  0.00     0.031 C 
ATOM     47  C   UNL A   1      38.613  29.959  28.576  1.00  0.00     0.029 A 
ATOM     48  C   UNL A   1      39.570  29.678  29.641  1.00  0.00     0.049 A 
ATOM     49  H   UNL A   1      39.658  30.547  31.531  1.00  0.00     0.167 HD
ATOM     50  C   UNL A   1      39.898  32.754  35.351  1.00  0.00     0.037 A 
ATOM     51  C   UNL A   1      40.580  28.790  29.573  1.00  0.00     0.037 A 
ATOM     52  C   UNL A   1      40.934  31.763  35.411  1.00  0.00     0.049 A 
ATOM     53  C   UNL A   1      41.472  28.621  30.775  1.00  0.00     0.074 A 
ATOM     54  C   UNL A   1      41.790  31.471  36.458  1.00  0.00     0.029 A 
ATOM     55  N   UNL A   1      41.243  30.887  34.381  1.00  0.00    -0.354 N 
ATOM     56  N   UNL A   1      41.447  29.258  31.921  1.00  0.00    -0.248 NA
ATOM     57  C   UNL A   1      42.525  27.602  30.679  1.00  0.00     0.031 C 
ATOM     58  C   UNL A   1      42.645  30.446  36.045  1.00  0.00     0.029 A 
ATOM     59  C   UNL A   1      42.289  30.064  34.760  1.00  0.00     0.049 A 
ATOM     60  H   UNL A   1      40.787  30.855  33.509  1.00  0.00     0.167 HD
ATOM     61  C   UNL A   1      42.460  28.701  32.689  1.00  0.00     0.074 A 
ATOM     62  C   UNL A   1      43.064  27.658  31.888  1.00  0.00     0.031 C 
ATOM     63  C   UNL A   1      42.861  29.025  33.943  1.00  0.00     0.037 A 
BRANCH  50  64
ATOM     64  C   UNL A   1      39.727  33.685  36.517  1.00  0.00     0.064 A 
ATOM     65  C   UNL A   1      40.353  34.941  36.560  1.00  0.00     0.173 A 
ATOM     66  C   UNL A   1      38.894  33.333  37.590  1.00  0.00     0.173 A 
ATOM     67  F   UNL A   1      41.171  35.321  35.567  1.00  0.00    -0.203 F 
ATOM     68  C   UNL A   1      40.174  35.796  37.644  1.00  0.00     0.198 A 
ATOM     69  C   UNL A   1      38.690  34.206  38.657  1.00  0.00     0.198 A 
ATOM     70  F   UNL A   1      38.271  32.145  37.603  1.00  0.00    -0.203 F 
ATOM     71  F   UNL A   1      40.825  36.967  37.684  1.00  0.00    -0.200 F 
ATOM     72  C   UNL A   1      39.336  35.433  38.686  1.00  0.00     0.200 A 
ATOM     73  F   UNL A   1      37.870  33.858  39.657  1.00  0.00    -0.200 F 
ATOM     74  F   UNL A   1      39.155  36.263  39.722  1.00  0.00    -0.200 F 
ENDBRANCH  50  64
BRANCH  51  75
ATOM     75  C   UNL A   1      40.784  27.974  28.347  1.00  0.00     0.064 A 
ATOM     76  C   UNL A   1      40.193  26.707  28.217  1.00  0.00     0.173 A 
ATOM     77  C   UNL A   1      41.582  28.428  27.286  1.00  0.00     0.173 A 
ATOM     78  F   UNL A   1      39.435  26.219  29.210  1.00  0.00    -0.203 F 
ATOM     79  C   UNL A   1      40.418  25.916  27.093  1.00  0.00     0.198 A 
ATOM     80  C   UNL A   1      41.781  27.649  26.148  1.00  0.00     0.198 A 
ATOM     81  F   UNL A   1      42.165  29.634  27.354  1.00  0.00    -0.203 F 
ATOM     82  F   UNL A   1      39.889  24.686  27.024  1.00  0.00    -0.200 F 
ATOM     83  C   UNL A   1      41.209  26.389  26.056  1.00  0.00     0.200 A 
ATOM     84  F   UNL A   1      42.534  28.115  25.143  1.00  0.00    -0.200 F 
ATOM     85  F   UNL A   1      41.428  25.626  24.977  1.00  0.00    -0.200 F 
ENDBRANCH  51  75
BRANCH  63  86
ATOM     86  C   UNL A   1      43.980  28.221  34.533  1.00  0.00     0.064 A 
ATOM     87  C   UNL A   1      45.315  28.639  34.436  1.00  0.00     0.173 A 
ATOM     88  C   UNL A   1      43.707  27.042  35.244  1.00  0.00     0.173 A 
ATOM     89  F   UNL A   1      45.625  29.754  33.757  1.00  0.00    -0.203 F 
ATOM     90  C   UNL A   1      46.340  27.889  35.003  1.00  0.00     0.198 A 
ATOM     91  C   UNL A   1      44.731  26.313  35.838  1.00  0.00     0.198 A 
ATOM     92  F   UNL A   1      42.445  26.607  35.373  1.00  0.00    -0.203 F 
ATOM     93  F   UNL A   1      47.614  28.279  34.855  1.00  0.00    -0.200 F 
ATOM     94  C   UNL A   1      46.048  26.732  35.710  1.00  0.00     0.200 A 
ATOM     95  F   UNL A   1      44.446  25.205  36.535  1.00  0.00    -0.200 F 
ATOM     96  F   UNL A   1      47.036  26.015  36.263  1.00  0.00    -0.200 F 
ENDBRANCH  63  86
ENDBRANCH  37  38
ENDBRANCH  29  32
ENDBRANCH  27  28
ENDBRANCH  26  27
ENDBRANCH   1  26
TORSDOF 16
ENDMDL
MODEL 3
REMARK VINA RESULT:     -12.7      0.123      1.598
REMARK SMILES Cc1noc(C)c1[C@@H](C)NC(=O)N[C@H](CO)C(=O)NCCCCNC(=O)c1ccc(-c2c3nc(c(-c4c(F)c(F)c(F)c(F)c4F)c4ccc([nH]4)c(-c4c(F)c(F)c(F)c(F)c4F)c4nc(c(-c5c(F)c(F)c(F)c(F)c5F)c5ccc2[nH]5)C=C4)C=C3)cc1
REMARK SMILES IDX 21 1 20 2 19 3 17 4 18 5 14 7 13 8 10 9 11 10 12 12 8 14
REMARK SMILES IDX 9 15 7 16 1 17 2 18 3 19 4 20 5 21 6 22 15 23 16 24 22 26
REMARK SMILES IDX 23 27 24 28 25 29 26 31 27 32 28 33 89 34 29 35 88 36 30 37
REMARK SMILES IDX 31 38 32 39 82 40 33 41 87 42 81 43 83 44 34 45 86 46 80 47
REMARK SMILES IDX 79 48 35 50 67 51 47 52 66 53 48 54 51 55 65 56 84 57 49 58
REMARK SMILES IDX 50 59 64 61 85 62 52 63 36 64 37 65 45 66 38 67 39 68 43 69
REMARK SMILES IDX 46 70 40 71 41 72 44 73 42 74 68 75 69 76 77 77 70 78 71 79
REMARK SMILES IDX 75 80 78 81 72 82 73 83 76 84 74 85 53 86 54 87 62 88 55 89
REMARK SMILES IDX 56 90 60 91 63 92 57 93 58 94 61 95 59 96
REMARK H PARENT 19 6 10 11 13 13 16 25 24 30 83 49 51 60
REMARK Flexibility Score: inf
ROOT
ATOM      1  C   UNL A   1      32.158  30.416  26.845  1.00  0.00     0.023 C 
ENDROOT
BRANCH   1   2
ATOM      2  C   UNL A   1      31.800  29.689  25.556  1.00  0.00     0.116 C 
BRANCH   2   3
ATOM      3  N   UNL A   1      32.915  29.644  24.627  1.00  0.00    -0.354 N 
ATOM      4  C   UNL A   1      33.122  28.932  23.485  1.00  0.00     0.245 C 
ATOM      5  O   UNL A   1      34.147  29.217  22.853  1.00  0.00    -0.273 OA
ATOM      6  H   UNL A   1      33.661  30.241  24.868  1.00  0.00     0.163 HD
BRANCH   4   7
ATOM      7  C   UNL A   1      32.078  27.971  22.863  1.00  0.00     0.198 C 
BRANCH   7   8
ATOM      8  N   UNL A   1      32.502  26.815  22.070  1.00  0.00    -0.324 N 
ATOM      9  N   UNL A   1      33.080  24.978  23.460  1.00  0.00    -0.331 N 
ATOM     10  C   UNL A   1      32.905  25.565  22.280  1.00  0.00     0.315 C 
ATOM     11  H   UNL A   1      33.148  24.000  23.374  1.00  0.00     0.165 HD
ATOM     12  O   UNL A   1      33.065  24.871  21.273  1.00  0.00    -0.249 OA
ATOM     13  H   UNL A   1      32.484  27.022  21.108  1.00  0.00     0.166 HD
BRANCH   9  14
ATOM     14  C   UNL A   1      33.197  25.406  24.848  1.00  0.00     0.116 C 
ATOM     15  C   UNL A   1      34.604  25.047  25.323  1.00  0.00     0.036 C 
BRANCH  14  16
ATOM     16  C   UNL A   1      32.140  24.777  25.719  1.00  0.00     0.040 A 
ATOM     17  C   UNL A   1      33.387  22.851  27.036  1.00  0.00     0.071 C 
ATOM     18  C   UNL A   1      32.238  23.715  26.679  1.00  0.00     0.086 A 
ATOM     19  N   UNL A   1      31.072  23.501  27.300  1.00  0.00    -0.085 NA
ATOM     20  O   UNL A   1      30.178  24.378  26.743  1.00  0.00    -0.361 OA
ATOM     21  C   UNL A   1      30.801  25.137  25.809  1.00  0.00     0.139 A 
ATOM     22  C   UNL A   1      29.920  26.114  25.142  1.00  0.00     0.091 C 
ENDBRANCH  14  16
ENDBRANCH   9  14
ENDBRANCH   7   8
BRANCH   7  23
ATOM     23  C   UNL A   1      30.861  28.734  22.284  1.00  0.00     0.191 C 
BRANCH  23  24
ATOM     24  O   UNL A   1      31.209  29.968  21.653  1.00  0.00    -0.394 OA
ATOM     25  H   UNL A   1      30.789  30.703  22.127  1.00  0.00     0.210 HD
ENDBRANCH  23  24
ENDBRANCH   7  23
ENDBRANCH   4   7
ENDBRANCH   2   3
ENDBRANCH   1   2
BRANCH   1  26
ATOM     26  C   UNL A   1      31.792  31.889  26.894  1.00  0.00     0.023 C 
BRANCH  26  27
ATOM     27  C   UNL A   1      32.916  32.754  27.417  1.00  0.00     0.116 C 
BRANCH  27  28
ATOM     28  N   UNL A   1      32.520  34.134  27.691  1.00  0.00    -0.352 N 
ATOM     29  C   UNL A   1      33.022  35.023  28.623  1.00  0.00     0.251 C 
ATOM     30  H   UNL A   1      31.790  34.482  27.130  1.00  0.00     0.163 HD
ATOM     31  O   UNL A   1      32.506  36.113  28.782  1.00  0.00    -0.269 OA
BRANCH  29  32
ATOM     32  C   UNL A   1      34.169  34.605  29.465  1.00  0.00     0.039 A 
ATOM     33  C   UNL A   1      33.935  34.081  30.738  1.00  0.00     0.014 A 
ATOM     34  C   UNL A   1      35.466  34.657  28.962  1.00  0.00     0.014 A 
ATOM     35  C   UNL A   1      34.996  33.525  31.457  1.00  0.00     0.010 A 
ATOM     36  C   UNL A   1      36.475  33.954  29.594  1.00  0.00     0.010 A 
ATOM     37  C   UNL A   1      36.265  33.406  30.867  1.00  0.00    -0.014 A 
BRANCH  37  38
ATOM     38  C   UNL A   1      37.411  32.765  31.558  1.00  0.00     0.031 A 
ATOM     39  C   UNL A   1      38.129  31.620  30.887  1.00  0.00     0.074 A 
ATOM     40  C   UNL A   1      37.737  33.136  32.811  1.00  0.00     0.049 A 
ATOM     41  N   UNL A   1      39.056  30.828  31.361  1.00  0.00    -0.248 NA
ATOM     42  C   UNL A   1      37.703  31.277  29.516  1.00  0.00     0.031 C 
ATOM     43  C   UNL A   1      37.058  34.167  33.599  1.00  0.00     0.029 A 
ATOM     44  N   UNL A   1      38.722  32.678  33.651  1.00  0.00    -0.354 N 
ATOM     45  C   UNL A   1      39.281  29.879  30.372  1.00  0.00     0.074 A 
ATOM     46  C   UNL A   1      38.345  30.139  29.305  1.00  0.00     0.031 C 
ATOM     47  C   UNL A   1      37.669  34.291  34.787  1.00  0.00     0.029 A 
ATOM     48  C   UNL A   1      38.756  33.321  34.865  1.00  0.00     0.049 A 
ATOM     49  H   UNL A   1      39.345  31.957  33.406  1.00  0.00     0.167 HD
ATOM     50  C   UNL A   1      40.217  28.902  30.335  1.00  0.00     0.037 A 
ATOM     51  C   UNL A   1      39.574  33.141  35.919  1.00  0.00     0.037 A 
ATOM     52  C   UNL A   1      41.200  28.708  31.364  1.00  0.00     0.049 A 
ATOM     53  C   UNL A   1      40.652  32.094  35.824  1.00  0.00     0.074 A 
ATOM     54  C   UNL A   1      42.262  27.822  31.388  1.00  0.00     0.029 A 
ATOM     55  N   UNL A   1      41.248  29.427  32.549  1.00  0.00    -0.354 N 
ATOM     56  N   UNL A   1      40.913  31.260  34.845  1.00  0.00    -0.248 NA
ATOM     57  C   UNL A   1      41.558  31.971  36.973  1.00  0.00     0.031 C 
ATOM     58  C   UNL A   1      42.928  27.978  32.606  1.00  0.00     0.029 A 
ATOM     59  C   UNL A   1      42.312  28.995  33.319  1.00  0.00     0.049 A 
ATOM     60  H   UNL A   1      40.618  30.141  32.804  1.00  0.00     0.167 HD
ATOM     61  C   UNL A   1      42.024  30.533  35.249  1.00  0.00     0.074 A 
ATOM     62  C   UNL A   1      42.403  31.041  36.550  1.00  0.00     0.031 C 
ATOM     63  C   UNL A   1      42.672  29.530  34.607  1.00  0.00     0.037 A 
BRANCH  50  64
ATOM     64  C   UNL A   1      40.244  27.996  29.138  1.00  0.00     0.064 A 
ATOM     65  C   UNL A   1      39.518  26.795  29.102  1.00  0.00     0.173 A 
ATOM     66  C   UNL A   1      40.975  28.352  27.995  1.00  0.00     0.173 A 
ATOM     67  F   UNL A   1      38.814  26.399  30.174  1.00  0.00    -0.203 F 
ATOM     68  C   UNL A   1      39.544  25.972  27.979  1.00  0.00     0.198 A 
ATOM     69  C   UNL A   1      40.972  27.543  26.860  1.00  0.00     0.198 A 
ATOM     70  F   UNL A   1      41.688  29.488  27.972  1.00  0.00    -0.203 F 
ATOM     71  F   UNL A   1      38.885  24.806  27.990  1.00  0.00    -0.200 F 
ATOM     72  C   UNL A   1      40.263  26.351  26.856  1.00  0.00     0.200 A 
ATOM     73  F   UNL A   1      41.656  27.917  25.771  1.00  0.00    -0.200 F 
ATOM     74  F   UNL A   1      40.277  25.564  25.772  1.00  0.00    -0.200 F 
ENDBRANCH  50  64
BRANCH  51  75
ATOM     75  C   UNL A   1      39.431  33.985  37.135  1.00  0.00     0.064 A 
ATOM     76  C   UNL A   1      38.723  33.523  38.255  1.00  0.00     0.173 A 
ATOM     77  C   UNL A   1      39.980  35.275  37.202  1.00  0.00     0.173 A 
ATOM     78  F   UNL A   1      38.163  32.304  38.235  1.00  0.00    -0.203 F 
ATOM     79  C   UNL A   1      38.543  34.326  39.379  1.00  0.00     0.198 A 
ATOM     80  C   UNL A   1      39.826  36.066  38.339  1.00  0.00     0.198 A 
ATOM     81  F   UNL A   1      40.672  35.765  36.163  1.00  0.00    -0.203 F 
ATOM     82  F   UNL A   1      37.812  33.880  40.410  1.00  0.00    -0.200 F 
ATOM     83  C   UNL A   1      39.099  35.597  39.422  1.00  0.00     0.200 A 
ATOM     84  F   UNL A   1      40.377  37.287  38.383  1.00  0.00    -0.200 F 
ATOM     85  F   UNL A   1      38.922  36.369  40.502  1.00  0.00    -0.200 F 
ENDBRANCH  51  75
BRANCH  63  86
ATOM     86  C   UNL A   1      43.873  28.945  35.287  1.00  0.00     0.064 A 
ATOM     87  C   UNL A   1      45.162  29.448  35.062  1.00  0.00     0.173 A 
ATOM     88  C   UNL A   1      43.725  27.899  36.211  1.00  0.00     0.173 A 
ATOM     89  F   UNL A   1      45.354  30.441  34.179  1.00  0.00    -0.203 F 
ATOM     90  C   UNL A   1      46.264  28.905  35.714  1.00  0.00     0.198 A 
ATOM     91  C   UNL A   1      44.824  27.381  36.885  1.00  0.00     0.198 A 
ATOM     92  F   UNL A   1      42.510  27.391  36.468  1.00  0.00    -0.203 F 
ATOM     93  F   UNL A   1      47.493  29.366  35.445  1.00  0.00    -0.200 F 
ATOM     94  C   UNL A   1      46.094  27.878  36.630  1.00  0.00     0.200 A 
ATOM     95  F   UNL A   1      44.657  26.400  37.783  1.00  0.00    -0.200 F 
ATOM     96  F   UNL A   1      47.156  27.361  37.263  1.00  0.00    -0.200 F 
ENDBRANCH  63  86
ENDBRANCH  37  38
ENDBRANCH  29  32
ENDBRANCH  27  28
ENDBRANCH  26  27
ENDBRANCH   1  26
TORSDOF 16
ENDMDL
