MODEL 1
REMARK VINA RESULT:     -14.1      0.000      0.000
REMARK SMILES COc1ccccc1[C@@H]1C[N@@H+](Cc2cn3cc(C)ccc3n2)C[C@H]1C(=O)NCCCCNC(=O)c1ccc(-c2c3nc(c(-c4c(F)c(F)c(F)c(F)c4F)c4ccc([nH]4)c(-c4c(F)c(F)c(F)c(F)c4F)c4nc(c(-c5c(F)c(F)c(F)c(F)c5F)c5ccc2[nH]5)C=C4)C=C3)cc1
REMARK SMILES IDX 29 1 28 2 27 3 25 4 26 5 24 7 9 8 10 9 11 10 23 11 8 13 3 14
REMARK SMILES IDX 4 15 5 16 7 17 6 18 2 19 1 20 12 21 13 22 14 23 22 24 15 25
REMARK SMILES IDX 21 26 16 27 20 28 17 29 19 30 18 31 30 32 31 33 32 34 33 35
REMARK SMILES IDX 34 37 35 38 36 39 97 40 37 41 96 42 38 43 39 44 40 45 90 46
REMARK SMILES IDX 41 47 95 48 89 49 91 50 42 51 94 52 88 53 87 54 43 56 75 57
REMARK SMILES IDX 55 58 74 59 56 60 59 61 73 62 92 63 57 64 58 65 72 67 93 68
REMARK SMILES IDX 60 69 44 70 45 71 53 72 46 73 47 74 51 75 54 76 48 77 49 78
REMARK SMILES IDX 52 79 50 80 76 81 77 82 85 83 78 84 79 85 83 86 86 87 80 88
REMARK SMILES IDX 81 89 84 90 82 91 61 92 62 93 70 94 63 95 64 96 68 97 71 98
REMARK SMILES IDX 65 99 66 100 69 101 67 102
REMARK H PARENT 27 6 11 12 32 36 91 55 59 66
REMARK Flexibility Score: inf
ROOT
ATOM      1  C   UNL A   1      37.223  22.809  25.931  1.00  0.00     0.023 C 
ENDROOT
BRANCH   1   2
ATOM      2  C   UNL A   1      36.491  23.626  24.843  1.00  0.00     0.116 C 
BRANCH   2   3
ATOM      3  N   UNL A   1      35.605  24.696  25.288  1.00  0.00    -0.356 N 
ATOM      4  C   UNL A   1      34.436  25.281  24.919  1.00  0.00     0.229 C 
ATOM      5  O   UNL A   1      34.068  26.161  25.720  1.00  0.00    -0.275 OA
ATOM      6  H   UNL A   1      35.962  25.122  26.100  1.00  0.00     0.163 HD
BRANCH   4   7
ATOM      7  C   UNL A   1      33.508  24.975  23.726  1.00  0.00     0.146 C 
ATOM      8  C   UNL A   1      32.319  24.029  24.085  1.00  0.00     0.096 C 
ATOM      9  C   UNL A   1      31.154  24.503  23.208  1.00  0.00     0.272 C 
ATOM     10  N   UNL A   1      31.366  25.948  23.051  1.00  0.00    -0.329 N 
ATOM     11  C   UNL A   1      32.825  26.098  22.947  1.00  0.00     0.276 C 
ATOM     12  H   UNL A   1      30.894  26.289  22.213  1.00  0.00     0.348 HD
BRANCH   8  13
ATOM     13  C   UNL A   1      32.458  22.540  24.330  1.00  0.00     0.004 A 
ATOM     14  C   UNL A   1      33.034  21.920  25.439  1.00  0.00     0.122 A 
ATOM     15  C   UNL A   1      33.257  20.532  25.439  1.00  0.00     0.047 A 
ATOM     16  C   UNL A   1      32.909  19.743  24.340  1.00  0.00     0.004 A 
ATOM     17  C   UNL A   1      32.096  21.705  23.239  1.00  0.00     0.008 A 
ATOM     18  C   UNL A   1      32.330  20.334  23.231  1.00  0.00     0.001 A 
BRANCH  14  19
ATOM     19  O   UNL A   1      33.551  22.606  26.503  1.00  0.00    -0.496 OA
ATOM     20  C   UNL A   1      33.424  21.892  27.728  1.00  0.00     0.278 C 
ENDBRANCH  14  19
ENDBRANCH   8  13
BRANCH  10  21
ATOM     21  C   UNL A   1      30.690  26.838  24.031  1.00  0.00     0.321 C 
BRANCH  21  22
ATOM     22  C   UNL A   1      30.008  28.098  23.544  1.00  0.00     0.114 A 
ATOM     23  C   UNL A   1      29.080  28.297  22.531  1.00  0.00     0.122 A 
ATOM     24  N   UNL A   1      30.351  29.320  24.048  1.00  0.00    -0.228 NA
ATOM     25  N   UNL A   1      28.853  29.661  22.472  1.00  0.00    -0.306 N 
ATOM     26  C   UNL A   1      29.531  30.205  23.544  1.00  0.00     0.137 A 
ATOM     27  C   UNL A   1      28.197  30.455  21.531  1.00  0.00     0.096 A 
ATOM     28  C   UNL A   1      29.363  31.587  23.825  1.00  0.00     0.048 A 
ATOM     29  C   UNL A   1      28.174  31.797  21.699  1.00  0.00    -0.034 A 
ATOM     30  C   UNL A   1      28.712  32.359  22.939  1.00  0.00     0.009 A 
ATOM     31  C   UNL A   1      27.703  32.773  20.669  1.00  0.00     0.046 C 
ENDBRANCH  21  22
ENDBRANCH  10  21
ENDBRANCH   4   7
ENDBRANCH   2   3
ENDBRANCH   1   2
BRANCH   1  32
ATOM     32  C   UNL A   1      38.388  21.934  25.455  1.00  0.00     0.023 C 
BRANCH  32  33
ATOM     33  C   UNL A   1      39.507  21.701  26.474  1.00  0.00     0.116 C 
BRANCH  33  34
ATOM     34  N   UNL A   1      40.856  21.949  25.988  1.00  0.00    -0.352 N 
ATOM     35  C   UNL A   1      41.604  23.125  26.137  1.00  0.00     0.251 C 
ATOM     36  H   UNL A   1      41.290  21.212  25.501  1.00  0.00     0.163 HD
ATOM     37  O   UNL A   1      42.586  23.366  25.474  1.00  0.00    -0.269 OA
BRANCH  35  38
ATOM     38  C   UNL A   1      41.119  24.059  27.168  1.00  0.00     0.039 A 
ATOM     39  C   UNL A   1      41.992  24.514  28.152  1.00  0.00     0.014 A 
ATOM     40  C   UNL A   1      39.934  24.723  26.885  1.00  0.00     0.014 A 
ATOM     41  C   UNL A   1      41.742  25.756  28.738  1.00  0.00     0.010 A 
ATOM     42  C   UNL A   1      39.761  26.006  27.376  1.00  0.00     0.010 A 
ATOM     43  C   UNL A   1      40.674  26.556  28.284  1.00  0.00    -0.014 A 
BRANCH  43  44
ATOM     44  C   UNL A   1      40.633  27.981  28.666  1.00  0.00     0.031 A 
ATOM     45  C   UNL A   1      41.717  28.876  28.126  1.00  0.00     0.074 A 
ATOM     46  C   UNL A   1      39.643  28.618  29.329  1.00  0.00     0.049 A 
ATOM     47  N   UNL A   1      42.661  29.459  28.796  1.00  0.00    -0.248 NA
ATOM     48  C   UNL A   1      41.770  29.142  26.682  1.00  0.00     0.031 C 
ATOM     49  C   UNL A   1      38.326  28.139  29.753  1.00  0.00     0.029 A 
ATOM     50  N   UNL A   1      39.629  29.928  29.727  1.00  0.00    -0.354 N 
ATOM     51  C   UNL A   1      43.360  30.267  27.898  1.00  0.00     0.074 A 
ATOM     52  C   UNL A   1      42.812  29.976  26.595  1.00  0.00     0.031 C 
ATOM     53  C   UNL A   1      37.569  29.180  30.160  1.00  0.00     0.029 A 
ATOM     54  C   UNL A   1      38.413  30.356  30.221  1.00  0.00     0.049 A 
ATOM     55  H   UNL A   1      40.417  30.514  29.666  1.00  0.00     0.167 HD
ATOM     56  C   UNL A   1      44.249  31.214  28.320  1.00  0.00     0.037 A 
ATOM     57  C   UNL A   1      38.107  31.575  30.713  1.00  0.00     0.037 A 
ATOM     58  C   UNL A   1      44.619  31.014  29.695  1.00  0.00     0.049 A 
ATOM     59  C   UNL A   1      39.363  32.197  31.186  1.00  0.00     0.074 A 
ATOM     60  C   UNL A   1      45.229  30.000  30.410  1.00  0.00     0.029 A 
ATOM     61  N   UNL A   1      44.085  31.846  30.646  1.00  0.00    -0.354 N 
ATOM     62  N   UNL A   1      40.052  31.764  32.207  1.00  0.00    -0.248 NA
ATOM     63  C   UNL A   1      40.064  33.116  30.306  1.00  0.00     0.031 C 
ATOM     64  C   UNL A   1      44.579  30.005  31.682  1.00  0.00     0.029 A 
ATOM     65  C   UNL A   1      43.642  31.038  31.660  1.00  0.00     0.049 A 
ATOM     66  H   UNL A   1      44.030  32.829  30.607  1.00  0.00     0.167 HD
ATOM     67  C   UNL A   1      41.372  32.017  31.875  1.00  0.00     0.074 A 
ATOM     68  C   UNL A   1      41.306  32.968  30.770  1.00  0.00     0.031 C 
ATOM     69  C   UNL A   1      42.385  31.231  32.346  1.00  0.00     0.037 A 
BRANCH  56  70
ATOM     70  C   UNL A   1      44.606  32.496  27.599  1.00  0.00     0.064 A 
ATOM     71  C   UNL A   1      45.823  32.578  26.884  1.00  0.00     0.173 A 
ATOM     72  C   UNL A   1      43.956  33.725  27.825  1.00  0.00     0.173 A 
ATOM     73  F   UNL A   1      46.541  31.475  26.621  1.00  0.00    -0.203 F 
ATOM     74  C   UNL A   1      46.381  33.801  26.500  1.00  0.00     0.198 A 
ATOM     75  C   UNL A   1      44.491  34.942  27.393  1.00  0.00     0.198 A 
ATOM     76  F   UNL A   1      42.840  33.806  28.559  1.00  0.00    -0.203 F 
ATOM     77  F   UNL A   1      47.597  33.832  25.938  1.00  0.00    -0.200 F 
ATOM     78  C   UNL A   1      45.717  34.984  26.761  1.00  0.00     0.200 A 
ATOM     79  F   UNL A   1      43.841  36.082  27.668  1.00  0.00    -0.200 F 
ATOM     80  F   UNL A   1      46.276  36.161  26.450  1.00  0.00    -0.200 F 
ENDBRANCH  56  70
BRANCH  57  81
ATOM     81  C   UNL A   1      36.808  32.267  30.659  1.00  0.00     0.064 A 
ATOM     82  C   UNL A   1      35.924  32.264  31.744  1.00  0.00     0.173 A 
ATOM     83  C   UNL A   1      36.520  33.160  29.607  1.00  0.00     0.173 A 
ATOM     84  F   UNL A   1      36.155  31.470  32.800  1.00  0.00    -0.203 F 
ATOM     85  C   UNL A   1      34.821  33.121  31.786  1.00  0.00     0.198 A 
ATOM     86  C   UNL A   1      35.416  34.010  29.646  1.00  0.00     0.198 A 
ATOM     87  F   UNL A   1      37.353  33.281  28.563  1.00  0.00    -0.203 F 
ATOM     88  F   UNL A   1      34.023  33.129  32.863  1.00  0.00    -0.200 F 
ATOM     89  C   UNL A   1      34.573  33.999  30.742  1.00  0.00     0.200 A 
ATOM     90  F   UNL A   1      35.207  34.875  28.645  1.00  0.00    -0.200 F 
ATOM     91  F   UNL A   1      33.549  34.859  30.809  1.00  0.00    -0.200 F 
ENDBRANCH  57  81
BRANCH  69  92
ATOM     92  C   UNL A   1      42.080  30.288  33.475  1.00  0.00     0.064 A 
ATOM     93  C   UNL A   1      41.644  28.965  33.293  1.00  0.00     0.173 A 
ATOM     94  C   UNL A   1      42.374  30.693  34.784  1.00  0.00     0.173 A 
ATOM     95  F   UNL A   1      41.446  28.468  32.066  1.00  0.00    -0.203 F 
ATOM     96  C   UNL A   1      41.461  28.107  34.375  1.00  0.00     0.198 A 
ATOM     97  C   UNL A   1      42.226  29.823  35.861  1.00  0.00     0.198 A 
ATOM     98  F   UNL A   1      42.854  31.926  35.015  1.00  0.00    -0.203 F 
ATOM     99  F   UNL A   1      41.029  26.853  34.173  1.00  0.00    -0.200 F 
ATOM    100  C   UNL A   1      41.757  28.535  35.658  1.00  0.00     0.200 A 
ATOM    101  F   UNL A   1      42.562  30.225  37.095  1.00  0.00    -0.200 F 
ATOM    102  F   UNL A   1      41.618  27.697  36.696  1.00  0.00    -0.200 F 
ENDBRANCH  69  92
ENDBRANCH  43  44
ENDBRANCH  35  38
ENDBRANCH  33  34
ENDBRANCH  32  33
ENDBRANCH   1  32
TORSDOF 15
ENDMDL
MODEL 2
REMARK VINA RESULT:     -14.1      1.776      2.079
REMARK SMILES COc1ccccc1[C@@H]1C[N@@H+](Cc2cn3cc(C)ccc3n2)C[C@H]1C(=O)NCCCCNC(=O)c1ccc(-c2c3nc(c(-c4c(F)c(F)c(F)c(F)c4F)c4ccc([nH]4)c(-c4c(F)c(F)c(F)c(F)c4F)c4nc(c(-c5c(F)c(F)c(F)c(F)c5F)c5ccc2[nH]5)C=C4)C=C3)cc1
REMARK SMILES IDX 29 1 28 2 27 3 25 4 26 5 24 7 9 8 10 9 11 10 23 11 8 13 3 14
REMARK SMILES IDX 4 15 5 16 7 17 6 18 2 19 1 20 12 21 13 22 14 23 22 24 15 25
REMARK SMILES IDX 21 26 16 27 20 28 17 29 19 30 18 31 30 32 31 33 32 34 33 35
REMARK SMILES IDX 34 37 35 38 36 39 97 40 37 41 96 42 38 43 39 44 40 45 90 46
REMARK SMILES IDX 41 47 95 48 89 49 91 50 42 51 94 52 88 53 87 54 43 56 75 57
REMARK SMILES IDX 55 58 74 59 56 60 59 61 73 62 92 63 57 64 58 65 72 67 93 68
REMARK SMILES IDX 60 69 44 70 45 71 53 72 46 73 47 74 51 75 54 76 48 77 49 78
REMARK SMILES IDX 52 79 50 80 76 81 77 82 85 83 78 84 79 85 83 86 86 87 80 88
REMARK SMILES IDX 81 89 84 90 82 91 61 92 62 93 70 94 63 95 64 96 68 97 71 98
REMARK SMILES IDX 65 99 66 100 69 101 67 102
REMARK H PARENT 27 6 11 12 32 36 91 55 59 66
REMARK Flexibility Score: inf
ROOT
ATOM      1  C   UNL A   1      37.009  22.021  24.368  1.00  0.00     0.023 C 
ENDROOT
BRANCH   1   2
ATOM      2  C   UNL A   1      36.937  23.521  24.731  1.00  0.00     0.116 C 
BRANCH   2   3
ATOM      3  N   UNL A   1      35.678  24.021  25.273  1.00  0.00    -0.356 N 
ATOM      4  C   UNL A   1      34.369  24.105  24.918  1.00  0.00     0.229 C 
ATOM      5  O   UNL A   1      33.661  24.598  25.817  1.00  0.00    -0.275 OA
ATOM      6  H   UNL A   1      35.819  24.418  26.163  1.00  0.00     0.163 HD
BRANCH   4   7
ATOM      7  C   UNL A   1      33.659  23.636  23.632  1.00  0.00     0.146 C 
ATOM      8  C   UNL A   1      32.408  22.742  23.899  1.00  0.00     0.096 C 
ATOM      9  C   UNL A   1      31.424  23.087  22.775  1.00  0.00     0.272 C 
ATOM     10  N   UNL A   1      31.688  24.499  22.466  1.00  0.00    -0.329 N 
ATOM     11  C   UNL A   1      33.145  24.640  22.601  1.00  0.00     0.276 C 
ATOM     12  H   UNL A   1      31.376  24.721  21.519  1.00  0.00     0.348 HD
BRANCH   8  13
ATOM     13  C   UNL A   1      32.473  21.301  24.363  1.00  0.00     0.004 A 
ATOM     14  C   UNL A   1      32.724  20.843  25.657  1.00  0.00     0.122 A 
ATOM     15  C   UNL A   1      32.937  19.475  25.895  1.00  0.00     0.047 A 
ATOM     16  C   UNL A   1      32.901  18.544  24.855  1.00  0.00     0.004 A 
ATOM     17  C   UNL A   1      32.421  20.325  23.332  1.00  0.00     0.008 A 
ATOM     18  C   UNL A   1      32.646  18.972  23.563  1.00  0.00     0.001 A 
BRANCH  14  19
ATOM     19  O   UNL A   1      32.933  21.673  26.723  1.00  0.00    -0.496 OA
ATOM     20  C   UNL A   1      34.192  21.454  27.348  1.00  0.00     0.278 C 
ENDBRANCH  14  19
ENDBRANCH   8  13
BRANCH  10  21
ATOM     21  C   UNL A   1      30.867  25.510  23.183  1.00  0.00     0.321 C 
BRANCH  21  22
ATOM     22  C   UNL A   1      31.546  26.498  24.105  1.00  0.00     0.114 A 
ATOM     23  C   UNL A   1      32.647  27.320  23.907  1.00  0.00     0.122 A 
ATOM     24  N   UNL A   1      31.155  26.623  25.408  1.00  0.00    -0.228 NA
ATOM     25  N   UNL A   1      32.876  27.963  25.112  1.00  0.00    -0.306 N 
ATOM     26  C   UNL A   1      31.820  27.620  25.931  1.00  0.00     0.137 A 
ATOM     27  C   UNL A   1      33.950  28.726  25.569  1.00  0.00     0.096 A 
ATOM     28  C   UNL A   1      31.709  28.252  27.199  1.00  0.00     0.048 A 
ATOM     29  C   UNL A   1      33.935  29.196  26.838  1.00  0.00    -0.034 A 
ATOM     30  C   UNL A   1      32.726  29.010  27.641  1.00  0.00     0.009 A 
ATOM     31  C   UNL A   1      35.102  29.834  27.521  1.00  0.00     0.046 C 
ENDBRANCH  21  22
ENDBRANCH  10  21
ENDBRANCH   4   7
ENDBRANCH   2   3
ENDBRANCH   1   2
BRANCH   1  32
ATOM     32  C   UNL A   1      38.034  21.184  25.142  1.00  0.00     0.023 C 
BRANCH  32  33
ATOM     33  C   UNL A   1      38.909  21.954  26.137  1.00  0.00     0.116 C 
BRANCH  33  34
ATOM     34  N   UNL A   1      40.336  21.943  25.851  1.00  0.00    -0.352 N 
ATOM     35  C   UNL A   1      41.273  22.928  26.191  1.00  0.00     0.251 C 
ATOM     36  H   UNL A   1      40.680  21.159  25.366  1.00  0.00     0.163 HD
ATOM     37  O   UNL A   1      42.368  22.995  25.683  1.00  0.00    -0.269 OA
BRANCH  35  38
ATOM     38  C   UNL A   1      40.839  23.886  27.223  1.00  0.00     0.039 A 
ATOM     39  C   UNL A   1      41.746  24.321  28.185  1.00  0.00     0.014 A 
ATOM     40  C   UNL A   1      39.671  24.585  26.958  1.00  0.00     0.014 A 
ATOM     41  C   UNL A   1      41.548  25.576  28.764  1.00  0.00     0.010 A 
ATOM     42  C   UNL A   1      39.548  25.877  27.441  1.00  0.00     0.010 A 
ATOM     43  C   UNL A   1      40.497  26.406  28.325  1.00  0.00    -0.014 A 
BRANCH  43  44
ATOM     44  C   UNL A   1      40.510  27.834  28.695  1.00  0.00     0.031 A 
ATOM     45  C   UNL A   1      41.617  28.687  28.134  1.00  0.00     0.074 A 
ATOM     46  C   UNL A   1      39.550  28.511  29.363  1.00  0.00     0.049 A 
ATOM     47  N   UNL A   1      42.589  29.242  28.787  1.00  0.00    -0.248 NA
ATOM     48  C   UNL A   1      41.661  28.938  26.687  1.00  0.00     0.031 C 
ATOM     49  C   UNL A   1      38.222  28.081  29.807  1.00  0.00     0.029 A 
ATOM     50  N   UNL A   1      39.585  29.824  29.750  1.00  0.00    -0.354 N 
ATOM     51  C   UNL A   1      43.304  30.019  27.874  1.00  0.00     0.074 A 
ATOM     52  C   UNL A   1      42.730  29.735  26.581  1.00  0.00     0.031 C 
ATOM     53  C   UNL A   1      37.507  29.150  30.213  1.00  0.00     0.029 A 
ATOM     54  C   UNL A   1      38.391  30.297  30.254  1.00  0.00     0.049 A 
ATOM     55  H   UNL A   1      40.393  30.382  29.674  1.00  0.00     0.167 HD
ATOM     56  C   UNL A   1      44.230  30.938  28.277  1.00  0.00     0.037 A 
ATOM     57  C   UNL A   1      38.133  31.531  30.738  1.00  0.00     0.037 A 
ATOM     58  C   UNL A   1      44.610  30.737  29.650  1.00  0.00     0.049 A 
ATOM     59  C   UNL A   1      39.415  32.113  31.191  1.00  0.00     0.074 A 
ATOM     60  C   UNL A   1      45.193  29.709  30.366  1.00  0.00     0.029 A 
ATOM     61  N   UNL A   1      44.115  31.596  30.599  1.00  0.00    -0.354 N 
ATOM     62  N   UNL A   1      40.101  31.666  32.207  1.00  0.00    -0.248 NA
ATOM     63  C   UNL A   1      40.136  33.000  30.294  1.00  0.00     0.031 C 
ATOM     64  C   UNL A   1      44.559  29.748  31.646  1.00  0.00     0.029 A 
ATOM     65  C   UNL A   1      43.657  30.812  31.626  1.00  0.00     0.049 A 
ATOM     66  H   UNL A   1      44.093  32.579  30.552  1.00  0.00     0.167 HD
ATOM     67  C   UNL A   1      41.425  31.870  31.858  1.00  0.00     0.074 A 
ATOM     68  C   UNL A   1      41.379  32.813  30.745  1.00  0.00     0.031 C 
ATOM     69  C   UNL A   1      42.416  31.054  32.324  1.00  0.00     0.037 A 
BRANCH  56  70
ATOM     70  C   UNL A   1      44.622  32.200  27.540  1.00  0.00     0.064 A 
ATOM     71  C   UNL A   1      45.869  32.262  26.878  1.00  0.00     0.173 A 
ATOM     72  C   UNL A   1      43.966  33.436  27.706  1.00  0.00     0.173 A 
ATOM     73  F   UNL A   1      46.594  31.151  26.675  1.00  0.00    -0.203 F 
ATOM     74  C   UNL A   1      46.447  33.474  26.488  1.00  0.00     0.198 A 
ATOM     75  C   UNL A   1      44.523  34.641  27.268  1.00  0.00     0.198 A 
ATOM     76  F   UNL A   1      42.819  33.538  28.389  1.00  0.00    -0.203 F 
ATOM     77  F   UNL A   1      47.687  33.489  25.980  1.00  0.00    -0.200 F 
ATOM     78  C   UNL A   1      45.776  34.665  26.690  1.00  0.00     0.200 A 
ATOM     79  F   UNL A   1      43.865  35.789  27.486  1.00  0.00    -0.200 F 
ATOM     80  F   UNL A   1      46.352  35.832  26.374  1.00  0.00    -0.200 F 
ENDBRANCH  56  70
BRANCH  57  81
ATOM     81  C   UNL A   1      36.858  32.267  30.693  1.00  0.00     0.064 A 
ATOM     82  C   UNL A   1      36.011  32.346  31.805  1.00  0.00     0.173 A 
ATOM     83  C   UNL A   1      36.565  33.119  29.610  1.00  0.00     0.173 A 
ATOM     84  F   UNL A   1      36.251  31.595  32.890  1.00  0.00    -0.203 F 
ATOM     85  C   UNL A   1      34.941  33.244  31.841  1.00  0.00     0.198 A 
ATOM     86  C   UNL A   1      35.494  34.010  29.643  1.00  0.00     0.198 A 
ATOM     87  F   UNL A   1      37.367  33.161  28.534  1.00  0.00    -0.203 F 
ATOM     88  F   UNL A   1      34.181  33.332  32.942  1.00  0.00    -0.200 F 
ATOM     89  C   UNL A   1      34.689  34.081  30.765  1.00  0.00     0.200 A 
ATOM     90  F   UNL A   1      35.282  34.835  28.609  1.00  0.00    -0.200 F 
ATOM     91  F   UNL A   1      33.698  34.980  30.824  1.00  0.00    -0.200 F 
ENDBRANCH  57  81
BRANCH  69  92
ATOM     92  C   UNL A   1      42.092  30.132  33.465  1.00  0.00     0.064 A 
ATOM     93  C   UNL A   1      41.619  28.820  33.300  1.00  0.00     0.173 A 
ATOM     94  C   UNL A   1      42.405  30.543  34.768  1.00  0.00     0.173 A 
ATOM     95  F   UNL A   1      41.400  28.315  32.080  1.00  0.00    -0.203 F 
ATOM     96  C   UNL A   1      41.420  27.978  34.392  1.00  0.00     0.198 A 
ATOM     97  C   UNL A   1      42.240  29.689  35.855  1.00  0.00     0.198 A 
ATOM     98  F   UNL A   1      42.921  31.764  34.983  1.00  0.00    -0.203 F 
ATOM     99  F   UNL A   1      40.952  26.734  34.206  1.00  0.00    -0.200 F 
ATOM    100  C   UNL A   1      41.735  28.411  35.669  1.00  0.00     0.200 A 
ATOM    101  F   UNL A   1      42.595  30.095  37.083  1.00  0.00    -0.200 F 
ATOM    102  F   UNL A   1      41.579  27.589  36.717  1.00  0.00    -0.200 F 
ENDBRANCH  69  92
ENDBRANCH  43  44
ENDBRANCH  35  38
ENDBRANCH  33  34
ENDBRANCH  32  33
ENDBRANCH   1  32
TORSDOF 15
ENDMDL
MODEL 3
REMARK VINA RESULT:     -13.9      8.700     15.472
REMARK SMILES COc1ccccc1[C@@H]1C[N@@H+](Cc2cn3cc(C)ccc3n2)C[C@H]1C(=O)NCCCCNC(=O)c1ccc(-c2c3nc(c(-c4c(F)c(F)c(F)c(F)c4F)c4ccc([nH]4)c(-c4c(F)c(F)c(F)c(F)c4F)c4nc(c(-c5c(F)c(F)c(F)c(F)c5F)c5ccc2[nH]5)C=C4)C=C3)cc1
REMARK SMILES IDX 29 1 28 2 27 3 25 4 26 5 24 7 9 8 10 9 11 10 23 11 8 13 3 14
REMARK SMILES IDX 4 15 5 16 7 17 6 18 2 19 1 20 12 21 13 22 14 23 22 24 15 25
REMARK SMILES IDX 21 26 16 27 20 28 17 29 19 30 18 31 30 32 31 33 32 34 33 35
REMARK SMILES IDX 34 37 35 38 36 39 97 40 37 41 96 42 38 43 39 44 40 45 90 46
REMARK SMILES IDX 41 47 95 48 89 49 91 50 42 51 94 52 88 53 87 54 43 56 75 57
REMARK SMILES IDX 55 58 74 59 56 60 59 61 73 62 92 63 57 64 58 65 72 67 93 68
REMARK SMILES IDX 60 69 44 70 45 71 53 72 46 73 47 74 51 75 54 76 48 77 49 78
REMARK SMILES IDX 52 79 50 80 76 81 77 82 85 83 78 84 79 85 83 86 86 87 80 88
REMARK SMILES IDX 81 89 84 90 82 91 61 92 62 93 70 94 63 95 64 96 68 97 71 98
REMARK SMILES IDX 65 99 66 100 69 101 67 102
REMARK H PARENT 27 6 11 12 32 36 91 55 59 66
REMARK Flexibility Score: inf
ROOT
ATOM      1  C   UNL A   1      46.268  21.310  35.597  1.00  0.00     0.023 C 
ENDROOT
BRANCH   1   2
ATOM      2  C   UNL A   1      46.808  19.997  36.207  1.00  0.00     0.116 C 
BRANCH   2   3
ATOM      3  N   UNL A   1      45.831  19.037  36.709  1.00  0.00    -0.356 N 
ATOM      4  C   UNL A   1      45.582  18.321  37.835  1.00  0.00     0.229 C 
ATOM      5  O   UNL A   1      44.527  17.662  37.759  1.00  0.00    -0.275 OA
ATOM      6  H   UNL A   1      45.146  18.854  36.026  1.00  0.00     0.163 HD
BRANCH   4   7
ATOM      7  C   UNL A   1      46.361  18.261  39.165  1.00  0.00     0.146 C 
ATOM      8  C   UNL A   1      46.237  19.559  40.022  1.00  0.00     0.096 C 
ATOM      9  C   UNL A   1      46.260  19.080  41.478  1.00  0.00     0.272 C 
ATOM     10  N   UNL A   1      45.634  17.751  41.446  1.00  0.00    -0.329 N 
ATOM     11  C   UNL A   1      46.100  17.153  40.186  1.00  0.00     0.276 C 
ATOM     12  H   UNL A   1      45.926  17.199  42.253  1.00  0.00     0.348 HD
BRANCH   8  13
ATOM     13  C   UNL A   1      46.934  20.865  39.698  1.00  0.00     0.004 A 
ATOM     14  C   UNL A   1      48.308  21.086  39.608  1.00  0.00     0.122 A 
ATOM     15  C   UNL A   1      48.808  22.393  39.481  1.00  0.00     0.047 A 
ATOM     16  C   UNL A   1      47.952  23.496  39.440  1.00  0.00     0.004 A 
ATOM     17  C   UNL A   1      46.090  22.007  39.630  1.00  0.00     0.008 A 
ATOM     18  C   UNL A   1      46.584  23.302  39.520  1.00  0.00     0.001 A 
BRANCH  14  19
ATOM     19  O   UNL A   1      49.243  20.106  39.789  1.00  0.00    -0.496 OA
ATOM     20  C   UNL A   1      49.668  19.521  38.563  1.00  0.00     0.278 C 
ENDBRANCH  14  19
ENDBRANCH   8  13
BRANCH  10  21
ATOM     21  C   UNL A   1      44.168  17.691  41.690  1.00  0.00     0.321 C 
BRANCH  21  22
ATOM     22  C   UNL A   1      43.514  16.354  41.958  1.00  0.00     0.114 A 
ATOM     23  C   UNL A   1      43.437  15.595  43.118  1.00  0.00     0.122 A 
ATOM     24  N   UNL A   1      42.951  15.632  40.944  1.00  0.00    -0.228 NA
ATOM     25  N   UNL A   1      42.782  14.424  42.775  1.00  0.00    -0.306 N 
ATOM     26  C   UNL A   1      42.361  14.593  41.472  1.00  0.00     0.137 A 
ATOM     27  C   UNL A   1      42.611  13.220  43.459  1.00  0.00     0.096 A 
ATOM     28  C   UNL A   1      41.528  13.599  40.892  1.00  0.00     0.048 A 
ATOM     29  C   UNL A   1      41.962  12.201  42.850  1.00  0.00    -0.034 A 
ATOM     30  C   UNL A   1      41.334  12.444  41.551  1.00  0.00     0.009 A 
ATOM     31  C   UNL A   1      41.899  10.802  43.374  1.00  0.00     0.046 C 
ENDBRANCH  21  22
ENDBRANCH  10  21
ENDBRANCH   4   7
ENDBRANCH   2   3
ENDBRANCH   1   2
BRANCH   1  32
ATOM     32  C   UNL A   1      44.938  21.210  34.841  1.00  0.00     0.023 C 
BRANCH  32  33
ATOM     33  C   UNL A   1      44.146  22.515  34.710  1.00  0.00     0.116 C 
BRANCH  33  34
ATOM     34  N   UNL A   1      44.076  23.327  35.916  1.00  0.00    -0.352 N 
ATOM     35  C   UNL A   1      44.694  24.565  36.138  1.00  0.00     0.251 C 
ATOM     36  H   UNL A   1      43.536  22.967  36.656  1.00  0.00     0.163 HD
ATOM     37  O   UNL A   1      44.831  25.042  37.241  1.00  0.00    -0.269 OA
BRANCH  35  38
ATOM     38  C   UNL A   1      45.167  25.263  34.930  1.00  0.00     0.039 A 
ATOM     39  C   UNL A   1      46.339  24.846  34.306  1.00  0.00     0.014 A 
ATOM     40  C   UNL A   1      44.231  26.045  34.269  1.00  0.00     0.014 A 
ATOM     41  C   UNL A   1      46.483  25.082  32.938  1.00  0.00     0.010 A 
ATOM     42  C   UNL A   1      44.322  26.164  32.892  1.00  0.00     0.010 A 
ATOM     43  C   UNL A   1      45.430  25.660  32.200  1.00  0.00    -0.014 A 
BRANCH  43  44
ATOM     44  C   UNL A   1      45.464  25.586  30.727  1.00  0.00     0.031 A 
ATOM     45  C   UNL A   1      46.523  26.385  30.015  1.00  0.00     0.074 A 
ATOM     46  C   UNL A   1      44.744  24.759  29.936  1.00  0.00     0.049 A 
ATOM     47  N   UNL A   1      46.349  27.415  29.248  1.00  0.00    -0.248 NA
ATOM     48  C   UNL A   1      47.934  26.010  30.185  1.00  0.00     0.031 C 
ATOM     49  C   UNL A   1      43.837  23.664  30.288  1.00  0.00     0.029 A 
ATOM     50  N   UNL A   1      44.739  24.727  28.568  1.00  0.00    -0.354 N 
ATOM     51  C   UNL A   1      47.599  27.755  28.730  1.00  0.00     0.074 A 
ATOM     52  C   UNL A   1      48.550  26.900  29.399  1.00  0.00     0.031 C 
ATOM     53  C   UNL A   1      43.532  22.951  29.184  1.00  0.00     0.029 A 
ATOM     54  C   UNL A   1      44.049  23.659  28.030  1.00  0.00     0.049 A 
ATOM     55  H   UNL A   1      45.188  25.406  28.015  1.00  0.00     0.167 HD
ATOM     56  C   UNL A   1      47.736  28.628  27.689  1.00  0.00     0.037 A 
ATOM     57  C   UNL A   1      43.848  23.382  26.724  1.00  0.00     0.037 A 
ATOM     58  C   UNL A   1      46.530  29.382  27.471  1.00  0.00     0.049 A 
ATOM     59  C   UNL A   1      43.955  24.651  25.974  1.00  0.00     0.074 A 
ATOM     60  C   UNL A   1      45.774  30.262  28.221  1.00  0.00     0.029 A 
ATOM     61  N   UNL A   1      45.735  29.051  26.403  1.00  0.00    -0.354 N 
ATOM     62  N   UNL A   1      43.103  25.635  26.078  1.00  0.00    -0.248 NA
ATOM     63  C   UNL A   1      45.221  24.987  25.344  1.00  0.00     0.031 C 
ATOM     64  C   UNL A   1      44.421  29.992  27.851  1.00  0.00     0.029 A 
ATOM     65  C   UNL A   1      44.453  28.987  26.883  1.00  0.00     0.049 A 
ATOM     66  H   UNL A   1      46.027  28.891  25.476  1.00  0.00     0.167 HD
ATOM     67  C   UNL A   1      43.864  26.780  25.916  1.00  0.00     0.074 A 
ATOM     68  C   UNL A   1      45.119  26.318  25.333  1.00  0.00     0.031 C 
ATOM     69  C   UNL A   1      43.511  27.956  26.514  1.00  0.00     0.037 A 
BRANCH  56  70
ATOM     70  C   UNL A   1      48.856  28.644  26.671  1.00  0.00     0.064 A 
ATOM     71  C   UNL A   1      48.998  27.560  25.774  1.00  0.00     0.173 A 
ATOM     72  C   UNL A   1      49.957  29.521  26.736  1.00  0.00     0.173 A 
ATOM     73  F   UNL A   1      48.021  26.650  25.637  1.00  0.00    -0.203 F 
ATOM     74  C   UNL A   1      50.180  27.331  25.063  1.00  0.00     0.198 A 
ATOM     75  C   UNL A   1      51.117  29.318  25.984  1.00  0.00     0.198 A 
ATOM     76  F   UNL A   1      49.994  30.540  27.603  1.00  0.00    -0.203 F 
ATOM     77  F   UNL A   1      50.309  26.221  24.323  1.00  0.00    -0.200 F 
ATOM     78  C   UNL A   1      51.242  28.208  25.173  1.00  0.00     0.200 A 
ATOM     79  F   UNL A   1      52.145  30.169  26.115  1.00  0.00    -0.200 F 
ATOM     80  F   UNL A   1      52.397  27.959  24.542  1.00  0.00    -0.200 F 
ENDBRANCH  56  70
BRANCH  57  81
ATOM     81  C   UNL A   1      43.709  22.056  26.097  1.00  0.00     0.064 A 
ATOM     82  C   UNL A   1      44.819  21.330  25.650  1.00  0.00     0.173 A 
ATOM     83  C   UNL A   1      42.480  21.368  26.149  1.00  0.00     0.173 A 
ATOM     84  F   UNL A   1      46.030  21.906  25.611  1.00  0.00    -0.203 F 
ATOM     85  C   UNL A   1      44.712  19.983  25.293  1.00  0.00     0.198 A 
ATOM     86  C   UNL A   1      42.372  20.027  25.788  1.00  0.00     0.198 A 
ATOM     87  F   UNL A   1      41.380  21.965  26.634  1.00  0.00    -0.203 F 
ATOM     88  F   UNL A   1      45.805  19.304  24.919  1.00  0.00    -0.200 F 
ATOM     89  C   UNL A   1      43.491  19.331  25.371  1.00  0.00     0.200 A 
ATOM     90  F   UNL A   1      41.192  19.401  25.898  1.00  0.00    -0.200 F 
ATOM     91  F   UNL A   1      43.401  18.026  25.084  1.00  0.00    -0.200 F 
ENDBRANCH  57  81
BRANCH  69  92
ATOM     92  C   UNL A   1      42.127  28.069  27.088  1.00  0.00     0.064 A 
ATOM     93  C   UNL A   1      41.780  27.646  28.382  1.00  0.00     0.173 A 
ATOM     94  C   UNL A   1      41.152  28.757  26.353  1.00  0.00     0.173 A 
ATOM     95  F   UNL A   1      42.685  27.079  29.187  1.00  0.00    -0.203 F 
ATOM     96  C   UNL A   1      40.501  27.857  28.894  1.00  0.00     0.198 A 
ATOM     97  C   UNL A   1      39.885  28.999  26.880  1.00  0.00     0.198 A 
ATOM     98  F   UNL A   1      41.444  29.241  25.135  1.00  0.00    -0.203 F 
ATOM     99  F   UNL A   1      40.193  27.429  30.128  1.00  0.00    -0.200 F 
ATOM    100  C   UNL A   1      39.556  28.538  28.145  1.00  0.00     0.200 A 
ATOM    101  F   UNL A   1      38.991  29.703  26.172  1.00  0.00    -0.200 F 
ATOM    102  F   UNL A   1      38.338  28.774  28.652  1.00  0.00    -0.200 F 
ENDBRANCH  69  92
ENDBRANCH  43  44
ENDBRANCH  35  38
ENDBRANCH  33  34
ENDBRANCH  32  33
ENDBRANCH   1  32
TORSDOF 15
ENDMDL
