MODEL 1
REMARK VINA RESULT:     -13.5      0.000      0.000
REMARK SMILES CC[C@H](C)[C@H](NC(=O)CN1C(=O)/C(=C/c2ccc(C)cc2)SC1=S)C(=O)NCCCCNC(=O)c1ccc(-c2c3nc(c(-c4c(F)c(F)c(F)c(F)c4F)c4ccc([nH]4)c(-c4c(F)c(F)c(F)c(F)c4F)c4nc(c(-c5c(F)c(F)c(F)c(F)c5F)c5ccc2[nH]5)C=C4)C=C3)cc1
REMARK SMILES IDX 28 1 27 2 25 3 26 4 5 6 3 7 4 8 2 9 1 10 6 11 7 12 8 14 9 15
REMARK SMILES IDX 10 16 11 17 23 18 12 19 13 20 22 21 24 22 14 23 15 24 16 25
REMARK SMILES IDX 21 26 17 27 20 28 18 29 19 30 29 31 30 32 31 33 32 34 33 35
REMARK SMILES IDX 34 37 35 38 36 39 97 40 37 41 96 42 38 43 39 44 40 45 90 46
REMARK SMILES IDX 41 47 95 48 89 49 91 50 42 51 94 52 88 53 87 54 43 56 75 57
REMARK SMILES IDX 55 58 74 59 56 60 59 61 73 62 92 63 57 64 58 65 72 67 93 68
REMARK SMILES IDX 60 69 44 70 45 71 53 72 46 73 47 74 51 75 54 76 48 77 49 78
REMARK SMILES IDX 52 79 50 80 76 81 77 82 85 83 78 84 79 85 83 86 86 87 80 88
REMARK SMILES IDX 81 89 84 90 82 91 61 92 62 93 70 94 63 95 64 96 68 97 71 98
REMARK SMILES IDX 65 99 66 100 69 101 67 102
REMARK H PARENT 27 5 6 13 32 36 91 55 59 66
REMARK Flexibility Score: inf
ROOT
ATOM      1  C   UNL A   1      32.222  29.103  25.321  1.00  0.00     0.116 C 
ENDROOT
BRANCH   1   2
ATOM      2  N   UNL A   1      32.318  29.203  23.877  1.00  0.00    -0.354 N 
ATOM      3  C   UNL A   1      31.415  29.015  22.879  1.00  0.00     0.242 C 
ATOM      4  O   UNL A   1      31.698  29.475  21.766  1.00  0.00    -0.273 OA
ATOM      5  H   UNL A   1      33.214  29.456  23.558  1.00  0.00     0.163 HD
BRANCH   3   6
ATOM      6  C   UNL A   1      30.075  28.295  23.055  1.00  0.00     0.174 C 
BRANCH   6   7
ATOM      7  C   UNL A   1      28.813  29.202  22.862  1.00  0.00     0.018 C 
ATOM      8  C   UNL A   1      27.466  28.542  23.173  1.00  0.00     0.010 C 
BRANCH   7   9
ATOM      9  C   UNL A   1      28.898  30.606  23.512  1.00  0.00     0.002 C 
ATOM     10  C   UNL A   1      27.611  31.417  23.619  1.00  0.00     0.004 C 
ENDBRANCH   7   9
ENDBRANCH   6   7
BRANCH   6  11
ATOM     11  N   UNL A   1      29.975  27.488  24.277  1.00  0.00    -0.342 N 
ATOM     12  C   UNL A   1      29.764  26.154  24.462  1.00  0.00     0.240 C 
ATOM     13  H   UNL A   1      30.077  28.001  25.111  1.00  0.00     0.164 HD
ATOM     14  O   UNL A   1      29.352  25.830  25.582  1.00  0.00    -0.273 OA
BRANCH  12  15
ATOM     15  C   UNL A   1      30.238  25.061  23.488  1.00  0.00     0.227 C 
BRANCH  15  16
ATOM     16  N   UNL A   1      31.594  24.544  23.538  1.00  0.00    -0.283 N 
ATOM     17  C   UNL A   1      31.922  23.544  24.446  1.00  0.00     0.266 C 
ATOM     18  C   UNL A   1      32.510  24.752  22.529  1.00  0.00     0.148 C 
ATOM     19  O   UNL A   1      31.148  22.903  25.146  1.00  0.00    -0.268 OA
ATOM     20  C   UNL A   1      33.373  23.260  24.362  1.00  0.00     0.081 C 
ATOM     21  S   UNL A   1      33.955  23.808  22.835  1.00  0.00    -0.054 SA
ATOM     22  S   UNL A   1      32.359  25.716  21.179  1.00  0.00    -0.052 S 
ATOM     23  C   UNL A   1      34.081  22.726  25.369  1.00  0.00     0.029 C 
BRANCH  23  24
ATOM     24  C   UNL A   1      35.526  22.504  25.268  1.00  0.00    -0.024 A 
ATOM     25  C   UNL A   1      36.021  21.245  24.906  1.00  0.00     0.008 A 
ATOM     26  C   UNL A   1      36.409  23.495  25.700  1.00  0.00     0.008 A 
ATOM     27  C   UNL A   1      37.361  20.931  25.122  1.00  0.00     0.004 A 
ATOM     28  C   UNL A   1      37.756  23.186  25.895  1.00  0.00     0.004 A 
ATOM     29  C   UNL A   1      38.226  21.886  25.663  1.00  0.00    -0.051 A 
ATOM     30  C   UNL A   1      39.625  21.515  26.053  1.00  0.00     0.044 C 
ENDBRANCH  23  24
ENDBRANCH  15  16
ENDBRANCH  12  15
ENDBRANCH   6  11
ENDBRANCH   3   6
ENDBRANCH   1   2
BRANCH   1  31
ATOM     31  C   UNL A   1      31.415  30.189  26.042  1.00  0.00     0.023 C 
BRANCH  31  32
ATOM     32  C   UNL A   1      32.180  31.241  26.841  1.00  0.00     0.023 C 
BRANCH  32  33
ATOM     33  C   UNL A   1      33.476  30.769  27.458  1.00  0.00     0.116 C 
BRANCH  33  34
ATOM     34  N   UNL A   1      34.081  31.707  28.387  1.00  0.00    -0.352 N 
ATOM     35  C   UNL A   1      35.184  31.533  29.208  1.00  0.00     0.251 C 
ATOM     36  H   UNL A   1      33.646  32.589  28.442  1.00  0.00     0.163 HD
ATOM     37  O   UNL A   1      35.484  32.384  30.027  1.00  0.00    -0.269 OA
BRANCH  35  38
ATOM     38  C   UNL A   1      36.095  30.386  28.956  1.00  0.00     0.039 A 
ATOM     39  C   UNL A   1      36.397  29.563  30.046  1.00  0.00     0.014 A 
ATOM     40  C   UNL A   1      36.840  30.300  27.785  1.00  0.00     0.014 A 
ATOM     41  C   UNL A   1      37.606  28.875  30.065  1.00  0.00     0.010 A 
ATOM     42  C   UNL A   1      38.095  29.735  27.852  1.00  0.00     0.010 A 
ATOM     43  C   UNL A   1      38.500  29.082  29.020  1.00  0.00    -0.014 A 
BRANCH  43  44
ATOM     44  C   UNL A   1      39.895  28.679  29.053  1.00  0.00     0.031 A 
ATOM     45  C   UNL A   1      40.253  27.309  28.645  1.00  0.00     0.074 A 
ATOM     46  C   UNL A   1      40.863  29.568  29.365  1.00  0.00     0.049 A 
ATOM     47  N   UNL A   1      41.368  26.743  28.949  1.00  0.00    -0.248 NA
ATOM     48  C   UNL A   1      39.339  26.429  27.931  1.00  0.00     0.031 C 
ATOM     49  C   UNL A   1      42.299  29.421  29.137  1.00  0.00     0.029 A 
ATOM     50  N   UNL A   1      40.754  30.726  30.153  1.00  0.00    -0.354 N 
ATOM     51  C   UNL A   1      41.449  25.563  28.249  1.00  0.00     0.074 A 
ATOM     52  C   UNL A   1      40.113  25.356  27.746  1.00  0.00     0.031 C 
ATOM     53  C   UNL A   1      42.958  30.225  29.984  1.00  0.00     0.029 A 
ATOM     54  C   UNL A   1      41.970  30.796  30.878  1.00  0.00     0.049 A 
ATOM     55  H   UNL A   1      39.997  31.354  30.193  1.00  0.00     0.167 HD
ATOM     56  C   UNL A   1      42.678  24.994  28.092  1.00  0.00     0.037 A 
ATOM     57  C   UNL A   1      42.002  30.700  32.239  1.00  0.00     0.037 A 
ATOM     58  C   UNL A   1      43.680  25.689  28.913  1.00  0.00     0.049 A 
ATOM     59  C   UNL A   1      42.865  29.583  32.784  1.00  0.00     0.074 A 
ATOM     60  C   UNL A   1      44.728  26.555  28.643  1.00  0.00     0.029 A 
ATOM     61  N   UNL A   1      43.510  25.722  30.291  1.00  0.00    -0.354 N 
ATOM     62  N   UNL A   1      43.371  28.619  32.066  1.00  0.00    -0.248 NA
ATOM     63  C   UNL A   1      43.149  29.418  34.203  1.00  0.00     0.031 C 
ATOM     64  C   UNL A   1      45.227  27.053  29.881  1.00  0.00     0.029 A 
ATOM     65  C   UNL A   1      44.486  26.485  30.901  1.00  0.00     0.049 A 
ATOM     66  H   UNL A   1      42.786  25.259  30.772  1.00  0.00     0.167 HD
ATOM     67  C   UNL A   1      43.984  27.693  32.882  1.00  0.00     0.074 A 
ATOM     68  C   UNL A   1      43.803  28.243  34.214  1.00  0.00     0.031 C 
ATOM     69  C   UNL A   1      44.536  26.549  32.359  1.00  0.00     0.037 A 
BRANCH  56  70
ATOM     70  C   UNL A   1      43.061  23.944  27.056  1.00  0.00     0.064 A 
ATOM     71  C   UNL A   1      42.792  22.575  27.301  1.00  0.00     0.173 A 
ATOM     72  C   UNL A   1      43.760  24.177  25.855  1.00  0.00     0.173 A 
ATOM     73  F   UNL A   1      42.064  22.181  28.355  1.00  0.00    -0.203 F 
ATOM     74  C   UNL A   1      43.263  21.547  26.476  1.00  0.00     0.198 A 
ATOM     75  C   UNL A   1      44.233  23.151  25.031  1.00  0.00     0.198 A 
ATOM     76  F   UNL A   1      44.013  25.400  25.394  1.00  0.00    -0.203 F 
ATOM     77  F   UNL A   1      43.006  20.271  26.793  1.00  0.00    -0.200 F 
ATOM     78  C   UNL A   1      44.001  21.834  25.349  1.00  0.00     0.200 A 
ATOM     79  F   UNL A   1      44.924  23.461  23.923  1.00  0.00    -0.200 F 
ATOM     80  F   UNL A   1      44.473  20.854  24.568  1.00  0.00    -0.200 F 
ENDBRANCH  56  70
BRANCH  57  81
ATOM     81  C   UNL A   1      40.758  31.209  32.876  1.00  0.00     0.064 A 
ATOM     82  C   UNL A   1      40.546  32.601  32.901  1.00  0.00     0.173 A 
ATOM     83  C   UNL A   1      39.646  30.379  33.051  1.00  0.00     0.173 A 
ATOM     84  F   UNL A   1      41.581  33.439  32.733  1.00  0.00    -0.203 F 
ATOM     85  C   UNL A   1      39.261  33.134  32.962  1.00  0.00     0.198 A 
ATOM     86  C   UNL A   1      38.360  30.919  33.129  1.00  0.00     0.198 A 
ATOM     87  F   UNL A   1      39.783  29.045  33.019  1.00  0.00    -0.203 F 
ATOM     88  F   UNL A   1      39.082  34.458  32.855  1.00  0.00    -0.200 F 
ATOM     89  C   UNL A   1      38.167  32.290  33.045  1.00  0.00     0.200 A 
ATOM     90  F   UNL A   1      37.298  30.102  33.184  1.00  0.00    -0.200 F 
ATOM     91  F   UNL A   1      36.925  32.794  32.997  1.00  0.00    -0.200 F 
ENDBRANCH  57  81
BRANCH  69  92
ATOM     92  C   UNL A   1      45.137  25.352  33.098  1.00  0.00     0.064 A 
ATOM     93  C   UNL A   1      44.416  24.276  33.636  1.00  0.00     0.173 A 
ATOM     94  C   UNL A   1      46.542  25.271  33.320  1.00  0.00     0.173 A 
ATOM     95  F   UNL A   1      43.081  24.274  33.671  1.00  0.00    -0.203 F 
ATOM     96  C   UNL A   1      45.045  23.168  34.226  1.00  0.00     0.198 A 
ATOM     97  C   UNL A   1      47.164  24.183  33.933  1.00  0.00     0.198 A 
ATOM     98  F   UNL A   1      47.385  26.245  32.953  1.00  0.00    -0.203 F 
ATOM     99  F   UNL A   1      44.300  22.147  34.673  1.00  0.00    -0.200 F 
ATOM    100  C   UNL A   1      46.417  23.116  34.365  1.00  0.00     0.200 A 
ATOM    101  F   UNL A   1      48.497  24.183  34.090  1.00  0.00    -0.200 F 
ATOM    102  F   UNL A   1      47.012  22.058  34.931  1.00  0.00    -0.200 F 
ENDBRANCH  69  92
ENDBRANCH  43  44
ENDBRANCH  35  38
ENDBRANCH  33  34
ENDBRANCH  32  33
ENDBRANCH  31  32
ENDBRANCH   1  31
TORSDOF 17
ENDMDL
MODEL 2
REMARK VINA RESULT:     -13.1      3.645      9.928
REMARK SMILES CC[C@H](C)[C@H](NC(=O)CN1C(=O)/C(=C/c2ccc(C)cc2)SC1=S)C(=O)NCCCCNC(=O)c1ccc(-c2c3nc(c(-c4c(F)c(F)c(F)c(F)c4F)c4ccc([nH]4)c(-c4c(F)c(F)c(F)c(F)c4F)c4nc(c(-c5c(F)c(F)c(F)c(F)c5F)c5ccc2[nH]5)C=C4)C=C3)cc1
REMARK SMILES IDX 28 1 27 2 25 3 26 4 5 6 3 7 4 8 2 9 1 10 6 11 7 12 8 14 9 15
REMARK SMILES IDX 10 16 11 17 23 18 12 19 13 20 22 21 24 22 14 23 15 24 16 25
REMARK SMILES IDX 21 26 17 27 20 28 18 29 19 30 29 31 30 32 31 33 32 34 33 35
REMARK SMILES IDX 34 37 35 38 36 39 97 40 37 41 96 42 38 43 39 44 40 45 90 46
REMARK SMILES IDX 41 47 95 48 89 49 91 50 42 51 94 52 88 53 87 54 43 56 75 57
REMARK SMILES IDX 55 58 74 59 56 60 59 61 73 62 92 63 57 64 58 65 72 67 93 68
REMARK SMILES IDX 60 69 44 70 45 71 53 72 46 73 47 74 51 75 54 76 48 77 49 78
REMARK SMILES IDX 52 79 50 80 76 81 77 82 85 83 78 84 79 85 83 86 86 87 80 88
REMARK SMILES IDX 81 89 84 90 82 91 61 92 62 93 70 94 63 95 64 96 68 97 71 98
REMARK SMILES IDX 65 99 66 100 69 101 67 102
REMARK H PARENT 27 5 6 13 32 36 91 55 59 66
REMARK Flexibility Score: inf
ROOT
ATOM      1  C   UNL A   1      35.977  20.771  25.118  1.00  0.00     0.116 C 
ENDROOT
BRANCH   1   2
ATOM      2  N   UNL A   1      35.055  21.202  26.152  1.00  0.00    -0.354 N 
ATOM      3  C   UNL A   1      33.700  21.158  26.253  1.00  0.00     0.242 C 
ATOM      4  O   UNL A   1      33.212  21.311  27.379  1.00  0.00    -0.273 OA
ATOM      5  H   UNL A   1      35.498  21.606  26.933  1.00  0.00     0.163 HD
BRANCH   3   6
ATOM      6  C   UNL A   1      32.756  20.912  25.073  1.00  0.00     0.174 C 
BRANCH   6   7
ATOM      7  C   UNL A   1      32.369  19.412  24.844  1.00  0.00     0.018 C 
ATOM      8  C   UNL A   1      32.744  18.830  23.478  1.00  0.00     0.010 C 
BRANCH   7   9
ATOM      9  C   UNL A   1      32.772  18.441  25.982  1.00  0.00     0.002 C 
ATOM     10  C   UNL A   1      32.772  16.947  25.674  1.00  0.00     0.004 C 
ENDBRANCH   7   9
ENDBRANCH   6   7
BRANCH   6  11
ATOM     11  N   UNL A   1      33.169  21.557  23.820  1.00  0.00    -0.342 N 
ATOM     12  C   UNL A   1      32.561  22.505  23.051  1.00  0.00     0.240 C 
ATOM     13  H   UNL A   1      34.038  21.251  23.474  1.00  0.00     0.164 HD
ATOM     14  O   UNL A   1      32.953  22.572  21.880  1.00  0.00    -0.273 OA
BRANCH  12  15
ATOM     15  C   UNL A   1      31.648  23.613  23.605  1.00  0.00     0.227 C 
BRANCH  15  16
ATOM     16  N   UNL A   1      32.185  24.902  24.004  1.00  0.00    -0.283 N 
ATOM     17  C   UNL A   1      32.548  25.123  25.327  1.00  0.00     0.266 C 
ATOM     18  C   UNL A   1      32.657  25.828  23.098  1.00  0.00     0.148 C 
ATOM     19  O   UNL A   1      32.619  24.287  26.219  1.00  0.00    -0.268 OA
ATOM     20  C   UNL A   1      32.975  26.530  25.493  1.00  0.00     0.081 C 
ATOM     21  S   UNL A   1      33.416  27.158  23.949  1.00  0.00    -0.054 SA
ATOM     22  S   UNL A   1      32.583  25.775  21.435  1.00  0.00    -0.052 S 
ATOM     23  C   UNL A   1      32.935  27.182  26.665  1.00  0.00     0.029 C 
BRANCH  23  24
ATOM     24  C   UNL A   1      33.319  28.592  26.781  1.00  0.00    -0.024 A 
ATOM     25  C   UNL A   1      34.649  28.940  27.047  1.00  0.00     0.008 A 
ATOM     26  C   UNL A   1      32.330  29.577  26.802  1.00  0.00     0.008 A 
ATOM     27  C   UNL A   1      34.964  30.226  27.480  1.00  0.00     0.004 A 
ATOM     28  C   UNL A   1      32.651  30.871  27.214  1.00  0.00     0.004 A 
ATOM     29  C   UNL A   1      33.957  31.187  27.612  1.00  0.00    -0.051 A 
ATOM     30  C   UNL A   1      34.251  32.520  28.230  1.00  0.00     0.044 C 
ENDBRANCH  23  24
ENDBRANCH  15  16
ENDBRANCH  12  15
ENDBRANCH   6  11
ENDBRANCH   3   6
ENDBRANCH   1   2
BRANCH   1  31
ATOM     31  C   UNL A   1      36.437  21.830  24.110  1.00  0.00     0.023 C 
BRANCH  31  32
ATOM     32  C   UNL A   1      37.454  22.870  24.574  1.00  0.00     0.023 C 
BRANCH  32  33
ATOM     33  C   UNL A   1      37.749  22.870  26.056  1.00  0.00     0.116 C 
BRANCH  33  34
ATOM     34  N   UNL A   1      39.136  22.607  26.396  1.00  0.00    -0.352 N 
ATOM     35  C   UNL A   1      40.126  23.501  26.776  1.00  0.00     0.251 C 
ATOM     36  H   UNL A   1      39.413  21.663  26.350  1.00  0.00     0.163 HD
ATOM     37  O   UNL A   1      41.278  23.129  26.902  1.00  0.00    -0.269 OA
BRANCH  35  38
ATOM     38  C   UNL A   1      39.734  24.872  27.198  1.00  0.00     0.039 A 
ATOM     39  C   UNL A   1      40.233  25.937  26.441  1.00  0.00     0.014 A 
ATOM     40  C   UNL A   1      39.153  25.106  28.439  1.00  0.00     0.014 A 
ATOM     41  C   UNL A   1      40.410  27.177  27.045  1.00  0.00     0.010 A 
ATOM     42  C   UNL A   1      39.449  26.286  29.084  1.00  0.00     0.010 A 
ATOM     43  C   UNL A   1      40.139  27.295  28.404  1.00  0.00    -0.014 A 
BRANCH  43  44
ATOM     44  C   UNL A   1      40.556  28.421  29.221  1.00  0.00     0.031 A 
ATOM     45  C   UNL A   1      39.571  29.464  29.556  1.00  0.00     0.074 A 
ATOM     46  C   UNL A   1      41.801  28.471  29.743  1.00  0.00     0.049 A 
ATOM     47  N   UNL A   1      39.890  30.642  29.966  1.00  0.00    -0.248 NA
ATOM     48  C   UNL A   1      38.137  29.291  29.372  1.00  0.00     0.031 C 
ATOM     49  C   UNL A   1      42.269  29.342  30.819  1.00  0.00     0.029 A 
ATOM     50  N   UNL A   1      42.970  27.867  29.252  1.00  0.00    -0.354 N 
ATOM     51  C   UNL A   1      38.740  31.277  30.369  1.00  0.00     0.074 A 
ATOM     52  C   UNL A   1      37.678  30.449  29.853  1.00  0.00     0.031 C 
ATOM     53  C   UNL A   1      43.600  29.467  30.728  1.00  0.00     0.029 A 
ATOM     54  C   UNL A   1      44.005  28.804  29.505  1.00  0.00     0.049 A 
ATOM     55  H   UNL A   1      43.055  26.984  28.825  1.00  0.00     0.167 HD
ATOM     56  C   UNL A   1      38.860  32.354  31.196  1.00  0.00     0.037 A 
ATOM     57  C   UNL A   1      44.702  29.394  28.491  1.00  0.00     0.037 A 
ATOM     58  C   UNL A   1      40.269  32.751  31.331  1.00  0.00     0.049 A 
ATOM     59  C   UNL A   1      44.657  30.907  28.477  1.00  0.00     0.074 A 
ATOM     60  C   UNL A   1      41.217  32.650  32.337  1.00  0.00     0.029 A 
ATOM     61  N   UNL A   1      40.967  33.136  30.193  1.00  0.00    -0.354 N 
ATOM     62  N   UNL A   1      43.850  31.632  29.200  1.00  0.00    -0.248 NA
ATOM     63  C   UNL A   1      45.463  31.717  27.572  1.00  0.00     0.031 C 
ATOM     64  C   UNL A   1      42.477  33.046  31.805  1.00  0.00     0.029 A 
ATOM     65  C   UNL A   1      42.294  33.391  30.478  1.00  0.00     0.049 A 
ATOM     66  H   UNL A   1      40.566  33.216  29.297  1.00  0.00     0.167 HD
ATOM     67  C   UNL A   1      43.964  32.959  28.848  1.00  0.00     0.074 A 
ATOM     68  C   UNL A   1      44.983  32.949  27.814  1.00  0.00     0.031 C 
ATOM     69  C   UNL A   1      43.163  33.912  29.428  1.00  0.00     0.037 A 
BRANCH  56  70
ATOM     70  C   UNL A   1      37.759  32.950  32.066  1.00  0.00     0.064 A 
ATOM     71  C   UNL A   1      36.727  33.717  31.474  1.00  0.00     0.173 A 
ATOM     72  C   UNL A   1      37.688  32.895  33.472  1.00  0.00     0.173 A 
ATOM     73  F   UNL A   1      36.594  33.808  30.144  1.00  0.00    -0.203 F 
ATOM     74  C   UNL A   1      35.783  34.430  32.224  1.00  0.00     0.198 A 
ATOM     75  C   UNL A   1      36.748  33.608  34.222  1.00  0.00     0.198 A 
ATOM     76  F   UNL A   1      38.503  32.138  34.205  1.00  0.00    -0.203 F 
ATOM     77  F   UNL A   1      34.859  35.171  31.596  1.00  0.00    -0.200 F 
ATOM     78  C   UNL A   1      35.806  34.391  33.600  1.00  0.00     0.200 A 
ATOM     79  F   UNL A   1      36.775  33.527  35.561  1.00  0.00    -0.200 F 
ATOM     80  F   UNL A   1      34.919  35.089  34.322  1.00  0.00    -0.200 F 
ENDBRANCH  56  70
BRANCH  57  81
ATOM     81  C   UNL A   1      44.799  28.528  27.286  1.00  0.00     0.064 A 
ATOM     82  C   UNL A   1      45.644  27.403  27.342  1.00  0.00     0.173 A 
ATOM     83  C   UNL A   1      43.802  28.545  26.304  1.00  0.00     0.173 A 
ATOM     84  F   UNL A   1      46.613  27.339  28.268  1.00  0.00    -0.203 F 
ATOM     85  C   UNL A   1      45.412  26.288  26.540  1.00  0.00     0.198 A 
ATOM     86  C   UNL A   1      43.584  27.430  25.492  1.00  0.00     0.198 A 
ATOM     87  F   UNL A   1      42.956  29.582  26.214  1.00  0.00    -0.203 F 
ATOM     88  F   UNL A   1      46.154  25.183  26.706  1.00  0.00    -0.200 F 
ATOM     89  C   UNL A   1      44.363  26.291  25.638  1.00  0.00     0.200 A 
ATOM     90  F   UNL A   1      42.553  27.423  24.635  1.00  0.00    -0.200 F 
ATOM     91  F   UNL A   1      44.073  25.183  24.942  1.00  0.00    -0.200 F 
ENDBRANCH  57  81
BRANCH  69  92
ATOM     92  C   UNL A   1      43.044  35.399  29.086  1.00  0.00     0.064 A 
ATOM     93  C   UNL A   1      42.532  35.926  27.891  1.00  0.00     0.173 A 
ATOM     94  C   UNL A   1      43.498  36.390  30.004  1.00  0.00     0.173 A 
ATOM     95  F   UNL A   1      42.223  35.142  26.855  1.00  0.00    -0.203 F 
ATOM     96  C   UNL A   1      42.373  37.306  27.684  1.00  0.00     0.198 A 
ATOM     97  C   UNL A   1      43.367  37.762  29.784  1.00  0.00     0.198 A 
ATOM     98  F   UNL A   1      44.093  36.078  31.162  1.00  0.00    -0.203 F 
ATOM     99  F   UNL A   1      41.828  37.743  26.539  1.00  0.00    -0.200 F 
ATOM    100  C   UNL A   1      42.781  38.222  28.633  1.00  0.00     0.200 A 
ATOM    101  F   UNL A   1      43.812  38.627  30.710  1.00  0.00    -0.200 F 
ATOM    102  F   UNL A   1      42.629  39.537  28.429  1.00  0.00    -0.200 F 
ENDBRANCH  69  92
ENDBRANCH  43  44
ENDBRANCH  35  38
ENDBRANCH  33  34
ENDBRANCH  32  33
ENDBRANCH  31  32
ENDBRANCH   1  31
TORSDOF 17
ENDMDL
MODEL 3
REMARK VINA RESULT:     -13.0      3.558      9.984
REMARK SMILES CC[C@H](C)[C@H](NC(=O)CN1C(=O)/C(=C/c2ccc(C)cc2)SC1=S)C(=O)NCCCCNC(=O)c1ccc(-c2c3nc(c(-c4c(F)c(F)c(F)c(F)c4F)c4ccc([nH]4)c(-c4c(F)c(F)c(F)c(F)c4F)c4nc(c(-c5c(F)c(F)c(F)c(F)c5F)c5ccc2[nH]5)C=C4)C=C3)cc1
REMARK SMILES IDX 28 1 27 2 25 3 26 4 5 6 3 7 4 8 2 9 1 10 6 11 7 12 8 14 9 15
REMARK SMILES IDX 10 16 11 17 23 18 12 19 13 20 22 21 24 22 14 23 15 24 16 25
REMARK SMILES IDX 21 26 17 27 20 28 18 29 19 30 29 31 30 32 31 33 32 34 33 35
REMARK SMILES IDX 34 37 35 38 36 39 97 40 37 41 96 42 38 43 39 44 40 45 90 46
REMARK SMILES IDX 41 47 95 48 89 49 91 50 42 51 94 52 88 53 87 54 43 56 75 57
REMARK SMILES IDX 55 58 74 59 56 60 59 61 73 62 92 63 57 64 58 65 72 67 93 68
REMARK SMILES IDX 60 69 44 70 45 71 53 72 46 73 47 74 51 75 54 76 48 77 49 78
REMARK SMILES IDX 52 79 50 80 76 81 77 82 85 83 78 84 79 85 83 86 86 87 80 88
REMARK SMILES IDX 81 89 84 90 82 91 61 92 62 93 70 94 63 95 64 96 68 97 71 98
REMARK SMILES IDX 65 99 66 100 69 101 67 102
REMARK H PARENT 27 5 6 13 32 36 91 55 59 66
REMARK Flexibility Score: inf
ROOT
ATOM      1  C   UNL A   1      36.026  21.767  25.235  1.00  0.00     0.116 C 
ENDROOT
BRANCH   1   2
ATOM      2  N   UNL A   1      34.950  21.681  26.204  1.00  0.00    -0.354 N 
ATOM      3  C   UNL A   1      33.701  21.149  26.148  1.00  0.00     0.242 C 
ATOM      4  O   UNL A   1      33.123  20.945  27.222  1.00  0.00    -0.273 OA
ATOM      5  H   UNL A   1      35.168  22.089  27.074  1.00  0.00     0.163 HD
BRANCH   3   6
ATOM      6  C   UNL A   1      32.983  20.773  24.848  1.00  0.00     0.174 C 
BRANCH   6   7
ATOM      7  C   UNL A   1      33.050  19.253  24.479  1.00  0.00     0.018 C 
ATOM      8  C   UNL A   1      32.385  18.860  23.156  1.00  0.00     0.010 C 
BRANCH   7   9
ATOM      9  C   UNL A   1      34.449  18.599  24.602  1.00  0.00     0.002 C 
ATOM     10  C   UNL A   1      34.595  17.146  24.166  1.00  0.00     0.004 C 
ENDBRANCH   7   9
ENDBRANCH   6   7
BRANCH   6  11
ATOM     11  N   UNL A   1      33.324  21.621  23.699  1.00  0.00    -0.342 N 
ATOM     12  C   UNL A   1      32.560  22.448  22.931  1.00  0.00     0.240 C 
ATOM     13  H   UNL A   1      34.272  21.584  23.435  1.00  0.00     0.164 HD
ATOM     14  O   UNL A   1      33.028  22.727  21.821  1.00  0.00    -0.273 OA
BRANCH  12  15
ATOM     15  C   UNL A   1      31.336  23.224  23.450  1.00  0.00     0.227 C 
BRANCH  15  16
ATOM     16  N   UNL A   1      31.490  24.402  24.285  1.00  0.00    -0.283 N 
ATOM     17  C   UNL A   1      31.787  25.629  23.705  1.00  0.00     0.266 C 
ATOM     18  C   UNL A   1      31.050  24.454  25.591  1.00  0.00     0.148 C 
ATOM     19  O   UNL A   1      31.793  25.896  22.510  1.00  0.00    -0.268 OA
ATOM     20  C   UNL A   1      31.982  26.642  24.768  1.00  0.00     0.081 C 
ATOM     21  S   UNL A   1      31.210  26.088  26.206  1.00  0.00    -0.054 SA
ATOM     22  S   UNL A   1      30.430  23.221  26.522  1.00  0.00    -0.052 S 
ATOM     23  C   UNL A   1      32.711  27.755  24.602  1.00  0.00     0.029 C 
BRANCH  23  24
ATOM     24  C   UNL A   1      32.924  28.712  25.693  1.00  0.00    -0.024 A 
ATOM     25  C   UNL A   1      32.001  29.741  25.916  1.00  0.00     0.008 A 
ATOM     26  C   UNL A   1      34.130  28.702  26.394  1.00  0.00     0.008 A 
ATOM     27  C   UNL A   1      32.345  30.830  26.714  1.00  0.00     0.004 A 
ATOM     28  C   UNL A   1      34.465  29.783  27.212  1.00  0.00     0.004 A 
ATOM     29  C   UNL A   1      33.600  30.879  27.329  1.00  0.00    -0.051 A 
ATOM     30  C   UNL A   1      34.047  32.112  28.053  1.00  0.00     0.044 C 
ENDBRANCH  23  24
ENDBRANCH  15  16
ENDBRANCH  12  15
ENDBRANCH   6  11
ENDBRANCH   3   6
ENDBRANCH   1   2
BRANCH   1  31
ATOM     31  C   UNL A   1      36.495  23.172  24.838  1.00  0.00     0.023 C 
BRANCH  31  32
ATOM     32  C   UNL A   1      37.843  23.654  25.366  1.00  0.00     0.023 C 
BRANCH  32  33
ATOM     33  C   UNL A   1      38.538  22.714  26.324  1.00  0.00     0.116 C 
BRANCH  33  34
ATOM     34  N   UNL A   1      39.987  22.817  26.328  1.00  0.00    -0.352 N 
ATOM     35  C   UNL A   1      40.780  23.949  26.441  1.00  0.00     0.251 C 
ATOM     36  H   UNL A   1      40.473  21.965  26.236  1.00  0.00     0.163 HD
ATOM     37  O   UNL A   1      41.986  23.873  26.295  1.00  0.00    -0.269 OA
BRANCH  35  38
ATOM     38  C   UNL A   1      40.163  25.215  26.916  1.00  0.00     0.039 A 
ATOM     39  C   UNL A   1      40.462  26.376  26.194  1.00  0.00     0.014 A 
ATOM     40  C   UNL A   1      39.566  25.302  28.168  1.00  0.00     0.014 A 
ATOM     41  C   UNL A   1      40.429  27.607  26.842  1.00  0.00     0.010 A 
ATOM     42  C   UNL A   1      39.663  26.493  28.854  1.00  0.00     0.010 A 
ATOM     43  C   UNL A   1      40.160  27.628  28.207  1.00  0.00    -0.014 A 
BRANCH  43  44
ATOM     44  C   UNL A   1      40.387  28.780  29.061  1.00  0.00     0.031 A 
ATOM     45  C   UNL A   1      39.351  29.824  29.144  1.00  0.00     0.074 A 
ATOM     46  C   UNL A   1      41.489  28.856  29.839  1.00  0.00     0.049 A 
ATOM     47  N   UNL A   1      39.571  31.015  29.578  1.00  0.00    -0.248 NA
ATOM     48  C   UNL A   1      37.991  29.634  28.657  1.00  0.00     0.031 C 
ATOM     49  C   UNL A   1      41.710  29.760  30.966  1.00  0.00     0.029 A 
ATOM     50  N   UNL A   1      42.738  28.248  29.632  1.00  0.00    -0.354 N 
ATOM     51  C   UNL A   1      38.359  31.652  29.703  1.00  0.00     0.074 A 
ATOM     52  C   UNL A   1      37.436  30.801  28.993  1.00  0.00     0.031 C 
ATOM     53  C   UNL A   1      43.029  29.895  31.162  1.00  0.00     0.029 A 
ATOM     54  C   UNL A   1      43.691  29.200  30.076  1.00  0.00     0.049 A 
ATOM     55  H   UNL A   1      42.915  27.354  29.260  1.00  0.00     0.167 HD
ATOM     56  C   UNL A   1      38.294  32.753  30.505  1.00  0.00     0.037 A 
ATOM     57  C   UNL A   1      44.591  29.768  29.221  1.00  0.00     0.037 A 
ATOM     58  C   UNL A   1      39.639  33.165  30.930  1.00  0.00     0.049 A 
ATOM     59  C   UNL A   1      44.547  31.279  29.153  1.00  0.00     0.074 A 
ATOM     60  C   UNL A   1      40.346  33.101  32.121  1.00  0.00     0.029 A 
ATOM     61  N   UNL A   1      40.566  33.524  29.961  1.00  0.00    -0.354 N 
ATOM     62  N   UNL A   1      43.600  32.017  29.662  1.00  0.00    -0.248 NA
ATOM     63  C   UNL A   1      45.528  32.070  28.421  1.00  0.00     0.031 C 
ATOM     64  C   UNL A   1      41.691  33.492  31.864  1.00  0.00     0.029 A 
ATOM     65  C   UNL A   1      41.799  33.799  30.520  1.00  0.00     0.049 A 
ATOM     66  H   UNL A   1      40.370  33.576  28.997  1.00  0.00     0.167 HD
ATOM     67  C   UNL A   1      43.785  33.335  29.305  1.00  0.00     0.074 A 
ATOM     68  C   UNL A   1      45.005  33.305  28.517  1.00  0.00     0.031 C 
ATOM     69  C   UNL A   1      42.875  34.297  29.669  1.00  0.00     0.037 A 
BRANCH  56  70
ATOM     70  C   UNL A   1      37.029  33.364  31.097  1.00  0.00     0.064 A 
ATOM     71  C   UNL A   1      36.697  33.130  32.453  1.00  0.00     0.173 A 
ATOM     72  C   UNL A   1      36.058  34.107  30.396  1.00  0.00     0.173 A 
ATOM     73  F   UNL A   1      37.545  32.512  33.286  1.00  0.00    -0.203 F 
ATOM     74  C   UNL A   1      35.474  33.517  33.015  1.00  0.00     0.198 A 
ATOM     75  C   UNL A   1      34.836  34.492  30.956  1.00  0.00     0.198 A 
ATOM     76  F   UNL A   1      36.233  34.521  29.143  1.00  0.00    -0.203 F 
ATOM     77  F   UNL A   1      35.210  33.224  34.296  1.00  0.00    -0.200 F 
ATOM     78  C   UNL A   1      34.534  34.182  32.260  1.00  0.00     0.200 A 
ATOM     79  F   UNL A   1      33.951  35.166  30.205  1.00  0.00    -0.200 F 
ATOM     80  F   UNL A   1      33.354  34.536  32.787  1.00  0.00    -0.200 F 
ENDBRANCH  56  70
BRANCH  57  81
ATOM     81  C   UNL A   1      44.949  28.870  28.091  1.00  0.00     0.064 A 
ATOM     82  C   UNL A   1      45.812  27.787  28.351  1.00  0.00     0.173 A 
ATOM     83  C   UNL A   1      44.156  28.808  26.940  1.00  0.00     0.173 A 
ATOM     84  F   UNL A   1      46.589  27.798  29.445  1.00  0.00    -0.203 F 
ATOM     85  C   UNL A   1      45.782  26.637  27.566  1.00  0.00     0.198 A 
ATOM     86  C   UNL A   1      44.142  27.659  26.147  1.00  0.00     0.198 A 
ATOM     87  F   UNL A   1      43.303  29.801  26.650  1.00  0.00    -0.203 F 
ATOM     88  F   UNL A   1      46.522  25.574  27.912  1.00  0.00    -0.200 F 
ATOM     89  C   UNL A   1      44.924  26.562  26.482  1.00  0.00     0.200 A 
ATOM     90  F   UNL A   1      43.293  27.576  25.112  1.00  0.00    -0.200 F 
ATOM     91  F   UNL A   1      44.815  25.420  25.789  1.00  0.00    -0.200 F 
ENDBRANCH  57  81
BRANCH  69  92
ATOM     92  C   UNL A   1      42.829  35.773  29.266  1.00  0.00     0.064 A 
ATOM     93  C   UNL A   1      43.402  36.835  29.982  1.00  0.00     0.173 A 
ATOM     94  C   UNL A   1      42.138  36.179  28.088  1.00  0.00     0.173 A 
ATOM     95  F   UNL A   1      43.936  36.657  31.193  1.00  0.00    -0.203 F 
ATOM     96  C   UNL A   1      43.394  38.156  29.505  1.00  0.00     0.198 A 
ATOM     97  C   UNL A   1      42.104  37.497  27.630  1.00  0.00     0.198 A 
ATOM     98  F   UNL A   1      41.458  35.319  27.321  1.00  0.00    -0.203 F 
ATOM     99  F   UNL A   1      44.006  39.116  30.212  1.00  0.00    -0.200 F 
ATOM    100  C   UNL A   1      42.755  38.485  28.326  1.00  0.00     0.200 A 
ATOM    101  F   UNL A   1      41.439  37.791  26.502  1.00  0.00    -0.200 F 
ATOM    102  F   UNL A   1      42.749  39.747  27.877  1.00  0.00    -0.200 F 
ENDBRANCH  69  92
ENDBRANCH  43  44
ENDBRANCH  35  38
ENDBRANCH  33  34
ENDBRANCH  32  33
ENDBRANCH  31  32
ENDBRANCH   1  31
TORSDOF 17
ENDMDL
