MODEL 1
REMARK VINA RESULT:     -14.5      0.000      0.000
REMARK SMILES Cc1ccccc1C(=O)Nc1ccc(N2CCC(n3c(C)nc4cccnc43)CC2)c(C(=O)NCCCCNC(=O)c2ccc(-c3c4nc(c(-c5c(F)c(F)c(F)c(F)c5F)c5ccc([nH]5)c(-c5c(F)c(F)c(F)c(F)c5F)c5nc(c(-c6c(F)c(F)c(F)c(F)c6F)c6ccc3[nH]6)C=C5)C=C4)cc2)c1
REMARK SMILES IDX 36 1 35 2 34 3 32 4 33 5 31 7 11 8 12 9 105 10 13 11 14 12
REMARK SMILES IDX 10 13 8 14 9 15 7 17 1 18 2 19 3 20 4 21 6 22 5 23 15 24
REMARK SMILES IDX 16 25 30 26 17 27 29 28 18 29 19 30 20 31 28 32 21 33 22 34
REMARK SMILES IDX 23 35 27 36 24 37 26 38 25 39 37 40 38 41 39 42 40 43 41 45
REMARK SMILES IDX 42 46 43 47 104 48 44 49 103 50 45 51 46 52 47 53 97 54
REMARK SMILES IDX 48 55 102 56 96 57 98 58 49 59 101 60 95 61 94 62 50 64
REMARK SMILES IDX 82 65 62 66 81 67 63 68 66 69 80 70 99 71 64 72 65 73 79 75
REMARK SMILES IDX 100 76 67 77 51 78 52 79 60 80 53 81 54 82 58 83 61 84 55 85
REMARK SMILES IDX 56 86 59 87 57 88 83 89 84 90 92 91 85 92 86 93 90 94 93 95
REMARK SMILES IDX 87 96 88 97 91 98 89 99 68 100 69 101 77 102 70 103 71 104
REMARK SMILES IDX 75 105 78 106 72 107 73 108 76 109 74 110
REMARK H PARENT 34 6 10 16 39 44 98 63 66 74
REMARK Flexibility Score: inf
ROOT
ATOM      1  C   UNL A   1      31.531  29.301  27.015  1.00  0.00     0.023 C 
ENDROOT
BRANCH   1   2
ATOM      2  C   UNL A   1      32.159  28.074  27.670  1.00  0.00     0.116 C 
BRANCH   2   3
ATOM      3  N   UNL A   1      31.572  26.765  27.540  1.00  0.00    -0.352 N 
ATOM      4  C   UNL A   1      31.253  26.088  26.366  1.00  0.00     0.253 C 
ATOM      5  O   UNL A   1      30.880  24.918  26.496  1.00  0.00    -0.269 OA
ATOM      6  H   UNL A   1      31.372  26.293  28.381  1.00  0.00     0.163 HD
BRANCH   4   7
ATOM      7  C   UNL A   1      31.272  26.679  24.965  1.00  0.00     0.065 A 
ATOM      8  C   UNL A   1      29.862  27.751  23.256  1.00  0.00     0.042 A 
ATOM      9  C   UNL A   1      30.935  27.854  22.394  1.00  0.00     0.028 A 
ATOM     10  C   UNL A   1      30.062  27.309  24.575  1.00  0.00     0.042 A 
ATOM     11  C   UNL A   1      32.138  27.273  22.764  1.00  0.00     0.029 A 
ATOM     12  C   UNL A   1      32.283  26.558  23.981  1.00  0.00     0.050 A 
BRANCH   8  13
ATOM     13  N   UNL A   1      28.553  27.957  22.811  1.00  0.00    -0.322 N 
ATOM     14  C   UNL A   1      27.808  29.120  22.714  1.00  0.00     0.255 C 
ATOM     15  O   UNL A   1      26.596  28.994  22.514  1.00  0.00    -0.269 OA
ATOM     16  H   UNL A   1      28.084  27.142  22.518  1.00  0.00     0.170 HD
BRANCH  14  17
ATOM     17  C   UNL A   1      28.369  30.522  22.754  1.00  0.00     0.043 A 
ATOM     18  C   UNL A   1      27.798  31.294  20.346  1.00  0.00     0.045 C 
ATOM     19  C   UNL A   1      28.388  31.476  21.712  1.00  0.00    -0.038 A 
ATOM     20  C   UNL A   1      28.951  32.752  21.944  1.00  0.00     0.004 A 
ATOM     21  C   UNL A   1      29.363  33.145  23.212  1.00  0.00     0.000 A 
ATOM     22  C   UNL A   1      28.772  30.958  24.036  1.00  0.00     0.014 A 
ATOM     23  C   UNL A   1      29.242  32.255  24.268  1.00  0.00     0.001 A 
ENDBRANCH  14  17
ENDBRANCH   8  13
BRANCH  12  24
ATOM     24  N   UNL A   1      33.317  25.617  23.994  1.00  0.00    -0.371 N 
ATOM     25  C   UNL A   1      33.315  24.579  22.972  1.00  0.00     0.118 C 
ATOM     26  C   UNL A   1      34.307  25.728  25.056  1.00  0.00     0.118 C 
ATOM     27  C   UNL A   1      34.046  23.321  23.342  1.00  0.00     0.047 C 
ATOM     28  C   UNL A   1      34.767  24.367  25.525  1.00  0.00     0.047 C 
ATOM     29  C   UNL A   1      35.165  23.446  24.377  1.00  0.00     0.094 C 
BRANCH  29  30
ATOM     30  N   UNL A   1      35.523  22.074  24.759  1.00  0.00    -0.310 N 
ATOM     31  C   UNL A   1      34.788  20.903  24.751  1.00  0.00     0.108 A 
ATOM     32  C   UNL A   1      36.830  21.724  25.019  1.00  0.00     0.160 A 
ATOM     33  C   UNL A   1      33.310  20.790  24.854  1.00  0.00     0.088 C 
ATOM     34  N   UNL A   1      35.591  19.849  24.754  1.00  0.00    -0.232 NA
ATOM     35  C   UNL A   1      36.843  20.338  24.996  1.00  0.00     0.108 A 
ATOM     36  N   UNL A   1      37.856  22.557  25.288  1.00  0.00    -0.237 NA
ATOM     37  C   UNL A   1      38.042  19.689  25.317  1.00  0.00     0.034 A 
ATOM     38  C   UNL A   1      38.974  21.886  25.662  1.00  0.00     0.113 A 
ATOM     39  C   UNL A   1      39.118  20.499  25.696  1.00  0.00     0.022 A 
ENDBRANCH  29  30
ENDBRANCH  12  24
ENDBRANCH   4   7
ENDBRANCH   2   3
ENDBRANCH   1   2
BRANCH   1  40
ATOM     40  C   UNL A   1      32.426  30.444  26.546  1.00  0.00     0.023 C 
BRANCH  40  41
ATOM     41  C   UNL A   1      33.888  30.391  26.953  1.00  0.00     0.116 C 
BRANCH  41  42
ATOM     42  N   UNL A   1      34.553  31.629  27.303  1.00  0.00    -0.352 N 
ATOM     43  C   UNL A   1      35.723  31.831  28.040  1.00  0.00     0.251 C 
ATOM     44  H   UNL A   1      34.117  32.448  26.975  1.00  0.00     0.163 HD
ATOM     45  O   UNL A   1      36.009  32.958  28.379  1.00  0.00    -0.269 OA
BRANCH  43  46
ATOM     46  C   UNL A   1      36.679  30.709  28.342  1.00  0.00     0.039 A 
ATOM     47  C   UNL A   1      36.501  29.962  29.528  1.00  0.00     0.014 A 
ATOM     48  C   UNL A   1      37.815  30.464  27.585  1.00  0.00     0.014 A 
ATOM     49  C   UNL A   1      37.515  29.123  30.006  1.00  0.00     0.010 A 
ATOM     50  C   UNL A   1      38.839  29.709  28.078  1.00  0.00     0.010 A 
ATOM     51  C   UNL A   1      38.715  29.090  29.317  1.00  0.00    -0.014 A 
BRANCH  51  52
ATOM     52  C   UNL A   1      39.964  28.471  29.714  1.00  0.00     0.031 A 
ATOM     53  C   UNL A   1      40.281  27.137  29.185  1.00  0.00     0.074 A 
ATOM     54  C   UNL A   1      40.921  29.363  30.046  1.00  0.00     0.049 A 
ATOM     55  N   UNL A   1      41.375  26.504  29.410  1.00  0.00    -0.248 NA
ATOM     56  C   UNL A   1      39.352  26.401  28.335  1.00  0.00     0.031 C 
ATOM     57  C   UNL A   1      42.362  29.313  29.827  1.00  0.00     0.029 A 
ATOM     58  N   UNL A   1      40.736  30.509  30.825  1.00  0.00    -0.354 N 
ATOM     59  C   UNL A   1      41.435  25.453  28.519  1.00  0.00     0.074 A 
ATOM     60  C   UNL A   1      40.109  25.369  27.956  1.00  0.00     0.031 C 
ATOM     61  C   UNL A   1      42.957  30.178  30.669  1.00  0.00     0.029 A 
ATOM     62  C   UNL A   1      41.918  30.631  31.582  1.00  0.00     0.049 A 
ATOM     63  H   UNL A   1      39.950  31.101  30.841  1.00  0.00     0.167 HD
ATOM     64  C   UNL A   1      42.655  24.893  28.265  1.00  0.00     0.037 A 
ATOM     65  C   UNL A   1      41.896  30.359  32.927  1.00  0.00     0.037 A 
ATOM     66  C   UNL A   1      43.674  25.522  29.111  1.00  0.00     0.049 A 
ATOM     67  C   UNL A   1      42.854  29.278  33.298  1.00  0.00     0.074 A 
ATOM     68  C   UNL A   1      44.598  26.525  28.868  1.00  0.00     0.029 A 
ATOM     69  N   UNL A   1      43.600  25.380  30.493  1.00  0.00    -0.354 N 
ATOM     70  N   UNL A   1      43.112  28.254  32.537  1.00  0.00    -0.248 NA
ATOM     71  C   UNL A   1      43.624  29.305  34.530  1.00  0.00     0.031 C 
ATOM     72  C   UNL A   1      45.050  27.014  30.122  1.00  0.00     0.029 A 
ATOM     73  C   UNL A   1      44.421  26.293  31.124  1.00  0.00     0.049 A 
ATOM     74  H   UNL A   1      43.037  24.719  30.958  1.00  0.00     0.167 HD
ATOM     75  C   UNL A   1      44.073  27.495  33.142  1.00  0.00     0.074 A 
ATOM     76  C   UNL A   1      44.370  28.200  34.377  1.00  0.00     0.031 C 
ATOM     77  C   UNL A   1      44.526  26.339  32.578  1.00  0.00     0.037 A 
BRANCH  64  78
ATOM     78  C   UNL A   1      43.006  23.994  27.090  1.00  0.00     0.064 A 
ATOM     79  C   UNL A   1      42.535  22.660  27.050  1.00  0.00     0.173 A 
ATOM     80  C   UNL A   1      43.825  24.345  25.997  1.00  0.00     0.173 A 
ATOM     81  F   UNL A   1      41.678  22.192  27.966  1.00  0.00    -0.203 F 
ATOM     82  C   UNL A   1      42.919  21.747  26.061  1.00  0.00     0.198 A 
ATOM     83  C   UNL A   1      44.238  23.423  25.028  1.00  0.00     0.198 A 
ATOM     84  F   UNL A   1      44.215  25.601  25.779  1.00  0.00    -0.203 F 
ATOM     85  F   UNL A   1      42.440  20.496  26.091  1.00  0.00    -0.200 F 
ATOM     86  C   UNL A   1      43.790  22.122  25.063  1.00  0.00     0.200 A 
ATOM     87  F   UNL A   1      45.069  23.818  24.052  1.00  0.00    -0.200 F 
ATOM     88  F   UNL A   1      44.177  21.244  24.126  1.00  0.00    -0.200 F 
ENDBRANCH  64  78
BRANCH  65  89
ATOM     89  C   UNL A   1      40.538  30.519  33.536  1.00  0.00     0.064 A 
ATOM     90  C   UNL A   1      40.117  31.844  33.686  1.00  0.00     0.173 A 
ATOM     91  C   UNL A   1      39.546  29.531  33.435  1.00  0.00     0.173 A 
ATOM     92  F   UNL A   1      41.038  32.810  33.808  1.00  0.00    -0.203 F 
ATOM     93  C   UNL A   1      38.804  32.175  33.395  1.00  0.00     0.198 A 
ATOM     94  C   UNL A   1      38.198  29.882  33.319  1.00  0.00     0.198 A 
ATOM     95  F   UNL A   1      39.881  28.239  33.314  1.00  0.00    -0.203 F 
ATOM     96  F   UNL A   1      38.502  33.411  33.027  1.00  0.00    -0.200 F 
ATOM     97  C   UNL A   1      37.838  31.210  33.236  1.00  0.00     0.200 A 
ATOM     98  F   UNL A   1      37.263  28.942  33.121  1.00  0.00    -0.200 F 
ATOM     99  F   UNL A   1      36.592  31.570  32.891  1.00  0.00    -0.200 F 
ENDBRANCH  65  89
BRANCH  77 100
ATOM    100  C   UNL A   1      45.170  25.199  33.331  1.00  0.00     0.064 A 
ATOM    101  C   UNL A   1      46.555  24.956  33.367  1.00  0.00     0.173 A 
ATOM    102  C   UNL A   1      44.400  24.389  34.202  1.00  0.00     0.173 A 
ATOM    103  F   UNL A   1      47.432  25.731  32.717  1.00  0.00    -0.203 F 
ATOM    104  C   UNL A   1      47.115  23.941  34.144  1.00  0.00     0.198 A 
ATOM    105  C   UNL A   1      44.973  23.430  35.036  1.00  0.00     0.198 A 
ATOM    106  F   UNL A   1      43.071  24.529  34.313  1.00  0.00    -0.203 F 
ATOM    107  F   UNL A   1      48.437  23.727  34.093  1.00  0.00    -0.200 F 
ATOM    108  C   UNL A   1      46.329  23.190  34.991  1.00  0.00     0.200 A 
ATOM    109  F   UNL A   1      44.202  22.762  35.905  1.00  0.00    -0.200 F 
ATOM    110  F   UNL A   1      46.880  22.261  35.781  1.00  0.00    -0.200 F 
ENDBRANCH  77 100
ENDBRANCH  51  52
ENDBRANCH  43  46
ENDBRANCH  41  42
ENDBRANCH  40  41
ENDBRANCH   1  40
TORSDOF 15
ENDMDL
MODEL 2
REMARK VINA RESULT:     -14.3      3.649     10.131
REMARK SMILES Cc1ccccc1C(=O)Nc1ccc(N2CCC(n3c(C)nc4cccnc43)CC2)c(C(=O)NCCCCNC(=O)c2ccc(-c3c4nc(c(-c5c(F)c(F)c(F)c(F)c5F)c5ccc([nH]5)c(-c5c(F)c(F)c(F)c(F)c5F)c5nc(c(-c6c(F)c(F)c(F)c(F)c6F)c6ccc3[nH]6)C=C5)C=C4)cc2)c1
REMARK SMILES IDX 36 1 35 2 34 3 32 4 33 5 31 7 11 8 12 9 105 10 13 11 14 12
REMARK SMILES IDX 10 13 8 14 9 15 7 17 1 18 2 19 3 20 4 21 6 22 5 23 15 24
REMARK SMILES IDX 16 25 30 26 17 27 29 28 18 29 19 30 20 31 28 32 21 33 22 34
REMARK SMILES IDX 23 35 27 36 24 37 26 38 25 39 37 40 38 41 39 42 40 43 41 45
REMARK SMILES IDX 42 46 43 47 104 48 44 49 103 50 45 51 46 52 47 53 97 54
REMARK SMILES IDX 48 55 102 56 96 57 98 58 49 59 101 60 95 61 94 62 50 64
REMARK SMILES IDX 82 65 62 66 81 67 63 68 66 69 80 70 99 71 64 72 65 73 79 75
REMARK SMILES IDX 100 76 67 77 51 78 52 79 60 80 53 81 54 82 58 83 61 84 55 85
REMARK SMILES IDX 56 86 59 87 57 88 83 89 84 90 92 91 85 92 86 93 90 94 93 95
REMARK SMILES IDX 87 96 88 97 91 98 89 99 68 100 69 101 77 102 70 103 71 104
REMARK SMILES IDX 75 105 78 106 72 107 73 108 76 109 74 110
REMARK H PARENT 34 6 10 16 39 44 98 63 66 74
REMARK Flexibility Score: inf
ROOT
ATOM      1  C   UNL A   1      39.121  23.230  26.520  1.00  0.00     0.023 C 
ENDROOT
BRANCH   1   2
ATOM      2  C   UNL A   1      37.818  23.937  26.156  1.00  0.00     0.116 C 
BRANCH   2   3
ATOM      3  N   UNL A   1      37.225  23.802  24.851  1.00  0.00    -0.352 N 
ATOM      4  C   UNL A   1      35.885  23.582  24.544  1.00  0.00     0.253 C 
ATOM      5  O   UNL A   1      35.585  23.632  23.346  1.00  0.00    -0.269 OA
ATOM      6  H   UNL A   1      37.840  23.872  24.085  1.00  0.00     0.163 HD
BRANCH   4   7
ATOM      7  C   UNL A   1      34.789  23.235  25.540  1.00  0.00     0.065 A 
ATOM      8  C   UNL A   1      33.691  21.357  26.690  1.00  0.00     0.042 A 
ATOM      9  C   UNL A   1      32.840  22.220  27.349  1.00  0.00     0.028 A 
ATOM     10  C   UNL A   1      34.746  21.867  25.915  1.00  0.00     0.042 A 
ATOM     11  C   UNL A   1      32.883  23.567  27.023  1.00  0.00     0.029 A 
ATOM     12  C   UNL A   1      33.750  24.069  26.018  1.00  0.00     0.050 A 
BRANCH   8  13
ATOM     13  N   UNL A   1      33.453  19.979  26.671  1.00  0.00    -0.322 N 
ATOM     14  C   UNL A   1      32.847  19.183  25.714  1.00  0.00     0.255 C 
ATOM     15  O   UNL A   1      32.550  18.032  26.049  1.00  0.00    -0.269 OA
ATOM     16  H   UNL A   1      33.770  19.496  27.469  1.00  0.00     0.170 HD
BRANCH  14  17
ATOM     17  C   UNL A   1      32.593  19.582  24.279  1.00  0.00     0.043 A 
ATOM     18  C   UNL A   1      32.820  17.269  23.132  1.00  0.00     0.045 C 
ATOM     19  C   UNL A   1      32.600  18.751  23.137  1.00  0.00    -0.038 A 
ATOM     20  C   UNL A   1      32.325  19.309  21.867  1.00  0.00     0.004 A 
ATOM     21  C   UNL A   1      31.911  20.628  21.727  1.00  0.00     0.000 A 
ATOM     22  C   UNL A   1      32.145  20.912  24.110  1.00  0.00     0.014 A 
ATOM     23  C   UNL A   1      31.789  21.422  22.857  1.00  0.00     0.001 A 
ENDBRANCH  14  17
ENDBRANCH   8  13
BRANCH  12  24
ATOM     24  N   UNL A   1      33.345  25.273  25.436  1.00  0.00    -0.371 N 
ATOM     25  C   UNL A   1      34.061  26.488  25.800  1.00  0.00     0.118 C 
ATOM     26  C   UNL A   1      32.207  25.226  24.529  1.00  0.00     0.118 C 
ATOM     27  C   UNL A   1      33.280  27.760  25.636  1.00  0.00     0.047 C 
ATOM     28  C   UNL A   1      31.347  26.462  24.659  1.00  0.00     0.047 C 
ATOM     29  C   UNL A   1      32.152  27.756  24.603  1.00  0.00     0.094 C 
BRANCH  29  30
ATOM     30  N   UNL A   1      31.388  28.989  24.827  1.00  0.00    -0.310 N 
ATOM     31  C   UNL A   1      31.559  30.016  25.737  1.00  0.00     0.108 A 
ATOM     32  C   UNL A   1      30.420  29.400  23.937  1.00  0.00     0.160 A 
ATOM     33  C   UNL A   1      32.228  29.920  27.060  1.00  0.00     0.088 C 
ATOM     34  N   UNL A   1      30.936  31.111  25.326  1.00  0.00    -0.232 NA
ATOM     35  C   UNL A   1      30.170  30.724  24.263  1.00  0.00     0.108 A 
ATOM     36  N   UNL A   1      29.815  28.651  22.992  1.00  0.00    -0.237 NA
ATOM     37  C   UNL A   1      29.151  31.388  23.569  1.00  0.00     0.034 A 
ATOM     38  C   UNL A   1      28.791  29.312  22.396  1.00  0.00     0.113 A 
ATOM     39  C   UNL A   1      28.425  30.636  22.639  1.00  0.00     0.022 A 
ENDBRANCH  29  30
ENDBRANCH  12  24
ENDBRANCH   4   7
ENDBRANCH   2   3
ENDBRANCH   1   2
BRANCH   1  40
ATOM     40  C   UNL A   1      39.338  21.784  26.084  1.00  0.00     0.023 C 
BRANCH  40  41
ATOM     41  C   UNL A   1      40.295  20.946  26.915  1.00  0.00     0.116 C 
BRANCH  41  42
ATOM     42  N   UNL A   1      41.392  20.281  26.243  1.00  0.00    -0.352 N 
ATOM     43  C   UNL A   1      42.655  20.775  25.905  1.00  0.00     0.251 C 
ATOM     44  H   UNL A   1      41.224  19.347  25.986  1.00  0.00     0.163 HD
ATOM     45  O   UNL A   1      43.362  20.113  25.177  1.00  0.00    -0.269 OA
BRANCH  43  46
ATOM     46  C   UNL A   1      43.195  22.051  26.490  1.00  0.00     0.039 A 
ATOM     47  C   UNL A   1      43.196  22.213  27.892  1.00  0.00     0.014 A 
ATOM     48  C   UNL A   1      43.562  23.139  25.711  1.00  0.00     0.014 A 
ATOM     49  C   UNL A   1      43.399  23.473  28.470  1.00  0.00     0.010 A 
ATOM     50  C   UNL A   1      43.687  24.384  26.256  1.00  0.00     0.010 A 
ATOM     51  C   UNL A   1      43.542  24.562  27.627  1.00  0.00    -0.014 A 
BRANCH  51  52
ATOM     52  C   UNL A   1      43.561  25.970  27.972  1.00  0.00     0.031 A 
ATOM     53  C   UNL A   1      42.282  26.688  28.045  1.00  0.00     0.074 A 
ATOM     54  C   UNL A   1      44.632  26.323  28.715  1.00  0.00     0.049 A 
ATOM     55  N   UNL A   1      42.153  27.916  28.395  1.00  0.00    -0.248 NA
ATOM     56  C   UNL A   1      41.014  26.046  27.716  1.00  0.00     0.031 C 
ATOM     57  C   UNL A   1      44.739  27.295  29.797  1.00  0.00     0.029 A 
ATOM     58  N   UNL A   1      45.949  25.910  28.498  1.00  0.00    -0.354 N 
ATOM     59  C   UNL A   1      40.814  28.140  28.636  1.00  0.00     0.074 A 
ATOM     60  C   UNL A   1      40.143  26.984  28.093  1.00  0.00     0.031 C 
ATOM     61  C   UNL A   1      46.035  27.623  29.955  1.00  0.00     0.029 A 
ATOM     62  C   UNL A   1      46.743  27.026  28.832  1.00  0.00     0.049 A 
ATOM     63  H   UNL A   1      46.256  25.030  28.180  1.00  0.00     0.167 HD
ATOM     64  C   UNL A   1      40.469  29.212  29.409  1.00  0.00     0.037 A 
ATOM     65  C   UNL A   1      47.365  27.740  27.840  1.00  0.00     0.037 A 
ATOM     66  C   UNL A   1      41.670  29.976  29.762  1.00  0.00     0.049 A 
ATOM     67  C   UNL A   1      46.961  29.176  27.842  1.00  0.00     0.074 A 
ATOM     68  C   UNL A   1      42.462  29.996  30.897  1.00  0.00     0.029 A 
ATOM     69  N   UNL A   1      42.405  30.598  28.757  1.00  0.00    -0.354 N 
ATOM     70  N   UNL A   1      45.761  29.583  28.139  1.00  0.00    -0.248 NA
ATOM     71  C   UNL A   1      47.895  30.251  27.557  1.00  0.00     0.031 C 
ATOM     72  C   UNL A   1      43.700  30.603  30.556  1.00  0.00     0.029 A 
ATOM     73  C   UNL A   1      43.650  30.973  29.221  1.00  0.00     0.049 A 
ATOM     74  H   UNL A   1      42.081  30.751  27.839  1.00  0.00     0.167 HD
ATOM     75  C   UNL A   1      45.747  30.949  28.106  1.00  0.00     0.074 A 
ATOM     76  C   UNL A   1      47.106  31.318  27.752  1.00  0.00     0.031 C 
ATOM     77  C   UNL A   1      44.607  31.655  28.357  1.00  0.00     0.037 A 
BRANCH  64  78
ATOM     78  C   UNL A   1      39.126  29.441  30.085  1.00  0.00     0.064 A 
ATOM     79  C   UNL A   1      38.133  30.220  29.445  1.00  0.00     0.173 A 
ATOM     80  C   UNL A   1      38.753  28.973  31.361  1.00  0.00     0.173 A 
ATOM     81  F   UNL A   1      38.292  30.670  28.194  1.00  0.00    -0.203 F 
ATOM     82  C   UNL A   1      36.925  30.568  30.062  1.00  0.00     0.198 A 
ATOM     83  C   UNL A   1      37.561  29.349  31.992  1.00  0.00     0.198 A 
ATOM     84  F   UNL A   1      39.488  28.087  32.033  1.00  0.00    -0.203 F 
ATOM     85  F   UNL A   1      36.033  31.317  29.398  1.00  0.00    -0.200 F 
ATOM     86  C   UNL A   1      36.649  30.152  31.345  1.00  0.00     0.200 A 
ATOM     87  F   UNL A   1      37.304  28.912  33.234  1.00  0.00    -0.200 F 
ATOM     88  F   UNL A   1      35.503  30.500  31.946  1.00  0.00    -0.200 F 
ENDBRANCH  64  78
BRANCH  65  89
ATOM     89  C   UNL A   1      47.599  26.938  26.598  1.00  0.00     0.064 A 
ATOM     90  C   UNL A   1      46.754  27.255  25.529  1.00  0.00     0.173 A 
ATOM     91  C   UNL A   1      48.845  26.368  26.293  1.00  0.00     0.173 A 
ATOM     92  F   UNL A   1      45.548  27.780  25.786  1.00  0.00    -0.203 F 
ATOM     93  C   UNL A   1      47.277  27.321  24.249  1.00  0.00     0.198 A 
ATOM     94  C   UNL A   1      49.285  26.281  24.968  1.00  0.00     0.198 A 
ATOM     95  F   UNL A   1      49.692  26.018  27.269  1.00  0.00    -0.203 F 
ATOM     96  F   UNL A   1      46.692  28.084  23.337  1.00  0.00    -0.200 F 
ATOM     97  C   UNL A   1      48.522  26.818  23.953  1.00  0.00     0.200 A 
ATOM     98  F   UNL A   1      50.515  25.830  24.687  1.00  0.00    -0.200 F 
ATOM     99  F   UNL A   1      49.018  26.961  22.715  1.00  0.00    -0.200 F 
ENDBRANCH  65  89
BRANCH  77 100
ATOM    100  C   UNL A   1      44.332  33.061  27.878  1.00  0.00     0.064 A 
ATOM    101  C   UNL A   1      43.996  33.394  26.553  1.00  0.00     0.173 A 
ATOM    102  C   UNL A   1      44.231  34.127  28.805  1.00  0.00     0.173 A 
ATOM    103  F   UNL A   1      43.898  32.472  25.589  1.00  0.00    -0.203 F 
ATOM    104  C   UNL A   1      43.666  34.696  26.172  1.00  0.00     0.198 A 
ATOM    105  C   UNL A   1      43.824  35.408  28.434  1.00  0.00     0.198 A 
ATOM    106  F   UNL A   1      44.477  33.958  30.112  1.00  0.00    -0.203 F 
ATOM    107  F   UNL A   1      43.408  34.958  24.883  1.00  0.00    -0.200 F 
ATOM    108  C   UNL A   1      43.563  35.698  27.113  1.00  0.00     0.200 A 
ATOM    109  F   UNL A   1      43.658  36.349  29.372  1.00  0.00    -0.200 F 
ATOM    110  F   UNL A   1      43.184  36.930  26.751  1.00  0.00    -0.200 F 
ENDBRANCH  77 100
ENDBRANCH  51  52
ENDBRANCH  43  46
ENDBRANCH  41  42
ENDBRANCH  40  41
ENDBRANCH   1  40
TORSDOF 15
ENDMDL
MODEL 3
REMARK VINA RESULT:     -14.2      1.713      5.823
REMARK SMILES Cc1ccccc1C(=O)Nc1ccc(N2CCC(n3c(C)nc4cccnc43)CC2)c(C(=O)NCCCCNC(=O)c2ccc(-c3c4nc(c(-c5c(F)c(F)c(F)c(F)c5F)c5ccc([nH]5)c(-c5c(F)c(F)c(F)c(F)c5F)c5nc(c(-c6c(F)c(F)c(F)c(F)c6F)c6ccc3[nH]6)C=C5)C=C4)cc2)c1
REMARK SMILES IDX 36 1 35 2 34 3 32 4 33 5 31 7 11 8 12 9 105 10 13 11 14 12
REMARK SMILES IDX 10 13 8 14 9 15 7 17 1 18 2 19 3 20 4 21 6 22 5 23 15 24
REMARK SMILES IDX 16 25 30 26 17 27 29 28 18 29 19 30 20 31 28 32 21 33 22 34
REMARK SMILES IDX 23 35 27 36 24 37 26 38 25 39 37 40 38 41 39 42 40 43 41 45
REMARK SMILES IDX 42 46 43 47 104 48 44 49 103 50 45 51 46 52 47 53 97 54
REMARK SMILES IDX 48 55 102 56 96 57 98 58 49 59 101 60 95 61 94 62 50 64
REMARK SMILES IDX 82 65 62 66 81 67 63 68 66 69 80 70 99 71 64 72 65 73 79 75
REMARK SMILES IDX 100 76 67 77 51 78 52 79 60 80 53 81 54 82 58 83 61 84 55 85
REMARK SMILES IDX 56 86 59 87 57 88 83 89 84 90 92 91 85 92 86 93 90 94 93 95
REMARK SMILES IDX 87 96 88 97 91 98 89 99 68 100 69 101 77 102 70 103 71 104
REMARK SMILES IDX 75 105 78 106 72 107 73 108 76 109 74 110
REMARK H PARENT 34 6 10 16 39 44 98 63 66 74
REMARK Flexibility Score: inf
ROOT
ATOM      1  C   UNL A   1      33.847  26.602  25.480  1.00  0.00     0.023 C 
ENDROOT
BRANCH   1   2
ATOM      2  C   UNL A   1      34.018  25.123  25.816  1.00  0.00     0.116 C 
BRANCH   2   3
ATOM      3  N   UNL A   1      33.286  24.503  26.889  1.00  0.00    -0.352 N 
ATOM      4  C   UNL A   1      32.868  23.178  26.981  1.00  0.00     0.253 C 
ATOM      5  O   UNL A   1      32.369  22.837  28.058  1.00  0.00    -0.269 OA
ATOM      6  H   UNL A   1      33.053  25.084  27.649  1.00  0.00     0.163 HD
BRANCH   4   7
ATOM      7  C   UNL A   1      32.923  22.148  25.863  1.00  0.00     0.065 A 
ATOM      8  C   UNL A   1      34.217  20.243  24.997  1.00  0.00     0.042 A 
ATOM      9  C   UNL A   1      33.343  20.092  23.940  1.00  0.00     0.028 A 
ATOM     10  C   UNL A   1      33.926  21.158  26.022  1.00  0.00     0.042 A 
ATOM     11  C   UNL A   1      32.335  21.029  23.777  1.00  0.00     0.029 A 
ATOM     12  C   UNL A   1      32.199  22.144  24.646  1.00  0.00     0.050 A 
BRANCH   8  13
ATOM     13  N   UNL A   1      35.455  19.593  25.012  1.00  0.00    -0.322 N 
ATOM     14  C   UNL A   1      36.738  20.100  24.893  1.00  0.00     0.255 C 
ATOM     15  O   UNL A   1      37.646  19.285  24.699  1.00  0.00    -0.269 OA
ATOM     16  H   UNL A   1      35.406  18.616  25.127  1.00  0.00     0.170 HD
BRANCH  14  17
ATOM     17  C   UNL A   1      37.123  21.551  25.059  1.00  0.00     0.043 A 
ATOM     18  C   UNL A   1      35.695  22.604  23.169  1.00  0.00     0.045 C 
ATOM     19  C   UNL A   1      36.686  22.654  24.292  1.00  0.00    -0.038 A 
ATOM     20  C   UNL A   1      37.152  23.952  24.608  1.00  0.00     0.004 A 
ATOM     21  C   UNL A   1      37.921  24.192  25.741  1.00  0.00     0.000 A 
ATOM     22  C   UNL A   1      37.884  21.829  26.217  1.00  0.00     0.014 A 
ATOM     23  C   UNL A   1      38.260  23.131  26.566  1.00  0.00     0.001 A 
ENDBRANCH  14  17
ENDBRANCH   8  13
BRANCH  12  24
ATOM     24  N   UNL A   1      31.526  23.240  24.099  1.00  0.00    -0.371 N 
ATOM     25  C   UNL A   1      31.951  23.726  22.793  1.00  0.00     0.118 C 
ATOM     26  C   UNL A   1      30.465  23.838  24.897  1.00  0.00     0.118 C 
ATOM     27  C   UNL A   1      31.635  25.168  22.518  1.00  0.00     0.047 C 
ATOM     28  C   UNL A   1      30.430  25.340  24.730  1.00  0.00     0.047 C 
ATOM     29  C   UNL A   1      30.450  25.776  23.269  1.00  0.00     0.094 C 
BRANCH  29  30
ATOM     30  N   UNL A   1      30.522  27.225  23.041  1.00  0.00    -0.310 N 
ATOM     31  C   UNL A   1      31.580  28.043  22.692  1.00  0.00     0.108 A 
ATOM     32  C   UNL A   1      29.380  27.991  22.956  1.00  0.00     0.160 A 
ATOM     33  C   UNL A   1      33.020  27.783  22.956  1.00  0.00     0.088 C 
ATOM     34  N   UNL A   1      31.140  29.180  22.175  1.00  0.00    -0.232 NA
ATOM     35  C   UNL A   1      29.793  29.193  22.402  1.00  0.00     0.108 A 
ATOM     36  N   UNL A   1      28.142  27.653  23.373  1.00  0.00    -0.237 NA
ATOM     37  C   UNL A   1      28.844  30.215  22.274  1.00  0.00     0.034 A 
ATOM     38  C   UNL A   1      27.276  28.694  23.296  1.00  0.00     0.113 A 
ATOM     39  C   UNL A   1      27.563  29.955  22.775  1.00  0.00     0.022 A 
ENDBRANCH  29  30
ENDBRANCH  12  24
ENDBRANCH   4   7
ENDBRANCH   2   3
ENDBRANCH   1   2
BRANCH   1  40
ATOM     40  C   UNL A   1      33.736  27.621  26.610  1.00  0.00     0.023 C 
BRANCH  40  41
ATOM     41  C   UNL A   1      34.657  28.828  26.548  1.00  0.00     0.116 C 
BRANCH  41  42
ATOM     42  N   UNL A   1      34.119  30.126  26.900  1.00  0.00    -0.352 N 
ATOM     43  C   UNL A   1      34.503  30.997  27.922  1.00  0.00     0.251 C 
ATOM     44  H   UNL A   1      33.375  30.439  26.339  1.00  0.00     0.163 HD
ATOM     45  O   UNL A   1      33.800  31.953  28.165  1.00  0.00    -0.269 OA
BRANCH  43  46
ATOM     46  C   UNL A   1      35.803  30.835  28.663  1.00  0.00     0.039 A 
ATOM     47  C   UNL A   1      36.931  31.565  28.230  1.00  0.00     0.014 A 
ATOM     48  C   UNL A   1      35.985  29.892  29.665  1.00  0.00     0.014 A 
ATOM     49  C   UNL A   1      38.216  31.234  28.678  1.00  0.00     0.010 A 
ATOM     50  C   UNL A   1      37.237  29.512  30.052  1.00  0.00     0.010 A 
ATOM     51  C   UNL A   1      38.355  30.138  29.512  1.00  0.00    -0.014 A 
BRANCH  51  52
ATOM     52  C   UNL A   1      39.574  29.483  29.941  1.00  0.00     0.031 A 
ATOM     53  C   UNL A   1      39.906  28.175  29.360  1.00  0.00     0.074 A 
ATOM     54  C   UNL A   1      40.521  30.345  30.368  1.00  0.00     0.049 A 
ATOM     55  N   UNL A   1      40.980  27.517  29.609  1.00  0.00    -0.248 NA
ATOM     56  C   UNL A   1      39.016  27.495  28.426  1.00  0.00     0.031 C 
ATOM     57  C   UNL A   1      41.971  30.288  30.223  1.00  0.00     0.029 A 
ATOM     58  N   UNL A   1      40.307  31.451  31.196  1.00  0.00    -0.354 N 
ATOM     59  C   UNL A   1      41.077  26.513  28.668  1.00  0.00     0.074 A 
ATOM     60  C   UNL A   1      39.782  26.475  28.033  1.00  0.00     0.031 C 
ATOM     61  C   UNL A   1      42.529  31.101  31.140  1.00  0.00     0.029 A 
ATOM     62  C   UNL A   1      41.448  31.519  32.020  1.00  0.00     0.049 A 
ATOM     63  H   UNL A   1      39.526  32.052  31.202  1.00  0.00     0.167 HD
ATOM     64  C   UNL A   1      42.303  25.952  28.450  1.00  0.00     0.037 A 
ATOM     65  C   UNL A   1      41.352  31.178  33.345  1.00  0.00     0.037 A 
ATOM     66  C   UNL A   1      43.282  26.523  29.380  1.00  0.00     0.049 A 
ATOM     67  C   UNL A   1      42.278  30.067  33.709  1.00  0.00     0.074 A 
ATOM     68  C   UNL A   1      44.227  27.525  29.239  1.00  0.00     0.029 A 
ATOM     69  N   UNL A   1      43.133  26.311  30.746  1.00  0.00    -0.354 N 
ATOM     70  N   UNL A   1      42.566  29.081  32.910  1.00  0.00    -0.248 NA
ATOM     71  C   UNL A   1      42.982  30.021  34.979  1.00  0.00     0.031 C 
ATOM     72  C   UNL A   1      44.617  27.943  30.538  1.00  0.00     0.029 A 
ATOM     73  C   UNL A   1      43.929  27.179  31.467  1.00  0.00     0.049 A 
ATOM     74  H   UNL A   1      42.540  25.634  31.146  1.00  0.00     0.167 HD
ATOM     75  C   UNL A   1      43.486  28.280  33.524  1.00  0.00     0.074 A 
ATOM     76  C   UNL A   1      43.723  28.916  34.808  1.00  0.00     0.031 C 
ATOM     77  C   UNL A   1      43.957  27.149  32.925  1.00  0.00     0.037 A 
BRANCH  64  78
ATOM     78  C   UNL A   1      42.708  25.111  27.249  1.00  0.00     0.064 A 
ATOM     79  C   UNL A   1      42.118  23.841  27.040  1.00  0.00     0.173 A 
ATOM     80  C   UNL A   1      43.684  25.452  26.292  1.00  0.00     0.173 A 
ATOM     81  F   UNL A   1      41.114  23.399  27.808  1.00  0.00    -0.203 F 
ATOM     82  C   UNL A   1      42.531  22.968  26.027  1.00  0.00     0.198 A 
ATOM     83  C   UNL A   1      44.122  24.567  25.300  1.00  0.00     0.198 A 
ATOM     84  F   UNL A   1      44.217  26.673  26.230  1.00  0.00    -0.203 F 
ATOM     85  F   UNL A   1      41.933  21.776  25.894  1.00  0.00    -0.200 F 
ATOM     86  C   UNL A   1      43.550  23.321  25.171  1.00  0.00     0.200 A 
ATOM     87  F   UNL A   1      45.100  24.943  24.463  1.00  0.00    -0.200 F 
ATOM     88  F   UNL A   1      43.961  22.480  24.213  1.00  0.00    -0.200 F 
ENDBRANCH  64  78
BRANCH  65  89
ATOM     89  C   UNL A   1      39.965  31.323  33.889  1.00  0.00     0.064 A 
ATOM     90  C   UNL A   1      39.600  32.633  34.219  1.00  0.00     0.173 A 
ATOM     91  C   UNL A   1      38.935  30.423  33.576  1.00  0.00     0.173 A 
ATOM     92  F   UNL A   1      40.557  33.513  34.545  1.00  0.00    -0.203 F 
ATOM     93  C   UNL A   1      38.328  33.081  33.906  1.00  0.00     0.198 A 
ATOM     94  C   UNL A   1      37.616  30.867  33.437  1.00  0.00     0.198 A 
ATOM     95  F   UNL A   1      39.213  29.148  33.275  1.00  0.00    -0.203 F 
ATOM     96  F   UNL A   1      38.114  34.375  33.718  1.00  0.00    -0.200 F 
ATOM     97  C   UNL A   1      37.329  32.211  33.541  1.00  0.00     0.200 A 
ATOM     98  F   UNL A   1      36.652  30.025  33.039  1.00  0.00    -0.200 F 
ATOM     99  F   UNL A   1      36.129  32.692  33.183  1.00  0.00    -0.200 F 
ENDBRANCH  65  89
BRANCH  77 100
ATOM    100  C   UNL A   1      44.548  25.963  33.650  1.00  0.00     0.064 A 
ATOM    101  C   UNL A   1      43.795  25.025  34.379  1.00  0.00     0.173 A 
ATOM    102  C   UNL A   1      45.916  25.630  33.485  1.00  0.00     0.173 A 
ATOM    103  F   UNL A   1      42.465  25.116  34.497  1.00  0.00    -0.203 F 
ATOM    104  C   UNL A   1      44.371  23.895  34.962  1.00  0.00     0.198 A 
ATOM    105  C   UNL A   1      46.470  24.460  34.002  1.00  0.00     0.198 A 
ATOM    106  F   UNL A   1      46.754  26.402  32.779  1.00  0.00    -0.203 F 
ATOM    107  F   UNL A   1      43.607  23.069  35.691  1.00  0.00    -0.200 F 
ATOM    108  C   UNL A   1      45.703  23.603  34.760  1.00  0.00     0.200 A 
ATOM    109  F   UNL A   1      47.747  24.157  33.733  1.00  0.00    -0.200 F 
ATOM    110  F   UNL A   1      46.236  22.486  35.269  1.00  0.00    -0.200 F 
ENDBRANCH  77 100
ENDBRANCH  51  52
ENDBRANCH  43  46
ENDBRANCH  41  42
ENDBRANCH  40  41
ENDBRANCH   1  40
TORSDOF 15
ENDMDL
