MODEL 1
REMARK VINA RESULT:     -11.4      0.000      0.000
REMARK SMILES C[C@H](NC(=O)CCn1ccccc1=O)C(=O)NCCCCNC(=O)c1ccc(-c2c3nc(c(-c4c(F)c(F)c(F)c(F)c4F)c4ccc([nH]4)c(-c4c(F)c(F)c(F)c(F)c4F)c4nc(c(-c5c(F)c(F)c(F)c(F)c5F)c5ccc2[nH]5)C=C4)C=C3)cc1
REMARK SMILES IDX 18 1 17 2 15 3 16 4 2 6 1 7 3 8 4 9 5 11 6 12 7 13 8 14 9 15
REMARK SMILES IDX 13 16 10 17 12 18 14 19 11 20 19 21 20 22 21 23 22 24 23 25
REMARK SMILES IDX 24 27 25 28 26 29 87 30 27 31 86 32 28 33 29 34 30 35 80 36
REMARK SMILES IDX 31 37 85 38 79 39 81 40 32 41 84 42 78 43 77 44 33 46 65 47
REMARK SMILES IDX 45 48 64 49 46 50 49 51 63 52 82 53 47 54 48 55 62 57 83 58
REMARK SMILES IDX 50 59 34 60 35 61 43 62 36 63 37 64 41 65 44 66 38 67 39 68
REMARK SMILES IDX 42 69 40 70 66 71 67 72 75 73 68 74 69 75 73 76 76 77 70 78
REMARK SMILES IDX 71 79 74 80 72 81 51 82 52 83 60 84 53 85 54 86 58 87 61 88
REMARK SMILES IDX 55 89 56 90 59 91 57 92
REMARK H PARENT 17 5 3 10 22 26 81 45 49 56
REMARK Flexibility Score: inf
ROOT
ATOM      1  C   UNL A   1      31.971  25.991  26.386  1.00  0.00     0.116 C 
ENDROOT
BRANCH   1   2
ATOM      2  N   UNL A   1      31.070  24.964  26.896  1.00  0.00    -0.354 N 
ATOM      3  C   UNL A   1      30.984  23.617  26.679  1.00  0.00     0.242 C 
ATOM      4  O   UNL A   1      30.358  22.987  27.542  1.00  0.00    -0.273 OA
ATOM      5  H   UNL A   1      30.391  25.308  27.520  1.00  0.00     0.163 HD
BRANCH   3   6
ATOM      6  C   UNL A   1      31.533  22.866  25.417  1.00  0.00     0.168 C 
ATOM      7  C   UNL A   1      31.023  23.497  24.120  1.00  0.00     0.041 C 
BRANCH   6   8
ATOM      8  N   UNL A   1      31.598  21.401  25.450  1.00  0.00    -0.345 N 
ATOM      9  C   UNL A   1      32.554  20.443  25.465  1.00  0.00     0.222 C 
ATOM     10  H   UNL A   1      30.697  21.005  25.465  1.00  0.00     0.164 HD
ATOM     11  O   UNL A   1      32.186  19.310  25.134  1.00  0.00    -0.275 OA
BRANCH   9  12
ATOM     12  C   UNL A   1      33.989  20.664  25.890  1.00  0.00     0.122 C 
BRANCH  12  13
ATOM     13  C   UNL A   1      34.843  21.307  24.788  1.00  0.00     0.135 C 
BRANCH  13  14
ATOM     14  N   UNL A   1      36.129  21.862  25.245  1.00  0.00    -0.315 N 
ATOM     15  C   UNL A   1      36.188  23.185  25.616  1.00  0.00     0.089 A 
ATOM     16  C   UNL A   1      37.280  21.069  25.236  1.00  0.00     0.250 A 
ATOM     17  C   UNL A   1      37.307  23.778  26.038  1.00  0.00     0.018 A 
ATOM     18  C   UNL A   1      38.534  21.739  25.696  1.00  0.00     0.072 A 
ATOM     19  O   UNL A   1      37.323  19.894  24.885  1.00  0.00    -0.269 OA
ATOM     20  C   UNL A   1      38.525  23.023  26.081  1.00  0.00     0.007 A 
ENDBRANCH  13  14
ENDBRANCH  12  13
ENDBRANCH   9  12
ENDBRANCH   6   8
ENDBRANCH   3   6
ENDBRANCH   1   2
BRANCH   1  21
ATOM     21  C   UNL A   1      31.440  27.417  26.502  1.00  0.00     0.023 C 
BRANCH  21  22
ATOM     22  C   UNL A   1      32.056  28.264  27.617  1.00  0.00     0.023 C 
BRANCH  22  23
ATOM     23  C   UNL A   1      33.427  28.870  27.315  1.00  0.00     0.116 C 
BRANCH  23  24
ATOM     24  N   UNL A   1      33.569  30.250  27.759  1.00  0.00    -0.352 N 
ATOM     25  C   UNL A   1      34.642  30.914  28.317  1.00  0.00     0.251 C 
ATOM     26  H   UNL A   1      32.762  30.803  27.639  1.00  0.00     0.163 HD
ATOM     27  O   UNL A   1      34.510  32.057  28.728  1.00  0.00    -0.269 OA
BRANCH  25  28
ATOM     28  C   UNL A   1      35.947  30.229  28.471  1.00  0.00     0.039 A 
ATOM     29  C   UNL A   1      36.285  29.580  29.657  1.00  0.00     0.014 A 
ATOM     30  C   UNL A   1      36.858  30.256  27.410  1.00  0.00     0.014 A 
ATOM     31  C   UNL A   1      37.598  29.168  29.866  1.00  0.00     0.010 A 
ATOM     32  C   UNL A   1      38.150  29.749  27.587  1.00  0.00     0.010 A 
ATOM     33  C   UNL A   1      38.554  29.268  28.843  1.00  0.00    -0.014 A 
BRANCH  33  34
ATOM     34  C   UNL A   1      39.972  28.910  29.124  1.00  0.00     0.031 A 
ATOM     35  C   UNL A   1      40.837  29.807  29.974  1.00  0.00     0.074 A 
ATOM     36  C   UNL A   1      40.467  27.740  28.672  1.00  0.00     0.049 A 
ATOM     37  N   UNL A   1      42.084  29.645  30.343  1.00  0.00    -0.248 NA
ATOM     38  C   UNL A   1      40.226  31.048  30.477  1.00  0.00     0.031 C 
ATOM     39  C   UNL A   1      39.732  26.778  27.850  1.00  0.00     0.029 A 
ATOM     40  N   UNL A   1      41.692  27.149  28.860  1.00  0.00    -0.354 N 
ATOM     41  C   UNL A   1      42.409  30.766  31.097  1.00  0.00     0.074 A 
ATOM     42  C   UNL A   1      41.241  31.618  31.113  1.00  0.00     0.031 C 
ATOM     43  C   UNL A   1      40.500  25.698  27.646  1.00  0.00     0.029 A 
ATOM     44  C   UNL A   1      41.803  25.916  28.266  1.00  0.00     0.049 A 
ATOM     45  H   UNL A   1      42.420  27.569  29.371  1.00  0.00     0.167 HD
ATOM     46  C   UNL A   1      43.570  31.050  31.734  1.00  0.00     0.037 A 
ATOM     47  C   UNL A   1      42.843  25.060  28.210  1.00  0.00     0.037 A 
ATOM     48  C   UNL A   1      44.722  30.186  31.752  1.00  0.00     0.049 A 
ATOM     49  C   UNL A   1      44.131  25.421  28.893  1.00  0.00     0.074 A 
ATOM     50  C   UNL A   1      45.929  30.375  32.403  1.00  0.00     0.029 A 
ATOM     51  N   UNL A   1      44.810  28.969  31.094  1.00  0.00    -0.354 N 
ATOM     52  N   UNL A   1      44.416  26.475  29.617  1.00  0.00    -0.248 NA
ATOM     53  C   UNL A   1      45.247  24.474  28.746  1.00  0.00     0.031 C 
ATOM     54  C   UNL A   1      46.765  29.299  32.099  1.00  0.00     0.029 A 
ATOM     55  C   UNL A   1      46.061  28.412  31.302  1.00  0.00     0.049 A 
ATOM     56  H   UNL A   1      44.091  28.562  30.558  1.00  0.00     0.167 HD
ATOM     57  C   UNL A   1      45.734  26.316  30.020  1.00  0.00     0.074 A 
ATOM     58  C   UNL A   1      46.188  25.051  29.482  1.00  0.00     0.031 C 
ATOM     59  C   UNL A   1      46.501  27.150  30.763  1.00  0.00     0.037 A 
BRANCH  46  60
ATOM     60  C   UNL A   1      43.673  32.351  32.476  1.00  0.00     0.064 A 
ATOM     61  C   UNL A   1      43.355  32.447  33.839  1.00  0.00     0.173 A 
ATOM     62  C   UNL A   1      44.190  33.491  31.840  1.00  0.00     0.173 A 
ATOM     63  F   UNL A   1      42.849  31.390  34.490  1.00  0.00    -0.203 F 
ATOM     64  C   UNL A   1      43.548  33.638  34.536  1.00  0.00     0.198 A 
ATOM     65  C   UNL A   1      44.405  34.672  32.547  1.00  0.00     0.198 A 
ATOM     66  F   UNL A   1      44.517  33.450  30.540  1.00  0.00    -0.203 F 
ATOM     67  F   UNL A   1      43.217  33.713  35.833  1.00  0.00    -0.200 F 
ATOM     68  C   UNL A   1      44.083  34.744  33.894  1.00  0.00     0.200 A 
ATOM     69  F   UNL A   1      44.937  35.734  31.928  1.00  0.00    -0.200 F 
ATOM     70  F   UNL A   1      44.289  35.882  34.573  1.00  0.00    -0.200 F 
ENDBRANCH  46  60
BRANCH  47  71
ATOM     71  C   UNL A   1      42.699  23.780  27.467  1.00  0.00     0.064 A 
ATOM     72  C   UNL A   1      42.077  22.671  28.054  1.00  0.00     0.173 A 
ATOM     73  C   UNL A   1      43.167  23.647  26.151  1.00  0.00     0.173 A 
ATOM     74  F   UNL A   1      41.634  22.741  29.318  1.00  0.00    -0.203 F 
ATOM     75  C   UNL A   1      41.934  21.474  27.355  1.00  0.00     0.198 A 
ATOM     76  C   UNL A   1      42.995  22.460  25.442  1.00  0.00     0.198 A 
ATOM     77  F   UNL A   1      43.769  24.680  25.545  1.00  0.00    -0.203 F 
ATOM     78  F   UNL A   1      41.367  20.416  27.951  1.00  0.00    -0.200 F 
ATOM     79  C   UNL A   1      42.383  21.373  26.046  1.00  0.00     0.200 A 
ATOM     80  F   UNL A   1      43.416  22.374  24.173  1.00  0.00    -0.200 F 
ATOM     81  F   UNL A   1      42.232  20.226  25.370  1.00  0.00    -0.200 F 
ENDBRANCH  47  71
BRANCH  59  82
ATOM     82  C   UNL A   1      47.911  26.725  31.053  1.00  0.00     0.064 A 
ATOM     83  C   UNL A   1      48.204  25.821  32.083  1.00  0.00     0.173 A 
ATOM     84  C   UNL A   1      48.970  27.169  30.244  1.00  0.00     0.173 A 
ATOM     85  F   UNL A   1      47.229  25.379  32.890  1.00  0.00    -0.203 F 
ATOM     86  C   UNL A   1      49.508  25.386  32.304  1.00  0.00     0.198 A 
ATOM     87  C   UNL A   1      50.267  26.709  30.448  1.00  0.00     0.198 A 
ATOM     88  F   UNL A   1      48.739  28.027  29.239  1.00  0.00    -0.203 F 
ATOM     89  F   UNL A   1      49.771  24.548  33.316  1.00  0.00    -0.200 F 
ATOM     90  C   UNL A   1      50.537  25.823  31.480  1.00  0.00     0.200 A 
ATOM     91  F   UNL A   1      51.257  27.119  29.643  1.00  0.00    -0.200 F 
ATOM     92  F   UNL A   1      51.788  25.390  31.683  1.00  0.00    -0.200 F 
ENDBRANCH  59  82
ENDBRANCH  33  34
ENDBRANCH  25  28
ENDBRANCH  23  24
ENDBRANCH  22  23
ENDBRANCH  21  22
ENDBRANCH   1  21
TORSDOF 15
ENDMDL
MODEL 2
REMARK VINA RESULT:     -11.4      3.623      5.337
REMARK SMILES C[C@H](NC(=O)CCn1ccccc1=O)C(=O)NCCCCNC(=O)c1ccc(-c2c3nc(c(-c4c(F)c(F)c(F)c(F)c4F)c4ccc([nH]4)c(-c4c(F)c(F)c(F)c(F)c4F)c4nc(c(-c5c(F)c(F)c(F)c(F)c5F)c5ccc2[nH]5)C=C4)C=C3)cc1
REMARK SMILES IDX 18 1 17 2 15 3 16 4 2 6 1 7 3 8 4 9 5 11 6 12 7 13 8 14 9 15
REMARK SMILES IDX 13 16 10 17 12 18 14 19 11 20 19 21 20 22 21 23 22 24 23 25
REMARK SMILES IDX 24 27 25 28 26 29 87 30 27 31 86 32 28 33 29 34 30 35 80 36
REMARK SMILES IDX 31 37 85 38 79 39 81 40 32 41 84 42 78 43 77 44 33 46 65 47
REMARK SMILES IDX 45 48 64 49 46 50 49 51 63 52 82 53 47 54 48 55 62 57 83 58
REMARK SMILES IDX 50 59 34 60 35 61 43 62 36 63 37 64 41 65 44 66 38 67 39 68
REMARK SMILES IDX 42 69 40 70 66 71 67 72 75 73 68 74 69 75 73 76 76 77 70 78
REMARK SMILES IDX 71 79 74 80 72 81 51 82 52 83 60 84 53 85 54 86 58 87 61 88
REMARK SMILES IDX 55 89 56 90 59 91 57 92
REMARK H PARENT 17 5 3 10 22 26 81 45 49 56
REMARK Flexibility Score: inf
ROOT
ATOM      1  C   UNL A   1      32.479  29.681  25.493  1.00  0.00     0.116 C 
ENDROOT
BRANCH   1   2
ATOM      2  N   UNL A   1      31.743  29.675  24.234  1.00  0.00    -0.354 N 
ATOM      3  C   UNL A   1      31.777  28.848  23.146  1.00  0.00     0.242 C 
ATOM      4  O   UNL A   1      30.775  28.899  22.419  1.00  0.00    -0.273 OA
ATOM      5  H   UNL A   1      31.094  30.410  24.152  1.00  0.00     0.163 HD
BRANCH   3   6
ATOM      6  C   UNL A   1      32.988  27.942  22.734  1.00  0.00     0.168 C 
ATOM      7  C   UNL A   1      34.306  28.718  22.758  1.00  0.00     0.041 C 
BRANCH   6   8
ATOM      8  N   UNL A   1      32.808  26.995  21.628  1.00  0.00    -0.345 N 
ATOM      9  C   UNL A   1      32.844  25.655  21.444  1.00  0.00     0.222 C 
ATOM     10  H   UNL A   1      32.603  27.465  20.788  1.00  0.00     0.164 HD
ATOM     11  O   UNL A   1      32.986  25.276  20.276  1.00  0.00    -0.275 OA
BRANCH   9  12
ATOM     12  C   UNL A   1      32.686  24.629  22.544  1.00  0.00     0.122 C 
BRANCH  12  13
ATOM     13  C   UNL A   1      33.774  23.547  22.509  1.00  0.00     0.135 C 
BRANCH  13  14
ATOM     14  N   UNL A   1      34.676  23.536  23.675  1.00  0.00    -0.315 N 
ATOM     15  C   UNL A   1      34.171  23.874  24.909  1.00  0.00     0.089 A 
ATOM     16  C   UNL A   1      36.033  23.251  23.511  1.00  0.00     0.250 A 
ATOM     17  C   UNL A   1      34.909  23.898  26.021  1.00  0.00     0.018 A 
ATOM     18  C   UNL A   1      36.861  23.291  24.755  1.00  0.00     0.072 A 
ATOM     19  O   UNL A   1      36.572  22.977  22.442  1.00  0.00    -0.269 OA
ATOM     20  C   UNL A   1      36.309  23.592  25.937  1.00  0.00     0.007 A 
ENDBRANCH  13  14
ENDBRANCH  12  13
ENDBRANCH   9  12
ENDBRANCH   6   8
ENDBRANCH   3   6
ENDBRANCH   1   2
BRANCH   1  21
ATOM     21  C   UNL A   1      31.724  30.296  26.667  1.00  0.00     0.023 C 
BRANCH  21  22
ATOM     22  C   UNL A   1      31.587  31.820  26.642  1.00  0.00     0.023 C 
BRANCH  22  23
ATOM     23  C   UNL A   1      32.733  32.604  27.282  1.00  0.00     0.116 C 
BRANCH  23  24
ATOM     24  N   UNL A   1      32.382  33.973  27.636  1.00  0.00    -0.352 N 
ATOM     25  C   UNL A   1      32.967  34.856  28.520  1.00  0.00     0.251 C 
ATOM     26  H   UNL A   1      31.593  34.328  27.164  1.00  0.00     0.163 HD
ATOM     27  O   UNL A   1      32.437  35.932  28.755  1.00  0.00    -0.269 OA
BRANCH  25  28
ATOM     28  C   UNL A   1      34.214  34.486  29.231  1.00  0.00     0.039 A 
ATOM     29  C   UNL A   1      35.463  34.679  28.645  1.00  0.00     0.014 A 
ATOM     30  C   UNL A   1      34.125  33.916  30.505  1.00  0.00     0.014 A 
ATOM     31  C   UNL A   1      36.590  34.098  29.219  1.00  0.00     0.010 A 
ATOM     32  C   UNL A   1      35.275  33.421  31.130  1.00  0.00     0.010 A 
ATOM     33  C   UNL A   1      36.507  33.441  30.457  1.00  0.00    -0.014 A 
BRANCH  33  34
ATOM     34  C   UNL A   1      37.707  32.746  31.002  1.00  0.00     0.031 A 
ATOM     35  C   UNL A   1      38.355  33.219  32.279  1.00  0.00     0.074 A 
ATOM     36  C   UNL A   1      38.176  31.642  30.386  1.00  0.00     0.049 A 
ATOM     37  N   UNL A   1      39.389  32.724  32.914  1.00  0.00    -0.248 NA
ATOM     38  C   UNL A   1      37.769  34.402  32.931  1.00  0.00     0.031 C 
ATOM     39  C   UNL A   1      37.633  31.074  29.151  1.00  0.00     0.029 A 
ATOM     40  N   UNL A   1      39.196  30.788  30.725  1.00  0.00    -0.354 N 
ATOM     41  C   UNL A   1      39.588  33.543  34.020  1.00  0.00     0.074 A 
ATOM     42  C   UNL A   1      38.587  34.585  33.958  1.00  0.00     0.031 C 
ATOM     43  C   UNL A   1      38.290  29.941  28.864  1.00  0.00     0.029 A 
ATOM     44  C   UNL A   1      39.342  29.736  29.854  1.00  0.00     0.049 A 
ATOM     45  H   UNL A   1      39.767  30.917  31.516  1.00  0.00     0.167 HD
ATOM     46  C   UNL A   1      40.509  33.425  35.005  1.00  0.00     0.037 A 
ATOM     47  C   UNL A   1      40.235  28.726  29.841  1.00  0.00     0.037 A 
ATOM     48  C   UNL A   1      41.482  32.367  35.089  1.00  0.00     0.049 A 
ATOM     49  C   UNL A   1      41.270  28.644  30.927  1.00  0.00     0.074 A 
ATOM     50  C   UNL A   1      42.430  32.147  36.074  1.00  0.00     0.029 A 
ATOM     51  N   UNL A   1      41.629  31.351  34.158  1.00  0.00    -0.354 N 
ATOM     52  N   UNL A   1      41.432  29.415  31.974  1.00  0.00    -0.248 NA
ATOM     53  C   UNL A   1      42.252  27.554  30.826  1.00  0.00     0.031 C 
ATOM     54  C   UNL A   1      43.184  31.027  35.714  1.00  0.00     0.029 A 
ATOM     55  C   UNL A   1      42.672  30.518  34.532  1.00  0.00     0.049 A 
ATOM     56  H   UNL A   1      41.077  31.238  33.351  1.00  0.00     0.167 HD
ATOM     57  C   UNL A   1      42.523  28.901  32.661  1.00  0.00     0.074 A 
ATOM     58  C   UNL A   1      42.970  27.735  31.926  1.00  0.00     0.031 C 
ATOM     59  C   UNL A   1      43.106  29.360  33.794  1.00  0.00     0.037 A 
BRANCH  46  60
ATOM     60  C   UNL A   1      40.524  34.463  36.090  1.00  0.00     0.064 A 
ATOM     61  C   UNL A   1      39.744  34.327  37.249  1.00  0.00     0.173 A 
ATOM     62  C   UNL A   1      41.404  35.555  36.015  1.00  0.00     0.173 A 
ATOM     63  F   UNL A   1      38.881  33.308  37.365  1.00  0.00    -0.203 F 
ATOM     64  C   UNL A   1      39.841  35.249  38.288  1.00  0.00     0.198 A 
ATOM     65  C   UNL A   1      41.517  36.459  37.069  1.00  0.00     0.198 A 
ATOM     66  F   UNL A   1      42.177  35.726  34.933  1.00  0.00    -0.203 F 
ATOM     67  F   UNL A   1      39.071  35.112  39.377  1.00  0.00    -0.200 F 
ATOM     68  C   UNL A   1      40.735  36.306  38.203  1.00  0.00     0.200 A 
ATOM     69  F   UNL A   1      42.392  37.471  36.990  1.00  0.00    -0.200 F 
ATOM     70  F   UNL A   1      40.844  37.178  39.216  1.00  0.00    -0.200 F 
ENDBRANCH  46  60
BRANCH  47  71
ATOM     71  C   UNL A   1      40.184  27.717  28.750  1.00  0.00     0.064 A 
ATOM     72  C   UNL A   1      40.861  27.926  27.541  1.00  0.00     0.173 A 
ATOM     73  C   UNL A   1      39.473  26.517  28.902  1.00  0.00     0.173 A 
ATOM     74  F   UNL A   1      41.536  29.067  27.340  1.00  0.00    -0.203 F 
ATOM     75  C   UNL A   1      40.822  26.976  26.523  1.00  0.00     0.198 A 
ATOM     76  C   UNL A   1      39.461  25.555  27.896  1.00  0.00     0.198 A 
ATOM     77  F   UNL A   1      38.810  26.270  30.041  1.00  0.00    -0.203 F 
ATOM     78  F   UNL A   1      41.448  27.215  25.363  1.00  0.00    -0.200 F 
ATOM     79  C   UNL A   1      40.131  25.787  26.704  1.00  0.00     0.200 A 
ATOM     80  F   UNL A   1      38.806  24.401  28.084  1.00  0.00    -0.200 F 
ATOM     81  F   UNL A   1      40.106  24.868  25.730  1.00  0.00    -0.200 F 
ENDBRANCH  47  71
BRANCH  59  82
ATOM     82  C   UNL A   1      44.287  28.601  34.325  1.00  0.00     0.064 A 
ATOM     83  C   UNL A   1      45.595  28.919  33.935  1.00  0.00     0.173 A 
ATOM     84  C   UNL A   1      44.113  27.595  35.290  1.00  0.00     0.173 A 
ATOM     85  F   UNL A   1      45.812  29.863  33.009  1.00  0.00    -0.203 F 
ATOM     86  C   UNL A   1      46.687  28.249  34.481  1.00  0.00     0.198 A 
ATOM     87  C   UNL A   1      45.208  26.949  35.854  1.00  0.00     0.198 A 
ATOM     88  F   UNL A   1      42.881  27.260  35.702  1.00  0.00    -0.203 F 
ATOM     89  F   UNL A   1      47.927  28.546  34.069  1.00  0.00    -0.200 F 
ATOM     90  C   UNL A   1      46.493  27.272  35.447  1.00  0.00     0.200 A 
ATOM     91  F   UNL A   1      45.020  26.016  36.798  1.00  0.00    -0.200 F 
ATOM     92  F   UNL A   1      47.546  26.641  35.983  1.00  0.00    -0.200 F 
ENDBRANCH  59  82
ENDBRANCH  33  34
ENDBRANCH  25  28
ENDBRANCH  23  24
ENDBRANCH  22  23
ENDBRANCH  21  22
ENDBRANCH   1  21
TORSDOF 15
ENDMDL
MODEL 3
REMARK VINA RESULT:     -11.3      3.960      5.982
REMARK SMILES C[C@H](NC(=O)CCn1ccccc1=O)C(=O)NCCCCNC(=O)c1ccc(-c2c3nc(c(-c4c(F)c(F)c(F)c(F)c4F)c4ccc([nH]4)c(-c4c(F)c(F)c(F)c(F)c4F)c4nc(c(-c5c(F)c(F)c(F)c(F)c5F)c5ccc2[nH]5)C=C4)C=C3)cc1
REMARK SMILES IDX 18 1 17 2 15 3 16 4 2 6 1 7 3 8 4 9 5 11 6 12 7 13 8 14 9 15
REMARK SMILES IDX 13 16 10 17 12 18 14 19 11 20 19 21 20 22 21 23 22 24 23 25
REMARK SMILES IDX 24 27 25 28 26 29 87 30 27 31 86 32 28 33 29 34 30 35 80 36
REMARK SMILES IDX 31 37 85 38 79 39 81 40 32 41 84 42 78 43 77 44 33 46 65 47
REMARK SMILES IDX 45 48 64 49 46 50 49 51 63 52 82 53 47 54 48 55 62 57 83 58
REMARK SMILES IDX 50 59 34 60 35 61 43 62 36 63 37 64 41 65 44 66 38 67 39 68
REMARK SMILES IDX 42 69 40 70 66 71 67 72 75 73 68 74 69 75 73 76 76 77 70 78
REMARK SMILES IDX 71 79 74 80 72 81 51 82 52 83 60 84 53 85 54 86 58 87 61 88
REMARK SMILES IDX 55 89 56 90 59 91 57 92
REMARK H PARENT 17 5 3 10 22 26 81 45 49 56
REMARK Flexibility Score: inf
ROOT
ATOM      1  C   UNL A   1      32.330  29.640  25.588  1.00  0.00     0.116 C 
ENDROOT
BRANCH   1   2
ATOM      2  N   UNL A   1      31.607  29.678  24.323  1.00  0.00    -0.354 N 
ATOM      3  C   UNL A   1      31.634  28.874  23.217  1.00  0.00     0.242 C 
ATOM      4  O   UNL A   1      30.641  28.963  22.482  1.00  0.00    -0.273 OA
ATOM      5  H   UNL A   1      30.976  30.429  24.250  1.00  0.00     0.163 HD
BRANCH   3   6
ATOM      6  C   UNL A   1      32.829  27.949  22.798  1.00  0.00     0.168 C 
ATOM      7  C   UNL A   1      34.161  28.698  22.840  1.00  0.00     0.041 C 
BRANCH   6   8
ATOM      8  N   UNL A   1      32.635  27.023  21.677  1.00  0.00    -0.345 N 
ATOM      9  C   UNL A   1      33.008  25.766  21.344  1.00  0.00     0.222 C 
ATOM     10  H   UNL A   1      32.079  27.429  20.973  1.00  0.00     0.164 HD
ATOM     11  O   UNL A   1      32.927  25.481  20.143  1.00  0.00    -0.275 OA
BRANCH   9  12
ATOM     12  C   UNL A   1      33.465  24.712  22.328  1.00  0.00     0.122 C 
BRANCH  12  13
ATOM     13  C   UNL A   1      32.298  24.041  23.066  1.00  0.00     0.135 C 
BRANCH  13  14
ATOM     14  N   UNL A   1      31.704  24.844  24.149  1.00  0.00    -0.315 N 
ATOM     15  C   UNL A   1      30.430  25.337  23.990  1.00  0.00     0.089 A 
ATOM     16  C   UNL A   1      32.453  25.150  25.288  1.00  0.00     0.250 A 
ATOM     17  C   UNL A   1      29.811  26.078  24.912  1.00  0.00     0.018 A 
ATOM     18  C   UNL A   1      31.763  25.991  26.313  1.00  0.00     0.072 A 
ATOM     19  O   UNL A   1      33.607  24.784  25.493  1.00  0.00    -0.269 OA
ATOM     20  C   UNL A   1      30.506  26.415  26.121  1.00  0.00     0.007 A 
ENDBRANCH  13  14
ENDBRANCH  12  13
ENDBRANCH   9  12
ENDBRANCH   6   8
ENDBRANCH   3   6
ENDBRANCH   1   2
BRANCH   1  21
ATOM     21  C   UNL A   1      31.658  30.402  26.727  1.00  0.00     0.023 C 
BRANCH  21  22
ATOM     22  C   UNL A   1      31.643  31.925  26.587  1.00  0.00     0.023 C 
BRANCH  22  23
ATOM     23  C   UNL A   1      32.761  32.673  27.314  1.00  0.00     0.116 C 
BRANCH  23  24
ATOM     24  N   UNL A   1      32.414  34.041  27.674  1.00  0.00    -0.352 N 
ATOM     25  C   UNL A   1      32.977  34.904  28.593  1.00  0.00     0.251 C 
ATOM     26  H   UNL A   1      31.649  34.413  27.178  1.00  0.00     0.163 HD
ATOM     27  O   UNL A   1      32.452  35.983  28.823  1.00  0.00    -0.269 OA
BRANCH  25  28
ATOM     28  C   UNL A   1      34.190  34.508  29.345  1.00  0.00     0.039 A 
ATOM     29  C   UNL A   1      35.461  34.648  28.791  1.00  0.00     0.014 A 
ATOM     30  C   UNL A   1      34.048  33.965  30.627  1.00  0.00     0.014 A 
ATOM     31  C   UNL A   1      36.552  34.042  29.407  1.00  0.00     0.010 A 
ATOM     32  C   UNL A   1      35.164  33.446  31.292  1.00  0.00     0.010 A 
ATOM     33  C   UNL A   1      36.414  33.412  30.654  1.00  0.00    -0.014 A 
BRANCH  33  34
ATOM     34  C   UNL A   1      37.574  32.689  31.245  1.00  0.00     0.031 A 
ATOM     35  C   UNL A   1      38.053  33.014  32.638  1.00  0.00     0.074 A 
ATOM     36  C   UNL A   1      38.158  31.688  30.557  1.00  0.00     0.049 A 
ATOM     37  N   UNL A   1      39.030  32.473  33.324  1.00  0.00    -0.248 NA
ATOM     38  C   UNL A   1      37.346  34.086  33.359  1.00  0.00     0.031 C 
ATOM     39  C   UNL A   1      37.783  31.267  29.206  1.00  0.00     0.029 A 
ATOM     40  N   UNL A   1      39.170  30.828  30.904  1.00  0.00    -0.354 N 
ATOM     41  C   UNL A   1      39.067  33.148  34.538  1.00  0.00     0.074 A 
ATOM     42  C   UNL A   1      38.034  34.160  34.490  1.00  0.00     0.031 C 
ATOM     43  C   UNL A   1      38.518  30.201  28.859  1.00  0.00     0.029 A 
ATOM     44  C   UNL A   1      39.460  29.901  29.932  1.00  0.00     0.049 A 
ATOM     45  H   UNL A   1      39.642  30.872  31.766  1.00  0.00     0.167 HD
ATOM     46  C   UNL A   1      39.875  32.933  35.602  1.00  0.00     0.037 A 
ATOM     47  C   UNL A   1      40.392  28.929  29.899  1.00  0.00     0.037 A 
ATOM     48  C   UNL A   1      40.879  31.903  35.667  1.00  0.00     0.049 A 
ATOM     49  C   UNL A   1      41.302  28.739  31.080  1.00  0.00     0.074 A 
ATOM     50  C   UNL A   1      41.720  31.586  36.721  1.00  0.00     0.029 A 
ATOM     51  N   UNL A   1      41.175  31.018  34.641  1.00  0.00    -0.354 N 
ATOM     52  N   UNL A   1      41.311  29.374  32.226  1.00  0.00    -0.248 NA
ATOM     53  C   UNL A   1      42.336  27.701  30.960  1.00  0.00     0.031 C 
ATOM     54  C   UNL A   1      42.558  30.545  36.316  1.00  0.00     0.029 A 
ATOM     55  C   UNL A   1      42.205  30.176  35.028  1.00  0.00     0.049 A 
ATOM     56  H   UNL A   1      40.722  30.994  33.767  1.00  0.00     0.167 HD
ATOM     57  C   UNL A   1      42.339  28.808  32.967  1.00  0.00     0.074 A 
ATOM     58  C   UNL A   1      42.917  27.761  32.151  1.00  0.00     0.031 C 
ATOM     59  C   UNL A   1      42.770  29.135  34.209  1.00  0.00     0.037 A 
BRANCH  46  60
ATOM     60  C   UNL A   1      39.723  33.823  36.802  1.00  0.00     0.064 A 
ATOM     61  C   UNL A   1      40.309  35.097  36.852  1.00  0.00     0.173 A 
ATOM     62  C   UNL A   1      38.898  33.438  37.870  1.00  0.00     0.173 A 
ATOM     63  F   UNL A   1      41.113  35.509  35.861  1.00  0.00    -0.203 F 
ATOM     64  C   UNL A   1      40.079  35.948  37.930  1.00  0.00     0.198 A 
ATOM     65  C   UNL A   1      38.649  34.302  38.934  1.00  0.00     0.198 A 
ATOM     66  F   UNL A   1      38.307  32.233  37.868  1.00  0.00    -0.203 F 
ATOM     67  F   UNL A   1      40.667  37.152  37.968  1.00  0.00    -0.200 F 
ATOM     68  C   UNL A   1      39.241  35.555  38.963  1.00  0.00     0.200 A 
ATOM     69  F   UNL A   1      37.827  33.926  39.923  1.00  0.00    -0.200 F 
ATOM     70  F   UNL A   1      39.002  36.387  39.988  1.00  0.00    -0.200 F 
ENDBRANCH  46  60
BRANCH  47  71
ATOM     71  C   UNL A   1      40.509  28.067  28.693  1.00  0.00     0.064 A 
ATOM     72  C   UNL A   1      39.841  26.837  28.617  1.00  0.00     0.173 A 
ATOM     73  C   UNL A   1      41.278  28.462  27.589  1.00  0.00     0.173 A 
ATOM     74  F   UNL A   1      39.112  26.405  29.656  1.00  0.00    -0.203 F 
ATOM     75  C   UNL A   1      39.942  26.034  27.483  1.00  0.00     0.198 A 
ATOM     76  C   UNL A   1      41.354  27.673  26.444  1.00  0.00     0.198 A 
ATOM     77  F   UNL A   1      41.936  29.630  27.613  1.00  0.00    -0.203 F 
ATOM     78  F   UNL A   1      39.322  24.847  27.449  1.00  0.00    -0.200 F 
ATOM     79  C   UNL A   1      40.690  26.457  26.393  1.00  0.00     0.200 A 
ATOM     80  F   UNL A   1      42.063  28.095  25.388  1.00  0.00    -0.200 F 
ATOM     81  F   UNL A   1      40.775  25.690  25.299  1.00  0.00    -0.200 F 
ENDBRANCH  47  71
BRANCH  59  82
ATOM     82  C   UNL A   1      43.917  28.350  34.776  1.00  0.00     0.064 A 
ATOM     83  C   UNL A   1      45.239  28.797  34.653  1.00  0.00     0.173 A 
ATOM     84  C   UNL A   1      43.682  27.179  35.514  1.00  0.00     0.173 A 
ATOM     85  F   UNL A   1      45.516  29.903  33.947  1.00  0.00    -0.203 F 
ATOM     86  C   UNL A   1      46.290  28.092  35.236  1.00  0.00     0.198 A 
ATOM     87  C   UNL A   1      44.730  26.494  36.120  1.00  0.00     0.198 A 
ATOM     88  F   UNL A   1      42.433  26.716  35.668  1.00  0.00    -0.203 F 
ATOM     89  F   UNL A   1      47.550  28.518  35.077  1.00  0.00    -0.200 F 
ATOM     90  C   UNL A   1      46.033  26.948  35.977  1.00  0.00     0.200 A 
ATOM     91  F   UNL A   1      44.481  25.398  36.849  1.00  0.00    -0.200 F 
ATOM     92  F   UNL A   1      47.043  26.281  36.552  1.00  0.00    -0.200 F 
ENDBRANCH  59  82
ENDBRANCH  33  34
ENDBRANCH  25  28
ENDBRANCH  23  24
ENDBRANCH  22  23
ENDBRANCH  21  22
ENDBRANCH   1  21
TORSDOF 15
ENDMDL
