MODEL 1
REMARK VINA RESULT:     -14.0      0.000      0.000
REMARK SMILES [NH3+][C@@H](Cc1cn(-c2nc(Cl)nc(N3CCOCC3)n2)c2ccccc12)C(=O)NCCCCNC(=O)c1ccc(-c2c3nc(c(-c4c(F)c(F)c(F)c(F)c4F)c4ccc([nH]4)c(-c4c(F)c(F)c(F)c(F)c4F)c4nc(c(-c5c(F)c(F)c(F)c(F)c5F)c5ccc2[nH]5)C=C4)C=C3)cc1
REMARK SMILES IDX 29 1 28 2 26 3 27 4 2 6 1 7 3 11 4 12 5 13 25 14 6 15 20 16
REMARK SMILES IDX 24 17 21 18 23 19 22 20 7 21 8 22 19 23 9 24 12 25 10 26
REMARK SMILES IDX 11 27 13 28 14 29 18 30 15 31 17 32 16 33 30 34 31 35 32 36
REMARK SMILES IDX 33 37 34 38 35 40 36 41 37 42 98 43 38 44 97 45 39 46 40 47
REMARK SMILES IDX 41 48 91 49 42 50 96 51 90 52 92 53 43 54 95 55 89 56 88 57
REMARK SMILES IDX 44 59 76 60 56 61 75 62 57 63 60 64 74 65 93 66 58 67 59 68
REMARK SMILES IDX 73 70 94 71 61 72 45 73 46 74 54 75 47 76 48 77 52 78 55 79
REMARK SMILES IDX 49 80 50 81 53 82 51 83 77 84 78 85 86 86 79 87 80 88 84 89
REMARK SMILES IDX 87 90 81 91 82 92 85 93 83 94 62 95 63 96 71 97 64 98 65 99
REMARK SMILES IDX 69 100 72 101 66 102 67 103 70 104 68 105
REMARK H PARENT 28 5 1 8 1 9 1 10 33 39 92 58 60 69
REMARK Flexibility Score: inf
ROOT
ATOM      1  C   UNL A   1      33.300  29.174  25.026  1.00  0.00     0.116 C 
ENDROOT
BRANCH   1   2
ATOM      2  N   UNL A   1      34.031  28.779  23.854  1.00  0.00    -0.351 N 
ATOM      3  C   UNL A   1      33.533  28.265  22.687  1.00  0.00     0.278 C 
ATOM      4  O   UNL A   1      34.304  28.251  21.719  1.00  0.00    -0.268 OA
ATOM      5  H   UNL A   1      35.007  28.892  23.896  1.00  0.00     0.163 HD
BRANCH   3   6
ATOM      6  C   UNL A   1      32.087  27.706  22.544  1.00  0.00     0.275 C 
BRANCH   6   7
ATOM      7  N   UNL A   1      31.149  28.725  22.020  1.00  0.00    -0.347 N 
ATOM      8  H   UNL A   1      30.324  28.263  21.637  1.00  0.00     0.345 HD
ATOM      9  H   UNL A   1      31.608  29.265  21.287  1.00  0.00     0.345 HD
ATOM     10  H   UNL A   1      30.867  29.349  22.777  1.00  0.00     0.345 HD
ENDBRANCH   6   7
BRANCH   6  11
ATOM     11  C   UNL A   1      31.941  26.273  21.979  1.00  0.00     0.113 C 
BRANCH  11  12
ATOM     12  C   UNL A   1      32.072  25.096  22.910  1.00  0.00    -0.015 A 
ATOM     13  C   UNL A   1      32.931  24.018  22.799  1.00  0.00     0.099 A 
ATOM     14  C   UNL A   1      31.328  24.883  24.119  1.00  0.00     0.004 A 
ATOM     15  N   UNL A   1      32.846  23.237  23.939  1.00  0.00    -0.285 N 
ATOM     16  C   UNL A   1      31.813  23.719  24.734  1.00  0.00     0.056 A 
ATOM     17  C   UNL A   1      30.320  25.625  24.773  1.00  0.00     0.010 A 
ATOM     18  C   UNL A   1      31.346  23.307  25.997  1.00  0.00     0.027 A 
ATOM     19  C   UNL A   1      29.853  25.217  26.025  1.00  0.00     0.001 A 
ATOM     20  C   UNL A   1      30.368  24.078  26.631  1.00  0.00     0.002 A 
BRANCH  15  21
ATOM     21  C   UNL A   1      33.813  22.257  24.320  1.00  0.00     0.240 A 
ATOM     22  N   UNL A   1      35.074  22.624  24.482  1.00  0.00    -0.181 NA
ATOM     23  N   UNL A   1      33.364  21.000  24.426  1.00  0.00    -0.176 NA
ATOM     24  C   UNL A   1      35.858  21.605  24.813  1.00  0.00     0.228 A 
ATOM     25  C   UNL A   1      34.274  20.058  24.670  1.00  0.00     0.231 A 
ATOM     26  Cl  UNL A   1      37.464  22.015  25.235  1.00  0.00    -0.041 Cl
ATOM     27  N   UNL A   1      35.540  20.319  24.935  1.00  0.00    -0.182 NA
BRANCH  25  28
ATOM     28  N   UNL A   1      33.826  18.762  24.628  1.00  0.00    -0.336 N 
ATOM     29  C   UNL A   1      34.807  17.748  24.238  1.00  0.00     0.148 C 
ATOM     30  C   UNL A   1      32.901  18.287  25.649  1.00  0.00     0.148 C 
ATOM     31  C   UNL A   1      34.056  16.510  23.723  1.00  0.00     0.181 C 
ATOM     32  C   UNL A   1      32.182  17.053  25.069  1.00  0.00     0.181 C 
ATOM     33  O   UNL A   1      33.118  16.022  24.698  1.00  0.00    -0.378 OA
ENDBRANCH  25  28
ENDBRANCH  15  21
ENDBRANCH  11  12
ENDBRANCH   6  11
ENDBRANCH   3   6
ENDBRANCH   1   2
BRANCH   1  34
ATOM     34  C   UNL A   1      33.598  28.400  26.294  1.00  0.00     0.023 C 
BRANCH  34  35
ATOM     35  C   UNL A   1      34.346  29.145  27.394  1.00  0.00     0.023 C 
BRANCH  35  36
ATOM     36  C   UNL A   1      34.360  30.681  27.325  1.00  0.00     0.116 C 
BRANCH  36  37
ATOM     37  N   UNL A   1      34.222  31.381  28.591  1.00  0.00    -0.352 N 
ATOM     38  C   UNL A   1      35.104  31.798  29.551  1.00  0.00     0.251 C 
ATOM     39  H   UNL A   1      33.287  31.604  28.806  1.00  0.00     0.163 HD
ATOM     40  O   UNL A   1      34.716  32.700  30.304  1.00  0.00    -0.269 OA
BRANCH  38  41
ATOM     41  C   UNL A   1      36.422  31.169  29.832  1.00  0.00     0.039 A 
ATOM     42  C   UNL A   1      37.651  31.772  29.582  1.00  0.00     0.014 A 
ATOM     43  C   UNL A   1      36.407  29.813  30.218  1.00  0.00     0.014 A 
ATOM     44  C   UNL A   1      38.816  31.016  29.580  1.00  0.00     0.010 A 
ATOM     45  C   UNL A   1      37.575  29.056  30.248  1.00  0.00     0.010 A 
ATOM     46  C   UNL A   1      38.774  29.648  29.871  1.00  0.00    -0.014 A 
BRANCH  46  47
ATOM     47  C   UNL A   1      40.043  28.924  29.854  1.00  0.00     0.031 A 
ATOM     48  C   UNL A   1      40.686  28.766  31.189  1.00  0.00     0.074 A 
ATOM     49  C   UNL A   1      40.602  28.376  28.756  1.00  0.00     0.049 A 
ATOM     50  N   UNL A   1      41.822  29.243  31.582  1.00  0.00    -0.248 NA
ATOM     51  C   UNL A   1      39.920  28.094  32.248  1.00  0.00     0.031 C 
ATOM     52  C   UNL A   1      40.029  28.204  27.422  1.00  0.00     0.029 A 
ATOM     53  N   UNL A   1      41.819  27.769  28.645  1.00  0.00    -0.354 N 
ATOM     54  C   UNL A   1      41.993  28.812  32.895  1.00  0.00     0.074 A 
ATOM     55  C   UNL A   1      40.746  28.209  33.289  1.00  0.00     0.031 C 
ATOM     56  C   UNL A   1      40.796  27.340  26.717  1.00  0.00     0.029 A 
ATOM     57  C   UNL A   1      41.975  27.004  27.498  1.00  0.00     0.049 A 
ATOM     58  H   UNL A   1      42.528  27.866  29.322  1.00  0.00     0.167 HD
ATOM     59  C   UNL A   1      43.215  28.822  33.498  1.00  0.00     0.037 A 
ATOM     60  C   UNL A   1      42.965  26.107  27.256  1.00  0.00     0.037 A 
ATOM     61  C   UNL A   1      44.128  29.707  32.825  1.00  0.00     0.049 A 
ATOM     62  C   UNL A   1      44.110  26.459  28.134  1.00  0.00     0.074 A 
ATOM     63  C   UNL A   1      44.133  31.061  32.546  1.00  0.00     0.029 A 
ATOM     64  N   UNL A   1      45.097  29.165  32.017  1.00  0.00    -0.354 N 
ATOM     65  N   UNL A   1      44.840  27.530  27.984  1.00  0.00    -0.248 NA
ATOM     66  C   UNL A   1      44.165  25.845  29.453  1.00  0.00     0.031 C 
ATOM     67  C   UNL A   1      44.709  31.165  31.247  1.00  0.00     0.029 A 
ATOM     68  C   UNL A   1      45.069  29.879  30.847  1.00  0.00     0.049 A 
ATOM     69  H   UNL A   1      45.694  28.413  32.234  1.00  0.00     0.167 HD
ATOM     70  C   UNL A   1      45.086  27.968  29.276  1.00  0.00     0.074 A 
ATOM     71  C   UNL A   1      44.718  26.847  30.139  1.00  0.00     0.031 C 
ATOM     72  C   UNL A   1      45.291  29.288  29.552  1.00  0.00     0.037 A 
BRANCH  59  73
ATOM     73  C   UNL A   1      43.690  27.784  34.482  1.00  0.00     0.064 A 
ATOM     74  C   UNL A   1      43.672  26.423  34.112  1.00  0.00     0.173 A 
ATOM     75  C   UNL A   1      43.852  28.038  35.861  1.00  0.00     0.173 A 
ATOM     76  F   UNL A   1      43.512  26.066  32.828  1.00  0.00    -0.203 F 
ATOM     77  C   UNL A   1      43.711  25.399  35.061  1.00  0.00     0.198 A 
ATOM     78  C   UNL A   1      43.945  27.011  36.799  1.00  0.00     0.198 A 
ATOM     79  F   UNL A   1      43.811  29.276  36.365  1.00  0.00    -0.203 F 
ATOM     80  F   UNL A   1      43.549  24.126  34.674  1.00  0.00    -0.200 F 
ATOM     81  C   UNL A   1      43.837  25.695  36.405  1.00  0.00     0.200 A 
ATOM     82  F   UNL A   1      44.050  27.320  38.100  1.00  0.00    -0.200 F 
ATOM     83  F   UNL A   1      43.804  24.720  37.323  1.00  0.00    -0.200 F 
ENDBRANCH  59  73
BRANCH  60  84
ATOM     84  C   UNL A   1      42.863  24.791  26.572  1.00  0.00     0.064 A 
ATOM     85  C   UNL A   1      43.580  24.530  25.390  1.00  0.00     0.173 A 
ATOM     86  C   UNL A   1      42.286  23.673  27.206  1.00  0.00     0.173 A 
ATOM     87  F   UNL A   1      44.201  25.526  24.742  1.00  0.00    -0.203 F 
ATOM     88  C   UNL A   1      43.736  23.229  24.895  1.00  0.00     0.198 A 
ATOM     89  C   UNL A   1      42.434  22.378  26.705  1.00  0.00     0.198 A 
ATOM     90  F   UNL A   1      41.649  23.793  28.378  1.00  0.00    -0.203 F 
ATOM     91  F   UNL A   1      44.485  23.013  23.805  1.00  0.00    -0.200 F 
ATOM     92  C   UNL A   1      43.172  22.153  25.560  1.00  0.00     0.200 A 
ATOM     93  F   UNL A   1      41.910  21.343  27.379  1.00  0.00    -0.200 F 
ATOM     94  F   UNL A   1      43.373  20.902  25.123  1.00  0.00    -0.200 F 
ENDBRANCH  60  84
BRANCH  72  95
ATOM     95  C   UNL A   1      45.488  30.242  28.410  1.00  0.00     0.064 A 
ATOM     96  C   UNL A   1      44.432  30.850  27.709  1.00  0.00     0.173 A 
ATOM     97  C   UNL A   1      46.786  30.705  28.152  1.00  0.00     0.173 A 
ATOM     98  F   UNL A   1      43.157  30.535  27.970  1.00  0.00    -0.203 F 
ATOM     99  C   UNL A   1      44.672  31.855  26.774  1.00  0.00     0.198 A 
ATOM    100  C   UNL A   1      47.019  31.736  27.247  1.00  0.00     0.198 A 
ATOM    101  F   UNL A   1      47.827  30.199  28.832  1.00  0.00    -0.203 F 
ATOM    102  F   UNL A   1      43.650  32.419  26.114  1.00  0.00    -0.200 F 
ATOM    103  C   UNL A   1      45.964  32.306  26.553  1.00  0.00     0.200 A 
ATOM    104  F   UNL A   1      48.264  32.202  27.077  1.00  0.00    -0.200 F 
ATOM    105  F   UNL A   1      46.190  33.312  25.697  1.00  0.00    -0.200 F 
ENDBRANCH  72  95
ENDBRANCH  46  47
ENDBRANCH  38  41
ENDBRANCH  36  37
ENDBRANCH  35  36
ENDBRANCH  34  35
ENDBRANCH   1  34
TORSDOF 16
ENDMDL
MODEL 2
REMARK VINA RESULT:     -13.8      3.365      9.263
REMARK SMILES [NH3+][C@@H](Cc1cn(-c2nc(Cl)nc(N3CCOCC3)n2)c2ccccc12)C(=O)NCCCCNC(=O)c1ccc(-c2c3nc(c(-c4c(F)c(F)c(F)c(F)c4F)c4ccc([nH]4)c(-c4c(F)c(F)c(F)c(F)c4F)c4nc(c(-c5c(F)c(F)c(F)c(F)c5F)c5ccc2[nH]5)C=C4)C=C3)cc1
REMARK SMILES IDX 29 1 28 2 26 3 27 4 2 6 1 7 3 11 4 12 5 13 25 14 6 15 20 16
REMARK SMILES IDX 24 17 21 18 23 19 22 20 7 21 8 22 19 23 9 24 12 25 10 26
REMARK SMILES IDX 11 27 13 28 14 29 18 30 15 31 17 32 16 33 30 34 31 35 32 36
REMARK SMILES IDX 33 37 34 38 35 40 36 41 37 42 98 43 38 44 97 45 39 46 40 47
REMARK SMILES IDX 41 48 91 49 42 50 96 51 90 52 92 53 43 54 95 55 89 56 88 57
REMARK SMILES IDX 44 59 76 60 56 61 75 62 57 63 60 64 74 65 93 66 58 67 59 68
REMARK SMILES IDX 73 70 94 71 61 72 45 73 46 74 54 75 47 76 48 77 52 78 55 79
REMARK SMILES IDX 49 80 50 81 53 82 51 83 77 84 78 85 86 86 79 87 80 88 84 89
REMARK SMILES IDX 87 90 81 91 82 92 85 93 83 94 62 95 63 96 71 97 64 98 65 99
REMARK SMILES IDX 69 100 72 101 66 102 67 103 70 104 68 105
REMARK H PARENT 28 5 1 8 1 9 1 10 33 39 92 58 60 69
REMARK Flexibility Score: inf
ROOT
ATOM      1  C   UNL A   1      35.548  22.810  26.062  1.00  0.00     0.116 C 
ENDROOT
BRANCH   1   2
ATOM      2  N   UNL A   1      34.663  22.855  27.193  1.00  0.00    -0.351 N 
ATOM      3  C   UNL A   1      33.413  22.308  27.304  1.00  0.00     0.278 C 
ATOM      4  O   UNL A   1      32.945  22.233  28.447  1.00  0.00    -0.268 OA
ATOM      5  H   UNL A   1      34.997  23.337  27.983  1.00  0.00     0.163 HD
BRANCH   3   6
ATOM      6  C   UNL A   1      32.585  21.807  26.084  1.00  0.00     0.275 C 
BRANCH   6   7
ATOM      7  N   UNL A   1      32.544  20.329  26.012  1.00  0.00    -0.347 N 
ATOM      8  H   UNL A   1      31.651  20.032  25.618  1.00  0.00     0.345 HD
ATOM      9  H   UNL A   1      32.648  19.940  26.949  1.00  0.00     0.345 HD
ATOM     10  H   UNL A   1      33.303  19.996  25.418  1.00  0.00     0.345 HD
ENDBRANCH   6   7
BRANCH   6  11
ATOM     11  C   UNL A   1      31.264  22.554  25.779  1.00  0.00     0.113 C 
BRANCH  11  12
ATOM     12  C   UNL A   1      31.307  23.839  24.993  1.00  0.00    -0.015 A 
ATOM     13  C   UNL A   1      30.845  25.084  25.378  1.00  0.00     0.099 A 
ATOM     14  C   UNL A   1      31.867  24.014  23.683  1.00  0.00     0.004 A 
ATOM     15  N   UNL A   1      31.214  26.028  24.435  1.00  0.00    -0.285 N 
ATOM     16  C   UNL A   1      31.787  25.375  23.349  1.00  0.00     0.056 A 
ATOM     17  C   UNL A   1      32.494  23.131  22.778  1.00  0.00     0.010 A 
ATOM     18  C   UNL A   1      32.352  25.874  22.160  1.00  0.00     0.027 A 
ATOM     19  C   UNL A   1      33.053  23.622  21.596  1.00  0.00     0.001 A 
ATOM     20  C   UNL A   1      32.990  24.978  21.298  1.00  0.00     0.002 A 
BRANCH  15  21
ATOM     21  C   UNL A   1      31.211  27.438  24.661  1.00  0.00     0.240 A 
ATOM     22  N   UNL A   1      31.869  27.927  25.700  1.00  0.00    -0.181 NA
ATOM     23  N   UNL A   1      30.472  28.167  23.814  1.00  0.00    -0.176 NA
ATOM     24  C   UNL A   1      31.758  29.246  25.794  1.00  0.00     0.228 A 
ATOM     25  C   UNL A   1      30.369  29.468  24.077  1.00  0.00     0.231 A 
ATOM     26  Cl  UNL A   1      32.732  29.988  26.988  1.00  0.00    -0.041 Cl
ATOM     27  N   UNL A   1      31.049  30.075  25.031  1.00  0.00    -0.182 NA
BRANCH  25  28
ATOM     28  N   UNL A   1      29.491  30.174  23.293  1.00  0.00    -0.336 N 
ATOM     29  C   UNL A   1      29.134  31.514  23.761  1.00  0.00     0.148 C 
ATOM     30  C   UNL A   1      29.601  30.095  21.842  1.00  0.00     0.148 C 
ATOM     31  C   UNL A   1      27.799  31.920  23.117  1.00  0.00     0.181 C 
ATOM     32  C   UNL A   1      28.234  30.509  21.262  1.00  0.00     0.181 C 
ATOM     33  O   UNL A   1      27.862  31.837  21.683  1.00  0.00    -0.378 OA
ENDBRANCH  25  28
ENDBRANCH  15  21
ENDBRANCH  11  12
ENDBRANCH   6  11
ENDBRANCH   3   6
ENDBRANCH   1   2
BRANCH   1  34
ATOM     34  C   UNL A   1      36.190  21.470  25.767  1.00  0.00     0.023 C 
BRANCH  34  35
ATOM     35  C   UNL A   1      37.632  21.494  25.270  1.00  0.00     0.023 C 
BRANCH  35  36
ATOM     36  C   UNL A   1      38.661  22.256  26.121  1.00  0.00     0.116 C 
BRANCH  36  37
ATOM     37  N   UNL A   1      40.058  21.946  25.868  1.00  0.00    -0.352 N 
ATOM     38  C   UNL A   1      41.245  22.446  26.332  1.00  0.00     0.251 C 
ATOM     39  H   UNL A   1      40.177  21.214  25.220  1.00  0.00     0.163 HD
ATOM     40  O   UNL A   1      42.235  21.712  26.223  1.00  0.00    -0.269 OA
BRANCH  38  41
ATOM     41  C   UNL A   1      41.452  23.833  26.829  1.00  0.00     0.039 A 
ATOM     42  C   UNL A   1      42.197  24.160  27.959  1.00  0.00     0.014 A 
ATOM     43  C   UNL A   1      40.701  24.849  26.203  1.00  0.00     0.014 A 
ATOM     44  C   UNL A   1      42.089  25.423  28.528  1.00  0.00     0.010 A 
ATOM     45  C   UNL A   1      40.613  26.125  26.752  1.00  0.00     0.010 A 
ATOM     46  C   UNL A   1      41.264  26.394  27.949  1.00  0.00    -0.014 A 
BRANCH  46  47
ATOM     47  C   UNL A   1      41.210  27.698  28.605  1.00  0.00     0.031 A 
ATOM     48  C   UNL A   1      42.335  28.612  28.263  1.00  0.00     0.074 A 
ATOM     49  C   UNL A   1      40.217  28.110  29.419  1.00  0.00     0.049 A 
ATOM     50  N   UNL A   1      43.239  29.087  29.056  1.00  0.00    -0.248 NA
ATOM     51  C   UNL A   1      42.545  28.947  26.847  1.00  0.00     0.031 C 
ATOM     52  C   UNL A   1      38.925  27.478  29.684  1.00  0.00     0.029 A 
ATOM     53  N   UNL A   1      40.141  29.269  30.134  1.00  0.00    -0.354 N 
ATOM     54  C   UNL A   1      44.055  29.902  28.275  1.00  0.00     0.074 A 
ATOM     55  C   UNL A   1      43.652  29.688  26.908  1.00  0.00     0.031 C 
ATOM     56  C   UNL A   1      38.115  28.366  30.306  1.00  0.00     0.029 A 
ATOM     57  C   UNL A   1      38.869  29.575  30.598  1.00  0.00     0.049 A 
ATOM     58  H   UNL A   1      40.924  29.841  30.309  1.00  0.00     0.167 HD
ATOM     59  C   UNL A   1      44.882  30.831  28.832  1.00  0.00     0.037 A 
ATOM     60  C   UNL A   1      38.462  30.764  31.109  1.00  0.00     0.037 A 
ATOM     61  C   UNL A   1      45.132  30.550  30.220  1.00  0.00     0.049 A 
ATOM     62  C   UNL A   1      39.672  31.482  31.588  1.00  0.00     0.074 A 
ATOM     63  C   UNL A   1      45.688  29.485  30.905  1.00  0.00     0.029 A 
ATOM     64  N   UNL A   1      44.485  31.298  31.173  1.00  0.00    -0.354 N 
ATOM     65  N   UNL A   1      40.378  31.110  32.620  1.00  0.00    -0.248 NA
ATOM     66  C   UNL A   1      40.354  32.359  30.647  1.00  0.00     0.031 C 
ATOM     67  C   UNL A   1      44.915  29.373  32.097  1.00  0.00     0.029 A 
ATOM     68  C   UNL A   1      43.982  30.409  32.086  1.00  0.00     0.049 A 
ATOM     69  H   UNL A   1      44.399  32.278  31.194  1.00  0.00     0.167 HD
ATOM     70  C   UNL A   1      41.693  31.333  32.242  1.00  0.00     0.074 A 
ATOM     71  C   UNL A   1      41.613  32.180  31.054  1.00  0.00     0.031 C 
ATOM     72  C   UNL A   1      42.714  30.584  32.748  1.00  0.00     0.037 A 
BRANCH  59  73
ATOM     73  C   UNL A   1      45.188  32.175  28.223  1.00  0.00     0.064 A 
ATOM     74  C   UNL A   1      44.140  33.098  28.026  1.00  0.00     0.173 A 
ATOM     75  C   UNL A   1      46.389  32.463  27.539  1.00  0.00     0.173 A 
ATOM     76  F   UNL A   1      42.949  32.918  28.618  1.00  0.00    -0.203 F 
ATOM     77  C   UNL A   1      44.255  34.168  27.135  1.00  0.00     0.198 A 
ATOM     78  C   UNL A   1      46.517  33.562  26.692  1.00  0.00     0.198 A 
ATOM     79  F   UNL A   1      47.440  31.636  27.571  1.00  0.00    -0.203 F 
ATOM     80  F   UNL A   1      43.188  34.935  26.874  1.00  0.00    -0.200 F 
ATOM     81  C   UNL A   1      45.441  34.392  26.461  1.00  0.00     0.200 A 
ATOM     82  F   UNL A   1      47.670  33.753  26.035  1.00  0.00    -0.200 F 
ATOM     83  F   UNL A   1      45.533  35.373  25.554  1.00  0.00    -0.200 F 
ENDBRANCH  59  73
BRANCH  60  84
ATOM     84  C   UNL A   1      37.158  31.451  30.909  1.00  0.00     0.064 A 
ATOM     85  C   UNL A   1      36.271  31.650  31.983  1.00  0.00     0.173 A 
ATOM     86  C   UNL A   1      36.876  32.170  29.731  1.00  0.00     0.173 A 
ATOM     87  F   UNL A   1      36.485  31.042  33.158  1.00  0.00    -0.203 F 
ATOM     88  C   UNL A   1      35.192  32.537  31.891  1.00  0.00     0.198 A 
ATOM     89  C   UNL A   1      35.794  33.047  29.639  1.00  0.00     0.198 A 
ATOM     90  F   UNL A   1      37.698  32.119  28.675  1.00  0.00    -0.203 F 
ATOM     91  F   UNL A   1      34.410  32.752  32.959  1.00  0.00    -0.200 F 
ATOM     92  C   UNL A   1      34.961  33.243  30.723  1.00  0.00     0.200 A 
ATOM     93  F   UNL A   1      35.604  33.749  28.512  1.00  0.00    -0.200 F 
ATOM     94  F   UNL A   1      33.967  34.140  30.654  1.00  0.00    -0.200 F 
ENDBRANCH  60  84
BRANCH  72  95
ATOM     95  C   UNL A   1      42.435  29.669  33.904  1.00  0.00     0.064 A 
ATOM     96  C   UNL A   1      41.849  28.398  33.771  1.00  0.00     0.173 A 
ATOM     97  C   UNL A   1      42.960  30.010  35.159  1.00  0.00     0.173 A 
ATOM     98  F   UNL A   1      41.415  27.959  32.583  1.00  0.00    -0.203 F 
ATOM     99  C   UNL A   1      41.769  27.523  34.853  1.00  0.00     0.198 A 
ATOM    100  C   UNL A   1      42.914  29.119  36.227  1.00  0.00     0.198 A 
ATOM    101  F   UNL A   1      43.579  31.188  35.331  1.00  0.00    -0.203 F 
ATOM    102  F   UNL A   1      41.203  26.317  34.703  1.00  0.00    -0.200 F 
ATOM    103  C   UNL A   1      42.313  27.879  36.076  1.00  0.00     0.200 A 
ATOM    104  F   UNL A   1      43.488  29.449  37.393  1.00  0.00    -0.200 F 
ATOM    105  F   UNL A   1      42.289  27.017  37.101  1.00  0.00    -0.200 F 
ENDBRANCH  72  95
ENDBRANCH  46  47
ENDBRANCH  38  41
ENDBRANCH  36  37
ENDBRANCH  35  36
ENDBRANCH  34  35
ENDBRANCH   1  34
TORSDOF 16
ENDMDL
MODEL 3
REMARK VINA RESULT:     -13.7      3.228      9.060
REMARK SMILES [NH3+][C@@H](Cc1cn(-c2nc(Cl)nc(N3CCOCC3)n2)c2ccccc12)C(=O)NCCCCNC(=O)c1ccc(-c2c3nc(c(-c4c(F)c(F)c(F)c(F)c4F)c4ccc([nH]4)c(-c4c(F)c(F)c(F)c(F)c4F)c4nc(c(-c5c(F)c(F)c(F)c(F)c5F)c5ccc2[nH]5)C=C4)C=C3)cc1
REMARK SMILES IDX 29 1 28 2 26 3 27 4 2 6 1 7 3 11 4 12 5 13 25 14 6 15 20 16
REMARK SMILES IDX 24 17 21 18 23 19 22 20 7 21 8 22 19 23 9 24 12 25 10 26
REMARK SMILES IDX 11 27 13 28 14 29 18 30 15 31 17 32 16 33 30 34 31 35 32 36
REMARK SMILES IDX 33 37 34 38 35 40 36 41 37 42 98 43 38 44 97 45 39 46 40 47
REMARK SMILES IDX 41 48 91 49 42 50 96 51 90 52 92 53 43 54 95 55 89 56 88 57
REMARK SMILES IDX 44 59 76 60 56 61 75 62 57 63 60 64 74 65 93 66 58 67 59 68
REMARK SMILES IDX 73 70 94 71 61 72 45 73 46 74 54 75 47 76 48 77 52 78 55 79
REMARK SMILES IDX 49 80 50 81 53 82 51 83 77 84 78 85 86 86 79 87 80 88 84 89
REMARK SMILES IDX 87 90 81 91 82 92 85 93 83 94 62 95 63 96 71 97 64 98 65 99
REMARK SMILES IDX 69 100 72 101 66 102 67 103 70 104 68 105
REMARK H PARENT 28 5 1 8 1 9 1 10 33 39 92 58 60 69
REMARK Flexibility Score: inf
ROOT
ATOM      1  C   UNL A   1      34.801  23.968  25.357  1.00  0.00     0.116 C 
ENDROOT
BRANCH   1   2
ATOM      2  N   UNL A   1      34.382  23.404  26.610  1.00  0.00    -0.351 N 
ATOM      3  C   UNL A   1      33.529  22.353  26.815  1.00  0.00     0.278 C 
ATOM      4  O   UNL A   1      33.520  21.864  27.952  1.00  0.00    -0.268 OA
ATOM      5  H   UNL A   1      34.753  23.825  27.419  1.00  0.00     0.163 HD
BRANCH   3   6
ATOM      6  C   UNL A   1      32.594  21.780  25.710  1.00  0.00     0.275 C 
BRANCH   6   7
ATOM      7  N   UNL A   1      32.525  20.301  25.755  1.00  0.00    -0.347 N 
ATOM      8  H   UNL A   1      33.468  19.915  25.703  1.00  0.00     0.345 HD
ATOM      9  H   UNL A   1      31.975  19.962  24.966  1.00  0.00     0.345 HD
ATOM     10  H   UNL A   1      32.087  20.008  26.628  1.00  0.00     0.345 HD
ENDBRANCH   6   7
BRANCH   6  11
ATOM     11  C   UNL A   1      31.264  22.529  25.458  1.00  0.00     0.113 C 
BRANCH  11  12
ATOM     12  C   UNL A   1      31.283  23.836  24.710  1.00  0.00    -0.015 A 
ATOM     13  C   UNL A   1      30.812  25.065  25.137  1.00  0.00     0.099 A 
ATOM     14  C   UNL A   1      31.823  24.056  23.399  1.00  0.00     0.004 A 
ATOM     15  N   UNL A   1      31.159  26.040  24.218  1.00  0.00    -0.285 N 
ATOM     16  C   UNL A   1      31.725  25.425  23.106  1.00  0.00     0.056 A 
ATOM     17  C   UNL A   1      32.449  23.207  22.460  1.00  0.00     0.010 A 
ATOM     18  C   UNL A   1      32.269  25.965  21.926  1.00  0.00     0.027 A 
ATOM     19  C   UNL A   1      32.987  23.739  21.286  1.00  0.00     0.001 A 
ATOM     20  C   UNL A   1      32.906  25.102  21.029  1.00  0.00     0.002 A 
BRANCH  15  21
ATOM     21  C   UNL A   1      31.144  27.443  24.485  1.00  0.00     0.240 A 
ATOM     22  N   UNL A   1      30.301  28.218  23.821  1.00  0.00    -0.181 NA
ATOM     23  N   UNL A   1      32.051  27.882  25.367  1.00  0.00    -0.176 NA
ATOM     24  C   UNL A   1      30.416  29.496  24.159  1.00  0.00     0.228 A 
ATOM     25  C   UNL A   1      32.125  29.200  25.544  1.00  0.00     0.231 A 
ATOM     26  Cl  UNL A   1      29.238  30.545  23.499  1.00  0.00    -0.041 Cl
ATOM     27  N   UNL A   1      31.279  30.057  25.002  1.00  0.00    -0.182 NA
BRANCH  25  28
ATOM     28  N   UNL A   1      33.155  29.646  26.333  1.00  0.00    -0.336 N 
ATOM     29  C   UNL A   1      32.844  30.744  27.248  1.00  0.00     0.148 C 
ATOM     30  C   UNL A   1      34.090  28.684  26.905  1.00  0.00     0.148 C 
ATOM     31  C   UNL A   1      34.153  31.456  27.626  1.00  0.00     0.181 C 
ATOM     32  C   UNL A   1      35.376  29.458  27.256  1.00  0.00     0.181 C 
ATOM     33  O   UNL A   1      35.110  30.535  28.178  1.00  0.00    -0.378 OA
ENDBRANCH  25  28
ENDBRANCH  15  21
ENDBRANCH  11  12
ENDBRANCH   6  11
ENDBRANCH   3   6
ENDBRANCH   1   2
BRANCH   1  34
ATOM     34  C   UNL A   1      35.510  23.029  24.404  1.00  0.00     0.023 C 
BRANCH  34  35
ATOM     35  C   UNL A   1      37.033  22.984  24.489  1.00  0.00     0.023 C 
BRANCH  35  36
ATOM     36  C   UNL A   1      37.654  22.133  25.609  1.00  0.00     0.116 C 
BRANCH  36  37
ATOM     37  N   UNL A   1      39.099  21.982  25.574  1.00  0.00    -0.352 N 
ATOM     38  C   UNL A   1      40.125  22.441  26.353  1.00  0.00     0.251 C 
ATOM     39  H   UNL A   1      39.407  21.426  24.822  1.00  0.00     0.163 HD
ATOM     40  O   UNL A   1      41.192  21.818  26.287  1.00  0.00    -0.269 OA
BRANCH  38  41
ATOM     41  C   UNL A   1      40.092  23.689  27.162  1.00  0.00     0.039 A 
ATOM     42  C   UNL A   1      39.132  24.688  27.029  1.00  0.00     0.014 A 
ATOM     43  C   UNL A   1      41.207  23.936  27.991  1.00  0.00     0.014 A 
ATOM     44  C   UNL A   1      39.341  25.941  27.590  1.00  0.00     0.010 A 
ATOM     45  C   UNL A   1      41.407  25.180  28.582  1.00  0.00     0.010 A 
ATOM     46  C   UNL A   1      40.499  26.202  28.332  1.00  0.00    -0.014 A 
BRANCH  46  47
ATOM     47  C   UNL A   1      40.642  27.543  28.893  1.00  0.00     0.031 A 
ATOM     48  C   UNL A   1      41.773  28.334  28.332  1.00  0.00     0.074 A 
ATOM     49  C   UNL A   1      39.812  28.088  29.805  1.00  0.00     0.049 A 
ATOM     50  N   UNL A   1      42.816  28.776  28.954  1.00  0.00    -0.248 NA
ATOM     51  C   UNL A   1      41.800  28.563  26.879  1.00  0.00     0.031 C 
ATOM     52  C   UNL A   1      38.528  27.588  30.294  1.00  0.00     0.029 A 
ATOM     53  N   UNL A   1      39.931  29.291  30.438  1.00  0.00    -0.354 N 
ATOM     54  C   UNL A   1      43.570  29.468  28.010  1.00  0.00     0.074 A 
ATOM     55  C   UNL A   1      42.958  29.207  26.732  1.00  0.00     0.031 C 
ATOM     56  C   UNL A   1      37.887  28.580  30.956  1.00  0.00     0.029 A 
ATOM     57  C   UNL A   1      38.767  29.734  31.051  1.00  0.00     0.049 A 
ATOM     58  H   UNL A   1      40.772  29.803  30.460  1.00  0.00     0.167 HD
ATOM     59  C   UNL A   1      44.538  30.354  28.377  1.00  0.00     0.037 A 
ATOM     60  C   UNL A   1      38.531  30.983  31.527  1.00  0.00     0.037 A 
ATOM     61  C   UNL A   1      44.965  30.137  29.734  1.00  0.00     0.049 A 
ATOM     62  C   UNL A   1      39.850  31.620  31.778  1.00  0.00     0.074 A 
ATOM     63  C   UNL A   1      45.531  29.072  30.410  1.00  0.00     0.029 A 
ATOM     64  N   UNL A   1      44.523  30.995  30.710  1.00  0.00    -0.354 N 
ATOM     65  N   UNL A   1      40.667  31.252  32.726  1.00  0.00    -0.248 NA
ATOM     66  C   UNL A   1      40.454  32.377  30.691  1.00  0.00     0.031 C 
ATOM     67  C   UNL A   1      44.933  29.101  31.703  1.00  0.00     0.029 A 
ATOM     68  C   UNL A   1      44.090  30.211  31.747  1.00  0.00     0.049 A 
ATOM     69  H   UNL A   1      44.517  31.979  30.672  1.00  0.00     0.167 HD
ATOM     70  C   UNL A   1      41.926  31.338  32.154  1.00  0.00     0.074 A 
ATOM     71  C   UNL A   1      41.740  32.114  30.930  1.00  0.00     0.031 C 
ATOM     72  C   UNL A   1      42.949  30.535  32.565  1.00  0.00     0.037 A 
BRANCH  59  73
ATOM     73  C   UNL A   1      44.856  31.628  27.635  1.00  0.00     0.064 A 
ATOM     74  C   UNL A   1      46.097  31.752  26.978  1.00  0.00     0.173 A 
ATOM     75  C   UNL A   1      44.139  32.830  27.815  1.00  0.00     0.173 A 
ATOM     76  F   UNL A   1      46.868  30.675  26.763  1.00  0.00    -0.203 F 
ATOM     77  C   UNL A   1      46.623  32.996  26.620  1.00  0.00     0.198 A 
ATOM     78  C   UNL A   1      44.644  34.064  27.408  1.00  0.00     0.198 A 
ATOM     79  F   UNL A   1      42.985  32.875  28.489  1.00  0.00    -0.203 F 
ATOM     80  F   UNL A   1      47.865  33.077  26.126  1.00  0.00    -0.200 F 
ATOM     81  C   UNL A   1      45.899  34.152  26.846  1.00  0.00     0.200 A 
ATOM     82  F   UNL A   1      43.934  35.175  27.651  1.00  0.00    -0.200 F 
ATOM     83  F   UNL A   1      46.428  35.351  26.570  1.00  0.00    -0.200 F 
ENDBRANCH  59  73
BRANCH  60  84
ATOM     84  C   UNL A   1      37.269  31.766  31.462  1.00  0.00     0.064 A 
ATOM     85  C   UNL A   1      36.530  32.050  32.625  1.00  0.00     0.173 A 
ATOM     86  C   UNL A   1      36.908  32.489  30.307  1.00  0.00     0.173 A 
ATOM     87  F   UNL A   1      36.832  31.444  33.782  1.00  0.00    -0.203 F 
ATOM     88  C   UNL A   1      35.518  33.018  32.637  1.00  0.00     0.198 A 
ATOM     89  C   UNL A   1      35.892  33.446  30.319  1.00  0.00     0.198 A 
ATOM     90  F   UNL A   1      37.595  32.358  29.165  1.00  0.00    -0.203 F 
ATOM     91  F   UNL A   1      34.884  33.309  33.782  1.00  0.00    -0.200 F 
ATOM     92  C   UNL A   1      35.208  33.723  31.486  1.00  0.00     0.200 A 
ATOM     93  F   UNL A   1      35.626  34.144  29.205  1.00  0.00    -0.200 F 
ATOM     94  F   UNL A   1      34.284  34.693  31.511  1.00  0.00    -0.200 F 
ENDBRANCH  60  84
BRANCH  72  95
ATOM     95  C   UNL A   1      42.771  29.719  33.812  1.00  0.00     0.064 A 
ATOM     96  C   UNL A   1      42.126  28.471  33.843  1.00  0.00     0.173 A 
ATOM     97  C   UNL A   1      43.450  30.125  34.970  1.00  0.00     0.173 A 
ATOM     98  F   UNL A   1      41.541  27.968  32.749  1.00  0.00    -0.203 F 
ATOM     99  C   UNL A   1      42.139  27.681  34.992  1.00  0.00     0.198 A 
ATOM    100  C   UNL A   1      43.494  29.317  36.102  1.00  0.00     0.198 A 
ATOM    101  F   UNL A   1      44.129  31.283  34.980  1.00  0.00    -0.203 F 
ATOM    102  F   UNL A   1      41.514  26.494  35.000  1.00  0.00    -0.200 F 
ATOM    103  C   UNL A   1      42.834  28.099  36.115  1.00  0.00     0.200 A 
ATOM    104  F   UNL A   1      44.211  29.702  37.167  1.00  0.00    -0.200 F 
ATOM    105  F   UNL A   1      42.896  27.315  37.200  1.00  0.00    -0.200 F 
ENDBRANCH  72  95
ENDBRANCH  46  47
ENDBRANCH  38  41
ENDBRANCH  36  37
ENDBRANCH  35  36
ENDBRANCH  34  35
ENDBRANCH   1  34
TORSDOF 16
ENDMDL
