MODEL 1
REMARK VINA RESULT:     -12.6      0.000      0.000
REMARK SMILES O=C(NCCCCNC(=O)c1cc(-c2cncnc2)cc(S(=O)(=O)N2CCCC2)c1)c1ccc(-c2c3nc(c(-c4c(F)c(F)c(F)c(F)c4F)c4ccc([nH]4)c(-c4c(F)c(F)c(F)c(F)c4F)c4nc(c(-c5c(F)c(F)c(F)c(F)c5F)c5ccc2[nH]5)C=C4)C=C3)cc1
REMARK SMILES IDX 5 1 4 2 3 3 1 4 2 5 31 7 32 8 93 9 33 10 92 11 34 12 35 13
REMARK SMILES IDX 36 14 86 15 37 16 91 17 85 18 87 19 38 20 90 21 84 22 83 23
REMARK SMILES IDX 39 25 71 26 51 27 70 28 52 29 55 30 69 31 88 32 53 33 54 34
REMARK SMILES IDX 68 36 89 37 56 38 40 39 41 40 49 41 42 42 43 43 47 44 50 45
REMARK SMILES IDX 44 46 45 47 48 48 46 49 72 50 73 51 81 52 74 53 75 54 79 55
REMARK SMILES IDX 82 56 76 57 77 58 80 59 78 60 57 61 58 62 66 63 59 64 60 65
REMARK SMILES IDX 64 66 67 67 61 68 62 69 65 70 63 71 6 72 7 73 8 74 9 75
REMARK SMILES IDX 10 77 11 78 12 79 30 80 13 81 21 82 20 83 14 84 15 85 19 86
REMARK SMILES IDX 16 87 18 88 17 89 22 90 23 91 24 92 25 93 26 94 29 95 27 96
REMARK SMILES IDX 28 97
REMARK H PARENT 3 6 87 24 55 35 8 76
REMARK Flexibility Score: inf
ROOT
ATOM      1  C   UNL A   1      39.399  21.304  25.697  1.00  0.00     0.023 C 
ENDROOT
BRANCH   1   2
ATOM      2  C   UNL A   1      39.641  20.095  26.588  1.00  0.00     0.116 C 
BRANCH   2   3
ATOM      3  N   UNL A   1      40.698  19.218  26.101  1.00  0.00    -0.352 N 
ATOM      4  O   UNL A   1      42.776  18.644  25.421  1.00  0.00    -0.269 OA
ATOM      5  C   UNL A   1      42.044  19.469  25.955  1.00  0.00     0.251 C 
ATOM      6  H   UNL A   1      40.408  18.315  25.839  1.00  0.00     0.163 HD
BRANCH   5   7
ATOM      7  C   UNL A   1      42.595  20.762  26.415  1.00  0.00     0.039 A 
ATOM      8  C   UNL A   1      42.622  21.063  27.775  1.00  0.00     0.014 A 
ATOM      9  C   UNL A   1      43.037  21.700  25.477  1.00  0.00     0.014 A 
ATOM     10  C   UNL A   1      42.893  22.361  28.181  1.00  0.00     0.010 A 
ATOM     11  C   UNL A   1      43.423  22.975  25.901  1.00  0.00     0.010 A 
ATOM     12  C   UNL A   1      43.309  23.332  27.252  1.00  0.00    -0.014 A 
BRANCH  12  13
ATOM     13  C   UNL A   1      43.662  24.685  27.758  1.00  0.00     0.031 A 
ATOM     14  C   UNL A   1      45.089  25.160  27.821  1.00  0.00     0.074 A 
ATOM     15  C   UNL A   1      42.657  25.521  28.083  1.00  0.00     0.049 A 
ATOM     16  N   UNL A   1      45.547  26.342  28.152  1.00  0.00    -0.248 NA
ATOM     17  C   UNL A   1      46.138  24.189  27.479  1.00  0.00     0.031 C 
ATOM     18  C   UNL A   1      41.236  25.162  28.084  1.00  0.00     0.029 A 
ATOM     19  N   UNL A   1      42.662  26.846  28.432  1.00  0.00    -0.354 N 
ATOM     20  C   UNL A   1      46.931  26.255  28.070  1.00  0.00     0.074 A 
ATOM     21  C   UNL A   1      47.243  24.895  27.688  1.00  0.00     0.031 C 
ATOM     22  C   UNL A   1      40.505  26.253  28.345  1.00  0.00     0.029 A 
ATOM     23  C   UNL A   1      41.405  27.371  28.600  1.00  0.00     0.049 A 
ATOM     24  H   UNL A   1      43.488  27.371  28.552  1.00  0.00     0.167 HD
ATOM     25  C   UNL A   1      47.852  27.225  28.287  1.00  0.00     0.037 A 
ATOM     26  C   UNL A   1      41.013  28.614  28.933  1.00  0.00     0.037 A 
ATOM     27  C   UNL A   1      47.534  28.582  28.658  1.00  0.00     0.049 A 
ATOM     28  C   UNL A   1      42.057  29.668  29.157  1.00  0.00     0.074 A 
ATOM     29  C   UNL A   1      48.397  29.639  28.894  1.00  0.00     0.029 A 
ATOM     30  N   UNL A   1      46.249  29.071  28.844  1.00  0.00    -0.354 N 
ATOM     31  N   UNL A   1      43.360  29.571  29.059  1.00  0.00    -0.248 NA
ATOM     32  C   UNL A   1      41.577  31.002  29.536  1.00  0.00     0.031 C 
ATOM     33  C   UNL A   1      47.637  30.756  29.258  1.00  0.00     0.029 A 
ATOM     34  C   UNL A   1      46.297  30.409  29.204  1.00  0.00     0.049 A 
ATOM     35  H   UNL A   1      45.424  28.544  28.737  1.00  0.00     0.167 HD
ATOM     36  C   UNL A   1      43.858  30.828  29.368  1.00  0.00     0.074 A 
ATOM     37  C   UNL A   1      42.712  31.681  29.612  1.00  0.00     0.031 C 
ATOM     38  C   UNL A   1      45.146  31.238  29.456  1.00  0.00     0.037 A 
BRANCH  25  39
ATOM     39  C   UNL A   1      49.303  26.863  28.133  1.00  0.00     0.064 A 
ATOM     40  C   UNL A   1      50.102  26.546  29.241  1.00  0.00     0.173 A 
ATOM     41  C   UNL A   1      49.882  26.764  26.858  1.00  0.00     0.173 A 
ATOM     42  F   UNL A   1      49.600  26.635  30.483  1.00  0.00    -0.203 F 
ATOM     43  C   UNL A   1      51.430  26.157  29.080  1.00  0.00     0.198 A 
ATOM     44  C   UNL A   1      51.203  26.351  26.699  1.00  0.00     0.198 A 
ATOM     45  F   UNL A   1      49.161  27.050  25.764  1.00  0.00    -0.203 F 
ATOM     46  F   UNL A   1      52.183  25.889  30.157  1.00  0.00    -0.200 F 
ATOM     47  C   UNL A   1      51.976  26.052  27.810  1.00  0.00     0.200 A 
ATOM     48  F   UNL A   1      51.726  26.237  25.470  1.00  0.00    -0.200 F 
ATOM     49  F   UNL A   1      53.250  25.664  27.657  1.00  0.00    -0.200 F 
ENDBRANCH  25  39
BRANCH  26  50
ATOM     50  C   UNL A   1      39.566  28.913  29.087  1.00  0.00     0.064 A 
ATOM     51  C   UNL A   1      38.930  28.809  30.331  1.00  0.00     0.173 A 
ATOM     52  C   UNL A   1      38.794  29.327  27.991  1.00  0.00     0.173 A 
ATOM     53  F   UNL A   1      39.622  28.403  31.405  1.00  0.00    -0.203 F 
ATOM     54  C   UNL A   1      37.572  29.088  30.468  1.00  0.00     0.198 A 
ATOM     55  C   UNL A   1      37.446  29.640  28.136  1.00  0.00     0.198 A 
ATOM     56  F   UNL A   1      39.359  29.452  26.781  1.00  0.00    -0.203 F 
ATOM     57  F   UNL A   1      36.977  28.938  31.659  1.00  0.00    -0.200 F 
ATOM     58  C   UNL A   1      36.833  29.511  29.372  1.00  0.00     0.200 A 
ATOM     59  F   UNL A   1      36.743  30.069  27.079  1.00  0.00    -0.200 F 
ATOM     60  F   UNL A   1      35.530  29.790  29.508  1.00  0.00    -0.200 F 
ENDBRANCH  26  50
BRANCH  38  61
ATOM     61  C   UNL A   1      45.372  32.673  29.828  1.00  0.00     0.064 A 
ATOM     62  C   UNL A   1      45.535  33.064  31.166  1.00  0.00     0.173 A 
ATOM     63  C   UNL A   1      45.422  33.667  28.840  1.00  0.00     0.173 A 
ATOM     64  F   UNL A   1      45.478  32.152  32.147  1.00  0.00    -0.203 F 
ATOM     65  C   UNL A   1      45.701  34.404  31.504  1.00  0.00     0.198 A 
ATOM     66  C   UNL A   1      45.618  35.003  29.180  1.00  0.00     0.198 A 
ATOM     67  F   UNL A   1      45.276  33.344  27.547  1.00  0.00    -0.203 F 
ATOM     68  F   UNL A   1      45.793  34.761  32.792  1.00  0.00    -0.200 F 
ATOM     69  C   UNL A   1      45.747  35.371  30.511  1.00  0.00     0.200 A 
ATOM     70  F   UNL A   1      45.671  35.936  28.219  1.00  0.00    -0.200 F 
ATOM     71  F   UNL A   1      45.901  36.661  30.838  1.00  0.00    -0.200 F 
ENDBRANCH  38  61
ENDBRANCH  12  13
ENDBRANCH   5   7
ENDBRANCH   2   3
ENDBRANCH   1   2
BRANCH   1  72
ATOM     72  C   UNL A   1      39.188  22.622  26.434  1.00  0.00     0.023 C 
BRANCH  72  73
ATOM     73  C   UNL A   1      37.889  23.349  26.109  1.00  0.00     0.116 C 
BRANCH  73  74
ATOM     74  N   UNL A   1      37.689  23.547  24.683  1.00  0.00    -0.352 N 
ATOM     75  C   UNL A   1      36.624  23.193  23.894  1.00  0.00     0.251 C 
ATOM     76  H   UNL A   1      38.428  23.999  24.214  1.00  0.00     0.163 HD
ATOM     77  O   UNL A   1      36.691  23.316  22.676  1.00  0.00    -0.269 OA
BRANCH  75  78
ATOM     78  C   UNL A   1      35.382  22.673  24.505  1.00  0.00     0.041 A 
ATOM     79  C   UNL A   1      35.120  21.304  24.454  1.00  0.00     0.022 A 
ATOM     80  C   UNL A   1      34.454  23.544  25.071  1.00  0.00     0.035 A 
ATOM     81  C   UNL A   1      33.940  20.778  25.011  1.00  0.00    -0.013 A 
ATOM     82  C   UNL A   1      33.289  23.047  25.640  1.00  0.00     0.084 A 
ATOM     83  C   UNL A   1      33.028  21.669  25.608  1.00  0.00     0.030 A 
BRANCH  81  84
ATOM     84  C   UNL A   1      33.684  19.337  24.955  1.00  0.00     0.018 A 
ATOM     85  C   UNL A   1      34.640  18.410  24.577  1.00  0.00     0.123 A 
ATOM     86  C   UNL A   1      32.469  18.772  25.313  1.00  0.00     0.123 A 
ATOM     87  N   UNL A   1      34.443  17.073  24.559  1.00  0.00    -0.244 NA
ATOM     88  N   UNL A   1      32.211  17.448  25.316  1.00  0.00    -0.244 NA
ATOM     89  C   UNL A   1      33.226  16.660  24.938  1.00  0.00     0.221 A 
ENDBRANCH  81  84
BRANCH  82  90
ATOM     90  S   UNL A   1      32.107  24.123  26.432  1.00  0.00     0.243 S 
ATOM     91  O   UNL A   1      31.501  23.336  27.490  1.00  0.00    -0.207 OA
ATOM     92  O   UNL A   1      32.812  25.353  26.702  1.00  0.00    -0.207 OA
BRANCH  90  93
ATOM     93  N   UNL A   1      30.908  24.450  25.306  1.00  0.00    -0.198 NA
ATOM     94  C   UNL A   1      30.931  23.860  23.962  1.00  0.00     0.102 C 
ATOM     95  C   UNL A   1      30.172  25.723  25.312  1.00  0.00     0.102 C 
ATOM     96  C   UNL A   1      30.670  25.035  23.033  1.00  0.00     0.018 C 
ATOM     97  C   UNL A   1      29.809  25.985  23.851  1.00  0.00     0.018 C 
ENDBRANCH  90  93
ENDBRANCH  82  90
ENDBRANCH  75  78
ENDBRANCH  73  74
ENDBRANCH  72  73
ENDBRANCH   1  72
TORSDOF 14
ENDMDL
MODEL 2
REMARK VINA RESULT:     -12.6      4.397      9.474
REMARK SMILES O=C(NCCCCNC(=O)c1cc(-c2cncnc2)cc(S(=O)(=O)N2CCCC2)c1)c1ccc(-c2c3nc(c(-c4c(F)c(F)c(F)c(F)c4F)c4ccc([nH]4)c(-c4c(F)c(F)c(F)c(F)c4F)c4nc(c(-c5c(F)c(F)c(F)c(F)c5F)c5ccc2[nH]5)C=C4)C=C3)cc1
REMARK SMILES IDX 5 1 4 2 3 3 1 4 2 5 31 7 32 8 93 9 33 10 92 11 34 12 35 13
REMARK SMILES IDX 36 14 86 15 37 16 91 17 85 18 87 19 38 20 90 21 84 22 83 23
REMARK SMILES IDX 39 25 71 26 51 27 70 28 52 29 55 30 69 31 88 32 53 33 54 34
REMARK SMILES IDX 68 36 89 37 56 38 40 39 41 40 49 41 42 42 43 43 47 44 50 45
REMARK SMILES IDX 44 46 45 47 48 48 46 49 72 50 73 51 81 52 74 53 75 54 79 55
REMARK SMILES IDX 82 56 76 57 77 58 80 59 78 60 57 61 58 62 66 63 59 64 60 65
REMARK SMILES IDX 64 66 67 67 61 68 62 69 65 70 63 71 6 72 7 73 8 74 9 75
REMARK SMILES IDX 10 77 11 78 12 79 30 80 13 81 21 82 20 83 14 84 15 85 19 86
REMARK SMILES IDX 16 87 18 88 17 89 22 90 23 91 24 92 25 93 26 94 29 95 27 96
REMARK SMILES IDX 28 97
REMARK H PARENT 3 6 87 24 55 35 8 76
REMARK Flexibility Score: inf
ROOT
ATOM      1  C   UNL A   1      33.401  27.638  25.937  1.00  0.00     0.023 C 
ENDROOT
BRANCH   1   2
ATOM      2  C   UNL A   1      33.723  28.974  25.284  1.00  0.00     0.116 C 
BRANCH   2   3
ATOM      3  N   UNL A   1      33.082  30.108  25.938  1.00  0.00    -0.352 N 
ATOM      4  O   UNL A   1      32.780  31.704  27.509  1.00  0.00    -0.269 OA
ATOM      5  C   UNL A   1      33.506  30.847  27.020  1.00  0.00     0.251 C 
ATOM      6  H   UNL A   1      32.222  30.387  25.548  1.00  0.00     0.163 HD
BRANCH   5   7
ATOM      7  C   UNL A   1      34.832  30.571  27.612  1.00  0.00     0.039 A 
ATOM      8  C   UNL A   1      35.089  29.334  28.200  1.00  0.00     0.014 A 
ATOM      9  C   UNL A   1      35.807  31.573  27.626  1.00  0.00     0.014 A 
ATOM     10  C   UNL A   1      36.227  29.170  28.975  1.00  0.00     0.010 A 
ATOM     11  C   UNL A   1      37.008  31.363  28.312  1.00  0.00     0.010 A 
ATOM     12  C   UNL A   1      37.208  30.177  29.032  1.00  0.00    -0.014 A 
BRANCH  12  13
ATOM     13  C   UNL A   1      38.445  29.912  29.815  1.00  0.00     0.031 A 
ATOM     14  C   UNL A   1      38.620  30.429  31.217  1.00  0.00     0.074 A 
ATOM     15  C   UNL A   1      39.383  29.116  29.266  1.00  0.00     0.049 A 
ATOM     16  N   UNL A   1      39.600  30.205  32.058  1.00  0.00    -0.248 NA
ATOM     17  C   UNL A   1      37.572  31.314  31.746  1.00  0.00     0.031 C 
ATOM     18  C   UNL A   1      39.330  28.577  27.904  1.00  0.00     0.029 A 
ATOM     19  N   UNL A   1      40.534  28.585  29.787  1.00  0.00    -0.354 N 
ATOM     20  C   UNL A   1      39.295  30.927  33.205  1.00  0.00     0.074 A 
ATOM     21  C   UNL A   1      38.053  31.623  32.944  1.00  0.00     0.031 C 
ATOM     22  C   UNL A   1      40.359  27.739  27.722  1.00  0.00     0.029 A 
ATOM     23  C   UNL A   1      41.180  27.734  28.925  1.00  0.00     0.049 A 
ATOM     24  H   UNL A   1      40.865  28.795  30.691  1.00  0.00     0.167 HD
ATOM     25  C   UNL A   1      39.985  30.994  34.369  1.00  0.00     0.037 A 
ATOM     26  C   UNL A   1      42.318  27.033  29.079  1.00  0.00     0.037 A 
ATOM     27  C   UNL A   1      41.218  30.291  34.627  1.00  0.00     0.049 A 
ATOM     28  C   UNL A   1      43.054  27.121  30.383  1.00  0.00     0.074 A 
ATOM     29  C   UNL A   1      41.989  30.290  35.777  1.00  0.00     0.029 A 
ATOM     30  N   UNL A   1      41.857  29.458  33.720  1.00  0.00    -0.354 N 
ATOM     31  N   UNL A   1      42.742  27.797  31.462  1.00  0.00    -0.248 NA
ATOM     32  C   UNL A   1      44.298  26.350  30.492  1.00  0.00     0.031 C 
ATOM     33  C   UNL A   1      43.113  29.487  35.553  1.00  0.00     0.029 A 
ATOM     34  C   UNL A   1      43.019  28.949  34.280  1.00  0.00     0.049 A 
ATOM     35  H   UNL A   1      41.534  29.258  32.811  1.00  0.00     0.167 HD
ATOM     36  C   UNL A   1      43.752  27.537  32.377  1.00  0.00     0.074 A 
ATOM     37  C   UNL A   1      44.661  26.606  31.740  1.00  0.00     0.031 C 
ATOM     38  C   UNL A   1      43.919  28.034  33.626  1.00  0.00     0.037 A 
BRANCH  25  39
ATOM     39  C   UNL A   1      39.433  31.863  35.465  1.00  0.00     0.064 A 
ATOM     40  C   UNL A   1      38.563  31.350  36.440  1.00  0.00     0.173 A 
ATOM     41  C   UNL A   1      39.831  33.203  35.582  1.00  0.00     0.173 A 
ATOM     42  F   UNL A   1      38.143  30.078  36.367  1.00  0.00    -0.203 F 
ATOM     43  C   UNL A   1      38.103  32.151  37.482  1.00  0.00     0.198 A 
ATOM     44  C   UNL A   1      39.388  33.994  36.640  1.00  0.00     0.198 A 
ATOM     45  F   UNL A   1      40.666  33.741  34.681  1.00  0.00    -0.203 F 
ATOM     46  F   UNL A   1      37.247  31.648  38.384  1.00  0.00    -0.200 F 
ATOM     47  C   UNL A   1      38.522  33.469  37.586  1.00  0.00     0.200 A 
ATOM     48  F   UNL A   1      39.805  35.264  36.746  1.00  0.00    -0.200 F 
ATOM     49  F   UNL A   1      38.089  34.234  38.598  1.00  0.00    -0.200 F 
ENDBRANCH  25  39
BRANCH  26  50
ATOM     50  C   UNL A   1      42.827  26.202  27.958  1.00  0.00     0.064 A 
ATOM     51  C   UNL A   1      43.686  26.737  26.988  1.00  0.00     0.173 A 
ATOM     52  C   UNL A   1      42.476  24.849  27.844  1.00  0.00     0.173 A 
ATOM     53  F   UNL A   1      44.038  28.030  27.045  1.00  0.00    -0.203 F 
ATOM     54  C   UNL A   1      44.157  25.954  25.937  1.00  0.00     0.198 A 
ATOM     55  C   UNL A   1      42.976  24.058  26.814  1.00  0.00     0.198 A 
ATOM     56  F   UNL A   1      41.664  24.287  28.753  1.00  0.00    -0.203 F 
ATOM     57  F   UNL A   1      44.942  26.499  24.998  1.00  0.00    -0.200 F 
ATOM     58  C   UNL A   1      43.809  24.613  25.856  1.00  0.00     0.200 A 
ATOM     59  F   UNL A   1      42.654  22.759  26.753  1.00  0.00    -0.200 F 
ATOM     60  F   UNL A   1      44.273  23.858  24.851  1.00  0.00    -0.200 F 
ENDBRANCH  26  50
BRANCH  38  61
ATOM     61  C   UNL A   1      45.131  27.571  34.377  1.00  0.00     0.064 A 
ATOM     62  C   UNL A   1      45.101  26.416  35.174  1.00  0.00     0.173 A 
ATOM     63  C   UNL A   1      46.333  28.289  34.305  1.00  0.00     0.173 A 
ATOM     64  F   UNL A   1      43.969  25.706  35.289  1.00  0.00    -0.203 F 
ATOM     65  C   UNL A   1      46.220  26.019  35.901  1.00  0.00     0.198 A 
ATOM     66  C   UNL A   1      47.459  27.872  35.010  1.00  0.00     0.198 A 
ATOM     67  F   UNL A   1      46.415  29.398  33.554  1.00  0.00    -0.203 F 
ATOM     68  F   UNL A   1      46.149  24.948  36.703  1.00  0.00    -0.200 F 
ATOM     69  C   UNL A   1      47.398  26.745  35.815  1.00  0.00     0.200 A 
ATOM     70  F   UNL A   1      48.600  28.570  34.919  1.00  0.00    -0.200 F 
ATOM     71  F   UNL A   1      48.472  26.365  36.520  1.00  0.00    -0.200 F 
ENDBRANCH  38  61
ENDBRANCH  12  13
ENDBRANCH   5   7
ENDBRANCH   2   3
ENDBRANCH   1   2
BRANCH   1  72
ATOM     72  C   UNL A   1      31.975  27.139  25.727  1.00  0.00     0.023 C 
BRANCH  72  73
ATOM     73  C   UNL A   1      31.842  25.898  24.852  1.00  0.00     0.116 C 
BRANCH  73  74
ATOM     74  N   UNL A   1      32.500  26.038  23.564  1.00  0.00    -0.352 N 
ATOM     75  C   UNL A   1      33.493  25.275  23.004  1.00  0.00     0.251 C 
ATOM     76  H   UNL A   1      32.188  26.792  23.013  1.00  0.00     0.163 HD
ATOM     77  O   UNL A   1      34.028  25.629  21.959  1.00  0.00    -0.269 OA
BRANCH  75  78
ATOM     78  C   UNL A   1      33.920  24.015  23.649  1.00  0.00     0.041 A 
ATOM     79  C   UNL A   1      35.188  23.942  24.228  1.00  0.00     0.022 A 
ATOM     80  C   UNL A   1      33.094  22.894  23.627  1.00  0.00     0.035 A 
ATOM     81  C   UNL A   1      35.632  22.754  24.836  1.00  0.00    -0.013 A 
ATOM     82  C   UNL A   1      33.505  21.714  24.233  1.00  0.00     0.084 A 
ATOM     83  C   UNL A   1      34.771  21.640  24.832  1.00  0.00     0.030 A 
BRANCH  81  84
ATOM     84  C   UNL A   1      36.963  22.697  25.445  1.00  0.00     0.018 A 
ATOM     85  C   UNL A   1      37.784  21.585  25.369  1.00  0.00     0.123 A 
ATOM     86  C   UNL A   1      37.532  23.767  26.119  1.00  0.00     0.123 A 
ATOM     87  N   UNL A   1      39.032  21.520  25.883  1.00  0.00    -0.244 NA
ATOM     88  N   UNL A   1      38.771  23.764  26.653  1.00  0.00    -0.244 NA
ATOM     89  C   UNL A   1      39.464  22.628  26.501  1.00  0.00     0.221 A 
ENDBRANCH  81  84
BRANCH  82  90
ATOM     90  S   UNL A   1      32.450  20.277  24.283  1.00  0.00     0.243 S 
ATOM     91  O   UNL A   1      31.407  20.584  25.243  1.00  0.00    -0.207 OA
ATOM     92  O   UNL A   1      32.153  19.957  22.907  1.00  0.00    -0.207 OA
BRANCH  90  93
ATOM     93  N   UNL A   1      33.360  19.021  24.921  1.00  0.00    -0.198 NA
ATOM     94  C   UNL A   1      34.569  18.527  24.251  1.00  0.00     0.102 C 
ATOM     95  C   UNL A   1      32.750  17.972  25.752  1.00  0.00     0.102 C 
ATOM     96  C   UNL A   1      34.403  17.015  24.245  1.00  0.00     0.018 C 
ATOM     97  C   UNL A   1      33.582  16.717  25.491  1.00  0.00     0.018 C 
ENDBRANCH  90  93
ENDBRANCH  82  90
ENDBRANCH  75  78
ENDBRANCH  73  74
ENDBRANCH  72  73
ENDBRANCH   1  72
TORSDOF 14
ENDMDL
MODEL 3
REMARK VINA RESULT:     -12.5      5.460     10.907
REMARK SMILES O=C(NCCCCNC(=O)c1cc(-c2cncnc2)cc(S(=O)(=O)N2CCCC2)c1)c1ccc(-c2c3nc(c(-c4c(F)c(F)c(F)c(F)c4F)c4ccc([nH]4)c(-c4c(F)c(F)c(F)c(F)c4F)c4nc(c(-c5c(F)c(F)c(F)c(F)c5F)c5ccc2[nH]5)C=C4)C=C3)cc1
REMARK SMILES IDX 5 1 4 2 3 3 1 4 2 5 31 7 32 8 93 9 33 10 92 11 34 12 35 13
REMARK SMILES IDX 36 14 86 15 37 16 91 17 85 18 87 19 38 20 90 21 84 22 83 23
REMARK SMILES IDX 39 25 71 26 51 27 70 28 52 29 55 30 69 31 88 32 53 33 54 34
REMARK SMILES IDX 68 36 89 37 56 38 40 39 41 40 49 41 42 42 43 43 47 44 50 45
REMARK SMILES IDX 44 46 45 47 48 48 46 49 72 50 73 51 81 52 74 53 75 54 79 55
REMARK SMILES IDX 82 56 76 57 77 58 80 59 78 60 57 61 58 62 66 63 59 64 60 65
REMARK SMILES IDX 64 66 67 67 61 68 62 69 65 70 63 71 6 72 7 73 8 74 9 75
REMARK SMILES IDX 10 77 11 78 12 79 30 80 13 81 21 82 20 83 14 84 15 85 19 86
REMARK SMILES IDX 16 87 18 88 17 89 22 90 23 91 24 92 25 93 26 94 29 95 27 96
REMARK SMILES IDX 28 97
REMARK H PARENT 3 6 87 24 55 35 8 76
REMARK Flexibility Score: inf
ROOT
ATOM      1  C   UNL A   1      33.264  31.969  27.910  1.00  0.00     0.023 C 
ENDROOT
BRANCH   1   2
ATOM      2  C   UNL A   1      33.408  33.307  27.199  1.00  0.00     0.116 C 
BRANCH   2   3
ATOM      3  N   UNL A   1      32.813  34.419  27.929  1.00  0.00    -0.352 N 
ATOM      4  O   UNL A   1      32.476  35.822  29.668  1.00  0.00    -0.269 OA
ATOM      5  C   UNL A   1      33.163  34.950  29.150  1.00  0.00     0.251 C 
ATOM      6  H   UNL A   1      32.049  34.853  27.484  1.00  0.00     0.163 HD
BRANCH   5   7
ATOM      7  C   UNL A   1      34.358  34.433  29.850  1.00  0.00     0.039 A 
ATOM      8  C   UNL A   1      35.624  34.622  29.300  1.00  0.00     0.014 A 
ATOM      9  C   UNL A   1      34.207  33.709  31.036  1.00  0.00     0.014 A 
ATOM     10  C   UNL A   1      36.703  33.920  29.816  1.00  0.00     0.010 A 
ATOM     11  C   UNL A   1      35.320  33.097  31.622  1.00  0.00     0.010 A 
ATOM     12  C   UNL A   1      36.570  33.158  30.991  1.00  0.00    -0.014 A 
BRANCH  12  13
ATOM     13  C   UNL A   1      37.781  32.493  31.540  1.00  0.00     0.031 A 
ATOM     14  C   UNL A   1      38.301  32.807  32.917  1.00  0.00     0.074 A 
ATOM     15  C   UNL A   1      38.362  31.527  30.803  1.00  0.00     0.049 A 
ATOM     16  N   UNL A   1      39.290  32.246  33.569  1.00  0.00    -0.248 NA
ATOM     17  C   UNL A   1      37.639  33.891  33.657  1.00  0.00     0.031 C 
ATOM     18  C   UNL A   1      37.958  31.154  29.444  1.00  0.00     0.029 A 
ATOM     19  N   UNL A   1      39.378  30.656  31.096  1.00  0.00    -0.354 N 
ATOM     20  C   UNL A   1      39.375  32.912  34.785  1.00  0.00     0.074 A 
ATOM     21  C   UNL A   1      38.358  33.942  34.772  1.00  0.00     0.031 C 
ATOM     22  C   UNL A   1      38.667  30.088  29.050  1.00  0.00     0.029 A 
ATOM     23  C   UNL A   1      39.621  29.746  30.097  1.00  0.00     0.049 A 
ATOM     24  H   UNL A   1      39.884  30.680  31.941  1.00  0.00     0.167 HD
ATOM     25  C   UNL A   1      40.221  32.677  35.818  1.00  0.00     0.037 A 
ATOM     26  C   UNL A   1      40.522  28.749  30.022  1.00  0.00     0.037 A 
ATOM     27  C   UNL A   1      41.225  31.644  35.830  1.00  0.00     0.049 A 
ATOM     28  C   UNL A   1      41.436  28.510  31.187  1.00  0.00     0.074 A 
ATOM     29  C   UNL A   1      42.126  31.323  36.832  1.00  0.00     0.029 A 
ATOM     30  N   UNL A   1      41.460  30.757  34.788  1.00  0.00    -0.354 N 
ATOM     31  N   UNL A   1      41.493  29.139  32.335  1.00  0.00    -0.248 NA
ATOM     32  C   UNL A   1      42.411  27.422  31.046  1.00  0.00     0.031 C 
ATOM     33  C   UNL A   1      42.929  30.269  36.384  1.00  0.00     0.029 A 
ATOM     34  C   UNL A   1      42.499  29.900  35.120  1.00  0.00     0.049 A 
ATOM     35  H   UNL A   1      40.963  30.740  33.939  1.00  0.00     0.167 HD
ATOM     36  C   UNL A   1      42.510  28.529  33.052  1.00  0.00     0.074 A 
ATOM     37  C   UNL A   1      43.012  27.449  32.227  1.00  0.00     0.031 C 
ATOM     38  C   UNL A   1      42.994  28.840  34.279  1.00  0.00     0.037 A 
BRANCH  25  39
ATOM     39  C   UNL A   1      40.106  33.556  37.033  1.00  0.00     0.064 A 
ATOM     40  C   UNL A   1      40.884  34.714  37.178  1.00  0.00     0.173 A 
ATOM     41  C   UNL A   1      39.158  33.275  38.029  1.00  0.00     0.173 A 
ATOM     42  F   UNL A   1      41.813  35.023  36.259  1.00  0.00    -0.203 F 
ATOM     43  C   UNL A   1      40.728  35.550  38.281  1.00  0.00     0.198 A 
ATOM     44  C   UNL A   1      38.987  34.127  39.119  1.00  0.00     0.198 A 
ATOM     45  F   UNL A   1      38.384  32.185  37.937  1.00  0.00    -0.203 F 
ATOM     46  F   UNL A   1      41.506  36.634  38.413  1.00  0.00    -0.200 F 
ATOM     47  C   UNL A   1      39.775  35.260  39.245  1.00  0.00     0.200 A 
ATOM     48  F   UNL A   1      38.057  33.852  40.043  1.00  0.00    -0.200 F 
ATOM     49  F   UNL A   1      39.617  36.074  40.299  1.00  0.00    -0.200 F 
ENDBRANCH  25  39
BRANCH  26  50
ATOM     50  C   UNL A   1      40.603  27.922  28.791  1.00  0.00     0.064 A 
ATOM     51  C   UNL A   1      41.416  28.297  27.714  1.00  0.00     0.173 A 
ATOM     52  C   UNL A   1      39.877  26.727  28.676  1.00  0.00     0.173 A 
ATOM     53  F   UNL A   1      42.117  29.439  27.770  1.00  0.00    -0.203 F 
ATOM     54  C   UNL A   1      41.485  27.518  26.562  1.00  0.00     0.198 A 
ATOM     55  C   UNL A   1      39.974  25.930  27.539  1.00  0.00     0.198 A 
ATOM     56  F   UNL A   1      39.091  26.318  29.684  1.00  0.00    -0.203 F 
ATOM     57  F   UNL A   1      42.236  27.921  25.527  1.00  0.00    -0.200 F 
ATOM     58  C   UNL A   1      40.771  26.331  26.478  1.00  0.00     0.200 A 
ATOM     59  F   UNL A   1      39.299  24.775  27.474  1.00  0.00    -0.200 F 
ATOM     60  F   UNL A   1      40.847  25.577  25.374  1.00  0.00    -0.200 F 
ENDBRANCH  26  50
BRANCH  38  61
ATOM     61  C   UNL A   1      44.122  27.995  34.791  1.00  0.00     0.064 A 
ATOM     62  C   UNL A   1      45.461  28.352  34.571  1.00  0.00     0.173 A 
ATOM     63  C   UNL A   1      43.863  26.816  35.505  1.00  0.00     0.173 A 
ATOM     64  F   UNL A   1      45.759  29.461  33.879  1.00  0.00    -0.203 F 
ATOM     65  C   UNL A   1      46.500  27.538  35.014  1.00  0.00     0.198 A 
ATOM     66  C   UNL A   1      44.905  26.020  35.973  1.00  0.00     0.198 A 
ATOM     67  F   UNL A   1      42.600  26.434  35.745  1.00  0.00    -0.203 F 
ATOM     68  F   UNL A   1      47.769  27.866  34.739  1.00  0.00    -0.200 F 
ATOM     69  C   UNL A   1      46.221  26.375  35.718  1.00  0.00     0.200 A 
ATOM     70  F   UNL A   1      44.635  24.902  36.660  1.00  0.00    -0.200 F 
ATOM     71  F   UNL A   1      47.222  25.590  36.138  1.00  0.00    -0.200 F 
ENDBRANCH  38  61
ENDBRANCH  12  13
ENDBRANCH   5   7
ENDBRANCH   2   3
ENDBRANCH   1   2
BRANCH   1  72
ATOM     72  C   UNL A   1      34.474  31.047  27.809  1.00  0.00     0.023 C 
BRANCH  72  73
ATOM     73  C   UNL A   1      34.211  29.698  27.150  1.00  0.00     0.116 C 
BRANCH  73  74
ATOM     74  N   UNL A   1      33.163  28.938  27.811  1.00  0.00    -0.352 N 
ATOM     75  C   UNL A   1      32.072  28.305  27.271  1.00  0.00     0.251 C 
ATOM     76  H   UNL A   1      33.247  28.868  28.789  1.00  0.00     0.163 HD
ATOM     77  O   UNL A   1      31.211  27.828  28.002  1.00  0.00    -0.269 OA
BRANCH  75  78
ATOM     78  C   UNL A   1      31.930  28.183  25.804  1.00  0.00     0.041 A 
ATOM     79  C   UNL A   1      31.029  29.013  25.136  1.00  0.00     0.022 A 
ATOM     80  C   UNL A   1      32.639  27.210  25.104  1.00  0.00     0.035 A 
ATOM     81  C   UNL A   1      30.857  28.913  23.744  1.00  0.00    -0.013 A 
ATOM     82  C   UNL A   1      32.496  27.101  23.727  1.00  0.00     0.084 A 
ATOM     83  C   UNL A   1      31.606  27.945  23.047  1.00  0.00     0.030 A 
BRANCH  81  84
ATOM     84  C   UNL A   1      29.913  29.797  23.057  1.00  0.00     0.018 A 
ATOM     85  C   UNL A   1      29.273  30.854  23.680  1.00  0.00     0.123 A 
ATOM     86  C   UNL A   1      29.607  29.674  21.710  1.00  0.00     0.123 A 
ATOM     87  N   UNL A   1      28.432  31.711  23.060  1.00  0.00    -0.244 NA
ATOM     88  N   UNL A   1      28.777  30.496  21.035  1.00  0.00    -0.244 NA
ATOM     89  C   UNL A   1      28.231  31.485  21.754  1.00  0.00     0.221 A 
ENDBRANCH  81  84
BRANCH  82  90
ATOM     90  S   UNL A   1      33.435  25.912  22.785  1.00  0.00     0.243 S 
ATOM     91  O   UNL A   1      33.653  26.518  21.486  1.00  0.00    -0.207 OA
ATOM     92  O   UNL A   1      34.530  25.511  23.635  1.00  0.00    -0.207 OA
BRANCH  90  93
ATOM     93  N   UNL A   1      32.445  24.578  22.552  1.00  0.00    -0.198 NA
ATOM     94  C   UNL A   1      31.093  24.512  23.119  1.00  0.00     0.102 C 
ATOM     95  C   UNL A   1      33.001  23.231  22.354  1.00  0.00     0.102 C 
ATOM     96  C   UNL A   1      31.027  23.140  23.771  1.00  0.00     0.018 C 
ATOM     97  C   UNL A   1      31.961  22.276  22.938  1.00  0.00     0.018 C 
ENDBRANCH  90  93
ENDBRANCH  82  90
ENDBRANCH  75  78
ENDBRANCH  73  74
ENDBRANCH  72  73
ENDBRANCH   1  72
TORSDOF 14
ENDMDL
