MODEL 1
REMARK VINA RESULT:     -12.3      0.000      0.000
REMARK SMILES COCc1cccc(C(=O)N2C[C@@H](O)C[C@@H]2C(=O)NCCCCNC(=O)c2ccc(-c3c4nc(c(-c5c(F)c(F)c(F)c(F)c5F)c5ccc([nH]5)c(-c5c(F)c(F)c(F)c(F)c5F)c5nc(c(-c6c(F)c(F)c(F)c(F)c6F)c6ccc3[nH]6)C=C5)C=C4)cc2)c1
REMARK SMILES IDX 20 1 19 2 17 3 18 4 16 6 11 7 12 8 13 9 15 10 9 11 10 12
REMARK SMILES IDX 8 13 4 14 5 15 90 16 6 17 7 18 3 19 2 20 1 21 14 22 21 24
REMARK SMILES IDX 22 25 23 26 24 27 25 28 26 30 27 31 28 32 89 33 29 34 88 35
REMARK SMILES IDX 30 36 31 37 32 38 82 39 33 40 87 41 81 42 83 43 34 44 86 45
REMARK SMILES IDX 80 46 79 47 35 49 67 50 47 51 66 52 48 53 51 54 65 55 84 56
REMARK SMILES IDX 49 57 50 58 64 60 85 61 52 62 36 63 37 64 45 65 38 66 39 67
REMARK SMILES IDX 43 68 46 69 40 70 41 71 44 72 42 73 68 74 69 75 77 76 70 77
REMARK SMILES IDX 71 78 75 79 78 80 72 81 73 82 76 83 74 84 53 85 54 86 62 87
REMARK SMILES IDX 55 88 56 89 60 90 63 91 57 92 58 93 61 94 59 95
REMARK H PARENT 19 5 14 23 24 29 83 48 51 59
REMARK Flexibility Score: inf
ROOT
ATOM      1  C   UNL A   1      32.591  29.602  26.896  1.00  0.00     0.116 C 
ENDROOT
BRANCH   1   2
ATOM      2  N   UNL A   1      31.813  28.390  27.094  1.00  0.00    -0.354 N 
ATOM      3  C   UNL A   1      31.979  27.147  26.551  1.00  0.00     0.242 C 
ATOM      4  O   UNL A   1      31.139  26.283  26.818  1.00  0.00    -0.273 OA
ATOM      5  H   UNL A   1      31.052  28.478  27.714  1.00  0.00     0.163 HD
BRANCH   3   6
ATOM      6  C   UNL A   1      33.119  26.882  25.548  1.00  0.00     0.177 C 
ATOM      7  N   UNL A   1      32.562  26.865  24.196  1.00  0.00    -0.324 N 
ATOM      8  C   UNL A   1      32.970  25.667  23.489  1.00  0.00     0.152 C 
ATOM      9  C   UNL A   1      33.087  24.642  24.606  1.00  0.00     0.136 C 
ATOM     10  C   UNL A   1      33.698  25.468  25.743  1.00  0.00     0.069 C 
BRANCH   7  11
ATOM     11  C   UNL A   1      32.086  28.009  23.597  1.00  0.00     0.254 C 
ATOM     12  O   UNL A   1      32.829  28.943  23.304  1.00  0.00    -0.269 OA
BRANCH  11  13
ATOM     13  C   UNL A   1      30.597  28.162  23.509  1.00  0.00     0.040 A 
ATOM     14  C   UNL A   1      28.610  29.454  22.880  1.00  0.00    -0.022 A 
ATOM     15  C   UNL A   1      27.817  28.328  23.125  1.00  0.00     0.006 A 
ATOM     16  C   UNL A   1      29.997  29.345  23.055  1.00  0.00     0.020 A 
ATOM     17  C   UNL A   1      28.399  27.134  23.560  1.00  0.00     0.001 A 
ATOM     18  C   UNL A   1      29.782  27.053  23.757  1.00  0.00     0.014 A 
BRANCH  14  19
ATOM     19  C   UNL A   1      28.009  30.766  22.439  1.00  0.00     0.195 C 
BRANCH  19  20
ATOM     20  O   UNL A   1      28.247  31.834  23.355  1.00  0.00    -0.380 OA
ATOM     21  C   UNL A   1      28.778  33.008  22.754  1.00  0.00     0.195 C 
ENDBRANCH  19  20
ENDBRANCH  14  19
ENDBRANCH  11  13
ENDBRANCH   7  11
BRANCH   9  22
ATOM     22  O   UNL A   1      33.894  23.533  24.258  1.00  0.00    -0.391 OA
ATOM     23  H   UNL A   1      33.397  22.713  24.404  1.00  0.00     0.211 HD
ENDBRANCH   9  22
ENDBRANCH   3   6
ENDBRANCH   1   2
BRANCH   1  24
ATOM     24  C   UNL A   1      31.830  30.664  26.103  1.00  0.00     0.023 C 
BRANCH  24  25
ATOM     25  C   UNL A   1      31.516  31.951  26.862  1.00  0.00     0.023 C 
BRANCH  25  26
ATOM     26  C   UNL A   1      32.726  32.762  27.309  1.00  0.00     0.116 C 
BRANCH  26  27
ATOM     27  N   UNL A   1      32.409  34.147  27.626  1.00  0.00    -0.352 N 
ATOM     28  C   UNL A   1      32.993  34.982  28.546  1.00  0.00     0.251 C 
ATOM     29  H   UNL A   1      31.673  34.541  27.106  1.00  0.00     0.163 HD
ATOM     30  O   UNL A   1      32.529  36.102  28.751  1.00  0.00    -0.269 OA
BRANCH  28  31
ATOM     31  C   UNL A   1      34.160  34.520  29.328  1.00  0.00     0.039 A 
ATOM     32  C   UNL A   1      33.945  33.932  30.577  1.00  0.00     0.014 A 
ATOM     33  C   UNL A   1      35.457  34.641  28.822  1.00  0.00     0.014 A 
ATOM     34  C   UNL A   1      35.021  33.390  31.282  1.00  0.00     0.010 A 
ATOM     35  C   UNL A   1      36.518  34.038  29.491  1.00  0.00     0.010 A 
ATOM     36  C   UNL A   1      36.310  33.401  30.724  1.00  0.00    -0.014 A 
BRANCH  36  37
ATOM     37  C   UNL A   1      37.453  32.742  31.404  1.00  0.00     0.031 A 
ATOM     38  C   UNL A   1      38.155  31.588  30.748  1.00  0.00     0.074 A 
ATOM     39  C   UNL A   1      37.803  33.127  32.646  1.00  0.00     0.049 A 
ATOM     40  N   UNL A   1      39.101  30.815  31.221  1.00  0.00    -0.248 NA
ATOM     41  C   UNL A   1      37.716  31.236  29.388  1.00  0.00     0.031 C 
ATOM     42  C   UNL A   1      37.166  34.201  33.411  1.00  0.00     0.029 A 
ATOM     43  N   UNL A   1      38.771  32.647  33.493  1.00  0.00    -0.354 N 
ATOM     44  C   UNL A   1      39.352  29.876  30.229  1.00  0.00     0.074 A 
ATOM     45  C   UNL A   1      38.431  30.147  29.147  1.00  0.00     0.031 C 
ATOM     46  C   UNL A   1      37.769  34.309  34.606  1.00  0.00     0.029 A 
ATOM     47  C   UNL A   1      38.810  33.290  34.706  1.00  0.00     0.049 A 
ATOM     48  H   UNL A   1      39.379  31.910  33.253  1.00  0.00     0.167 HD
ATOM     49  C   UNL A   1      40.280  28.890  30.216  1.00  0.00     0.037 A 
ATOM     50  C   UNL A   1      39.592  33.074  35.781  1.00  0.00     0.037 A 
ATOM     51  C   UNL A   1      41.218  28.645  31.279  1.00  0.00     0.049 A 
ATOM     52  C   UNL A   1      40.625  31.982  35.734  1.00  0.00     0.074 A 
ATOM     53  C   UNL A   1      42.240  27.713  31.331  1.00  0.00     0.029 A 
ATOM     54  N   UNL A   1      41.250  29.340  32.479  1.00  0.00    -0.354 N 
ATOM     55  N   UNL A   1      40.894  31.140  34.768  1.00  0.00    -0.248 NA
ATOM     56  C   UNL A   1      41.465  31.814  36.929  1.00  0.00     0.031 C 
ATOM     57  C   UNL A   1      42.868  27.821  32.576  1.00  0.00     0.029 A 
ATOM     58  C   UNL A   1      42.265  28.848  33.284  1.00  0.00     0.049 A 
ATOM     59  H   UNL A   1      40.642  30.075  32.722  1.00  0.00     0.167 HD
ATOM     60  C   UNL A   1      41.949  30.362  35.222  1.00  0.00     0.074 A 
ATOM     61  C   UNL A   1      42.280  30.839  36.550  1.00  0.00     0.031 C 
ATOM     62  C   UNL A   1      42.587  29.342  34.597  1.00  0.00     0.037 A 
BRANCH  49  63
ATOM     63  C   UNL A   1      40.331  28.005  29.006  1.00  0.00     0.064 A 
ATOM     64  C   UNL A   1      39.618  26.799  28.948  1.00  0.00     0.173 A 
ATOM     65  C   UNL A   1      41.073  28.385  27.878  1.00  0.00     0.173 A 
ATOM     66  F   UNL A   1      38.903  26.386  30.006  1.00  0.00    -0.203 F 
ATOM     67  C   UNL A   1      39.668  25.991  27.816  1.00  0.00     0.198 A 
ATOM     68  C   UNL A   1      41.099  27.588  26.736  1.00  0.00     0.198 A 
ATOM     69  F   UNL A   1      41.769  29.531  27.880  1.00  0.00    -0.203 F 
ATOM     70  F   UNL A   1      39.017  24.819  27.801  1.00  0.00    -0.200 F 
ATOM     71  C   UNL A   1      40.402  26.389  26.708  1.00  0.00     0.200 A 
ATOM     72  F   UNL A   1      41.800  27.979  25.663  1.00  0.00    -0.200 F 
ATOM     73  F   UNL A   1      40.444  25.613  25.616  1.00  0.00    -0.200 F 
ENDBRANCH  49  63
BRANCH  50  74
ATOM     74  C   UNL A   1      39.446  33.931  36.986  1.00  0.00     0.064 A 
ATOM     75  C   UNL A   1      38.698  33.495  38.088  1.00  0.00     0.173 A 
ATOM     76  C   UNL A   1      40.043  35.197  37.060  1.00  0.00     0.173 A 
ATOM     77  F   UNL A   1      38.090  32.300  38.054  1.00  0.00    -0.203 F 
ATOM     78  C   UNL A   1      38.539  34.299  39.214  1.00  0.00     0.198 A 
ATOM     79  C   UNL A   1      39.905  35.991  38.197  1.00  0.00     0.198 A 
ATOM     80  F   UNL A   1      40.771  35.657  36.033  1.00  0.00    -0.203 F 
ATOM     81  F   UNL A   1      37.785  33.876  40.237  1.00  0.00    -0.200 F 
ATOM     82  C   UNL A   1      39.147  35.545  39.269  1.00  0.00     0.200 A 
ATOM     83  F   UNL A   1      40.502  37.189  38.251  1.00  0.00    -0.200 F 
ATOM     84  F   UNL A   1      38.996  36.318  40.353  1.00  0.00    -0.200 F 
ENDBRANCH  50  74
BRANCH  62  85
ATOM     85  C   UNL A   1      43.729  28.698  35.325  1.00  0.00     0.064 A 
ATOM     86  C   UNL A   1      43.534  27.593  36.164  1.00  0.00     0.173 A 
ATOM     87  C   UNL A   1      45.039  29.167  35.146  1.00  0.00     0.173 A 
ATOM     88  F   UNL A   1      42.299  27.117  36.379  1.00  0.00    -0.203 F 
ATOM     89  C   UNL A   1      44.609  26.993  36.816  1.00  0.00     0.198 A 
ATOM     90  C   UNL A   1      46.114  28.550  35.778  1.00  0.00     0.198 A 
ATOM     91  F   UNL A   1      45.277  30.220  34.348  1.00  0.00    -0.203 F 
ATOM     92  F   UNL A   1      44.396  25.962  37.646  1.00  0.00    -0.200 F 
ATOM     93  C   UNL A   1      45.897  27.467  36.616  1.00  0.00     0.200 A 
ATOM     94  F   UNL A   1      47.359  29.003  35.576  1.00  0.00    -0.200 F 
ATOM     95  F   UNL A   1      46.931  26.885  37.239  1.00  0.00    -0.200 F 
ENDBRANCH  62  85
ENDBRANCH  36  37
ENDBRANCH  28  31
ENDBRANCH  26  27
ENDBRANCH  25  26
ENDBRANCH  24  25
ENDBRANCH   1  24
TORSDOF 16
ENDMDL
MODEL 2
REMARK VINA RESULT:     -12.2      0.524      7.452
REMARK SMILES COCc1cccc(C(=O)N2C[C@@H](O)C[C@@H]2C(=O)NCCCCNC(=O)c2ccc(-c3c4nc(c(-c5c(F)c(F)c(F)c(F)c5F)c5ccc([nH]5)c(-c5c(F)c(F)c(F)c(F)c5F)c5nc(c(-c6c(F)c(F)c(F)c(F)c6F)c6ccc3[nH]6)C=C5)C=C4)cc2)c1
REMARK SMILES IDX 20 1 19 2 17 3 18 4 16 6 11 7 12 8 13 9 15 10 9 11 10 12
REMARK SMILES IDX 8 13 4 14 5 15 90 16 6 17 7 18 3 19 2 20 1 21 14 22 21 24
REMARK SMILES IDX 22 25 23 26 24 27 25 28 26 30 27 31 28 32 89 33 29 34 88 35
REMARK SMILES IDX 30 36 31 37 32 38 82 39 33 40 87 41 81 42 83 43 34 44 86 45
REMARK SMILES IDX 80 46 79 47 35 49 67 50 47 51 66 52 48 53 51 54 65 55 84 56
REMARK SMILES IDX 49 57 50 58 64 60 85 61 52 62 36 63 37 64 45 65 38 66 39 67
REMARK SMILES IDX 43 68 46 69 40 70 41 71 44 72 42 73 68 74 69 75 77 76 70 77
REMARK SMILES IDX 71 78 75 79 78 80 72 81 73 82 76 83 74 84 53 85 54 86 62 87
REMARK SMILES IDX 55 88 56 89 60 90 63 91 57 92 58 93 61 94 59 95
REMARK H PARENT 19 5 14 23 24 29 83 48 51 59
REMARK Flexibility Score: inf
ROOT
ATOM      1  C   UNL A   1      32.433  29.796  26.918  1.00  0.00     0.116 C 
ENDROOT
BRANCH   1   2
ATOM      2  N   UNL A   1      31.690  28.567  27.146  1.00  0.00    -0.354 N 
ATOM      3  C   UNL A   1      31.887  27.319  26.625  1.00  0.00     0.242 C 
ATOM      4  O   UNL A   1      31.074  26.437  26.915  1.00  0.00    -0.273 OA
ATOM      5  H   UNL A   1      30.933  28.646  27.771  1.00  0.00     0.163 HD
BRANCH   3   6
ATOM      6  C   UNL A   1      33.026  27.067  25.617  1.00  0.00     0.177 C 
ATOM      7  N   UNL A   1      32.454  26.972  24.274  1.00  0.00    -0.324 N 
ATOM      8  C   UNL A   1      32.907  25.768  23.608  1.00  0.00     0.152 C 
ATOM      9  C   UNL A   1      33.085  24.793  24.762  1.00  0.00     0.136 C 
ATOM     10  C   UNL A   1      33.671  25.689  25.858  1.00  0.00     0.069 C 
BRANCH   7  11
ATOM     11  C   UNL A   1      31.919  28.070  23.639  1.00  0.00     0.254 C 
ATOM     12  O   UNL A   1      32.618  29.014  23.279  1.00  0.00    -0.269 OA
BRANCH  11  13
ATOM     13  C   UNL A   1      30.423  28.167  23.591  1.00  0.00     0.040 A 
ATOM     14  C   UNL A   1      28.373  29.403  23.062  1.00  0.00    -0.022 A 
ATOM     15  C   UNL A   1      27.630  28.238  23.280  1.00  0.00     0.006 A 
ATOM     16  C   UNL A   1      29.767  29.342  23.200  1.00  0.00     0.020 A 
ATOM     17  C   UNL A   1      28.269  27.052  23.652  1.00  0.00     0.001 A 
ATOM     18  C   UNL A   1      29.658  27.018  23.814  1.00  0.00     0.014 A 
BRANCH  14  19
ATOM     19  C   UNL A   1      27.711  30.707  22.689  1.00  0.00     0.195 C 
BRANCH  19  20
ATOM     20  O   UNL A   1      28.187  31.820  23.444  1.00  0.00    -0.380 OA
ATOM     21  C   UNL A   1      28.727  32.870  22.652  1.00  0.00     0.195 C 
ENDBRANCH  19  20
ENDBRANCH  14  19
ENDBRANCH  11  13
ENDBRANCH   7  11
BRANCH   9  22
ATOM     22  O   UNL A   1      33.937  23.709  24.446  1.00  0.00    -0.391 OA
ATOM     23  H   UNL A   1      34.324  23.848  23.567  1.00  0.00     0.211 HD
ENDBRANCH   9  22
ENDBRANCH   3   6
ENDBRANCH   1   2
BRANCH   1  24
ATOM     24  C   UNL A   1      31.644  30.812  26.093  1.00  0.00     0.023 C 
BRANCH  24  25
ATOM     25  C   UNL A   1      31.406  32.162  26.767  1.00  0.00     0.023 C 
BRANCH  25  26
ATOM     26  C   UNL A   1      32.660  32.915  27.191  1.00  0.00     0.116 C 
BRANCH  26  27
ATOM     27  N   UNL A   1      32.395  34.275  27.638  1.00  0.00    -0.352 N 
ATOM     28  C   UNL A   1      33.008  34.996  28.633  1.00  0.00     0.251 C 
ATOM     29  H   UNL A   1      31.676  34.745  27.158  1.00  0.00     0.163 HD
ATOM     30  O   UNL A   1      32.586  36.109  28.943  1.00  0.00    -0.269 OA
BRANCH  28  31
ATOM     31  C   UNL A   1      34.154  34.418  29.366  1.00  0.00     0.039 A 
ATOM     32  C   UNL A   1      33.909  33.671  30.520  1.00  0.00     0.014 A 
ATOM     33  C   UNL A   1      35.463  34.589  28.904  1.00  0.00     0.014 A 
ATOM     34  C   UNL A   1      34.965  33.025  31.166  1.00  0.00     0.010 A 
ATOM     35  C   UNL A   1      36.503  33.888  29.505  1.00  0.00     0.010 A 
ATOM     36  C   UNL A   1      36.264  33.094  30.637  1.00  0.00    -0.014 A 
BRANCH  36  37
ATOM     37  C   UNL A   1      37.387  32.335  31.243  1.00  0.00     0.031 A 
ATOM     38  C   UNL A   1      37.895  32.703  32.608  1.00  0.00     0.074 A 
ATOM     39  C   UNL A   1      38.002  31.372  30.530  1.00  0.00     0.049 A 
ATOM     40  N   UNL A   1      38.927  32.233  33.262  1.00  0.00    -0.248 NA
ATOM     41  C   UNL A   1      37.162  33.760  33.321  1.00  0.00     0.031 C 
ATOM     42  C   UNL A   1      37.636  30.956  29.175  1.00  0.00     0.029 A 
ATOM     43  N   UNL A   1      39.079  30.578  30.841  1.00  0.00    -0.354 N 
ATOM     44  C   UNL A   1      38.980  32.952  34.449  1.00  0.00     0.074 A 
ATOM     45  C   UNL A   1      37.904  33.918  34.406  1.00  0.00     0.031 C 
ATOM     46  C   UNL A   1      38.462  29.974  28.777  1.00  0.00     0.029 A 
ATOM     47  C   UNL A   1      39.437  29.717  29.833  1.00  0.00     0.049 A 
ATOM     48  H   UNL A   1      39.550  30.623  31.704  1.00  0.00     0.167 HD
ATOM     49  C   UNL A   1      39.837  32.805  35.487  1.00  0.00     0.037 A 
ATOM     50  C   UNL A   1      40.446  28.827  29.765  1.00  0.00     0.037 A 
ATOM     51  C   UNL A   1      40.884  31.821  35.542  1.00  0.00     0.049 A 
ATOM     52  C   UNL A   1      41.374  28.673  30.938  1.00  0.00     0.074 A 
ATOM     53  C   UNL A   1      41.761  31.549  36.578  1.00  0.00     0.029 A 
ATOM     54  N   UNL A   1      41.195  30.942  34.515  1.00  0.00    -0.354 N 
ATOM     55  N   UNL A   1      41.376  29.316  32.080  1.00  0.00    -0.248 NA
ATOM     56  C   UNL A   1      42.438  27.666  30.814  1.00  0.00     0.031 C 
ATOM     57  C   UNL A   1      42.624  30.530  36.165  1.00  0.00     0.029 A 
ATOM     58  C   UNL A   1      42.259  30.137  34.887  1.00  0.00     0.049 A 
ATOM     59  H   UNL A   1      40.726  30.896  33.650  1.00  0.00     0.167 HD
ATOM     60  C   UNL A   1      42.418  28.776  32.820  1.00  0.00     0.074 A 
ATOM     61  C   UNL A   1      43.021  27.744  32.002  1.00  0.00     0.031 C 
ATOM     62  C   UNL A   1      42.839  29.107  34.065  1.00  0.00     0.037 A 
BRANCH  49  63
ATOM     63  C   UNL A   1      39.670  33.730  36.656  1.00  0.00     0.064 A 
ATOM     64  C   UNL A   1      40.295  34.985  36.696  1.00  0.00     0.173 A 
ATOM     65  C   UNL A   1      38.848  33.373  37.735  1.00  0.00     0.173 A 
ATOM     66  F   UNL A   1      41.102  35.369  35.694  1.00  0.00    -0.203 F 
ATOM     67  C   UNL A   1      40.125  35.837  37.783  1.00  0.00     0.198 A 
ATOM     68  C   UNL A   1      38.658  34.238  38.809  1.00  0.00     0.198 A 
ATOM     69  F   UNL A   1      38.223  32.186  37.745  1.00  0.00    -0.203 F 
ATOM     70  F   UNL A   1      40.771  37.011  37.820  1.00  0.00    -0.200 F 
ATOM     71  C   UNL A   1      39.302  35.466  38.836  1.00  0.00     0.200 A 
ATOM     72  F   UNL A   1      37.853  33.883  39.821  1.00  0.00    -0.200 F 
ATOM     73  F   UNL A   1      39.135  36.290  39.880  1.00  0.00    -0.200 F 
ENDBRANCH  49  63
BRANCH  50  74
ATOM     74  C   UNL A   1      40.613  27.990  28.549  1.00  0.00     0.064 A 
ATOM     75  C   UNL A   1      41.399  28.434  27.477  1.00  0.00     0.173 A 
ATOM     76  C   UNL A   1      39.994  26.738  28.431  1.00  0.00     0.173 A 
ATOM     77  F   UNL A   1      41.993  29.635  27.535  1.00  0.00    -0.203 F 
ATOM     78  C   UNL A   1      41.546  27.665  26.325  1.00  0.00     0.198 A 
ATOM     79  C   UNL A   1      40.161  25.958  27.289  1.00  0.00     0.198 A 
ATOM     80  F   UNL A   1      39.235  26.268  29.431  1.00  0.00    -0.203 F 
ATOM     81  F   UNL A   1      42.269  28.131  25.297  1.00  0.00    -0.200 F 
ATOM     82  C   UNL A   1      40.931  26.425  26.234  1.00  0.00     0.200 A 
ATOM     83  F   UNL A   1      39.575  24.756  27.209  1.00  0.00    -0.200 F 
ATOM     84  F   UNL A   1      41.074  25.684  25.127  1.00  0.00    -0.200 F 
ENDBRANCH  50  74
BRANCH  62  85
ATOM     85  C   UNL A   1      43.983  28.322  34.634  1.00  0.00     0.064 A 
ATOM     86  C   UNL A   1      45.310  28.752  34.497  1.00  0.00     0.173 A 
ATOM     87  C   UNL A   1      43.743  27.145  35.361  1.00  0.00     0.173 A 
ATOM     88  F   UNL A   1      45.591  29.862  33.798  1.00  0.00    -0.203 F 
ATOM     89  C   UNL A   1      46.358  28.022  35.050  1.00  0.00     0.198 A 
ATOM     90  C   UNL A   1      44.791  26.431  35.934  1.00  0.00     0.198 A 
ATOM     91  F   UNL A   1      42.490  26.695  35.523  1.00  0.00    -0.203 F 
ATOM     92  F   UNL A   1      47.623  28.429  34.872  1.00  0.00    -0.200 F 
ATOM     93  C   UNL A   1      46.098  26.868  35.773  1.00  0.00     0.200 A 
ATOM     94  F   UNL A   1      44.537  25.322  36.641  1.00  0.00    -0.200 F 
ATOM     95  F   UNL A   1      47.108  26.169  36.310  1.00  0.00    -0.200 F 
ENDBRANCH  62  85
ENDBRANCH  36  37
ENDBRANCH  28  31
ENDBRANCH  26  27
ENDBRANCH  25  26
ENDBRANCH  24  25
ENDBRANCH   1  24
TORSDOF 16
ENDMDL
MODEL 3
REMARK VINA RESULT:     -12.1      6.341     11.738
REMARK SMILES COCc1cccc(C(=O)N2C[C@@H](O)C[C@@H]2C(=O)NCCCCNC(=O)c2ccc(-c3c4nc(c(-c5c(F)c(F)c(F)c(F)c5F)c5ccc([nH]5)c(-c5c(F)c(F)c(F)c(F)c5F)c5nc(c(-c6c(F)c(F)c(F)c(F)c6F)c6ccc3[nH]6)C=C5)C=C4)cc2)c1
REMARK SMILES IDX 20 1 19 2 17 3 18 4 16 6 11 7 12 8 13 9 15 10 9 11 10 12
REMARK SMILES IDX 8 13 4 14 5 15 90 16 6 17 7 18 3 19 2 20 1 21 14 22 21 24
REMARK SMILES IDX 22 25 23 26 24 27 25 28 26 30 27 31 28 32 89 33 29 34 88 35
REMARK SMILES IDX 30 36 31 37 32 38 82 39 33 40 87 41 81 42 83 43 34 44 86 45
REMARK SMILES IDX 80 46 79 47 35 49 67 50 47 51 66 52 48 53 51 54 65 55 84 56
REMARK SMILES IDX 49 57 50 58 64 60 85 61 52 62 36 63 37 64 45 65 38 66 39 67
REMARK SMILES IDX 43 68 46 69 40 70 41 71 44 72 42 73 68 74 69 75 77 76 70 77
REMARK SMILES IDX 71 78 75 79 78 80 72 81 73 82 76 83 74 84 53 85 54 86 62 87
REMARK SMILES IDX 55 88 56 89 60 90 63 91 57 92 58 93 61 94 59 95
REMARK H PARENT 19 5 14 23 24 29 83 48 51 59
REMARK Flexibility Score: inf
ROOT
ATOM      1  C   UNL A   1      36.491  21.859  26.124  1.00  0.00     0.116 C 
ENDROOT
BRANCH   1   2
ATOM      2  N   UNL A   1      35.797  23.121  25.928  1.00  0.00    -0.354 N 
ATOM      3  C   UNL A   1      34.460  23.401  25.993  1.00  0.00     0.242 C 
ATOM      4  O   UNL A   1      34.097  24.547  25.716  1.00  0.00    -0.273 OA
ATOM      5  H   UNL A   1      36.376  23.889  25.718  1.00  0.00     0.163 HD
BRANCH   3   6
ATOM      6  C   UNL A   1      33.444  22.281  26.292  1.00  0.00     0.177 C 
ATOM      7  N   UNL A   1      32.551  22.136  25.143  1.00  0.00    -0.324 N 
ATOM      8  C   UNL A   1      31.164  22.176  25.563  1.00  0.00     0.152 C 
ATOM      9  C   UNL A   1      31.206  23.099  26.771  1.00  0.00     0.136 C 
ATOM     10  C   UNL A   1      32.514  22.685  27.452  1.00  0.00     0.069 C 
BRANCH   7  11
ATOM     11  C   UNL A   1      32.996  21.631  23.943  1.00  0.00     0.254 C 
ATOM     12  O   UNL A   1      33.292  22.365  23.002  1.00  0.00    -0.269 OA
BRANCH  11  13
ATOM     13  C   UNL A   1      32.905  20.146  23.753  1.00  0.00     0.040 A 
ATOM     14  C   UNL A   1      33.040  17.863  24.633  1.00  0.00    -0.022 A 
ATOM     15  C   UNL A   1      32.491  17.384  23.439  1.00  0.00     0.006 A 
ATOM     16  C   UNL A   1      33.218  19.246  24.779  1.00  0.00     0.020 A 
ATOM     17  C   UNL A   1      32.154  18.269  22.411  1.00  0.00     0.001 A 
ATOM     18  C   UNL A   1      32.367  19.644  22.564  1.00  0.00     0.014 A 
BRANCH  14  19
ATOM     19  C   UNL A   1      33.442  16.930  25.750  1.00  0.00     0.195 C 
BRANCH  19  20
ATOM     20  O   UNL A   1      34.111  15.756  25.293  1.00  0.00    -0.380 OA
ATOM     21  C   UNL A   1      35.529  15.828  25.373  1.00  0.00     0.195 C 
ENDBRANCH  19  20
ENDBRANCH  14  19
ENDBRANCH  11  13
ENDBRANCH   7  11
BRANCH   9  22
ATOM     22  O   UNL A   1      30.088  22.946  27.624  1.00  0.00    -0.391 OA
ATOM     23  H   UNL A   1      30.384  22.636  28.494  1.00  0.00     0.211 HD
ENDBRANCH   9  22
ENDBRANCH   3   6
ENDBRANCH   1   2
BRANCH   1  24
ATOM     24  C   UNL A   1      36.833  21.167  24.805  1.00  0.00     0.023 C 
BRANCH  24  25
ATOM     25  C   UNL A   1      37.868  20.049  24.898  1.00  0.00     0.023 C 
BRANCH  25  26
ATOM     26  C   UNL A   1      39.092  20.355  25.751  1.00  0.00     0.116 C 
BRANCH  26  27
ATOM     27  N   UNL A   1      40.032  19.247  25.835  1.00  0.00    -0.352 N 
ATOM     28  C   UNL A   1      41.382  19.271  26.082  1.00  0.00     0.251 C 
ATOM     29  H   UNL A   1      39.643  18.353  25.697  1.00  0.00     0.163 HD
ATOM     30  O   UNL A   1      42.043  18.235  26.020  1.00  0.00    -0.269 OA
BRANCH  28  31
ATOM     31  C   UNL A   1      42.056  20.552  26.382  1.00  0.00     0.039 A 
ATOM     32  C   UNL A   1      42.483  21.354  25.322  1.00  0.00     0.014 A 
ATOM     33  C   UNL A   1      42.243  20.972  27.702  1.00  0.00     0.014 A 
ATOM     34  C   UNL A   1      43.022  22.616  25.581  1.00  0.00     0.010 A 
ATOM     35  C   UNL A   1      42.713  22.257  27.957  1.00  0.00     0.010 A 
ATOM     36  C   UNL A   1      43.101  23.094  26.899  1.00  0.00    -0.014 A 
BRANCH  36  37
ATOM     37  C   UNL A   1      43.573  24.470  27.196  1.00  0.00     0.031 A 
ATOM     38  C   UNL A   1      42.614  25.497  27.725  1.00  0.00     0.074 A 
ATOM     39  C   UNL A   1      44.843  24.815  26.910  1.00  0.00     0.049 A 
ATOM     40  N   UNL A   1      42.805  26.773  27.947  1.00  0.00    -0.248 NA
ATOM     41  C   UNL A   1      41.248  25.034  28.018  1.00  0.00     0.031 C 
ATOM     42  C   UNL A   1      45.858  23.923  26.346  1.00  0.00     0.029 A 
ATOM     43  N   UNL A   1      45.494  26.018  27.039  1.00  0.00    -0.354 N 
ATOM     44  C   UNL A   1      41.582  27.268  28.380  1.00  0.00     0.074 A 
ATOM     45  C   UNL A   1      40.645  26.166  28.350  1.00  0.00     0.031 C 
ATOM     46  C   UNL A   1      47.005  24.603  26.192  1.00  0.00     0.029 A 
ATOM     47  C   UNL A   1      46.799  25.986  26.611  1.00  0.00     0.049 A 
ATOM     48  H   UNL A   1      45.065  26.826  27.401  1.00  0.00     0.167 HD
ATOM     49  C   UNL A   1      41.275  28.523  28.786  1.00  0.00     0.037 A 
ATOM     50  C   UNL A   1      47.721  26.966  26.556  1.00  0.00     0.037 A 
ATOM     51  C   UNL A   1      42.217  29.608  28.848  1.00  0.00     0.049 A 
ATOM     52  C   UNL A   1      47.358  28.347  27.027  1.00  0.00     0.074 A 
ATOM     53  C   UNL A   1      42.019  30.899  29.308  1.00  0.00     0.029 A 
ATOM     54  N   UNL A   1      43.540  29.529  28.440  1.00  0.00    -0.354 N 
ATOM     55  N   UNL A   1      46.216  28.788  27.493  1.00  0.00    -0.248 NA
ATOM     56  C   UNL A   1      48.416  29.367  26.967  1.00  0.00     0.031 C 
ATOM     57  C   UNL A   1      43.212  31.610  29.146  1.00  0.00     0.029 A 
ATOM     58  C   UNL A   1      44.166  30.751  28.623  1.00  0.00     0.049 A 
ATOM     59  H   UNL A   1      43.971  28.722  28.075  1.00  0.00     0.167 HD
ATOM     60  C   UNL A   1      46.422  30.124  27.806  1.00  0.00     0.074 A 
ATOM     61  C   UNL A   1      47.804  30.420  27.488  1.00  0.00     0.031 C 
ATOM     62  C   UNL A   1      45.545  31.025  28.312  1.00  0.00     0.037 A 
BRANCH  49  63
ATOM     63  C   UNL A   1      39.859  28.788  29.202  1.00  0.00     0.064 A 
ATOM     64  C   UNL A   1      39.434  28.599  30.525  1.00  0.00     0.173 A 
ATOM     65  C   UNL A   1      38.922  29.268  28.274  1.00  0.00     0.173 A 
ATOM     66  F   UNL A   1      40.289  28.129  31.447  1.00  0.00    -0.203 F 
ATOM     67  C   UNL A   1      38.118  28.856  30.899  1.00  0.00     0.198 A 
ATOM     68  C   UNL A   1      37.613  29.550  28.657  1.00  0.00     0.198 A 
ATOM     69  F   UNL A   1      39.278  29.470  26.996  1.00  0.00    -0.203 F 
ATOM     70  F   UNL A   1      37.724  28.623  32.159  1.00  0.00    -0.200 F 
ATOM     71  C   UNL A   1      37.211  29.337  29.967  1.00  0.00     0.200 A 
ATOM     72  F   UNL A   1      36.741  30.026  27.758  1.00  0.00    -0.200 F 
ATOM     73  F   UNL A   1      35.946  29.590  30.331  1.00  0.00    -0.200 F 
ENDBRANCH  49  63
BRANCH  50  74
ATOM     74  C   UNL A   1      49.089  26.667  26.060  1.00  0.00     0.064 A 
ATOM     75  C   UNL A   1      49.450  26.958  24.737  1.00  0.00     0.173 A 
ATOM     76  C   UNL A   1      50.057  26.085  26.890  1.00  0.00     0.173 A 
ATOM     77  F   UNL A   1      48.551  27.495  23.901  1.00  0.00    -0.203 F 
ATOM     78  C   UNL A   1      50.725  26.663  24.258  1.00  0.00     0.198 A 
ATOM     79  C   UNL A   1      51.339  25.813  26.417  1.00  0.00     0.198 A 
ATOM     80  F   UNL A   1      49.761  25.790  28.163  1.00  0.00    -0.203 F 
ATOM     81  F   UNL A   1      51.032  26.914  22.978  1.00  0.00    -0.200 F 
ATOM     82  C   UNL A   1      51.670  26.095  25.099  1.00  0.00     0.200 A 
ATOM     83  F   UNL A   1      52.254  25.275  27.235  1.00  0.00    -0.200 F 
ATOM     84  F   UNL A   1      52.896  25.814  24.639  1.00  0.00    -0.200 F 
ENDBRANCH  50  74
BRANCH  62  85
ATOM     85  C   UNL A   1      46.061  32.406  28.586  1.00  0.00     0.064 A 
ATOM     86  C   UNL A   1      45.978  33.425  27.628  1.00  0.00     0.173 A 
ATOM     87  C   UNL A   1      46.608  32.722  29.839  1.00  0.00     0.173 A 
ATOM     88  F   UNL A   1      45.478  33.168  26.410  1.00  0.00    -0.203 F 
ATOM     89  C   UNL A   1      46.444  34.708  27.907  1.00  0.00     0.198 A 
ATOM     90  C   UNL A   1      47.048  34.011  30.124  1.00  0.00     0.198 A 
ATOM     91  F   UNL A   1      46.705  31.782  30.792  1.00  0.00    -0.203 F 
ATOM     92  F   UNL A   1      46.392  35.658  26.963  1.00  0.00    -0.200 F 
ATOM     93  C   UNL A   1      46.971  35.001  29.156  1.00  0.00     0.200 A 
ATOM     94  F   UNL A   1      47.548  34.295  31.335  1.00  0.00    -0.200 F 
ATOM     95  F   UNL A   1      47.412  36.237  29.425  1.00  0.00    -0.200 F 
ENDBRANCH  62  85
ENDBRANCH  36  37
ENDBRANCH  28  31
ENDBRANCH  26  27
ENDBRANCH  25  26
ENDBRANCH  24  25
ENDBRANCH   1  24
TORSDOF 16
ENDMDL
