MODEL 1
REMARK VINA RESULT:     -12.9      0.000      0.000
REMARK SMILES CC[C@H](C)[C@H](NS(=O)(=O)c1ccc(C)cc1)C(=O)NCCCCNC(=O)c1ccc(-c2c3nc(c(-c4c(F)c(F)c(F)c(F)c4F)c4ccc([nH]4)c(-c4c(F)c(F)c(F)c(F)c4F)c4nc(c(-c5c(F)c(F)c(F)c(F)c5F)c5ccc2[nH]5)C=C4)C=C3)cc1
REMARK SMILES IDX 21 1 20 2 19 3 17 4 18 5 5 7 3 8 4 9 2 10 1 11 6 12 7 14
REMARK SMILES IDX 8 15 9 16 10 17 11 18 16 19 12 20 15 21 13 22 14 23 22 24
REMARK SMILES IDX 23 25 24 26 25 27 26 29 27 30 28 31 89 32 29 33 88 34 30 35
REMARK SMILES IDX 31 36 32 37 82 38 33 39 87 40 81 41 83 42 34 43 86 44 80 45
REMARK SMILES IDX 79 46 35 48 67 49 47 50 66 51 48 52 51 53 65 54 84 55 49 56
REMARK SMILES IDX 50 57 64 59 85 60 52 61 36 62 37 63 45 64 38 65 39 66 43 67
REMARK SMILES IDX 46 68 40 69 41 70 44 71 42 72 68 73 69 74 77 75 70 76 71 77
REMARK SMILES IDX 75 78 78 79 72 80 73 81 76 82 74 83 53 84 54 85 62 86 55 87
REMARK SMILES IDX 56 88 60 89 63 90 57 91 58 92 61 93 59 94
REMARK H PARENT 19 6 6 13 24 28 83 47 51 58
REMARK Flexibility Score: inf
ROOT
ATOM      1  C   UNL A   1      31.763  27.975  27.473  1.00  0.00     0.023 C 
ENDROOT
BRANCH   1   2
ATOM      2  C   UNL A   1      31.308  27.083  26.292  1.00  0.00     0.116 C 
BRANCH   2   3
ATOM      3  N   UNL A   1      31.014  25.725  26.688  1.00  0.00    -0.355 N 
ATOM      4  C   UNL A   1      31.567  24.520  26.428  1.00  0.00     0.238 C 
ATOM      5  O   UNL A   1      31.320  23.688  27.322  1.00  0.00    -0.273 OA
ATOM      6  H   UNL A   1      30.232  25.664  27.282  1.00  0.00     0.163 HD
BRANCH   4   7
ATOM      7  C   UNL A   1      32.420  24.064  25.229  1.00  0.00     0.161 C 
BRANCH   7   8
ATOM      8  C   UNL A   1      31.707  23.557  23.922  1.00  0.00     0.013 C 
ATOM      9  C   UNL A   1      30.855  24.603  23.223  1.00  0.00     0.010 C 
BRANCH   8  10
ATOM     10  C   UNL A   1      32.532  22.750  22.899  1.00  0.00     0.002 C 
ATOM     11  C   UNL A   1      31.991  21.372  22.545  1.00  0.00     0.004 C 
ENDBRANCH   8  10
ENDBRANCH   7   8
BRANCH   7  12
ATOM     12  N   UNL A   1      33.842  23.658  25.189  1.00  0.00    -0.198 NA
ATOM     13  H   UNL A   1      34.338  24.550  25.215  1.00  0.00     0.142 HD
BRANCH  12  14
ATOM     14  S   UNL A   1      34.781  22.680  26.136  1.00  0.00     0.241 S 
ATOM     15  O   UNL A   1      36.137  22.945  25.714  1.00  0.00    -0.207 OA
ATOM     16  O   UNL A   1      34.399  22.895  27.512  1.00  0.00    -0.207 OA
BRANCH  14  17
ATOM     17  C   UNL A   1      34.422  21.007  25.660  1.00  0.00     0.082 A 
ATOM     18  C   UNL A   1      35.378  20.220  25.016  1.00  0.00     0.022 A 
ATOM     19  C   UNL A   1      33.172  20.465  25.924  1.00  0.00     0.022 A 
ATOM     20  C   UNL A   1      34.999  18.982  24.481  1.00  0.00     0.005 A 
ATOM     21  C   UNL A   1      32.767  19.283  25.325  1.00  0.00     0.005 A 
ATOM     22  C   UNL A   1      33.674  18.543  24.582  1.00  0.00    -0.051 A 
ATOM     23  C   UNL A   1      33.237  17.242  24.004  1.00  0.00     0.044 C 
ENDBRANCH  14  17
ENDBRANCH  12  14
ENDBRANCH   7  12
ENDBRANCH   4   7
ENDBRANCH   2   3
ENDBRANCH   1   2
BRANCH   1  24
ATOM     24  C   UNL A   1      32.188  29.424  27.191  1.00  0.00     0.023 C 
BRANCH  24  25
ATOM     25  C   UNL A   1      33.647  29.663  26.867  1.00  0.00     0.116 C 
BRANCH  25  26
ATOM     26  N   UNL A   1      34.259  30.947  27.135  1.00  0.00    -0.352 N 
ATOM     27  C   UNL A   1      35.431  31.202  27.841  1.00  0.00     0.251 C 
ATOM     28  H   UNL A   1      33.791  31.733  26.773  1.00  0.00     0.163 HD
ATOM     29  O   UNL A   1      35.745  32.368  28.071  1.00  0.00    -0.269 OA
BRANCH  27  30
ATOM     30  C   UNL A   1      36.407  30.117  28.189  1.00  0.00     0.039 A 
ATOM     31  C   UNL A   1      36.411  29.575  29.490  1.00  0.00     0.014 A 
ATOM     32  C   UNL A   1      37.454  29.785  27.344  1.00  0.00     0.014 A 
ATOM     33  C   UNL A   1      37.536  28.898  29.965  1.00  0.00     0.010 A 
ATOM     34  C   UNL A   1      38.624  29.325  27.853  1.00  0.00     0.010 A 
ATOM     35  C   UNL A   1      38.667  28.897  29.170  1.00  0.00    -0.014 A 
BRANCH  35  36
ATOM     36  C   UNL A   1      39.978  28.395  29.487  1.00  0.00     0.031 A 
ATOM     37  C   UNL A   1      40.318  27.065  28.951  1.00  0.00     0.074 A 
ATOM     38  C   UNL A   1      40.874  29.364  29.775  1.00  0.00     0.049 A 
ATOM     39  N   UNL A   1      41.420  26.463  29.196  1.00  0.00    -0.248 NA
ATOM     40  C   UNL A   1      39.429  26.287  28.085  1.00  0.00     0.031 C 
ATOM     41  C   UNL A   1      42.312  29.407  29.540  1.00  0.00     0.029 A 
ATOM     42  N   UNL A   1      40.617  30.558  30.480  1.00  0.00    -0.354 N 
ATOM     43  C   UNL A   1      41.534  25.424  28.296  1.00  0.00     0.074 A 
ATOM     44  C   UNL A   1      40.216  25.262  27.740  1.00  0.00     0.031 C 
ATOM     45  C   UNL A   1      42.846  30.347  30.347  1.00  0.00     0.029 A 
ATOM     46  C   UNL A   1      41.781  30.772  31.250  1.00  0.00     0.049 A 
ATOM     47  H   UNL A   1      39.808  31.118  30.443  1.00  0.00     0.167 HD
ATOM     48  C   UNL A   1      42.787  24.952  28.041  1.00  0.00     0.037 A 
ATOM     49  C   UNL A   1      41.757  30.508  32.592  1.00  0.00     0.037 A 
ATOM     50  C   UNL A   1      43.756  25.708  28.839  1.00  0.00     0.049 A 
ATOM     51  C   UNL A   1      42.689  29.392  33.012  1.00  0.00     0.074 A 
ATOM     52  C   UNL A   1      44.631  26.745  28.565  1.00  0.00     0.029 A 
ATOM     53  N   UNL A   1      43.650  25.656  30.216  1.00  0.00    -0.354 N 
ATOM     54  N   UNL A   1      43.209  28.516  32.199  1.00  0.00    -0.248 NA
ATOM     55  C   UNL A   1      43.038  29.138  34.402  1.00  0.00     0.031 C 
ATOM     56  C   UNL A   1      45.084  27.277  29.811  1.00  0.00     0.029 A 
ATOM     57  C   UNL A   1      44.499  26.546  30.829  1.00  0.00     0.049 A 
ATOM     58  H   UNL A   1      43.039  25.053  30.698  1.00  0.00     0.167 HD
ATOM     59  C   UNL A   1      43.924  27.586  32.908  1.00  0.00     0.074 A 
ATOM     60  C   UNL A   1      43.750  28.004  34.290  1.00  0.00     0.031 C 
ATOM     61  C   UNL A   1      44.556  26.542  32.283  1.00  0.00     0.037 A 
BRANCH  48  62
ATOM     62  C   UNL A   1      43.231  23.980  26.967  1.00  0.00     0.064 A 
ATOM     63  C   UNL A   1      42.888  22.611  27.090  1.00  0.00     0.173 A 
ATOM     64  C   UNL A   1      43.997  24.282  25.825  1.00  0.00     0.173 A 
ATOM     65  F   UNL A   1      42.093  22.173  28.075  1.00  0.00    -0.203 F 
ATOM     66  C   UNL A   1      43.339  21.632  26.201  1.00  0.00     0.198 A 
ATOM     67  C   UNL A   1      44.448  23.300  24.933  1.00  0.00     0.198 A 
ATOM     68  F   UNL A   1      44.328  25.531  25.497  1.00  0.00    -0.203 F 
ATOM     69  F   UNL A   1      42.999  20.350  26.400  1.00  0.00    -0.200 F 
ATOM     70  C   UNL A   1      44.130  21.973  25.128  1.00  0.00     0.200 A 
ATOM     71  F   UNL A   1      45.197  23.657  23.879  1.00  0.00    -0.200 F 
ATOM     72  F   UNL A   1      44.571  21.036  24.279  1.00  0.00    -0.200 F 
ENDBRANCH  48  62
BRANCH  49  73
ATOM     73  C   UNL A   1      40.422  30.743  33.223  1.00  0.00     0.064 A 
ATOM     74  C   UNL A   1      39.982  32.060  33.443  1.00  0.00     0.173 A 
ATOM     75  C   UNL A   1      39.450  29.732  33.237  1.00  0.00     0.173 A 
ATOM     76  F   UNL A   1      40.863  33.073  33.428  1.00  0.00    -0.203 F 
ATOM     77  C   UNL A   1      38.623  32.361  33.552  1.00  0.00     0.198 A 
ATOM     78  C   UNL A   1      38.090  30.040  33.326  1.00  0.00     0.198 A 
ATOM     79  F   UNL A   1      39.803  28.454  33.041  1.00  0.00    -0.203 F 
ATOM     80  F   UNL A   1      38.228  33.640  33.647  1.00  0.00    -0.200 F 
ATOM     81  C   UNL A   1      37.675  31.358  33.433  1.00  0.00     0.200 A 
ATOM     82  F   UNL A   1      37.174  29.067  33.221  1.00  0.00    -0.200 F 
ATOM     83  F   UNL A   1      36.372  31.663  33.369  1.00  0.00    -0.200 F 
ENDBRANCH  49  73
BRANCH  61  84
ATOM     84  C   UNL A   1      45.223  25.361  32.966  1.00  0.00     0.064 A 
ATOM     85  C   UNL A   1      46.580  25.321  33.303  1.00  0.00     0.173 A 
ATOM     86  C   UNL A   1      44.499  24.179  33.286  1.00  0.00     0.173 A 
ATOM     87  F   UNL A   1      47.429  26.263  32.874  1.00  0.00    -0.203 F 
ATOM     88  C   UNL A   1      47.127  24.270  34.047  1.00  0.00     0.198 A 
ATOM     89  C   UNL A   1      45.055  23.113  33.986  1.00  0.00     0.198 A 
ATOM     90  F   UNL A   1      43.219  23.994  32.946  1.00  0.00    -0.203 F 
ATOM     91  F   UNL A   1      48.413  24.323  34.418  1.00  0.00    -0.200 F 
ATOM     92  C   UNL A   1      46.361  23.174  34.401  1.00  0.00     0.200 A 
ATOM     93  F   UNL A   1      44.300  22.039  34.260  1.00  0.00    -0.200 F 
ATOM     94  F   UNL A   1      46.885  22.173  35.119  1.00  0.00    -0.200 F 
ENDBRANCH  61  84
ENDBRANCH  35  36
ENDBRANCH  27  30
ENDBRANCH  25  26
ENDBRANCH  24  25
ENDBRANCH   1  24
TORSDOF 16
ENDMDL
MODEL 2
REMARK VINA RESULT:     -12.8      1.307      2.388
REMARK SMILES CC[C@H](C)[C@H](NS(=O)(=O)c1ccc(C)cc1)C(=O)NCCCCNC(=O)c1ccc(-c2c3nc(c(-c4c(F)c(F)c(F)c(F)c4F)c4ccc([nH]4)c(-c4c(F)c(F)c(F)c(F)c4F)c4nc(c(-c5c(F)c(F)c(F)c(F)c5F)c5ccc2[nH]5)C=C4)C=C3)cc1
REMARK SMILES IDX 21 1 20 2 19 3 17 4 18 5 5 7 3 8 4 9 2 10 1 11 6 12 7 14
REMARK SMILES IDX 8 15 9 16 10 17 11 18 16 19 12 20 15 21 13 22 14 23 22 24
REMARK SMILES IDX 23 25 24 26 25 27 26 29 27 30 28 31 89 32 29 33 88 34 30 35
REMARK SMILES IDX 31 36 32 37 82 38 33 39 87 40 81 41 83 42 34 43 86 44 80 45
REMARK SMILES IDX 79 46 35 48 67 49 47 50 66 51 48 52 51 53 65 54 84 55 49 56
REMARK SMILES IDX 50 57 64 59 85 60 52 61 36 62 37 63 45 64 38 65 39 66 43 67
REMARK SMILES IDX 46 68 40 69 41 70 44 71 42 72 68 73 69 74 77 75 70 76 71 77
REMARK SMILES IDX 75 78 78 79 72 80 73 81 76 82 74 83 53 84 54 85 62 86 55 87
REMARK SMILES IDX 56 88 60 89 63 90 57 91 58 92 61 93 59 94
REMARK H PARENT 19 6 6 13 24 28 83 47 51 58
REMARK Flexibility Score: inf
ROOT
ATOM      1  C   UNL A   1      31.539  28.361  27.341  1.00  0.00     0.023 C 
ENDROOT
BRANCH   1   2
ATOM      2  C   UNL A   1      31.413  27.263  26.257  1.00  0.00     0.116 C 
BRANCH   2   3
ATOM      3  N   UNL A   1      31.249  25.939  26.809  1.00  0.00    -0.355 N 
ATOM      4  C   UNL A   1      31.562  24.692  26.393  1.00  0.00     0.238 C 
ATOM      5  O   UNL A   1      31.690  23.897  27.344  1.00  0.00    -0.273 OA
ATOM      6  H   UNL A   1      30.807  25.946  27.688  1.00  0.00     0.163 HD
BRANCH   4   7
ATOM      7  C   UNL A   1      31.772  24.152  24.966  1.00  0.00     0.161 C 
BRANCH   7   8
ATOM      8  C   UNL A   1      31.762  22.599  24.717  1.00  0.00     0.013 C 
ATOM      9  C   UNL A   1      31.648  22.196  23.256  1.00  0.00     0.010 C 
BRANCH   8  10
ATOM     10  C   UNL A   1      32.807  21.730  25.444  1.00  0.00     0.002 C 
ATOM     11  C   UNL A   1      32.571  20.227  25.400  1.00  0.00     0.004 C 
ENDBRANCH   8  10
ENDBRANCH   7   8
BRANCH   7  12
ATOM     12  N   UNL A   1      32.360  24.823  23.785  1.00  0.00    -0.198 NA
ATOM     13  H   UNL A   1      31.776  25.653  23.677  1.00  0.00     0.142 HD
BRANCH  12  14
ATOM     14  S   UNL A   1      33.874  25.380  23.419  1.00  0.00     0.241 S 
ATOM     15  O   UNL A   1      33.975  25.262  21.983  1.00  0.00    -0.207 OA
ATOM     16  O   UNL A   1      34.037  26.668  24.050  1.00  0.00    -0.207 OA
BRANCH  14  17
ATOM     17  C   UNL A   1      35.027  24.216  24.104  1.00  0.00     0.082 A 
ATOM     18  C   UNL A   1      35.417  24.290  25.441  1.00  0.00     0.022 A 
ATOM     19  C   UNL A   1      35.557  23.213  23.303  1.00  0.00     0.022 A 
ATOM     20  C   UNL A   1      36.470  23.485  25.894  1.00  0.00     0.005 A 
ATOM     21  C   UNL A   1      36.654  22.476  23.718  1.00  0.00     0.005 A 
ATOM     22  C   UNL A   1      37.131  22.621  25.012  1.00  0.00    -0.051 A 
ATOM     23  C   UNL A   1      38.267  21.770  25.460  1.00  0.00     0.044 C 
ENDBRANCH  14  17
ENDBRANCH  12  14
ENDBRANCH   7  12
ENDBRANCH   4   7
ENDBRANCH   2   3
ENDBRANCH   1   2
BRANCH   1  24
ATOM     24  C   UNL A   1      32.089  29.740  26.944  1.00  0.00     0.023 C 
BRANCH  24  25
ATOM     25  C   UNL A   1      33.593  29.880  26.849  1.00  0.00     0.116 C 
BRANCH  25  26
ATOM     26  N   UNL A   1      34.229  31.158  27.087  1.00  0.00    -0.352 N 
ATOM     27  C   UNL A   1      35.413  31.405  27.777  1.00  0.00     0.251 C 
ATOM     28  H   UNL A   1      33.770  31.945  26.717  1.00  0.00     0.163 HD
ATOM     29  O   UNL A   1      35.749  32.570  27.983  1.00  0.00    -0.269 OA
BRANCH  27  30
ATOM     30  C   UNL A   1      36.375  30.310  28.133  1.00  0.00     0.039 A 
ATOM     31  C   UNL A   1      36.290  29.694  29.398  1.00  0.00     0.014 A 
ATOM     32  C   UNL A   1      37.485  30.036  27.350  1.00  0.00     0.014 A 
ATOM     33  C   UNL A   1      37.385  28.999  29.915  1.00  0.00     0.010 A 
ATOM     34  C   UNL A   1      38.620  29.558  27.917  1.00  0.00     0.010 A 
ATOM     35  C   UNL A   1      38.571  29.054  29.207  1.00  0.00    -0.014 A 
BRANCH  35  36
ATOM     36  C   UNL A   1      39.863  28.545  29.591  1.00  0.00     0.031 A 
ATOM     37  C   UNL A   1      40.204  27.195  29.111  1.00  0.00     0.074 A 
ATOM     38  C   UNL A   1      40.760  29.512  29.884  1.00  0.00     0.049 A 
ATOM     39  N   UNL A   1      41.287  26.587  29.417  1.00  0.00    -0.248 NA
ATOM     40  C   UNL A   1      39.338  26.401  28.235  1.00  0.00     0.031 C 
ATOM     41  C   UNL A   1      42.206  29.529  29.703  1.00  0.00     0.029 A 
ATOM     42  N   UNL A   1      40.493  30.731  30.539  1.00  0.00    -0.354 N 
ATOM     43  C   UNL A   1      41.421  25.518  28.555  1.00  0.00     0.074 A 
ATOM     44  C   UNL A   1      40.123  25.356  27.954  1.00  0.00     0.031 C 
ATOM     45  C   UNL A   1      42.722  30.487  30.501  1.00  0.00     0.029 A 
ATOM     46  C   UNL A   1      41.629  30.955  31.347  1.00  0.00     0.049 A 
ATOM     47  H   UNL A   1      39.694  31.300  30.454  1.00  0.00     0.167 HD
ATOM     48  C   UNL A   1      42.676  25.022  28.366  1.00  0.00     0.037 A 
ATOM     49  C   UNL A   1      41.549  30.734  32.695  1.00  0.00     0.037 A 
ATOM     50  C   UNL A   1      43.624  25.791  29.176  1.00  0.00     0.049 A 
ATOM     51  C   UNL A   1      42.448  29.620  33.187  1.00  0.00     0.074 A 
ATOM     52  C   UNL A   1      44.524  26.807  28.904  1.00  0.00     0.029 A 
ATOM     53  N   UNL A   1      43.464  25.784  30.549  1.00  0.00    -0.354 N 
ATOM     54  N   UNL A   1      42.987  28.712  32.422  1.00  0.00    -0.248 NA
ATOM     55  C   UNL A   1      42.739  29.406  34.596  1.00  0.00     0.031 C 
ATOM     56  C   UNL A   1      44.935  27.372  30.150  1.00  0.00     0.029 A 
ATOM     57  C   UNL A   1      44.301  26.683  31.167  1.00  0.00     0.049 A 
ATOM     58  H   UNL A   1      42.826  25.205  31.026  1.00  0.00     0.167 HD
ATOM     59  C   UNL A   1      43.661  27.796  33.188  1.00  0.00     0.074 A 
ATOM     60  C   UNL A   1      43.440  28.260  34.548  1.00  0.00     0.031 C 
ATOM     61  C   UNL A   1      44.302  26.724  32.621  1.00  0.00     0.037 A 
BRANCH  48  62
ATOM     62  C   UNL A   1      43.148  24.011  27.340  1.00  0.00     0.064 A 
ATOM     63  C   UNL A   1      43.905  24.456  26.228  1.00  0.00     0.173 A 
ATOM     64  C   UNL A   1      42.893  22.626  27.347  1.00  0.00     0.173 A 
ATOM     65  F   UNL A   1      44.302  25.731  26.116  1.00  0.00    -0.203 F 
ATOM     66  C   UNL A   1      44.294  23.611  25.186  1.00  0.00     0.198 A 
ATOM     67  C   UNL A   1      43.285  21.779  26.302  1.00  0.00     0.198 A 
ATOM     68  F   UNL A   1      42.281  22.017  28.362  1.00  0.00    -0.203 F 
ATOM     69  F   UNL A   1      44.982  24.111  24.150  1.00  0.00    -0.200 F 
ATOM     70  C   UNL A   1      43.974  22.273  25.216  1.00  0.00     0.200 A 
ATOM     71  F   UNL A   1      42.986  20.473  26.362  1.00  0.00    -0.200 F 
ATOM     72  F   UNL A   1      44.339  21.462  24.214  1.00  0.00    -0.200 F 
ENDBRANCH  48  62
BRANCH  49  73
ATOM     73  C   UNL A   1      40.194  31.007  33.266  1.00  0.00     0.064 A 
ATOM     74  C   UNL A   1      39.796  32.333  33.501  1.00  0.00     0.173 A 
ATOM     75  C   UNL A   1      39.184  30.035  33.203  1.00  0.00     0.173 A 
ATOM     76  F   UNL A   1      40.715  33.310  33.558  1.00  0.00    -0.203 F 
ATOM     77  C   UNL A   1      38.446  32.687  33.550  1.00  0.00     0.198 A 
ATOM     78  C   UNL A   1      37.834  30.397  33.233  1.00  0.00     0.198 A 
ATOM     79  F   UNL A   1      39.495  28.750  32.988  1.00  0.00    -0.203 F 
ATOM     80  F   UNL A   1      38.097  33.978  33.663  1.00  0.00    -0.200 F 
ATOM     81  C   UNL A   1      37.467  31.727  33.357  1.00  0.00     0.200 A 
ATOM     82  F   UNL A   1      36.887  29.465  33.055  1.00  0.00    -0.200 F 
ATOM     83  F   UNL A   1      36.181  32.086  33.237  1.00  0.00    -0.200 F 
ENDBRANCH  49  73
BRANCH  61  84
ATOM     84  C   UNL A   1      44.925  25.557  33.366  1.00  0.00     0.064 A 
ATOM     85  C   UNL A   1      44.192  24.635  34.122  1.00  0.00     0.173 A 
ATOM     86  C   UNL A   1      46.331  25.340  33.369  1.00  0.00     0.173 A 
ATOM     87  F   UNL A   1      42.895  24.832  34.389  1.00  0.00    -0.203 F 
ATOM     88  C   UNL A   1      44.788  23.501  34.685  1.00  0.00     0.198 A 
ATOM     89  C   UNL A   1      46.928  24.236  33.969  1.00  0.00     0.198 A 
ATOM     90  F   UNL A   1      47.199  26.176  32.790  1.00  0.00    -0.203 F 
ATOM     91  F   UNL A   1      44.025  22.605  35.325  1.00  0.00    -0.200 F 
ATOM     92  C   UNL A   1      46.153  23.294  34.596  1.00  0.00     0.200 A 
ATOM     93  F   UNL A   1      48.261  24.097  33.915  1.00  0.00    -0.200 F 
ATOM     94  F   UNL A   1      46.718  22.205  35.129  1.00  0.00    -0.200 F 
ENDBRANCH  61  84
ENDBRANCH  35  36
ENDBRANCH  27  30
ENDBRANCH  25  26
ENDBRANCH  24  25
ENDBRANCH   1  24
TORSDOF 16
ENDMDL
MODEL 3
REMARK VINA RESULT:     -12.7      3.358      9.521
REMARK SMILES CC[C@H](C)[C@H](NS(=O)(=O)c1ccc(C)cc1)C(=O)NCCCCNC(=O)c1ccc(-c2c3nc(c(-c4c(F)c(F)c(F)c(F)c4F)c4ccc([nH]4)c(-c4c(F)c(F)c(F)c(F)c4F)c4nc(c(-c5c(F)c(F)c(F)c(F)c5F)c5ccc2[nH]5)C=C4)C=C3)cc1
REMARK SMILES IDX 21 1 20 2 19 3 17 4 18 5 5 7 3 8 4 9 2 10 1 11 6 12 7 14
REMARK SMILES IDX 8 15 9 16 10 17 11 18 16 19 12 20 15 21 13 22 14 23 22 24
REMARK SMILES IDX 23 25 24 26 25 27 26 29 27 30 28 31 89 32 29 33 88 34 30 35
REMARK SMILES IDX 31 36 32 37 82 38 33 39 87 40 81 41 83 42 34 43 86 44 80 45
REMARK SMILES IDX 79 46 35 48 67 49 47 50 66 51 48 52 51 53 65 54 84 55 49 56
REMARK SMILES IDX 50 57 64 59 85 60 52 61 36 62 37 63 45 64 38 65 39 66 43 67
REMARK SMILES IDX 46 68 40 69 41 70 44 71 42 72 68 73 69 74 77 75 70 76 71 77
REMARK SMILES IDX 75 78 78 79 72 80 73 81 76 82 74 83 53 84 54 85 62 86 55 87
REMARK SMILES IDX 56 88 60 89 63 90 57 91 58 92 61 93 59 94
REMARK H PARENT 19 6 6 13 24 28 83 47 51 58
REMARK Flexibility Score: inf
ROOT
ATOM      1  C   UNL A   1      35.139  21.454  26.041  1.00  0.00     0.023 C 
ENDROOT
BRANCH   1   2
ATOM      2  C   UNL A   1      33.676  21.693  25.595  1.00  0.00     0.116 C 
BRANCH   2   3
ATOM      3  N   UNL A   1      32.928  22.513  26.519  1.00  0.00    -0.355 N 
ATOM      4  C   UNL A   1      32.525  23.803  26.531  1.00  0.00     0.238 C 
ATOM      5  O   UNL A   1      31.523  23.975  27.252  1.00  0.00    -0.273 OA
ATOM      6  H   UNL A   1      32.649  22.021  27.323  1.00  0.00     0.163 HD
BRANCH   4   7
ATOM      7  C   UNL A   1      33.116  25.027  25.806  1.00  0.00     0.161 C 
BRANCH   7   8
ATOM      8  C   UNL A   1      32.975  26.452  26.456  1.00  0.00     0.013 C 
ATOM      9  C   UNL A   1      34.028  27.454  26.011  1.00  0.00     0.010 C 
BRANCH   8  10
ATOM     10  C   UNL A   1      31.580  27.108  26.500  1.00  0.00     0.002 C 
ATOM     11  C   UNL A   1      31.557  28.612  26.732  1.00  0.00     0.004 C 
ENDBRANCH   8  10
ENDBRANCH   7   8
BRANCH   7  12
ATOM     12  N   UNL A   1      33.497  25.183  24.385  1.00  0.00    -0.198 NA
ATOM     13  H   UNL A   1      34.187  24.444  24.249  1.00  0.00     0.142 HD
BRANCH  12  14
ATOM     14  S   UNL A   1      32.650  25.172  22.964  1.00  0.00     0.241 S 
ATOM     15  O   UNL A   1      33.653  25.307  21.933  1.00  0.00    -0.207 OA
ATOM     16  O   UNL A   1      31.779  24.021  22.976  1.00  0.00    -0.207 OA
BRANCH  14  17
ATOM     17  C   UNL A   1      31.687  26.664  22.930  1.00  0.00     0.082 A 
ATOM     18  C   UNL A   1      32.289  27.906  22.726  1.00  0.00     0.022 A 
ATOM     19  C   UNL A   1      30.312  26.605  23.110  1.00  0.00     0.022 A 
ATOM     20  C   UNL A   1      31.533  29.072  22.901  1.00  0.00     0.005 A 
ATOM     21  C   UNL A   1      29.578  27.751  23.369  1.00  0.00     0.005 A 
ATOM     22  C   UNL A   1      30.189  28.992  23.286  1.00  0.00    -0.051 A 
ATOM     23  C   UNL A   1      29.366  30.214  23.501  1.00  0.00     0.044 C 
ENDBRANCH  14  17
ENDBRANCH  12  14
ENDBRANCH   7  12
ENDBRANCH   4   7
ENDBRANCH   2   3
ENDBRANCH   1   2
BRANCH   1  24
ATOM     24  C   UNL A   1      36.271  21.654  25.023  1.00  0.00     0.023 C 
BRANCH  24  25
ATOM     25  C   UNL A   1      37.418  22.550  25.435  1.00  0.00     0.116 C 
BRANCH  25  26
ATOM     26  N   UNL A   1      38.515  22.028  26.223  1.00  0.00    -0.352 N 
ATOM     27  C   UNL A   1      39.527  22.744  26.855  1.00  0.00     0.251 C 
ATOM     28  H   UNL A   1      38.547  21.049  26.322  1.00  0.00     0.163 HD
ATOM     29  O   UNL A   1      40.447  22.127  27.388  1.00  0.00    -0.269 OA
BRANCH  27  30
ATOM     30  C   UNL A   1      39.452  24.229  27.052  1.00  0.00     0.039 A 
ATOM     31  C   UNL A   1      40.095  25.086  26.137  1.00  0.00     0.014 A 
ATOM     32  C   UNL A   1      38.964  24.781  28.226  1.00  0.00     0.014 A 
ATOM     33  C   UNL A   1      40.403  26.399  26.500  1.00  0.00     0.010 A 
ATOM     34  C   UNL A   1      39.441  25.969  28.673  1.00  0.00     0.010 A 
ATOM     35  C   UNL A   1      40.175  26.770  27.812  1.00  0.00    -0.014 A 
BRANCH  35  36
ATOM     36  C   UNL A   1      40.530  28.004  28.463  1.00  0.00     0.031 A 
ATOM     37  C   UNL A   1      39.486  29.042  28.514  1.00  0.00     0.074 A 
ATOM     38  C   UNL A   1      41.536  27.875  29.356  1.00  0.00     0.049 A 
ATOM     39  N   UNL A   1      39.670  30.209  29.005  1.00  0.00    -0.248 NA
ATOM     40  C   UNL A   1      38.126  28.853  28.002  1.00  0.00     0.031 C 
ATOM     41  C   UNL A   1      41.783  28.600  30.596  1.00  0.00     0.029 A 
ATOM     42  N   UNL A   1      42.665  27.040  29.230  1.00  0.00    -0.354 N 
ATOM     43  C   UNL A   1      38.429  30.786  29.182  1.00  0.00     0.074 A 
ATOM     44  C   UNL A   1      37.526  29.977  28.406  1.00  0.00     0.031 C 
ATOM     45  C   UNL A   1      43.081  28.445  30.927  1.00  0.00     0.029 A 
ATOM     46  C   UNL A   1      43.722  27.785  29.795  1.00  0.00     0.049 A 
ATOM     47  H   UNL A   1      42.707  26.138  28.837  1.00  0.00     0.167 HD
ATOM     48  C   UNL A   1      38.331  31.788  30.100  1.00  0.00     0.037 A 
ATOM     49  C   UNL A   1      44.637  28.383  28.971  1.00  0.00     0.037 A 
ATOM     50  C   UNL A   1      39.647  32.020  30.702  1.00  0.00     0.049 A 
ATOM     51  C   UNL A   1      44.635  29.894  29.050  1.00  0.00     0.074 A 
ATOM     52  C   UNL A   1      40.237  31.656  31.899  1.00  0.00     0.029 A 
ATOM     53  N   UNL A   1      40.680  32.420  29.876  1.00  0.00    -0.354 N 
ATOM     54  N   UNL A   1      43.667  30.608  29.553  1.00  0.00    -0.248 NA
ATOM     55  C   UNL A   1      45.700  30.714  28.491  1.00  0.00     0.031 C 
ATOM     56  C   UNL A   1      41.641  31.896  31.786  1.00  0.00     0.029 A 
ATOM     57  C   UNL A   1      41.888  32.424  30.532  1.00  0.00     0.049 A 
ATOM     58  H   UNL A   1      40.564  32.671  28.931  1.00  0.00     0.167 HD
ATOM     59  C   UNL A   1      43.932  31.942  29.382  1.00  0.00     0.074 A 
ATOM     60  C   UNL A   1      45.203  31.949  28.676  1.00  0.00     0.031 C 
ATOM     61  C   UNL A   1      43.055  32.906  29.809  1.00  0.00     0.037 A 
BRANCH  48  62
ATOM     62  C   UNL A   1      37.082  32.450  30.647  1.00  0.00     0.064 A 
ATOM     63  C   UNL A   1      36.339  33.319  29.809  1.00  0.00     0.173 A 
ATOM     64  C   UNL A   1      36.563  32.321  31.948  1.00  0.00     0.173 A 
ATOM     65  F   UNL A   1      36.653  33.486  28.518  1.00  0.00    -0.203 F 
ATOM     66  C   UNL A   1      35.235  34.048  30.259  1.00  0.00     0.198 A 
ATOM     67  C   UNL A   1      35.455  33.050  32.399  1.00  0.00     0.198 A 
ATOM     68  F   UNL A   1      37.075  31.473  32.841  1.00  0.00    -0.203 F 
ATOM     69  F   UNL A   1      34.600  34.875  29.417  1.00  0.00    -0.200 F 
ATOM     70  C   UNL A   1      34.799  33.924  31.559  1.00  0.00     0.200 A 
ATOM     71  F   UNL A   1      35.030  32.896  33.661  1.00  0.00    -0.200 F 
ATOM     72  F   UNL A   1      33.746  34.628  31.995  1.00  0.00    -0.200 F 
ENDBRANCH  48  62
BRANCH  49  73
ATOM     73  C   UNL A   1      44.884  27.628  27.704  1.00  0.00     0.064 A 
ATOM     74  C   UNL A   1      45.667  26.462  27.735  1.00  0.00     0.173 A 
ATOM     75  C   UNL A   1      44.054  27.815  26.588  1.00  0.00     0.173 A 
ATOM     76  F   UNL A   1      46.471  26.220  28.782  1.00  0.00    -0.203 F 
ATOM     77  C   UNL A   1      45.536  25.475  26.754  1.00  0.00     0.198 A 
ATOM     78  C   UNL A   1      43.912  26.816  25.621  1.00  0.00     0.198 A 
ATOM     79  F   UNL A   1      43.285  28.909  26.494  1.00  0.00    -0.203 F 
ATOM     80  F   UNL A   1      46.215  24.324  26.871  1.00  0.00    -0.200 F 
ATOM     81  C   UNL A   1      44.616  25.628  25.731  1.00  0.00     0.200 A 
ATOM     82  F   UNL A   1      43.027  26.969  24.626  1.00  0.00    -0.200 F 
ATOM     83  F   UNL A   1      44.368  24.616  24.888  1.00  0.00    -0.200 F 
ENDBRANCH  49  73
BRANCH  61  84
ATOM     84  C   UNL A   1      43.150  34.393  29.522  1.00  0.00     0.064 A 
ATOM     85  C   UNL A   1      43.041  34.949  28.243  1.00  0.00     0.173 A 
ATOM     86  C   UNL A   1      43.393  35.338  30.558  1.00  0.00     0.173 A 
ATOM     87  F   UNL A   1      43.027  34.176  27.150  1.00  0.00    -0.203 F 
ATOM     88  C   UNL A   1      43.005  36.333  28.038  1.00  0.00     0.198 A 
ATOM     89  C   UNL A   1      43.403  36.713  30.347  1.00  0.00     0.198 A 
ATOM     90  F   UNL A   1      43.628  34.985  31.826  1.00  0.00    -0.203 F 
ATOM     91  F   UNL A   1      42.811  36.812  26.802  1.00  0.00    -0.200 F 
ATOM     92  C   UNL A   1      43.170  37.214  29.092  1.00  0.00     0.200 A 
ATOM     93  F   UNL A   1      43.627  37.537  31.381  1.00  0.00    -0.200 F 
ATOM     94  F   UNL A   1      43.127  38.537  28.893  1.00  0.00    -0.200 F 
ENDBRANCH  61  84
ENDBRANCH  35  36
ENDBRANCH  27  30
ENDBRANCH  25  26
ENDBRANCH  24  25
ENDBRANCH   1  24
TORSDOF 16
ENDMDL
