MODEL 1
REMARK VINA RESULT:     -12.5      0.000      0.000
REMARK SMILES O=C(CCn1cncc(-c2nc(-c3ccccc3)no2)c1=O)NCCCCNC(=O)c1ccc(-c2c3nc(c(-c4c(F)c(F)c(F)c(F)c4F)c4ccc([nH]4)c(-c4c(F)c(F)c(F)c(F)c4F)c4nc(c(-c5c(F)c(F)c(F)c(F)c5F)c5ccc2[nH]5)C=C4)C=C3)cc1
REMARK SMILES IDX 24 1 23 2 1 3 2 4 3 6 4 7 5 8 6 9 21 10 7 11 9 12 22 13 8 14
REMARK SMILES IDX 10 15 11 16 20 17 12 18 19 19 13 20 14 21 18 22 15 23 17 24
REMARK SMILES IDX 16 25 25 26 26 27 27 28 28 29 29 30 30 32 31 33 32 34 93 35
REMARK SMILES IDX 33 36 92 37 34 38 35 39 36 40 86 41 37 42 91 43 85 44 87 45
REMARK SMILES IDX 38 46 90 47 84 48 83 49 39 51 71 52 51 53 70 54 52 55 55 56
REMARK SMILES IDX 69 57 88 58 53 59 54 60 68 62 89 63 56 64 40 65 41 66 49 67
REMARK SMILES IDX 42 68 43 69 47 70 50 71 44 72 45 73 48 74 46 75 72 76 73 77
REMARK SMILES IDX 81 78 74 79 75 80 79 81 82 82 76 83 77 84 80 85 78 86 57 87
REMARK SMILES IDX 58 88 66 89 59 90 60 91 64 92 67 93 61 94 62 95 65 96 63 97
REMARK H PARENT 23 5 28 31 87 50 55 61
REMARK Flexibility Score: inf
ROOT
ATOM      1  C   UNL A   1      34.443  24.688  23.474  1.00  0.00     0.116 C 
ENDROOT
BRANCH   1   2
ATOM      2  N   UNL A   1      33.656  25.879  23.735  1.00  0.00    -0.356 N 
ATOM      3  O   UNL A   1      32.673  25.932  21.661  1.00  0.00    -0.275 OA
ATOM      4  C   UNL A   1      32.719  26.313  22.821  1.00  0.00     0.221 C 
ATOM      5  H   UNL A   1      33.792  26.381  24.571  1.00  0.00     0.163 HD
BRANCH   4   6
ATOM      6  C   UNL A   1      31.662  27.243  23.388  1.00  0.00     0.122 C 
BRANCH   6   7
ATOM      7  C   UNL A   1      30.395  26.443  23.735  1.00  0.00     0.137 C 
BRANCH   7   8
ATOM      8  N   UNL A   1      30.643  25.323  24.653  1.00  0.00    -0.298 N 
ATOM      9  C   UNL A   1      30.562  25.494  26.010  1.00  0.00     0.202 A 
ATOM     10  C   UNL A   1      30.641  24.028  24.184  1.00  0.00     0.266 A 
ATOM     11  N   UNL A   1      30.756  24.554  26.878  1.00  0.00    -0.246 NA
ATOM     12  C   UNL A   1      31.234  23.024  25.088  1.00  0.00     0.123 A 
ATOM     13  O   UNL A   1      30.112  23.699  23.127  1.00  0.00    -0.268 OA
ATOM     14  C   UNL A   1      31.185  23.345  26.387  1.00  0.00     0.132 A 
BRANCH  12  15
ATOM     15  C   UNL A   1      31.839  21.828  24.613  1.00  0.00     0.265 A 
ATOM     16  N   UNL A   1      32.110  20.725  25.300  1.00  0.00    -0.187 NA
ATOM     17  O   UNL A   1      32.155  21.635  23.283  1.00  0.00    -0.333 OA
ATOM     18  C   UNL A   1      32.645  19.856  24.377  1.00  0.00     0.202 A 
ATOM     19  N   UNL A   1      32.654  20.353  23.140  1.00  0.00    -0.057 NA
BRANCH  18  20
ATOM     20  C   UNL A   1      33.090  18.505  24.689  1.00  0.00     0.023 A 
ATOM     21  C   UNL A   1      32.265  17.641  25.414  1.00  0.00     0.012 A 
ATOM     22  C   UNL A   1      34.330  18.027  24.250  1.00  0.00     0.012 A 
ATOM     23  C   UNL A   1      32.696  16.346  25.728  1.00  0.00     0.001 A 
ATOM     24  C   UNL A   1      34.775  16.744  24.583  1.00  0.00     0.001 A 
ATOM     25  C   UNL A   1      33.956  15.905  25.327  1.00  0.00     0.000 A 
ENDBRANCH  18  20
ENDBRANCH  12  15
ENDBRANCH   7   8
ENDBRANCH   6   7
ENDBRANCH   4   6
ENDBRANCH   1   2
BRANCH   1  26
ATOM     26  C   UNL A   1      34.940  23.959  24.728  1.00  0.00     0.023 C 
BRANCH  26  27
ATOM     27  C   UNL A   1      35.370  22.496  24.563  1.00  0.00     0.023 C 
BRANCH  27  28
ATOM     28  C   UNL A   1      35.663  21.636  25.806  1.00  0.00     0.116 C 
BRANCH  28  29
ATOM     29  N   UNL A   1      36.858  20.803  25.646  1.00  0.00    -0.352 N 
ATOM     30  C   UNL A   1      38.218  21.021  25.724  1.00  0.00     0.251 C 
ATOM     31  H   UNL A   1      36.638  19.868  25.433  1.00  0.00     0.163 HD
ATOM     32  O   UNL A   1      38.948  20.093  25.364  1.00  0.00    -0.269 OA
BRANCH  30  33
ATOM     33  C   UNL A   1      38.883  22.295  26.148  1.00  0.00     0.039 A 
ATOM     34  C   UNL A   1      38.365  23.569  25.937  1.00  0.00     0.014 A 
ATOM     35  C   UNL A   1      40.056  22.192  26.922  1.00  0.00     0.014 A 
ATOM     36  C   UNL A   1      39.063  24.712  26.403  1.00  0.00     0.010 A 
ATOM     37  C   UNL A   1      40.727  23.328  27.420  1.00  0.00     0.010 A 
ATOM     38  C   UNL A   1      40.272  24.622  27.130  1.00  0.00    -0.014 A 
BRANCH  38  39
ATOM     39  C   UNL A   1      41.034  25.856  27.562  1.00  0.00     0.031 A 
ATOM     40  C   UNL A   1      42.481  26.109  27.159  1.00  0.00     0.074 A 
ATOM     41  C   UNL A   1      40.441  26.809  28.315  1.00  0.00     0.049 A 
ATOM     42  N   UNL A   1      43.227  27.177  27.357  1.00  0.00    -0.248 NA
ATOM     43  C   UNL A   1      43.185  25.037  26.445  1.00  0.00     0.031 C 
ATOM     44  C   UNL A   1      39.084  26.741  28.846  1.00  0.00     0.029 A 
ATOM     45  N   UNL A   1      40.906  28.035  28.750  1.00  0.00    -0.354 N 
ATOM     46  C   UNL A   1      44.461  26.911  26.772  1.00  0.00     0.074 A 
ATOM     47  C   UNL A   1      44.381  25.570  26.235  1.00  0.00     0.031 C 
ATOM     48  C   UNL A   1      38.801  27.892  29.479  1.00  0.00     0.029 A 
ATOM     49  C   UNL A   1      39.972  28.769  29.443  1.00  0.00     0.049 A 
ATOM     50  H   UNL A   1      41.821  28.355  28.579  1.00  0.00     0.167 HD
ATOM     51  C   UNL A   1      45.566  27.696  26.673  1.00  0.00     0.037 A 
ATOM     52  C   UNL A   1      40.029  30.000  29.997  1.00  0.00     0.037 A 
ATOM     53  C   UNL A   1      45.708  29.026  27.208  1.00  0.00     0.049 A 
ATOM     54  C   UNL A   1      41.283  30.829  29.929  1.00  0.00     0.074 A 
ATOM     55  C   UNL A   1      46.792  29.885  27.100  1.00  0.00     0.029 A 
ATOM     56  N   UNL A   1      44.758  29.686  27.967  1.00  0.00    -0.354 N 
ATOM     57  N   UNL A   1      42.412  30.576  29.320  1.00  0.00    -0.248 NA
ATOM     58  C   UNL A   1      41.268  32.121  30.639  1.00  0.00     0.031 C 
ATOM     59  C   UNL A   1      46.520  31.042  27.836  1.00  0.00     0.029 A 
ATOM     60  C   UNL A   1      45.245  30.927  28.359  1.00  0.00     0.049 A 
ATOM     61  H   UNL A   1      43.869  29.330  28.195  1.00  0.00     0.167 HD
ATOM     62  C   UNL A   1      43.234  31.670  29.566  1.00  0.00     0.074 A 
ATOM     63  C   UNL A   1      42.470  32.604  30.361  1.00  0.00     0.031 C 
ATOM     64  C   UNL A   1      44.513  31.867  29.164  1.00  0.00     0.037 A 
BRANCH  51  65
ATOM     65  C   UNL A   1      46.754  27.143  25.936  1.00  0.00     0.064 A 
ATOM     66  C   UNL A   1      46.961  27.424  24.578  1.00  0.00     0.173 A 
ATOM     67  C   UNL A   1      47.757  26.440  26.623  1.00  0.00     0.173 A 
ATOM     68  F   UNL A   1      46.035  28.096  23.879  1.00  0.00    -0.203 F 
ATOM     69  C   UNL A   1      48.124  27.014  23.932  1.00  0.00     0.198 A 
ATOM     70  C   UNL A   1      48.930  26.053  25.980  1.00  0.00     0.198 A 
ATOM     71  F   UNL A   1      47.616  26.164  27.928  1.00  0.00    -0.203 F 
ATOM     72  F   UNL A   1      48.295  27.279  22.629  1.00  0.00    -0.200 F 
ATOM     73  C   UNL A   1      49.112  26.339  24.636  1.00  0.00     0.200 A 
ATOM     74  F   UNL A   1      49.892  25.421  26.665  1.00  0.00    -0.200 F 
ATOM     75  F   UNL A   1      50.243  25.969  24.018  1.00  0.00    -0.200 F 
ENDBRANCH  51  65
BRANCH  52  76
ATOM     76  C   UNL A   1      38.823  30.546  30.671  1.00  0.00     0.064 A 
ATOM     77  C   UNL A   1      38.661  30.426  32.059  1.00  0.00     0.173 A 
ATOM     78  C   UNL A   1      37.819  31.206  29.948  1.00  0.00     0.173 A 
ATOM     79  F   UNL A   1      39.578  29.770  32.785  1.00  0.00    -0.203 F 
ATOM     80  C   UNL A   1      37.542  30.952  32.698  1.00  0.00     0.198 A 
ATOM     81  C   UNL A   1      36.715  31.756  30.592  1.00  0.00     0.198 A 
ATOM     82  F   UNL A   1      37.925  31.333  28.617  1.00  0.00    -0.203 F 
ATOM     83  F   UNL A   1      37.395  30.800  34.021  1.00  0.00    -0.200 F 
ATOM     84  C   UNL A   1      36.575  31.626  31.966  1.00  0.00     0.200 A 
ATOM     85  F   UNL A   1      35.787  32.414  29.884  1.00  0.00    -0.200 F 
ATOM     86  F   UNL A   1      35.508  32.149  32.585  1.00  0.00    -0.200 F 
ENDBRANCH  52  76
BRANCH  64  87
ATOM     87  C   UNL A   1      45.195  33.145  29.567  1.00  0.00     0.064 A 
ATOM     88  C   UNL A   1      45.079  34.311  28.795  1.00  0.00     0.173 A 
ATOM     89  C   UNL A   1      45.924  33.224  30.764  1.00  0.00     0.173 A 
ATOM     90  F   UNL A   1      44.403  34.289  27.637  1.00  0.00    -0.203 F 
ATOM     91  C   UNL A   1      45.680  35.502  29.198  1.00  0.00     0.198 A 
ATOM     92  C   UNL A   1      46.503  34.422  31.175  1.00  0.00     0.198 A 
ATOM     93  F   UNL A   1      46.061  32.142  31.545  1.00  0.00    -0.203 F 
ATOM     94  F   UNL A   1      45.584  36.595  28.428  1.00  0.00    -0.200 F 
ATOM     95  C   UNL A   1      46.386  35.559  30.391  1.00  0.00     0.200 A 
ATOM     96  F   UNL A   1      47.174  34.478  32.335  1.00  0.00    -0.200 F 
ATOM     97  F   UNL A   1      46.955  36.708  30.782  1.00  0.00    -0.200 F 
ENDBRANCH  64  87
ENDBRANCH  38  39
ENDBRANCH  30  33
ENDBRANCH  28  29
ENDBRANCH  27  28
ENDBRANCH  26  27
ENDBRANCH   1  26
TORSDOF 15
ENDMDL
MODEL 2
REMARK VINA RESULT:     -12.4      2.755      8.879
REMARK SMILES O=C(CCn1cncc(-c2nc(-c3ccccc3)no2)c1=O)NCCCCNC(=O)c1ccc(-c2c3nc(c(-c4c(F)c(F)c(F)c(F)c4F)c4ccc([nH]4)c(-c4c(F)c(F)c(F)c(F)c4F)c4nc(c(-c5c(F)c(F)c(F)c(F)c5F)c5ccc2[nH]5)C=C4)C=C3)cc1
REMARK SMILES IDX 24 1 23 2 1 3 2 4 3 6 4 7 5 8 6 9 21 10 7 11 9 12 22 13 8 14
REMARK SMILES IDX 10 15 11 16 20 17 12 18 19 19 13 20 14 21 18 22 15 23 17 24
REMARK SMILES IDX 16 25 25 26 26 27 27 28 28 29 29 30 30 32 31 33 32 34 93 35
REMARK SMILES IDX 33 36 92 37 34 38 35 39 36 40 86 41 37 42 91 43 85 44 87 45
REMARK SMILES IDX 38 46 90 47 84 48 83 49 39 51 71 52 51 53 70 54 52 55 55 56
REMARK SMILES IDX 69 57 88 58 53 59 54 60 68 62 89 63 56 64 40 65 41 66 49 67
REMARK SMILES IDX 42 68 43 69 47 70 50 71 44 72 45 73 48 74 46 75 72 76 73 77
REMARK SMILES IDX 81 78 74 79 75 80 79 81 82 82 76 83 77 84 80 85 78 86 57 87
REMARK SMILES IDX 58 88 66 89 59 90 60 91 64 92 67 93 61 94 62 95 65 96 63 97
REMARK H PARENT 23 5 28 31 87 50 55 61
REMARK Flexibility Score: inf
ROOT
ATOM      1  C   UNL A   1      40.920  21.461  26.259  1.00  0.00     0.116 C 
ENDROOT
BRANCH   1   2
ATOM      2  N   UNL A   1      39.662  20.806  25.950  1.00  0.00    -0.356 N 
ATOM      3  O   UNL A   1      38.394  22.714  26.116  1.00  0.00    -0.275 OA
ATOM      4  C   UNL A   1      38.512  21.547  25.770  1.00  0.00     0.221 C 
ATOM      5  H   UNL A   1      39.627  19.825  25.869  1.00  0.00     0.163 HD
BRANCH   4   6
ATOM      6  C   UNL A   1      37.411  20.835  25.006  1.00  0.00     0.122 C 
BRANCH   6   7
ATOM      7  C   UNL A   1      36.473  21.869  24.360  1.00  0.00     0.137 C 
BRANCH   7   8
ATOM      8  N   UNL A   1      35.099  21.815  24.874  1.00  0.00    -0.298 N 
ATOM      9  C   UNL A   1      34.441  20.620  25.005  1.00  0.00     0.202 A 
ATOM     10  C   UNL A   1      34.560  22.900  25.530  1.00  0.00     0.266 A 
ATOM     11  N   UNL A   1      33.237  20.494  25.460  1.00  0.00    -0.246 NA
ATOM     12  C   UNL A   1      33.094  22.881  25.693  1.00  0.00     0.123 A 
ATOM     13  O   UNL A   1      35.244  23.790  26.025  1.00  0.00    -0.268 OA
ATOM     14  C   UNL A   1      32.551  21.658  25.709  1.00  0.00     0.132 A 
BRANCH  12  15
ATOM     15  C   UNL A   1      32.318  24.069  25.791  1.00  0.00     0.265 A 
ATOM     16  N   UNL A   1      32.174  25.024  24.881  1.00  0.00    -0.187 NA
ATOM     17  O   UNL A   1      31.510  24.338  26.878  1.00  0.00    -0.333 OA
ATOM     18  C   UNL A   1      31.293  25.919  25.444  1.00  0.00     0.202 A 
ATOM     19  N   UNL A   1      30.839  25.523  26.633  1.00  0.00    -0.057 NA
BRANCH  18  20
ATOM     20  C   UNL A   1      30.837  27.138  24.790  1.00  0.00     0.023 A 
ATOM     21  C   UNL A   1      29.816  27.087  23.838  1.00  0.00     0.012 A 
ATOM     22  C   UNL A   1      31.381  28.386  25.116  1.00  0.00     0.012 A 
ATOM     23  C   UNL A   1      29.386  28.256  23.197  1.00  0.00     0.001 A 
ATOM     24  C   UNL A   1      30.973  29.552  24.462  1.00  0.00     0.001 A 
ATOM     25  C   UNL A   1      29.975  29.484  23.497  1.00  0.00     0.000 A 
ENDBRANCH  18  20
ENDBRANCH  12  15
ENDBRANCH   7   8
ENDBRANCH   6   7
ENDBRANCH   4   6
ENDBRANCH   1   2
BRANCH   1  26
ATOM     26  C   UNL A   1      42.030  20.520  26.744  1.00  0.00     0.023 C 
BRANCH  26  27
ATOM     27  C   UNL A   1      42.167  19.171  26.027  1.00  0.00     0.023 C 
BRANCH  27  28
ATOM     28  C   UNL A   1      43.466  18.356  26.166  1.00  0.00     0.116 C 
BRANCH  28  29
ATOM     29  N   UNL A   1      44.270  18.364  24.940  1.00  0.00    -0.352 N 
ATOM     30  C   UNL A   1      44.894  19.336  24.188  1.00  0.00     0.251 C 
ATOM     31  H   UNL A   1      44.392  17.462  24.565  1.00  0.00     0.163 HD
ATOM     32  O   UNL A   1      45.359  18.982  23.101  1.00  0.00    -0.269 OA
BRANCH  30  33
ATOM     33  C   UNL A   1      45.007  20.788  24.544  1.00  0.00     0.039 A 
ATOM     34  C   UNL A   1      44.536  21.836  23.759  1.00  0.00     0.014 A 
ATOM     35  C   UNL A   1      45.517  21.110  25.818  1.00  0.00     0.014 A 
ATOM     36  C   UNL A   1      44.668  23.178  24.200  1.00  0.00     0.010 A 
ATOM     37  C   UNL A   1      45.610  22.442  26.272  1.00  0.00     0.010 A 
ATOM     38  C   UNL A   1      45.232  23.514  25.453  1.00  0.00    -0.014 A 
BRANCH  38  39
ATOM     39  C   UNL A   1      45.423  24.954  25.877  1.00  0.00     0.031 A 
ATOM     40  C   UNL A   1      44.295  25.792  26.467  1.00  0.00     0.074 A 
ATOM     41  C   UNL A   1      46.629  25.555  25.770  1.00  0.00     0.049 A 
ATOM     42  N   UNL A   1      44.340  27.003  26.984  1.00  0.00    -0.248 NA
ATOM     43  C   UNL A   1      42.950  25.205  26.485  1.00  0.00     0.031 C 
ATOM     44  C   UNL A   1      47.824  24.950  25.190  1.00  0.00     0.029 A 
ATOM     45  N   UNL A   1      47.051  26.810  26.163  1.00  0.00    -0.354 N 
ATOM     46  C   UNL A   1      43.047  27.301  27.404  1.00  0.00     0.074 A 
ATOM     47  C   UNL A   1      42.229  26.158  27.059  1.00  0.00     0.031 C 
ATOM     48  C   UNL A   1      48.855  25.801  25.319  1.00  0.00     0.029 A 
ATOM     49  C   UNL A   1      48.390  27.038  25.948  1.00  0.00     0.049 A 
ATOM     50  H   UNL A   1      46.450  27.480  26.560  1.00  0.00     0.167 HD
ATOM     51  C   UNL A   1      42.567  28.408  28.027  1.00  0.00     0.037 A 
ATOM     52  C   UNL A   1      49.172  28.106  26.215  1.00  0.00     0.037 A 
ATOM     53  C   UNL A   1      43.329  29.581  28.373  1.00  0.00     0.049 A 
ATOM     54  C   UNL A   1      48.607  29.348  26.851  1.00  0.00     0.074 A 
ATOM     55  C   UNL A   1      42.902  30.717  29.045  1.00  0.00     0.029 A 
ATOM     56  N   UNL A   1      44.661  29.786  28.062  1.00  0.00    -0.354 N 
ATOM     57  N   UNL A   1      47.397  29.578  27.290  1.00  0.00    -0.248 NA
ATOM     58  C   UNL A   1      49.526  30.488  27.019  1.00  0.00     0.031 C 
ATOM     59  C   UNL A   1      43.959  31.631  29.095  1.00  0.00     0.029 A 
ATOM     60  C   UNL A   1      45.060  31.043  28.501  1.00  0.00     0.049 A 
ATOM     61  H   UNL A   1      45.241  29.139  27.600  1.00  0.00     0.167 HD
ATOM     62  C   UNL A   1      47.410  30.876  27.788  1.00  0.00     0.074 A 
ATOM     63  C   UNL A   1      48.753  31.381  27.621  1.00  0.00     0.031 C 
ATOM     64  C   UNL A   1      46.386  31.576  28.332  1.00  0.00     0.037 A 
BRANCH  51  65
ATOM     65  C   UNL A   1      41.111  28.426  28.402  1.00  0.00     0.064 A 
ATOM     66  C   UNL A   1      40.686  28.051  29.684  1.00  0.00     0.173 A 
ATOM     67  C   UNL A   1      40.152  28.944  27.516  1.00  0.00     0.173 A 
ATOM     68  F   UNL A   1      41.564  27.554  30.568  1.00  0.00    -0.203 F 
ATOM     69  C   UNL A   1      39.354  28.186  30.066  1.00  0.00     0.198 A 
ATOM     70  C   UNL A   1      38.825  29.101  27.909  1.00  0.00     0.198 A 
ATOM     71  F   UNL A   1      40.510  29.336  26.285  1.00  0.00    -0.203 F 
ATOM     72  F   UNL A   1      38.967  27.806  31.291  1.00  0.00    -0.200 F 
ATOM     73  C   UNL A   1      38.427  28.721  29.182  1.00  0.00     0.200 A 
ATOM     74  F   UNL A   1      37.935  29.638  27.063  1.00  0.00    -0.200 F 
ATOM     75  F   UNL A   1      37.150  28.875  29.560  1.00  0.00    -0.200 F 
ENDBRANCH  51  65
BRANCH  52  76
ATOM     76  C   UNL A   1      50.620  28.043  25.887  1.00  0.00     0.064 A 
ATOM     77  C   UNL A   1      51.063  28.200  24.566  1.00  0.00     0.173 A 
ATOM     78  C   UNL A   1      51.586  27.837  26.882  1.00  0.00     0.173 A 
ATOM     79  F   UNL A   1      50.172  28.362  23.576  1.00  0.00    -0.203 F 
ATOM     80  C   UNL A   1      52.419  28.160  24.255  1.00  0.00     0.198 A 
ATOM     81  C   UNL A   1      52.942  27.825  26.574  1.00  0.00     0.198 A 
ATOM     82  F   UNL A   1      51.208  27.669  28.158  1.00  0.00    -0.203 F 
ATOM     83  F   UNL A   1      52.817  28.284  22.981  1.00  0.00    -0.200 F 
ATOM     84  C   UNL A   1      53.359  27.984  25.260  1.00  0.00     0.200 A 
ATOM     85  F   UNL A   1      53.848  27.664  27.548  1.00  0.00    -0.200 F 
ATOM     86  F   UNL A   1      54.665  27.964  24.962  1.00  0.00    -0.200 F 
ENDBRANCH  52  76
BRANCH  64  87
ATOM     87  C   UNL A   1      46.655  32.980  28.798  1.00  0.00     0.064 A 
ATOM     88  C   UNL A   1      47.132  33.243  30.091  1.00  0.00     0.173 A 
ATOM     89  C   UNL A   1      46.489  34.070  27.929  1.00  0.00     0.173 A 
ATOM     90  F   UNL A   1      47.297  32.239  30.965  1.00  0.00    -0.203 F 
ATOM     91  C   UNL A   1      47.418  34.544  30.501  1.00  0.00     0.198 A 
ATOM     92  C   UNL A   1      46.800  35.366  28.334  1.00  0.00     0.198 A 
ATOM     93  F   UNL A   1      46.043  33.877  26.679  1.00  0.00    -0.203 F 
ATOM     94  F   UNL A   1      47.842  34.774  31.752  1.00  0.00    -0.200 F 
ATOM     95  C   UNL A   1      47.259  35.604  29.621  1.00  0.00     0.200 A 
ATOM     96  F   UNL A   1      46.656  36.388  27.478  1.00  0.00    -0.200 F 
ATOM     97  F   UNL A   1      47.544  36.853  30.013  1.00  0.00    -0.200 F 
ENDBRANCH  64  87
ENDBRANCH  38  39
ENDBRANCH  30  33
ENDBRANCH  28  29
ENDBRANCH  27  28
ENDBRANCH  26  27
ENDBRANCH   1  26
TORSDOF 15
ENDMDL
MODEL 3
REMARK VINA RESULT:     -12.4      7.809     10.550
REMARK SMILES O=C(CCn1cncc(-c2nc(-c3ccccc3)no2)c1=O)NCCCCNC(=O)c1ccc(-c2c3nc(c(-c4c(F)c(F)c(F)c(F)c4F)c4ccc([nH]4)c(-c4c(F)c(F)c(F)c(F)c4F)c4nc(c(-c5c(F)c(F)c(F)c(F)c5F)c5ccc2[nH]5)C=C4)C=C3)cc1
REMARK SMILES IDX 24 1 23 2 1 3 2 4 3 6 4 7 5 8 6 9 21 10 7 11 9 12 22 13 8 14
REMARK SMILES IDX 10 15 11 16 20 17 12 18 19 19 13 20 14 21 18 22 15 23 17 24
REMARK SMILES IDX 16 25 25 26 26 27 27 28 28 29 29 30 30 32 31 33 32 34 93 35
REMARK SMILES IDX 33 36 92 37 34 38 35 39 36 40 86 41 37 42 91 43 85 44 87 45
REMARK SMILES IDX 38 46 90 47 84 48 83 49 39 51 71 52 51 53 70 54 52 55 55 56
REMARK SMILES IDX 69 57 88 58 53 59 54 60 68 62 89 63 56 64 40 65 41 66 49 67
REMARK SMILES IDX 42 68 43 69 47 70 50 71 44 72 45 73 48 74 46 75 72 76 73 77
REMARK SMILES IDX 81 78 74 79 75 80 79 81 82 82 76 83 77 84 80 85 78 86 57 87
REMARK SMILES IDX 58 88 66 89 59 90 60 91 64 92 67 93 61 94 62 95 65 96 63 97
REMARK H PARENT 23 5 28 31 87 50 55 61
REMARK Flexibility Score: inf
ROOT
ATOM      1  C   UNL A   1      37.016  33.366  29.159  1.00  0.00     0.116 C 
ENDROOT
BRANCH   1   2
ATOM      2  N   UNL A   1      36.278  34.578  28.852  1.00  0.00    -0.356 N 
ATOM      3  O   UNL A   1      34.593  33.507  27.717  1.00  0.00    -0.275 OA
ATOM      4  C   UNL A   1      35.033  34.509  28.263  1.00  0.00     0.221 C 
ATOM      5  H   UNL A   1      36.669  35.456  29.065  1.00  0.00     0.163 HD
BRANCH   4   6
ATOM      6  C   UNL A   1      34.183  35.756  28.425  1.00  0.00     0.122 C 
BRANCH   6   7
ATOM      7  C   UNL A   1      33.054  35.489  29.435  1.00  0.00     0.137 C 
BRANCH   7   8
ATOM      8  N   UNL A   1      33.379  35.911  30.803  1.00  0.00    -0.298 N 
ATOM      9  C   UNL A   1      32.956  37.122  31.287  1.00  0.00     0.202 A 
ATOM     10  C   UNL A   1      33.827  34.991  31.725  1.00  0.00     0.266 A 
ATOM     11  N   UNL A   1      33.195  37.555  32.483  1.00  0.00    -0.246 NA
ATOM     12  C   UNL A   1      34.449  35.556  32.937  1.00  0.00     0.123 A 
ATOM     13  O   UNL A   1      33.653  33.782  31.603  1.00  0.00    -0.268 OA
ATOM     14  C   UNL A   1      34.028  36.786  33.258  1.00  0.00     0.132 A 
BRANCH  12  15
ATOM     15  C   UNL A   1      35.440  34.862  33.685  1.00  0.00     0.265 A 
ATOM     16  N   UNL A   1      36.759  34.953  33.569  1.00  0.00    -0.187 NA
ATOM     17  O   UNL A   1      35.124  34.027  34.738  1.00  0.00    -0.333 OA
ATOM     18  C   UNL A   1      37.258  34.121  34.544  1.00  0.00     0.202 A 
ATOM     19  N   UNL A   1      36.305  33.571  35.296  1.00  0.00    -0.057 NA
BRANCH  18  20
ATOM     20  C   UNL A   1      38.678  33.908  34.789  1.00  0.00     0.023 A 
ATOM     21  C   UNL A   1      39.630  34.700  34.142  1.00  0.00     0.012 A 
ATOM     22  C   UNL A   1      39.124  32.937  35.692  1.00  0.00     0.012 A 
ATOM     23  C   UNL A   1      40.997  34.488  34.364  1.00  0.00     0.001 A 
ATOM     24  C   UNL A   1      40.487  32.704  35.898  1.00  0.00     0.001 A 
ATOM     25  C   UNL A   1      41.424  33.481  35.228  1.00  0.00     0.000 A 
ENDBRANCH  18  20
ENDBRANCH  12  15
ENDBRANCH   7   8
ENDBRANCH   6   7
ENDBRANCH   4   6
ENDBRANCH   1   2
BRANCH   1  26
ATOM     26  C   UNL A   1      37.004  32.965  30.640  1.00  0.00     0.023 C 
BRANCH  26  27
ATOM     27  C   UNL A   1      36.181  31.729  31.023  1.00  0.00     0.023 C 
BRANCH  27  28
ATOM     28  C   UNL A   1      36.067  31.310  32.500  1.00  0.00     0.116 C 
BRANCH  28  29
ATOM     29  N   UNL A   1      36.656  29.992  32.758  1.00  0.00    -0.352 N 
ATOM     30  C   UNL A   1      37.863  29.389  32.473  1.00  0.00     0.251 C 
ATOM     31  H   UNL A   1      36.046  29.398  33.252  1.00  0.00     0.163 HD
ATOM     32  O   UNL A   1      37.948  28.181  32.714  1.00  0.00    -0.269 OA
BRANCH  30  33
ATOM     33  C   UNL A   1      39.052  30.051  31.845  1.00  0.00     0.039 A 
ATOM     34  C   UNL A   1      39.365  30.000  30.490  1.00  0.00     0.014 A 
ATOM     35  C   UNL A   1      39.841  30.884  32.663  1.00  0.00     0.014 A 
ATOM     36  C   UNL A   1      40.502  30.686  29.991  1.00  0.00     0.010 A 
ATOM     37  C   UNL A   1      40.948  31.598  32.156  1.00  0.00     0.010 A 
ATOM     38  C   UNL A   1      41.335  31.478  30.815  1.00  0.00    -0.014 A 
BRANCH  38  39
ATOM     39  C   UNL A   1      42.579  32.149  30.276  1.00  0.00     0.031 A 
ATOM     40  C   UNL A   1      43.896  31.405  30.090  1.00  0.00     0.074 A 
ATOM     41  C   UNL A   1      42.563  33.449  29.909  1.00  0.00     0.049 A 
ATOM     42  N   UNL A   1      45.015  31.819  29.529  1.00  0.00    -0.248 NA
ATOM     43  C   UNL A   1      43.976  30.028  30.590  1.00  0.00     0.031 C 
ATOM     44  C   UNL A   1      41.425  34.351  30.049  1.00  0.00     0.029 A 
ATOM     45  N   UNL A   1      43.537  34.235  29.325  1.00  0.00    -0.354 N 
ATOM     46  C   UNL A   1      45.905  30.751  29.589  1.00  0.00     0.074 A 
ATOM     47  C   UNL A   1      45.212  29.676  30.266  1.00  0.00     0.031 C 
ATOM     48  C   UNL A   1      41.737  35.542  29.512  1.00  0.00     0.029 A 
ATOM     49  C   UNL A   1      43.118  35.511  29.029  1.00  0.00     0.049 A 
ATOM     50  H   UNL A   1      44.448  33.913  29.138  1.00  0.00     0.167 HD
ATOM     51  C   UNL A   1      47.177  30.650  29.124  1.00  0.00     0.037 A 
ATOM     52  C   UNL A   1      43.751  36.550  28.442  1.00  0.00     0.037 A 
ATOM     53  C   UNL A   1      47.921  31.694  28.465  1.00  0.00     0.049 A 
ATOM     54  C   UNL A   1      45.182  36.437  27.989  1.00  0.00     0.074 A 
ATOM     55  C   UNL A   1      49.202  31.633  27.935  1.00  0.00     0.029 A 
ATOM     56  N   UNL A   1      47.473  32.987  28.263  1.00  0.00    -0.354 N 
ATOM     57  N   UNL A   1      45.978  35.399  28.006  1.00  0.00    -0.248 NA
ATOM     58  C   UNL A   1      45.806  37.655  27.441  1.00  0.00     0.031 C 
ATOM     59  C   UNL A   1      49.549  32.901  27.459  1.00  0.00     0.029 A 
ATOM     60  C   UNL A   1      48.465  33.739  27.645  1.00  0.00     0.049 A 
ATOM     61  H   UNL A   1      46.585  33.324  28.519  1.00  0.00     0.167 HD
ATOM     62  C   UNL A   1      47.185  35.833  27.469  1.00  0.00     0.074 A 
ATOM     63  C   UNL A   1      47.016  37.223  27.113  1.00  0.00     0.031 C 
ATOM     64  C   UNL A   1      48.328  35.128  27.296  1.00  0.00     0.037 A 
BRANCH  51  65
ATOM     65  C   UNL A   1      47.887  29.336  29.300  1.00  0.00     0.064 A 
ATOM     66  C   UNL A   1      48.605  29.051  30.470  1.00  0.00     0.173 A 
ATOM     67  C   UNL A   1      47.739  28.312  28.352  1.00  0.00     0.173 A 
ATOM     68  F   UNL A   1      48.771  29.994  31.409  1.00  0.00    -0.203 F 
ATOM     69  C   UNL A   1      49.156  27.789  30.682  1.00  0.00     0.198 A 
ATOM     70  C   UNL A   1      48.270  27.044  28.577  1.00  0.00     0.198 A 
ATOM     71  F   UNL A   1      47.045  28.528  27.225  1.00  0.00    -0.203 F 
ATOM     72  F   UNL A   1      49.852  27.542  31.800  1.00  0.00    -0.200 F 
ATOM     73  C   UNL A   1      48.979  26.784  29.741  1.00  0.00     0.200 A 
ATOM     74  F   UNL A   1      48.081  26.068  27.679  1.00  0.00    -0.200 F 
ATOM     75  F   UNL A   1      49.487  25.563  29.958  1.00  0.00    -0.200 F 
ENDBRANCH  51  65
BRANCH  52  76
ATOM     76  C   UNL A   1      43.011  37.821  28.228  1.00  0.00     0.064 A 
ATOM     77  C   UNL A   1      42.239  38.014  27.073  1.00  0.00     0.173 A 
ATOM     78  C   UNL A   1      43.050  38.856  29.172  1.00  0.00     0.173 A 
ATOM     79  F   UNL A   1      42.202  37.066  26.126  1.00  0.00    -0.203 F 
ATOM     80  C   UNL A   1      41.529  39.195  26.876  1.00  0.00     0.198 A 
ATOM     81  C   UNL A   1      42.318  40.024  28.986  1.00  0.00     0.198 A 
ATOM     82  F   UNL A   1      43.786  38.720  30.285  1.00  0.00    -0.203 F 
ATOM     83  F   UNL A   1      40.820  39.369  25.752  1.00  0.00    -0.200 F 
ATOM     84  C   UNL A   1      41.559  40.194  27.838  1.00  0.00     0.200 A 
ATOM     85  F   UNL A   1      42.342  40.984  29.921  1.00  0.00    -0.200 F 
ATOM     86  F   UNL A   1      40.861  41.323  27.655  1.00  0.00    -0.200 F 
ENDBRANCH  52  76
BRANCH  64  87
ATOM     87  C   UNL A   1      49.511  35.831  26.691  1.00  0.00     0.064 A 
ATOM     88  C   UNL A   1      50.497  36.427  27.493  1.00  0.00     0.173 A 
ATOM     89  C   UNL A   1      49.695  35.863  25.300  1.00  0.00     0.173 A 
ATOM     90  F   UNL A   1      50.365  36.435  28.828  1.00  0.00    -0.203 F 
ATOM     91  C   UNL A   1      51.611  37.041  26.925  1.00  0.00     0.198 A 
ATOM     92  C   UNL A   1      50.822  36.457  24.737  1.00  0.00     0.198 A 
ATOM     93  F   UNL A   1      48.788  35.303  24.485  1.00  0.00    -0.203 F 
ATOM     94  F   UNL A   1      52.523  37.632  27.710  1.00  0.00    -0.200 F 
ATOM     95  C   UNL A   1      51.777  37.050  25.549  1.00  0.00     0.200 A 
ATOM     96  F   UNL A   1      50.987  36.453  23.406  1.00  0.00    -0.200 F 
ATOM     97  F   UNL A   1      52.855  37.632  25.004  1.00  0.00    -0.200 F 
ENDBRANCH  64  87
ENDBRANCH  38  39
ENDBRANCH  30  33
ENDBRANCH  28  29
ENDBRANCH  27  28
ENDBRANCH  26  27
ENDBRANCH   1  26
TORSDOF 15
ENDMDL
