MODEL 1
REMARK VINA RESULT:     -12.7      0.000      0.000
REMARK SMILES C[C@@H]1[C@H](C)CCC[C@@H]1NC(=O)COc1csc(C(=O)NCCCCNC(=O)c2ccc(-c3c4nc(c(-c5c(F)c(F)c(F)c(F)c5F)c5ccc([nH]5)c(-c5c(F)c(F)c(F)c(F)c5F)c5nc(c(-c6c(F)c(F)c(F)c(F)c6F)c6ccc3[nH]6)C=C5)C=C4)cc2)c1
REMARK SMILES IDX 21 1 20 2 18 3 19 4 17 6 14 7 15 8 91 9 16 10 13 11 12 12
REMARK SMILES IDX 10 13 9 14 11 16 8 17 1 18 2 19 3 20 4 21 5 22 7 23 6 24
REMARK SMILES IDX 22 25 23 26 24 27 25 28 26 29 27 31 28 32 29 33 90 34 30 35
REMARK SMILES IDX 89 36 31 37 32 38 33 39 83 40 34 41 88 42 82 43 84 44 35 45
REMARK SMILES IDX 87 46 81 47 80 48 36 50 68 51 48 52 67 53 49 54 52 55 66 56
REMARK SMILES IDX 85 57 50 58 51 59 65 61 86 62 53 63 37 64 38 65 46 66 39 67
REMARK SMILES IDX 40 68 44 69 47 70 41 71 42 72 45 73 43 74 69 75 70 76 78 77
REMARK SMILES IDX 71 78 72 79 76 80 79 81 73 82 74 83 77 84 75 85 54 86 55 87
REMARK SMILES IDX 63 88 56 89 57 90 61 91 64 92 58 93 59 94 62 95 60 96
REMARK H PARENT 20 5 9 15 25 30 84 49 52 60
REMARK Flexibility Score: inf
ROOT
ATOM      1  C   UNL A   1      32.088  29.951  25.500  1.00  0.00     0.116 C 
ENDROOT
BRANCH   1   2
ATOM      2  N   UNL A   1      31.057  30.229  24.521  1.00  0.00    -0.351 N 
ATOM      3  C   UNL A   1      30.323  29.387  23.714  1.00  0.00     0.261 C 
ATOM      4  O   UNL A   1      29.400  29.925  23.096  1.00  0.00    -0.268 OA
ATOM      5  H   UNL A   1      30.844  31.184  24.415  1.00  0.00     0.163 HD
BRANCH   3   6
ATOM      6  C   UNL A   1      30.625  27.965  23.632  1.00  0.00     0.096 A 
ATOM      7  C   UNL A   1      30.737  25.638  23.962  1.00  0.00     0.131 A 
ATOM      8  C   UNL A   1      31.534  25.786  22.855  1.00  0.00     0.112 A 
ATOM      9  C   UNL A   1      30.309  26.905  24.461  1.00  0.00     0.072 A 
ATOM     10  S   UNL A   1      31.601  27.415  22.326  1.00  0.00    -0.135 S 
BRANCH   7  11
ATOM     11  O   UNL A   1      30.404  24.503  24.625  1.00  0.00    -0.483 OA
BRANCH  11  12
ATOM     12  C   UNL A   1      30.430  24.468  26.037  1.00  0.00     0.329 C 
BRANCH  12  13
ATOM     13  C   UNL A   1      30.699  23.267  26.949  1.00  0.00     0.258 C 
ATOM     14  N   UNL A   1      31.828  22.527  26.944  1.00  0.00    -0.350 N 
ATOM     15  H   UNL A   1      31.824  21.891  27.696  1.00  0.00     0.163 HD
ATOM     16  O   UNL A   1      29.831  22.915  27.761  1.00  0.00    -0.271 OA
BRANCH  14  17
ATOM     17  C   UNL A   1      33.060  22.380  26.163  1.00  0.00     0.085 C 
ATOM     18  C   UNL A   1      33.960  24.748  25.593  1.00  0.00     0.010 C 
ATOM     19  C   UNL A   1      34.182  23.428  26.336  1.00  0.00     0.011 C 
ATOM     20  C   UNL A   1      35.507  22.767  25.852  1.00  0.00    -0.009 C 
ATOM     21  C   UNL A   1      36.723  23.673  26.059  1.00  0.00     0.008 C 
ATOM     22  C   UNL A   1      35.391  22.305  24.382  1.00  0.00     0.004 C 
ATOM     23  C   UNL A   1      32.858  21.980  24.702  1.00  0.00     0.025 C 
ATOM     24  C   UNL A   1      34.169  21.413  24.133  1.00  0.00     0.002 C 
ENDBRANCH  14  17
ENDBRANCH  12  13
ENDBRANCH  11  12
ENDBRANCH   7  11
ENDBRANCH   3   6
ENDBRANCH   1   2
BRANCH   1  25
ATOM     25  C   UNL A   1      31.768  30.576  26.858  1.00  0.00     0.023 C 
BRANCH  25  26
ATOM     26  C   UNL A   1      31.553  32.092  26.829  1.00  0.00     0.023 C 
BRANCH  26  27
ATOM     27  C   UNL A   1      32.769  32.933  27.197  1.00  0.00     0.116 C 
BRANCH  27  28
ATOM     28  N   UNL A   1      32.429  34.275  27.645  1.00  0.00    -0.352 N 
ATOM     29  C   UNL A   1      32.985  35.012  28.663  1.00  0.00     0.251 C 
ATOM     30  H   UNL A   1      31.700  34.716  27.151  1.00  0.00     0.163 HD
ATOM     31  O   UNL A   1      32.498  36.093  28.981  1.00  0.00    -0.269 OA
BRANCH  29  32
ATOM     32  C   UNL A   1      34.155  34.485  29.398  1.00  0.00     0.039 A 
ATOM     33  C   UNL A   1      33.963  33.938  30.670  1.00  0.00     0.014 A 
ATOM     34  C   UNL A   1      35.432  34.517  28.833  1.00  0.00     0.014 A 
ATOM     35  C   UNL A   1      35.044  33.371  31.351  1.00  0.00     0.010 A 
ATOM     36  C   UNL A   1      36.489  33.880  29.476  1.00  0.00     0.010 A 
ATOM     37  C   UNL A   1      36.310  33.310  30.745  1.00  0.00    -0.014 A 
BRANCH  37  38
ATOM     38  C   UNL A   1      37.464  32.675  31.433  1.00  0.00     0.031 A 
ATOM     39  C   UNL A   1      38.199  31.540  30.772  1.00  0.00     0.074 A 
ATOM     40  C   UNL A   1      37.812  33.072  32.671  1.00  0.00     0.049 A 
ATOM     41  N   UNL A   1      39.182  30.808  31.232  1.00  0.00    -0.248 NA
ATOM     42  C   UNL A   1      37.748  31.158  29.425  1.00  0.00     0.031 C 
ATOM     43  C   UNL A   1      37.150  34.129  33.437  1.00  0.00     0.029 A 
ATOM     44  N   UNL A   1      38.804  32.627  33.508  1.00  0.00    -0.354 N 
ATOM     45  C   UNL A   1      39.454  29.875  30.240  1.00  0.00     0.074 A 
ATOM     46  C   UNL A   1      38.492  30.090  29.181  1.00  0.00     0.031 C 
ATOM     47  C   UNL A   1      37.769  34.268  34.620  1.00  0.00     0.029 A 
ATOM     48  C   UNL A   1      38.844  33.285  34.714  1.00  0.00     0.049 A 
ATOM     49  H   UNL A   1      39.427  31.905  33.268  1.00  0.00     0.167 HD
ATOM     50  C   UNL A   1      40.433  28.940  30.202  1.00  0.00     0.037 A 
ATOM     51  C   UNL A   1      39.655  33.111  35.776  1.00  0.00     0.037 A 
ATOM     52  C   UNL A   1      41.402  28.743  31.248  1.00  0.00     0.049 A 
ATOM     53  C   UNL A   1      40.731  32.058  35.712  1.00  0.00     0.074 A 
ATOM     54  C   UNL A   1      42.463  27.854  31.287  1.00  0.00     0.029 A 
ATOM     55  N   UNL A   1      41.425  29.443  32.446  1.00  0.00    -0.354 N 
ATOM     56  N   UNL A   1      41.019  31.224  34.743  1.00  0.00    -0.248 NA
ATOM     57  C   UNL A   1      41.601  31.932  36.889  1.00  0.00     0.031 C 
ATOM     58  C   UNL A   1      43.096  27.982  32.527  1.00  0.00     0.029 A 
ATOM     59  C   UNL A   1      42.470  28.995  33.236  1.00  0.00     0.049 A 
ATOM     60  H   UNL A   1      40.791  30.154  32.696  1.00  0.00     0.167 HD
ATOM     61  C   UNL A   1      42.127  30.504  35.175  1.00  0.00     0.074 A 
ATOM     62  C   UNL A   1      42.463  31.008  36.490  1.00  0.00     0.031 C 
ATOM     63  C   UNL A   1      42.805  29.519  34.537  1.00  0.00     0.037 A 
BRANCH  50  64
ATOM     64  C   UNL A   1      40.505  28.060  28.986  1.00  0.00     0.064 A 
ATOM     65  C   UNL A   1      39.785  26.856  28.901  1.00  0.00     0.173 A 
ATOM     66  C   UNL A   1      41.285  28.433  27.881  1.00  0.00     0.173 A 
ATOM     67  F   UNL A   1      39.033  26.445  29.934  1.00  0.00    -0.203 F 
ATOM     68  C   UNL A   1      39.874  26.045  27.774  1.00  0.00     0.198 A 
ATOM     69  C   UNL A   1      41.342  27.636  26.740  1.00  0.00     0.198 A 
ATOM     70  F   UNL A   1      41.989  29.574  27.904  1.00  0.00    -0.203 F 
ATOM     71  F   UNL A   1      39.226  24.872  27.742  1.00  0.00    -0.200 F 
ATOM     72  C   UNL A   1      40.645  26.439  26.691  1.00  0.00     0.200 A 
ATOM     73  F   UNL A   1      42.077  28.025  25.689  1.00  0.00    -0.200 F 
ATOM     74  F   UNL A   1      40.724  25.659  25.605  1.00  0.00    -0.200 F 
ENDBRANCH  50  64
BRANCH  51  75
ATOM     75  C   UNL A   1      39.504  33.972  36.978  1.00  0.00     0.064 A 
ATOM     76  C   UNL A   1      40.107  35.237  37.037  1.00  0.00     0.173 A 
ATOM     77  C   UNL A   1      38.770  33.548  38.095  1.00  0.00     0.173 A 
ATOM     78  F   UNL A   1      40.837  35.679  36.002  1.00  0.00    -0.203 F 
ATOM     79  C   UNL A   1      40.003  36.033  38.176  1.00  0.00     0.198 A 
ATOM     80  C   UNL A   1      38.639  34.359  39.221  1.00  0.00     0.198 A 
ATOM     81  F   UNL A   1      38.168  32.351  38.089  1.00  0.00    -0.203 F 
ATOM     82  F   UNL A   1      40.634  37.214  38.224  1.00  0.00    -0.200 F 
ATOM     83  C   UNL A   1      39.264  35.596  39.265  1.00  0.00     0.200 A 
ATOM     84  F   UNL A   1      37.911  33.939  40.265  1.00  0.00    -0.200 F 
ATOM     85  F   UNL A   1      39.163  36.363  40.359  1.00  0.00    -0.200 F 
ENDBRANCH  51  75
BRANCH  63  86
ATOM     86  C   UNL A   1      44.019  28.960  35.224  1.00  0.00     0.064 A 
ATOM     87  C   UNL A   1      43.938  27.879  36.115  1.00  0.00     0.173 A 
ATOM     88  C   UNL A   1      45.289  29.498  34.959  1.00  0.00     0.173 A 
ATOM     89  F   UNL A   1      42.748  27.337  36.413  1.00  0.00    -0.203 F 
ATOM     90  C   UNL A   1      45.079  27.381  36.740  1.00  0.00     0.198 A 
ATOM     91  C   UNL A   1      46.430  28.974  35.558  1.00  0.00     0.198 A 
ATOM     92  F   UNL A   1      45.423  30.526  34.108  1.00  0.00    -0.203 F 
ATOM     93  F   UNL A   1      44.971  26.385  37.632  1.00  0.00    -0.200 F 
ATOM     94  C   UNL A   1      46.323  27.923  36.455  1.00  0.00     0.200 A 
ATOM     95  F   UNL A   1      47.633  29.487  35.269  1.00  0.00    -0.200 F 
ATOM     96  F   UNL A   1      47.420  27.437  37.053  1.00  0.00    -0.200 F 
ENDBRANCH  63  86
ENDBRANCH  37  38
ENDBRANCH  29  32
ENDBRANCH  27  28
ENDBRANCH  26  27
ENDBRANCH  25  26
ENDBRANCH   1  25
TORSDOF 15
ENDMDL
MODEL 2
REMARK VINA RESULT:     -12.6      3.839      8.091
REMARK SMILES C[C@@H]1[C@H](C)CCC[C@@H]1NC(=O)COc1csc(C(=O)NCCCCNC(=O)c2ccc(-c3c4nc(c(-c5c(F)c(F)c(F)c(F)c5F)c5ccc([nH]5)c(-c5c(F)c(F)c(F)c(F)c5F)c5nc(c(-c6c(F)c(F)c(F)c(F)c6F)c6ccc3[nH]6)C=C5)C=C4)cc2)c1
REMARK SMILES IDX 21 1 20 2 18 3 19 4 17 6 14 7 15 8 91 9 16 10 13 11 12 12
REMARK SMILES IDX 10 13 9 14 11 16 8 17 1 18 2 19 3 20 4 21 5 22 7 23 6 24
REMARK SMILES IDX 22 25 23 26 24 27 25 28 26 29 27 31 28 32 29 33 90 34 30 35
REMARK SMILES IDX 89 36 31 37 32 38 33 39 83 40 34 41 88 42 82 43 84 44 35 45
REMARK SMILES IDX 87 46 81 47 80 48 36 50 68 51 48 52 67 53 49 54 52 55 66 56
REMARK SMILES IDX 85 57 50 58 51 59 65 61 86 62 53 63 37 64 38 65 46 66 39 67
REMARK SMILES IDX 40 68 44 69 47 70 41 71 42 72 45 73 43 74 69 75 70 76 78 77
REMARK SMILES IDX 71 78 72 79 76 80 79 81 73 82 74 83 77 84 75 85 54 86 55 87
REMARK SMILES IDX 63 88 56 89 57 90 61 91 64 92 58 93 59 94 62 95 60 96
REMARK H PARENT 20 5 9 15 25 30 84 49 52 60
REMARK Flexibility Score: inf
ROOT
ATOM      1  C   UNL A   1      34.334  21.491  27.023  1.00  0.00     0.116 C 
ENDROOT
BRANCH   1   2
ATOM      2  N   UNL A   1      33.529  20.421  26.472  1.00  0.00    -0.351 N 
ATOM      3  C   UNL A   1      32.557  20.429  25.495  1.00  0.00     0.261 C 
ATOM      4  O   UNL A   1      32.165  19.315  25.135  1.00  0.00    -0.268 OA
ATOM      5  H   UNL A   1      33.706  19.535  26.863  1.00  0.00     0.163 HD
BRANCH   3   6
ATOM      6  C   UNL A   1      32.063  21.677  24.930  1.00  0.00     0.096 A 
ATOM      7  C   UNL A   1      31.572  23.510  23.539  1.00  0.00     0.131 A 
ATOM      8  C   UNL A   1      30.838  23.822  24.655  1.00  0.00     0.112 A 
ATOM      9  C   UNL A   1      32.353  22.333  23.749  1.00  0.00     0.072 A 
ATOM     10  S   UNL A   1      30.952  22.606  25.859  1.00  0.00    -0.135 S 
BRANCH   7  11
ATOM     11  O   UNL A   1      31.682  24.196  22.374  1.00  0.00    -0.483 OA
BRANCH  11  12
ATOM     12  C   UNL A   1      31.814  25.602  22.386  1.00  0.00     0.329 C 
BRANCH  12  13
ATOM     13  C   UNL A   1      33.087  26.432  22.581  1.00  0.00     0.258 C 
ATOM     14  N   UNL A   1      33.354  27.199  23.661  1.00  0.00    -0.350 N 
ATOM     15  H   UNL A   1      34.278  27.537  23.620  1.00  0.00     0.163 HD
ATOM     16  O   UNL A   1      33.957  26.428  21.699  1.00  0.00    -0.271 OA
BRANCH  14  17
ATOM     17  C   UNL A   1      32.691  27.683  24.875  1.00  0.00     0.085 C 
ATOM     18  C   UNL A   1      34.404  29.064  26.253  1.00  0.00     0.010 C 
ATOM     19  C   UNL A   1      33.099  29.057  25.451  1.00  0.00     0.011 C 
ATOM     20  C   UNL A   1      31.925  29.547  26.350  1.00  0.00    -0.009 C 
ATOM     21  C   UNL A   1      32.164  30.951  26.912  1.00  0.00     0.008 C 
ATOM     22  C   UNL A   1      31.628  28.531  27.475  1.00  0.00     0.004 C 
ATOM     23  C   UNL A   1      32.487  26.632  25.966  1.00  0.00     0.025 C 
ATOM     24  C   UNL A   1      31.407  27.108  26.950  1.00  0.00     0.002 C 
ENDBRANCH  14  17
ENDBRANCH  12  13
ENDBRANCH  11  12
ENDBRANCH   7  11
ENDBRANCH   3   6
ENDBRANCH   1   2
BRANCH   1  25
ATOM     25  C   UNL A   1      35.509  21.847  26.112  1.00  0.00     0.023 C 
BRANCH  25  26
ATOM     26  C   UNL A   1      35.575  23.320  25.699  1.00  0.00     0.023 C 
BRANCH  26  27
ATOM     27  C   UNL A   1      36.952  23.822  25.281  1.00  0.00     0.116 C 
BRANCH  27  28
ATOM     28  N   UNL A   1      38.013  22.854  25.509  1.00  0.00    -0.352 N 
ATOM     29  C   UNL A   1      39.214  23.024  26.157  1.00  0.00     0.251 C 
ATOM     30  H   UNL A   1      37.849  21.951  25.151  1.00  0.00     0.163 HD
ATOM     31  O   UNL A   1      40.047  22.123  26.161  1.00  0.00    -0.269 OA
BRANCH  29  32
ATOM     32  C   UNL A   1      39.513  24.310  26.822  1.00  0.00     0.039 A 
ATOM     33  C   UNL A   1      39.125  24.489  28.153  1.00  0.00     0.014 A 
ATOM     34  C   UNL A   1      40.186  25.330  26.144  1.00  0.00     0.014 A 
ATOM     35  C   UNL A   1      39.462  25.669  28.820  1.00  0.00     0.010 A 
ATOM     36  C   UNL A   1      40.591  26.469  26.834  1.00  0.00     0.010 A 
ATOM     37  C   UNL A   1      40.225  26.655  28.175  1.00  0.00    -0.014 A 
BRANCH  37  38
ATOM     38  C   UNL A   1      40.631  27.900  28.878  1.00  0.00     0.031 A 
ATOM     39  C   UNL A   1      42.038  28.049  29.389  1.00  0.00     0.074 A 
ATOM     40  C   UNL A   1      39.723  28.867  29.113  1.00  0.00     0.049 A 
ATOM     41  N   UNL A   1      42.570  29.021  30.086  1.00  0.00    -0.248 NA
ATOM     42  C   UNL A   1      42.964  26.942  29.102  1.00  0.00     0.031 C 
ATOM     43  C   UNL A   1      38.317  28.823  28.710  1.00  0.00     0.029 A 
ATOM     44  N   UNL A   1      39.847  30.073  29.756  1.00  0.00    -0.354 N 
ATOM     45  C   UNL A   1      43.882  28.636  30.332  1.00  0.00     0.074 A 
ATOM     46  C   UNL A   1      44.047  27.314  29.766  1.00  0.00     0.031 C 
ATOM     47  C   UNL A   1      37.715  29.960  29.092  1.00  0.00     0.029 A 
ATOM     48  C   UNL A   1      38.679  30.795  29.803  1.00  0.00     0.049 A 
ATOM     49  H   UNL A   1      40.691  30.390  30.148  1.00  0.00     0.167 HD
ATOM     50  C   UNL A   1      44.867  29.329  30.950  1.00  0.00     0.037 A 
ATOM     51  C   UNL A   1      38.416  31.993  30.359  1.00  0.00     0.037 A 
ATOM     52  C   UNL A   1      44.704  30.652  31.493  1.00  0.00     0.049 A 
ATOM     53  C   UNL A   1      39.527  32.741  31.049  1.00  0.00     0.074 A 
ATOM     54  C   UNL A   1      45.652  31.460  32.097  1.00  0.00     0.029 A 
ATOM     55  N   UNL A   1      43.511  31.361  31.501  1.00  0.00    -0.354 N 
ATOM     56  N   UNL A   1      40.779  32.395  31.219  1.00  0.00    -0.248 NA
ATOM     57  C   UNL A   1      39.187  34.055  31.613  1.00  0.00     0.031 C 
ATOM     58  C   UNL A   1      45.021  32.637  32.516  1.00  0.00     0.029 A 
ATOM     59  C   UNL A   1      43.695  32.589  32.115  1.00  0.00     0.049 A 
ATOM     60  H   UNL A   1      42.660  31.038  31.127  1.00  0.00     0.167 HD
ATOM     61  C   UNL A   1      41.386  33.461  31.872  1.00  0.00     0.074 A 
ATOM     62  C   UNL A   1      40.364  34.470  32.057  1.00  0.00     0.031 C 
ATOM     63  C   UNL A   1      42.673  33.593  32.277  1.00  0.00     0.037 A 
BRANCH  50  64
ATOM     64  C   UNL A   1      46.211  28.668  31.069  1.00  0.00     0.064 A 
ATOM     65  C   UNL A   1      47.194  28.806  30.075  1.00  0.00     0.173 A 
ATOM     66  C   UNL A   1      46.532  27.903  32.201  1.00  0.00     0.173 A 
ATOM     67  F   UNL A   1      46.936  29.516  28.966  1.00  0.00    -0.203 F 
ATOM     68  C   UNL A   1      48.429  28.175  30.193  1.00  0.00     0.198 A 
ATOM     69  C   UNL A   1      47.782  27.303  32.333  1.00  0.00     0.198 A 
ATOM     70  F   UNL A   1      45.634  27.741  33.185  1.00  0.00    -0.203 F 
ATOM     71  F   UNL A   1      49.326  28.272  29.202  1.00  0.00    -0.200 F 
ATOM     72  C   UNL A   1      48.725  27.431  31.325  1.00  0.00     0.200 A 
ATOM     73  F   UNL A   1      48.072  26.596  33.434  1.00  0.00    -0.200 F 
ATOM     74  F   UNL A   1      49.916  26.829  31.439  1.00  0.00    -0.200 F 
ENDBRANCH  50  64
BRANCH  51  75
ATOM     75  C   UNL A   1      37.052  32.578  30.261  1.00  0.00     0.064 A 
ATOM     76  C   UNL A   1      36.679  33.352  29.153  1.00  0.00     0.173 A 
ATOM     77  C   UNL A   1      36.100  32.388  31.274  1.00  0.00     0.173 A 
ATOM     78  F   UNL A   1      37.560  33.579  28.169  1.00  0.00    -0.203 F 
ATOM     79  C   UNL A   1      35.416  33.935  29.074  1.00  0.00     0.198 A 
ATOM     80  C   UNL A   1      34.826  32.945  31.178  1.00  0.00     0.198 A 
ATOM     81  F   UNL A   1      36.403  31.651  32.352  1.00  0.00    -0.203 F 
ATOM     82  F   UNL A   1      35.105  34.714  28.029  1.00  0.00    -0.200 F 
ATOM     83  C   UNL A   1      34.489  33.726  30.083  1.00  0.00     0.200 A 
ATOM     84  F   UNL A   1      33.928  32.728  32.149  1.00  0.00    -0.200 F 
ATOM     85  F   UNL A   1      33.273  34.286  30.005  1.00  0.00    -0.200 F 
ENDBRANCH  51  75
BRANCH  63  86
ATOM     86  C   UNL A   1      43.069  34.899  32.906  1.00  0.00     0.064 A 
ATOM     87  C   UNL A   1      43.491  35.995  32.140  1.00  0.00     0.173 A 
ATOM     88  C   UNL A   1      42.992  35.062  34.299  1.00  0.00     0.173 A 
ATOM     89  F   UNL A   1      43.595  35.889  30.807  1.00  0.00    -0.203 F 
ATOM     90  C   UNL A   1      43.854  37.195  32.748  1.00  0.00     0.198 A 
ATOM     91  C   UNL A   1      43.321  36.273  34.899  1.00  0.00     0.198 A 
ATOM     92  F   UNL A   1      42.586  34.047  35.077  1.00  0.00    -0.203 F 
ATOM     93  F   UNL A   1      44.309  38.211  32.001  1.00  0.00    -0.200 F 
ATOM     94  C   UNL A   1      43.761  37.335  34.125  1.00  0.00     0.200 A 
ATOM     95  F   UNL A   1      43.214  36.412  36.227  1.00  0.00    -0.200 F 
ATOM     96  F   UNL A   1      44.104  38.493  34.707  1.00  0.00    -0.200 F 
ENDBRANCH  63  86
ENDBRANCH  37  38
ENDBRANCH  29  32
ENDBRANCH  27  28
ENDBRANCH  26  27
ENDBRANCH  25  26
ENDBRANCH   1  25
TORSDOF 15
ENDMDL
MODEL 3
REMARK VINA RESULT:     -12.6      5.755     11.262
REMARK SMILES C[C@@H]1[C@H](C)CCC[C@@H]1NC(=O)COc1csc(C(=O)NCCCCNC(=O)c2ccc(-c3c4nc(c(-c5c(F)c(F)c(F)c(F)c5F)c5ccc([nH]5)c(-c5c(F)c(F)c(F)c(F)c5F)c5nc(c(-c6c(F)c(F)c(F)c(F)c6F)c6ccc3[nH]6)C=C5)C=C4)cc2)c1
REMARK SMILES IDX 21 1 20 2 18 3 19 4 17 6 14 7 15 8 91 9 16 10 13 11 12 12
REMARK SMILES IDX 10 13 9 14 11 16 8 17 1 18 2 19 3 20 4 21 5 22 7 23 6 24
REMARK SMILES IDX 22 25 23 26 24 27 25 28 26 29 27 31 28 32 29 33 90 34 30 35
REMARK SMILES IDX 89 36 31 37 32 38 33 39 83 40 34 41 88 42 82 43 84 44 35 45
REMARK SMILES IDX 87 46 81 47 80 48 36 50 68 51 48 52 67 53 49 54 52 55 66 56
REMARK SMILES IDX 85 57 50 58 51 59 65 61 86 62 53 63 37 64 38 65 46 66 39 67
REMARK SMILES IDX 40 68 44 69 47 70 41 71 42 72 45 73 43 74 69 75 70 76 78 77
REMARK SMILES IDX 71 78 72 79 76 80 79 81 73 82 74 83 77 84 75 85 54 86 55 87
REMARK SMILES IDX 63 88 56 89 57 90 61 91 64 92 58 93 59 94 62 95 60 96
REMARK H PARENT 20 5 9 15 25 30 84 49 52 60
REMARK Flexibility Score: inf
ROOT
ATOM      1  C   UNL A   1      36.057  21.118  25.445  1.00  0.00     0.116 C 
ENDROOT
BRANCH   1   2
ATOM      2  N   UNL A   1      35.168  19.978  25.359  1.00  0.00    -0.351 N 
ATOM      3  C   UNL A   1      33.866  19.875  24.923  1.00  0.00     0.261 C 
ATOM      4  O   UNL A   1      33.434  18.722  24.825  1.00  0.00    -0.268 OA
ATOM      5  H   UNL A   1      35.563  19.130  25.666  1.00  0.00     0.163 HD
BRANCH   3   6
ATOM      6  C   UNL A   1      33.085  21.057  24.588  1.00  0.00     0.096 A 
ATOM      7  C   UNL A   1      32.053  22.874  23.505  1.00  0.00     0.131 A 
ATOM      8  C   UNL A   1      31.515  22.976  24.763  1.00  0.00     0.112 A 
ATOM      9  C   UNL A   1      33.032  21.836  23.447  1.00  0.00     0.072 A 
ATOM     10  S   UNL A   1      32.049  21.716  25.795  1.00  0.00    -0.135 S 
BRANCH   7  11
ATOM     11  O   UNL A   1      31.825  23.650  22.417  1.00  0.00    -0.483 OA
BRANCH  11  12
ATOM     12  C   UNL A   1      32.899  24.297  21.765  1.00  0.00     0.329 C 
BRANCH  12  13
ATOM     13  C   UNL A   1      32.883  25.632  21.013  1.00  0.00     0.258 C 
ATOM     14  N   UNL A   1      32.731  26.844  21.590  1.00  0.00    -0.350 N 
ATOM     15  H   UNL A   1      32.877  27.558  20.928  1.00  0.00     0.163 HD
ATOM     16  O   UNL A   1      33.008  25.637  19.781  1.00  0.00    -0.271 OA
BRANCH  14  17
ATOM     17  C   UNL A   1      32.418  27.423  22.899  1.00  0.00     0.085 C 
ATOM     18  C   UNL A   1      33.691  26.079  24.720  1.00  0.00     0.010 C 
ATOM     19  C   UNL A   1      33.505  27.416  23.998  1.00  0.00     0.011 C 
ATOM     20  C   UNL A   1      33.125  28.523  25.027  1.00  0.00    -0.009 C 
ATOM     21  C   UNL A   1      34.179  28.685  26.126  1.00  0.00     0.008 C 
ATOM     22  C   UNL A   1      31.723  28.268  25.622  1.00  0.00     0.004 C 
ATOM     23  C   UNL A   1      31.034  27.076  23.448  1.00  0.00     0.025 C 
ATOM     24  C   UNL A   1      30.646  28.077  24.548  1.00  0.00     0.002 C 
ENDBRANCH  14  17
ENDBRANCH  12  13
ENDBRANCH  11  12
ENDBRANCH   7  11
ENDBRANCH   3   6
ENDBRANCH   1   2
BRANCH   1  25
ATOM     25  C   UNL A   1      37.309  20.931  24.588  1.00  0.00     0.023 C 
BRANCH  25  26
ATOM     26  C   UNL A   1      38.191  19.746  24.995  1.00  0.00     0.023 C 
BRANCH  26  27
ATOM     27  C   UNL A   1      39.325  20.075  25.958  1.00  0.00     0.116 C 
BRANCH  27  28
ATOM     28  N   UNL A   1      40.366  19.059  25.993  1.00  0.00    -0.352 N 
ATOM     29  C   UNL A   1      41.723  19.217  26.140  1.00  0.00     0.251 C 
ATOM     30  H   UNL A   1      40.055  18.129  25.898  1.00  0.00     0.163 HD
ATOM     31  O   UNL A   1      42.473  18.251  26.034  1.00  0.00    -0.269 OA
BRANCH  29  32
ATOM     32  C   UNL A   1      42.283  20.561  26.394  1.00  0.00     0.039 A 
ATOM     33  C   UNL A   1      42.614  21.373  25.305  1.00  0.00     0.014 A 
ATOM     34  C   UNL A   1      42.470  21.026  27.699  1.00  0.00     0.014 A 
ATOM     35  C   UNL A   1      43.077  22.672  25.525  1.00  0.00     0.010 A 
ATOM     36  C   UNL A   1      42.853  22.346  27.914  1.00  0.00     0.010 A 
ATOM     37  C   UNL A   1      43.171  23.180  26.831  1.00  0.00    -0.014 A 
BRANCH  37  38
ATOM     38  C   UNL A   1      43.622  24.573  27.087  1.00  0.00     0.031 A 
ATOM     39  C   UNL A   1      42.644  25.596  27.598  1.00  0.00     0.074 A 
ATOM     40  C   UNL A   1      44.888  24.933  26.803  1.00  0.00     0.049 A 
ATOM     41  N   UNL A   1      42.820  26.875  27.817  1.00  0.00    -0.248 NA
ATOM     42  C   UNL A   1      41.278  25.124  27.871  1.00  0.00     0.031 C 
ATOM     43  C   UNL A   1      45.918  24.047  26.260  1.00  0.00     0.029 A 
ATOM     44  N   UNL A   1      45.521  26.145  26.922  1.00  0.00    -0.354 N 
ATOM     45  C   UNL A   1      41.588  27.358  28.237  1.00  0.00     0.074 A 
ATOM     46  C   UNL A   1      40.657  26.251  28.181  1.00  0.00     0.031 C 
ATOM     47  C   UNL A   1      47.061  24.737  26.117  1.00  0.00     0.029 A 
ATOM     48  C   UNL A   1      46.835  26.122  26.518  1.00  0.00     0.049 A 
ATOM     49  H   UNL A   1      45.077  26.954  27.264  1.00  0.00     0.167 HD
ATOM     50  C   UNL A   1      41.265  28.605  28.657  1.00  0.00     0.037 A 
ATOM     51  C   UNL A   1      47.750  27.109  26.474  1.00  0.00     0.037 A 
ATOM     52  C   UNL A   1      42.198  29.698  28.732  1.00  0.00     0.049 A 
ATOM     53  C   UNL A   1      47.364  28.490  26.938  1.00  0.00     0.074 A 
ATOM     54  C   UNL A   1      41.983  30.987  29.187  1.00  0.00     0.029 A 
ATOM     55  N   UNL A   1      43.526  29.631  28.335  1.00  0.00    -0.354 N 
ATOM     56  N   UNL A   1      46.213  28.919  27.394  1.00  0.00    -0.248 NA
ATOM     57  C   UNL A   1      48.412  29.519  26.893  1.00  0.00     0.031 C 
ATOM     58  C   UNL A   1      43.166  31.714  29.019  1.00  0.00     0.029 A 
ATOM     59  C   UNL A   1      44.137  30.861  28.519  1.00  0.00     0.049 A 
ATOM     60  H   UNL A   1      43.967  28.828  27.976  1.00  0.00     0.167 HD
ATOM     61  C   UNL A   1      46.408  30.255  27.727  1.00  0.00     0.074 A 
ATOM     62  C   UNL A   1      47.792  30.559  27.429  1.00  0.00     0.031 C 
ATOM     63  C   UNL A   1      45.521  31.145  28.236  1.00  0.00     0.037 A 
BRANCH  50  64
ATOM     64  C   UNL A   1      39.841  28.851  29.070  1.00  0.00     0.064 A 
ATOM     65  C   UNL A   1      38.873  29.302  28.158  1.00  0.00     0.173 A 
ATOM     66  C   UNL A   1      39.430  28.611  30.390  1.00  0.00     0.173 A 
ATOM     67  F   UNL A   1      39.214  29.559  26.885  1.00  0.00    -0.203 F 
ATOM     68  C   UNL A   1      37.562  29.539  28.559  1.00  0.00     0.198 A 
ATOM     69  C   UNL A   1      38.108  28.814  30.780  1.00  0.00     0.198 A 
ATOM     70  F   UNL A   1      40.310  28.175  31.304  1.00  0.00    -0.203 F 
ATOM     71  F   UNL A   1      36.673  30.028  27.683  1.00  0.00    -0.200 F 
ATOM     72  C   UNL A   1      37.179  29.288  29.868  1.00  0.00     0.200 A 
ATOM     73  F   UNL A   1      37.736  28.557  32.042  1.00  0.00    -0.200 F 
ATOM     74  F   UNL A   1      35.914  29.510  30.251  1.00  0.00    -0.200 F 
ENDBRANCH  50  64
BRANCH  51  75
ATOM     75  C   UNL A   1      49.131  26.824  26.003  1.00  0.00     0.064 A 
ATOM     76  C   UNL A   1      49.498  27.055  24.669  1.00  0.00     0.173 A 
ATOM     77  C   UNL A   1      50.107  26.306  26.867  1.00  0.00     0.173 A 
ATOM     78  F   UNL A   1      48.595  27.531  23.800  1.00  0.00    -0.203 F 
ATOM     79  C   UNL A   1      50.780  26.753  24.212  1.00  0.00     0.198 A 
ATOM     80  C   UNL A   1      51.397  26.035  26.415  1.00  0.00     0.198 A 
ATOM     81  F   UNL A   1      49.811  26.073  28.153  1.00  0.00    -0.203 F 
ATOM     82  F   UNL A   1      51.086  26.934  22.920  1.00  0.00    -0.200 F 
ATOM     83  C   UNL A   1      51.730  26.249  25.086  1.00  0.00     0.200 A 
ATOM     84  F   UNL A   1      52.317  25.562  27.268  1.00  0.00    -0.200 F 
ATOM     85  F   UNL A   1      52.963  25.961  24.646  1.00  0.00    -0.200 F 
ENDBRANCH  51  75
BRANCH  63  86
ATOM     86  C   UNL A   1      46.034  32.520  28.564  1.00  0.00     0.064 A 
ATOM     87  C   UNL A   1      46.585  32.828  29.816  1.00  0.00     0.173 A 
ATOM     88  C   UNL A   1      46.000  33.534  27.594  1.00  0.00     0.173 A 
ATOM     89  F   UNL A   1      46.630  31.900  30.782  1.00  0.00    -0.203 F 
ATOM     90  C   UNL A   1      47.052  34.111  30.095  1.00  0.00     0.198 A 
ATOM     91  C   UNL A   1      46.501  34.803  27.864  1.00  0.00     0.198 A 
ATOM     92  F   UNL A   1      45.492  33.289  26.376  1.00  0.00    -0.203 F 
ATOM     93  F   UNL A   1      47.523  34.399  31.317  1.00  0.00    -0.200 F 
ATOM     94  C   UNL A   1      47.017  35.094  29.117  1.00  0.00     0.200 A 
ATOM     95  F   UNL A   1      46.481  35.747  26.913  1.00  0.00    -0.200 F 
ATOM     96  F   UNL A   1      47.473  36.325  29.387  1.00  0.00    -0.200 F 
ENDBRANCH  63  86
ENDBRANCH  37  38
ENDBRANCH  29  32
ENDBRANCH  27  28
ENDBRANCH  26  27
ENDBRANCH  25  26
ENDBRANCH   1  25
TORSDOF 15
ENDMDL
