MODEL 1
REMARK VINA RESULT:     -12.6      0.000      0.000
REMARK SMILES O=C(NCCCCNC(=O)c1ccc(C[N@H+]2CC[N@H+]3CCCC[C@@H]3C2)c(F)c1)c1ccc(-c2c3nc(c(-c4c(F)c(F)c(F)c(F)c4F)c4ccc([nH]4)c(-c4c(F)c(F)c(F)c(F)c4F)c4nc(c(-c5c(F)c(F)c(F)c(F)c5F)c5ccc2[nH]5)C=C4)C=C3)cc1
REMARK SMILES IDX 5 1 4 2 3 3 1 4 2 5 29 7 30 8 91 9 31 10 90 11 32 12 33 13
REMARK SMILES IDX 34 14 84 15 35 16 89 17 83 18 85 19 36 20 88 21 82 22 81 23
REMARK SMILES IDX 37 25 69 26 49 27 68 28 50 29 53 30 67 31 86 32 51 33 52 34
REMARK SMILES IDX 66 36 87 37 54 38 38 39 39 40 47 41 40 42 41 43 45 44 48 45
REMARK SMILES IDX 42 46 43 47 46 48 44 49 70 50 71 51 79 52 72 53 73 54 77 55
REMARK SMILES IDX 80 56 74 57 75 58 78 59 76 60 55 61 56 62 64 63 57 64 58 65
REMARK SMILES IDX 62 66 65 67 59 68 60 69 63 70 61 71 6 72 7 73 8 74 9 75
REMARK SMILES IDX 10 77 11 78 12 79 28 80 13 81 26 82 14 83 27 84 15 85 16 86
REMARK SMILES IDX 17 87 25 88 18 90 24 91 19 92 23 93 20 94 22 96 21 97
REMARK H PARENT 3 6 85 24 53 35 8 76 16 89 19 95
REMARK Flexibility Score: inf
ROOT
ATOM      1  C   UNL A   1      34.040  27.929  25.276  1.00  0.00     0.023 C 
ENDROOT
BRANCH   1   2
ATOM      2  C   UNL A   1      33.797  28.177  26.761  1.00  0.00     0.116 C 
BRANCH   2   3
ATOM      3  N   UNL A   1      33.623  29.585  27.083  1.00  0.00    -0.352 N 
ATOM      4  O   UNL A   1      34.071  31.567  28.058  1.00  0.00    -0.269 OA
ATOM      5  C   UNL A   1      34.456  30.439  27.764  1.00  0.00     0.251 C 
ATOM      6  H   UNL A   1      32.781  29.985  26.765  1.00  0.00     0.163 HD
BRANCH   5   7
ATOM      7  C   UNL A   1      35.807  29.995  28.170  1.00  0.00     0.039 A 
ATOM      8  C   UNL A   1      36.034  29.438  29.431  1.00  0.00     0.014 A 
ATOM      9  C   UNL A   1      36.862  30.129  27.263  1.00  0.00     0.014 A 
ATOM     10  C   UNL A   1      37.334  29.149  29.838  1.00  0.00     0.010 A 
ATOM     11  C   UNL A   1      38.154  29.762  27.644  1.00  0.00     0.010 A 
ATOM     12  C   UNL A   1      38.405  29.296  28.945  1.00  0.00    -0.014 A 
BRANCH  12  13
ATOM     13  C   UNL A   1      39.779  28.907  29.351  1.00  0.00     0.031 A 
ATOM     14  C   UNL A   1      40.615  29.812  30.208  1.00  0.00     0.074 A 
ATOM     15  C   UNL A   1      40.282  27.738  28.912  1.00  0.00     0.049 A 
ATOM     16  N   UNL A   1      41.862  29.673  30.582  1.00  0.00    -0.248 NA
ATOM     17  C   UNL A   1      39.971  31.036  30.705  1.00  0.00     0.031 C 
ATOM     18  C   UNL A   1      39.560  26.776  28.079  1.00  0.00     0.029 A 
ATOM     19  N   UNL A   1      41.516  27.166  29.092  1.00  0.00    -0.354 N 
ATOM     20  C   UNL A   1      42.161  30.803  31.331  1.00  0.00     0.074 A 
ATOM     21  C   UNL A   1      40.971  31.627  31.346  1.00  0.00     0.031 C 
ATOM     22  C   UNL A   1      40.355  25.727  27.832  1.00  0.00     0.029 A 
ATOM     23  C   UNL A   1      41.665  25.973  28.428  1.00  0.00     0.049 A 
ATOM     24  H   UNL A   1      42.224  27.571  29.642  1.00  0.00     0.167 HD
ATOM     25  C   UNL A   1      43.325  31.116  31.950  1.00  0.00     0.037 A 
ATOM     26  C   UNL A   1      42.743  25.181  28.280  1.00  0.00     0.037 A 
ATOM     27  C   UNL A   1      44.495  30.276  31.942  1.00  0.00     0.049 A 
ATOM     28  C   UNL A   1      44.037  25.570  28.931  1.00  0.00     0.074 A 
ATOM     29  C   UNL A   1      45.699  30.475  32.594  1.00  0.00     0.029 A 
ATOM     30  N   UNL A   1      44.615  29.087  31.236  1.00  0.00    -0.354 N 
ATOM     31  N   UNL A   1      44.300  26.621  29.670  1.00  0.00    -0.248 NA
ATOM     32  C   UNL A   1      45.185  24.676  28.727  1.00  0.00     0.031 C 
ATOM     33  C   UNL A   1      46.571  29.448  32.224  1.00  0.00     0.029 A 
ATOM     34  C   UNL A   1      45.888  28.566  31.401  1.00  0.00     0.049 A 
ATOM     35  H   UNL A   1      43.901  28.675  30.697  1.00  0.00     0.167 HD
ATOM     36  C   UNL A   1      45.633  26.507  30.036  1.00  0.00     0.074 A 
ATOM     37  C   UNL A   1      46.128  25.283  29.439  1.00  0.00     0.031 C 
ATOM     38  C   UNL A   1      46.371  27.343  30.805  1.00  0.00     0.037 A 
BRANCH  25  39
ATOM     39  C   UNL A   1      43.411  32.434  32.666  1.00  0.00     0.064 A 
ATOM     40  C   UNL A   1      43.017  32.532  34.011  1.00  0.00     0.173 A 
ATOM     41  C   UNL A   1      43.822  33.608  32.019  1.00  0.00     0.173 A 
ATOM     42  F   UNL A   1      42.604  31.443  34.677  1.00  0.00    -0.203 F 
ATOM     43  C   UNL A   1      43.025  33.756  34.676  1.00  0.00     0.198 A 
ATOM     44  C   UNL A   1      43.862  34.825  32.697  1.00  0.00     0.198 A 
ATOM     45  F   UNL A   1      44.216  33.571  30.737  1.00  0.00    -0.203 F 
ATOM     46  F   UNL A   1      42.614  33.828  35.950  1.00  0.00    -0.200 F 
ATOM     47  C   UNL A   1      43.456  34.899  34.021  1.00  0.00     0.200 A 
ATOM     48  F   UNL A   1      44.302  35.925  32.071  1.00  0.00    -0.200 F 
ATOM     49  F   UNL A   1      43.483  36.073  34.668  1.00  0.00    -0.200 F 
ENDBRANCH  25  39
BRANCH  26  50
ATOM     50  C   UNL A   1      42.607  23.943  27.472  1.00  0.00     0.064 A 
ATOM     51  C   UNL A   1      42.250  22.724  28.069  1.00  0.00     0.173 A 
ATOM     52  C   UNL A   1      42.946  23.932  26.114  1.00  0.00     0.173 A 
ATOM     53  F   UNL A   1      41.929  22.683  29.370  1.00  0.00    -0.203 F 
ATOM     54  C   UNL A   1      42.279  21.534  27.346  1.00  0.00     0.198 A 
ATOM     55  C   UNL A   1      42.949  22.745  25.385  1.00  0.00     0.198 A 
ATOM     56  F   UNL A   1      43.282  25.076  25.498  1.00  0.00    -0.203 F 
ATOM     57  F   UNL A   1      41.994  20.375  27.956  1.00  0.00    -0.200 F 
ATOM     58  C   UNL A   1      42.631  21.545  26.006  1.00  0.00     0.200 A 
ATOM     59  F   UNL A   1      43.277  22.759  24.086  1.00  0.00    -0.200 F 
ATOM     60  F   UNL A   1      42.672  20.398  25.313  1.00  0.00    -0.200 F 
ENDBRANCH  26  50
BRANCH  38  61
ATOM     61  C   UNL A   1      47.799  26.974  31.084  1.00  0.00     0.064 A 
ATOM     62  C   UNL A   1      48.814  27.371  30.199  1.00  0.00     0.173 A 
ATOM     63  C   UNL A   1      48.141  26.115  32.137  1.00  0.00     0.173 A 
ATOM     64  F   UNL A   1      48.534  28.188  29.172  1.00  0.00    -0.203 F 
ATOM     65  C   UNL A   1      50.111  26.888  30.336  1.00  0.00     0.198 A 
ATOM     66  C   UNL A   1      49.446  25.655  32.286  1.00  0.00     0.198 A 
ATOM     67  F   UNL A   1      47.207  25.720  33.016  1.00  0.00    -0.203 F 
ATOM     68  F   UNL A   1      51.051  27.234  29.445  1.00  0.00    -0.200 F 
ATOM     69  C   UNL A   1      50.426  26.028  31.376  1.00  0.00     0.200 A 
ATOM     70  F   UNL A   1      49.755  24.839  33.303  1.00  0.00    -0.200 F 
ATOM     71  F   UNL A   1      51.673  25.551  31.500  1.00  0.00    -0.200 F 
ENDBRANCH  38  61
ENDBRANCH  12  13
ENDBRANCH   5   7
ENDBRANCH   2   3
ENDBRANCH   1   2
BRANCH   1  72
ATOM     72  C   UNL A   1      33.568  29.044  24.345  1.00  0.00     0.023 C 
BRANCH  72  73
ATOM     73  C   UNL A   1      33.349  28.633  22.891  1.00  0.00     0.116 C 
BRANCH  73  74
ATOM     74  N   UNL A   1      32.025  28.981  22.405  1.00  0.00    -0.352 N 
ATOM     75  C   UNL A   1      30.851  28.279  22.547  1.00  0.00     0.251 C 
ATOM     76  H   UNL A   1      31.960  29.830  21.912  1.00  0.00     0.163 HD
ATOM     77  O   UNL A   1      29.827  28.640  21.988  1.00  0.00    -0.269 OA
BRANCH  75  78
ATOM     78  C   UNL A   1      30.849  27.061  23.376  1.00  0.00     0.042 A 
ATOM     79  C   UNL A   1      30.524  27.135  24.733  1.00  0.00     0.014 A 
ATOM     80  C   UNL A   1      31.213  25.848  22.792  1.00  0.00     0.053 A 
ATOM     81  C   UNL A   1      30.641  25.995  25.529  1.00  0.00     0.013 A 
ATOM     82  C   UNL A   1      31.357  24.729  23.606  1.00  0.00     0.132 A 
ATOM     83  C   UNL A   1      31.125  24.791  24.985  1.00  0.00     0.042 A 
ATOM     84  F   UNL A   1      31.763  23.579  23.048  1.00  0.00    -0.206 F 
BRANCH  83  85
ATOM     85  C   UNL A   1      31.411  23.602  25.873  1.00  0.00     0.302 C 
BRANCH  85  86
ATOM     86  N   UNL A   1      32.662  23.598  26.639  1.00  0.00    -0.322 N 
ATOM     87  C   UNL A   1      32.979  22.365  27.371  1.00  0.00     0.324 C 
ATOM     88  C   UNL A   1      33.852  24.138  25.973  1.00  0.00     0.328 C 
ATOM     89  H   UNL A   1      32.406  24.290  27.345  1.00  0.00     0.348 HD
ATOM     90  C   UNL A   1      33.913  21.351  26.661  1.00  0.00     0.324 C 
ATOM     91  C   UNL A   1      34.662  23.094  25.159  1.00  0.00     0.239 C 
ATOM     92  N   UNL A   1      35.089  21.950  25.990  1.00  0.00    -0.323 N 
ATOM     93  C   UNL A   1      35.867  23.762  24.484  1.00  0.00     0.071 C 
ATOM     94  C   UNL A   1      35.782  20.938  25.178  1.00  0.00     0.262 C 
ATOM     95  H   UNL A   1      35.743  22.291  26.695  1.00  0.00     0.348 HD
ATOM     96  C   UNL A   1      36.607  22.755  23.610  1.00  0.00     0.012 C 
ATOM     97  C   UNL A   1      36.980  21.520  24.422  1.00  0.00     0.062 C 
ENDBRANCH  85  86
ENDBRANCH  83  85
ENDBRANCH  75  78
ENDBRANCH  73  74
ENDBRANCH  72  73
ENDBRANCH   1  72
TORSDOF 13
ENDMDL
MODEL 2
REMARK VINA RESULT:     -12.5      3.308      8.792
REMARK SMILES O=C(NCCCCNC(=O)c1ccc(C[N@H+]2CC[N@H+]3CCCC[C@@H]3C2)c(F)c1)c1ccc(-c2c3nc(c(-c4c(F)c(F)c(F)c(F)c4F)c4ccc([nH]4)c(-c4c(F)c(F)c(F)c(F)c4F)c4nc(c(-c5c(F)c(F)c(F)c(F)c5F)c5ccc2[nH]5)C=C4)C=C3)cc1
REMARK SMILES IDX 5 1 4 2 3 3 1 4 2 5 29 7 30 8 91 9 31 10 90 11 32 12 33 13
REMARK SMILES IDX 34 14 84 15 35 16 89 17 83 18 85 19 36 20 88 21 82 22 81 23
REMARK SMILES IDX 37 25 69 26 49 27 68 28 50 29 53 30 67 31 86 32 51 33 52 34
REMARK SMILES IDX 66 36 87 37 54 38 38 39 39 40 47 41 40 42 41 43 45 44 48 45
REMARK SMILES IDX 42 46 43 47 46 48 44 49 70 50 71 51 79 52 72 53 73 54 77 55
REMARK SMILES IDX 80 56 74 57 75 58 78 59 76 60 55 61 56 62 64 63 57 64 58 65
REMARK SMILES IDX 62 66 65 67 59 68 60 69 63 70 61 71 6 72 7 73 8 74 9 75
REMARK SMILES IDX 10 77 11 78 12 79 28 80 13 81 26 82 14 83 27 84 15 85 16 86
REMARK SMILES IDX 17 87 25 88 18 90 24 91 19 92 23 93 20 94 22 96 21 97
REMARK H PARENT 3 6 85 24 53 35 8 76 16 89 19 95
REMARK Flexibility Score: inf
ROOT
ATOM      1  C   UNL A   1      35.281  23.349  26.184  1.00  0.00     0.023 C 
ENDROOT
BRANCH   1   2
ATOM      2  C   UNL A   1      36.622  23.700  25.551  1.00  0.00     0.116 C 
BRANCH   2   3
ATOM      3  N   UNL A   1      37.658  22.717  25.827  1.00  0.00    -0.352 N 
ATOM      4  O   UNL A   1      39.700  21.951  26.400  1.00  0.00    -0.269 OA
ATOM      5  C   UNL A   1      38.908  22.889  26.372  1.00  0.00     0.251 C 
ATOM      6  H   UNL A   1      37.430  21.790  25.587  1.00  0.00     0.163 HD
BRANCH   5   7
ATOM      7  C   UNL A   1      39.316  24.209  26.899  1.00  0.00     0.039 A 
ATOM      8  C   UNL A   1      39.993  25.130  26.095  1.00  0.00     0.014 A 
ATOM      9  C   UNL A   1      39.001  24.534  28.222  1.00  0.00     0.014 A 
ATOM     10  C   UNL A   1      40.480  26.310  26.649  1.00  0.00     0.010 A 
ATOM     11  C   UNL A   1      39.419  25.755  28.754  1.00  0.00     0.010 A 
ATOM     12  C   UNL A   1      40.187  26.640  27.981  1.00  0.00    -0.014 A 
BRANCH  12  13
ATOM     13  C   UNL A   1      40.634  27.938  28.546  1.00  0.00     0.031 A 
ATOM     14  C   UNL A   1      42.067  28.158  28.933  1.00  0.00     0.074 A 
ATOM     15  C   UNL A   1      39.724  28.912  28.741  1.00  0.00     0.049 A 
ATOM     16  N   UNL A   1      42.613  29.193  29.521  1.00  0.00    -0.248 NA
ATOM     17  C   UNL A   1      43.011  27.075  28.625  1.00  0.00     0.031 C 
ATOM     18  C   UNL A   1      38.305  28.813  28.398  1.00  0.00     0.029 A 
ATOM     19  N   UNL A   1      39.852  30.166  29.281  1.00  0.00    -0.354 N 
ATOM     20  C   UNL A   1      43.954  28.874  29.681  1.00  0.00     0.074 A 
ATOM     21  C   UNL A   1      44.139  27.543  29.144  1.00  0.00     0.031 C 
ATOM     22  C   UNL A   1      37.696  29.960  28.722  1.00  0.00     0.029 A 
ATOM     23  C   UNL A   1      38.663  30.849  29.358  1.00  0.00     0.049 A 
ATOM     24  H   UNL A   1      40.711  30.539  29.585  1.00  0.00     0.167 HD
ATOM     25  C   UNL A   1      44.938  29.629  30.227  1.00  0.00     0.037 A 
ATOM     26  C   UNL A   1      38.371  32.040  29.912  1.00  0.00     0.037 A 
ATOM     27  C   UNL A   1      44.742  30.961  30.741  1.00  0.00     0.049 A 
ATOM     28  C   UNL A   1      39.464  32.840  30.556  1.00  0.00     0.074 A 
ATOM     29  C   UNL A   1      45.688  31.831  31.252  1.00  0.00     0.029 A 
ATOM     30  N   UNL A   1      43.516  31.608  30.825  1.00  0.00    -0.354 N 
ATOM     31  N   UNL A   1      40.737  32.549  30.669  1.00  0.00    -0.248 NA
ATOM     32  C   UNL A   1      39.088  34.128  31.156  1.00  0.00     0.031 C 
ATOM     33  C   UNL A   1      45.027  32.973  31.713  1.00  0.00     0.029 A 
ATOM     34  C   UNL A   1      43.678  32.848  31.421  1.00  0.00     0.049 A 
ATOM     35  H   UNL A   1      42.660  31.240  30.508  1.00  0.00     0.167 HD
ATOM     36  C   UNL A   1      41.319  33.619  31.331  1.00  0.00     0.074 A 
ATOM     37  C   UNL A   1      40.260  34.572  31.596  1.00  0.00     0.031 C 
ATOM     38  C   UNL A   1      42.617  33.793  31.678  1.00  0.00     0.037 A 
BRANCH  25  39
ATOM     39  C   UNL A   1      46.313  29.033  30.328  1.00  0.00     0.064 A 
ATOM     40  C   UNL A   1      47.209  29.143  29.251  1.00  0.00     0.173 A 
ATOM     41  C   UNL A   1      46.728  28.305  31.451  1.00  0.00     0.173 A 
ATOM     42  F   UNL A   1      46.860  29.819  28.146  1.00  0.00    -0.203 F 
ATOM     43  C   UNL A   1      48.464  28.541  29.296  1.00  0.00     0.198 A 
ATOM     44  C   UNL A   1      47.998  27.733  31.506  1.00  0.00     0.198 A 
ATOM     45  F   UNL A   1      45.915  28.173  32.510  1.00  0.00    -0.203 F 
ATOM     46  F   UNL A   1      49.289  28.635  28.243  1.00  0.00    -0.200 F 
ATOM     47  C   UNL A   1      48.861  27.845  30.426  1.00  0.00     0.200 A 
ATOM     48  F   UNL A   1      48.390  27.080  32.609  1.00  0.00    -0.200 F 
ATOM     49  F   UNL A   1      50.077  27.283  30.477  1.00  0.00    -0.200 F 
ENDBRANCH  25  39
BRANCH  26  50
ATOM     50  C   UNL A   1      36.967  32.520  29.863  1.00  0.00     0.064 A 
ATOM     51  C   UNL A   1      36.492  33.260  28.769  1.00  0.00     0.173 A 
ATOM     52  C   UNL A   1      36.112  32.348  30.957  1.00  0.00     0.173 A 
ATOM     53  F   UNL A   1      37.280  33.462  27.703  1.00  0.00    -0.203 F 
ATOM     54  C   UNL A   1      35.229  33.847  28.791  1.00  0.00     0.198 A 
ATOM     55  C   UNL A   1      34.838  32.913  30.968  1.00  0.00     0.198 A 
ATOM     56  F   UNL A   1      36.518  31.637  32.020  1.00  0.00    -0.203 F 
ATOM     57  F   UNL A   1      34.825  34.602  27.761  1.00  0.00    -0.200 F 
ATOM     58  C   UNL A   1      34.404  33.675  29.891  1.00  0.00     0.200 A 
ATOM     59  F   UNL A   1      34.037  32.735  32.027  1.00  0.00    -0.200 F 
ATOM     60  F   UNL A   1      33.194  34.251  29.919  1.00  0.00    -0.200 F 
ENDBRANCH  26  50
BRANCH  38  61
ATOM     61  C   UNL A   1      43.001  35.069  32.367  1.00  0.00     0.064 A 
ATOM     62  C   UNL A   1      42.757  35.229  33.740  1.00  0.00     0.173 A 
ATOM     63  C   UNL A   1      43.474  36.176  31.649  1.00  0.00     0.173 A 
ATOM     64  F   UNL A   1      42.297  34.200  34.470  1.00  0.00    -0.203 F 
ATOM     65  C   UNL A   1      42.933  36.462  34.360  1.00  0.00     0.198 A 
ATOM     66  C   UNL A   1      43.674  37.401  32.278  1.00  0.00     0.198 A 
ATOM     67  F   UNL A   1      43.736  36.068  30.337  1.00  0.00    -0.203 F 
ATOM     68  F   UNL A   1      42.636  36.606  35.659  1.00  0.00    -0.200 F 
ATOM     69  C   UNL A   1      43.387  37.548  33.628  1.00  0.00     0.200 A 
ATOM     70  F   UNL A   1      44.133  38.447  31.576  1.00  0.00    -0.200 F 
ATOM     71  F   UNL A   1      43.544  38.739  34.222  1.00  0.00    -0.200 F 
ENDBRANCH  38  61
ENDBRANCH  12  13
ENDBRANCH   5   7
ENDBRANCH   2   3
ENDBRANCH   1   2
BRANCH   1  72
ATOM     72  C   UNL A   1      35.169  21.923  26.720  1.00  0.00     0.023 C 
BRANCH  72  73
ATOM     73  C   UNL A   1      33.782  21.516  27.215  1.00  0.00     0.116 C 
BRANCH  73  74
ATOM     74  N   UNL A   1      33.278  20.328  26.549  1.00  0.00    -0.352 N 
ATOM     75  C   UNL A   1      32.620  20.237  25.345  1.00  0.00     0.251 C 
ATOM     76  H   UNL A   1      33.428  19.477  27.020  1.00  0.00     0.163 HD
ATOM     77  O   UNL A   1      32.152  19.177  24.958  1.00  0.00    -0.269 OA
BRANCH  75  78
ATOM     78  C   UNL A   1      32.467  21.453  24.527  1.00  0.00     0.042 A 
ATOM     79  C   UNL A   1      33.370  21.725  23.497  1.00  0.00     0.014 A 
ATOM     80  C   UNL A   1      31.433  22.339  24.825  1.00  0.00     0.053 A 
ATOM     81  C   UNL A   1      33.282  22.937  22.810  1.00  0.00     0.013 A 
ATOM     82  C   UNL A   1      31.379  23.557  24.153  1.00  0.00     0.132 A 
ATOM     83  C   UNL A   1      32.323  23.898  23.178  1.00  0.00     0.042 A 
ATOM     84  F   UNL A   1      30.416  24.429  24.485  1.00  0.00    -0.206 F 
BRANCH  83  85
ATOM     85  C   UNL A   1      32.328  25.273  22.552  1.00  0.00     0.302 C 
BRANCH  85  86
ATOM     86  N   UNL A   1      33.319  26.245  23.030  1.00  0.00    -0.322 N 
ATOM     87  C   UNL A   1      33.307  27.564  22.384  1.00  0.00     0.324 C 
ATOM     88  C   UNL A   1      33.482  26.369  24.482  1.00  0.00     0.328 C 
ATOM     89  H   UNL A   1      34.161  25.774  22.699  1.00  0.00     0.348 HD
ATOM     90  C   UNL A   1      32.501  28.683  23.094  1.00  0.00     0.324 C 
ATOM     91  C   UNL A   1      32.539  27.406  25.149  1.00  0.00     0.239 C 
ATOM     92  N   UNL A   1      32.689  28.753  24.561  1.00  0.00    -0.323 N 
ATOM     93  C   UNL A   1      32.771  27.441  26.665  1.00  0.00     0.071 C 
ATOM     94  C   UNL A   1      31.729  29.696  25.152  1.00  0.00     0.262 C 
ATOM     95  H   UNL A   1      33.630  29.091  24.765  1.00  0.00     0.348 HD
ATOM     96  C   UNL A   1      31.781  28.391  27.328  1.00  0.00     0.012 C 
ATOM     97  C   UNL A   1      31.848  29.769  26.677  1.00  0.00     0.062 C 
ENDBRANCH  85  86
ENDBRANCH  83  85
ENDBRANCH  75  78
ENDBRANCH  73  74
ENDBRANCH  72  73
ENDBRANCH   1  72
TORSDOF 13
ENDMDL
MODEL 3
REMARK VINA RESULT:     -12.5      3.501      7.800
REMARK SMILES O=C(NCCCCNC(=O)c1ccc(C[N@H+]2CC[N@H+]3CCCC[C@@H]3C2)c(F)c1)c1ccc(-c2c3nc(c(-c4c(F)c(F)c(F)c(F)c4F)c4ccc([nH]4)c(-c4c(F)c(F)c(F)c(F)c4F)c4nc(c(-c5c(F)c(F)c(F)c(F)c5F)c5ccc2[nH]5)C=C4)C=C3)cc1
REMARK SMILES IDX 5 1 4 2 3 3 1 4 2 5 29 7 30 8 91 9 31 10 90 11 32 12 33 13
REMARK SMILES IDX 34 14 84 15 35 16 89 17 83 18 85 19 36 20 88 21 82 22 81 23
REMARK SMILES IDX 37 25 69 26 49 27 68 28 50 29 53 30 67 31 86 32 51 33 52 34
REMARK SMILES IDX 66 36 87 37 54 38 38 39 39 40 47 41 40 42 41 43 45 44 48 45
REMARK SMILES IDX 42 46 43 47 46 48 44 49 70 50 71 51 79 52 72 53 73 54 77 55
REMARK SMILES IDX 80 56 74 57 75 58 78 59 76 60 55 61 56 62 64 63 57 64 58 65
REMARK SMILES IDX 62 66 65 67 59 68 60 69 63 70 61 71 6 72 7 73 8 74 9 75
REMARK SMILES IDX 10 77 11 78 12 79 28 80 13 81 26 82 14 83 27 84 15 85 16 86
REMARK SMILES IDX 17 87 25 88 18 90 24 91 19 92 23 93 20 94 22 96 21 97
REMARK H PARENT 3 6 85 24 53 35 8 76 16 89 19 95
REMARK Flexibility Score: inf
ROOT
ATOM      1  C   UNL A   1      37.950  19.869  24.904  1.00  0.00     0.023 C 
ENDROOT
BRANCH   1   2
ATOM      2  C   UNL A   1      39.028  20.105  25.957  1.00  0.00     0.116 C 
BRANCH   2   3
ATOM      3  N   UNL A   1      40.132  19.162  25.863  1.00  0.00    -0.352 N 
ATOM      4  O   UNL A   1      42.277  18.473  25.771  1.00  0.00    -0.269 OA
ATOM      5  C   UNL A   1      41.480  19.371  26.027  1.00  0.00     0.251 C 
ATOM      6  H   UNL A   1      39.875  18.236  25.649  1.00  0.00     0.163 HD
BRANCH   5   7
ATOM      7  C   UNL A   1      41.980  20.686  26.484  1.00  0.00     0.039 A 
ATOM      8  C   UNL A   1      42.132  20.968  27.844  1.00  0.00     0.014 A 
ATOM      9  C   UNL A   1      42.314  21.649  25.527  1.00  0.00     0.014 A 
ATOM     10  C   UNL A   1      42.478  22.253  28.252  1.00  0.00     0.010 A 
ATOM     11  C   UNL A   1      42.741  22.914  25.938  1.00  0.00     0.010 A 
ATOM     12  C   UNL A   1      42.799  23.235  27.303  1.00  0.00    -0.014 A 
BRANCH  12  13
ATOM     13  C   UNL A   1      43.251  24.580  27.741  1.00  0.00     0.031 A 
ATOM     14  C   UNL A   1      42.259  25.650  28.092  1.00  0.00     0.074 A 
ATOM     15  C   UNL A   1      44.571  24.841  27.786  1.00  0.00     0.049 A 
ATOM     16  N   UNL A   1      42.475  26.903  28.406  1.00  0.00    -0.248 NA
ATOM     17  C   UNL A   1      40.840  25.268  28.085  1.00  0.00     0.031 C 
ATOM     18  C   UNL A   1      45.626  23.877  27.472  1.00  0.00     0.029 A 
ATOM     19  N   UNL A   1      45.250  25.990  28.102  1.00  0.00    -0.354 N 
ATOM     20  C   UNL A   1      41.221  27.465  28.604  1.00  0.00     0.074 A 
ATOM     21  C   UNL A   1      40.248  26.423  28.359  1.00  0.00     0.031 C 
ATOM     22  C   UNL A   1      46.818  24.468  27.624  1.00  0.00     0.029 A 
ATOM     23  C   UNL A   1      46.612  25.869  27.977  1.00  0.00     0.049 A 
ATOM     24  H   UNL A   1      44.804  26.819  28.389  1.00  0.00     0.167 HD
ATOM     25  C   UNL A   1      40.918  28.736  28.959  1.00  0.00     0.037 A 
ATOM     26  C   UNL A   1      47.588  26.788  28.095  1.00  0.00     0.037 A 
ATOM     27  C   UNL A   1      41.900  29.759  29.218  1.00  0.00     0.049 A 
ATOM     28  C   UNL A   1      47.228  28.203  28.440  1.00  0.00     0.074 A 
ATOM     29  C   UNL A   1      41.694  31.057  29.648  1.00  0.00     0.029 A 
ATOM     30  N   UNL A   1      43.270  29.604  29.055  1.00  0.00    -0.354 N 
ATOM     31  N   UNL A   1      46.044  28.718  28.664  1.00  0.00    -0.248 NA
ATOM     32  C   UNL A   1      48.332  29.169  28.545  1.00  0.00     0.031 C 
ATOM     33  C   UNL A   1      42.929  31.709  29.675  1.00  0.00     0.029 A 
ATOM     34  C   UNL A   1      43.916  30.797  29.334  1.00  0.00     0.049 A 
ATOM     35  H   UNL A   1      43.716  28.770  28.783  1.00  0.00     0.167 HD
ATOM     36  C   UNL A   1      46.255  30.057  28.954  1.00  0.00     0.074 A 
ATOM     37  C   UNL A   1      47.686  30.279  28.880  1.00  0.00     0.031 C 
ATOM     38  C   UNL A   1      45.342  31.009  29.261  1.00  0.00     0.037 A 
BRANCH  25  39
ATOM     39  C   UNL A   1      39.468  29.114  29.065  1.00  0.00     0.064 A 
ATOM     40  C   UNL A   1      38.821  29.086  30.312  1.00  0.00     0.173 A 
ATOM     41  C   UNL A   1      38.700  29.442  27.939  1.00  0.00     0.173 A 
ATOM     42  F   UNL A   1      39.504  28.768  31.422  1.00  0.00    -0.203 F 
ATOM     43  C   UNL A   1      37.461  29.367  30.424  1.00  0.00     0.198 A 
ATOM     44  C   UNL A   1      37.347  29.756  28.059  1.00  0.00     0.198 A 
ATOM     45  F   UNL A   1      39.268  29.490  26.724  1.00  0.00    -0.203 F 
ATOM     46  F   UNL A   1      36.862  29.303  31.621  1.00  0.00    -0.200 F 
ATOM     47  C   UNL A   1      36.728  29.710  29.299  1.00  0.00     0.200 A 
ATOM     48  F   UNL A   1      36.644  30.111  26.975  1.00  0.00    -0.200 F 
ATOM     49  F   UNL A   1      35.424  30.000  29.411  1.00  0.00    -0.200 F 
ENDBRANCH  25  39
BRANCH  26  50
ATOM     50  C   UNL A   1      48.994  26.363  27.876  1.00  0.00     0.064 A 
ATOM     51  C   UNL A   1      49.868  26.170  28.958  1.00  0.00     0.173 A 
ATOM     52  C   UNL A   1      49.518  26.255  26.584  1.00  0.00     0.173 A 
ATOM     53  F   UNL A   1      49.414  26.275  30.215  1.00  0.00    -0.203 F 
ATOM     54  C   UNL A   1      51.224  25.928  28.751  1.00  0.00     0.198 A 
ATOM     55  C   UNL A   1      50.869  25.987  26.378  1.00  0.00     0.198 A 
ATOM     56  F   UNL A   1      48.717  26.418  25.520  1.00  0.00    -0.203 F 
ATOM     57  F   UNL A   1      52.049  25.812  29.801  1.00  0.00    -0.200 F 
ATOM     58  C   UNL A   1      51.724  25.840  27.462  1.00  0.00     0.200 A 
ATOM     59  F   UNL A   1      51.349  25.888  25.131  1.00  0.00    -0.200 F 
ATOM     60  F   UNL A   1      53.031  25.621  27.263  1.00  0.00    -0.200 F 
ENDBRANCH  26  50
BRANCH  38  61
ATOM     61  C   UNL A   1      45.836  32.391  29.570  1.00  0.00     0.064 A 
ATOM     62  C   UNL A   1      46.122  32.758  30.894  1.00  0.00     0.173 A 
ATOM     63  C   UNL A   1      45.889  33.388  28.584  1.00  0.00     0.173 A 
ATOM     64  F   UNL A   1      46.079  31.841  31.873  1.00  0.00    -0.203 F 
ATOM     65  C   UNL A   1      46.403  34.079  31.227  1.00  0.00     0.198 A 
ATOM     66  C   UNL A   1      46.196  34.704  28.917  1.00  0.00     0.198 A 
ATOM     67  F   UNL A   1      45.637  33.083  27.302  1.00  0.00    -0.203 F 
ATOM     68  F   UNL A   1      46.615  34.415  32.507  1.00  0.00    -0.200 F 
ATOM     69  C   UNL A   1      46.436  35.051  30.240  1.00  0.00     0.200 A 
ATOM     70  F   UNL A   1      46.248  35.641  27.961  1.00  0.00    -0.200 F 
ATOM     71  F   UNL A   1      46.693  36.327  30.563  1.00  0.00    -0.200 F 
ENDBRANCH  38  61
ENDBRANCH  12  13
ENDBRANCH   5   7
ENDBRANCH   2   3
ENDBRANCH   1   2
BRANCH   1  72
ATOM     72  C   UNL A   1      37.073  21.079  24.590  1.00  0.00     0.023 C 
BRANCH  72  73
ATOM     73  C   UNL A   1      35.684  21.063  25.225  1.00  0.00     0.116 C 
BRANCH  73  74
ATOM     74  N   UNL A   1      34.976  19.818  24.989  1.00  0.00    -0.352 N 
ATOM     75  C   UNL A   1      33.647  19.635  24.683  1.00  0.00     0.251 C 
ATOM     76  H   UNL A   1      35.517  18.998  25.057  1.00  0.00     0.163 HD
ATOM     77  O   UNL A   1      33.161  18.516  24.621  1.00  0.00    -0.269 OA
BRANCH  75  78
ATOM     78  C   UNL A   1      32.804  20.820  24.447  1.00  0.00     0.042 A 
ATOM     79  C   UNL A   1      32.769  21.416  23.184  1.00  0.00     0.014 A 
ATOM     80  C   UNL A   1      32.079  21.353  25.511  1.00  0.00     0.053 A 
ATOM     81  C   UNL A   1      32.059  22.605  23.007  1.00  0.00     0.013 A 
ATOM     82  C   UNL A   1      31.404  22.556  25.327  1.00  0.00     0.132 A 
ATOM     83  C   UNL A   1      31.422  23.226  24.098  1.00  0.00     0.042 A 
ATOM     84  F   UNL A   1      30.756  23.093  26.370  1.00  0.00    -0.206 F 
BRANCH  83  85
ATOM     85  C   UNL A   1      30.795  24.592  23.950  1.00  0.00     0.302 C 
BRANCH  85  86
ATOM     86  N   UNL A   1      31.621  25.675  23.403  1.00  0.00    -0.322 N 
ATOM     87  C   UNL A   1      30.905  26.857  22.905  1.00  0.00     0.324 C 
ATOM     88  C   UNL A   1      32.806  26.061  24.174  1.00  0.00     0.328 C 
ATOM     89  H   UNL A   1      31.976  25.189  22.579  1.00  0.00     0.348 HD
ATOM     90  C   UNL A   1      30.754  28.048  23.885  1.00  0.00     0.324 C 
ATOM     91  C   UNL A   1      32.550  27.159  25.241  1.00  0.00     0.239 C 
ATOM     92  N   UNL A   1      31.975  28.385  24.650  1.00  0.00    -0.323 N 
ATOM     93  C   UNL A   1      33.842  27.473  26.006  1.00  0.00     0.071 C 
ATOM     94  C   UNL A   1      31.665  29.376  25.692  1.00  0.00     0.262 C 
ATOM     95  H   UNL A   1      32.666  28.794  24.021  1.00  0.00     0.348 HD
ATOM     96  C   UNL A   1      33.567  28.482  27.114  1.00  0.00     0.012 C 
ATOM     97  C   UNL A   1      32.888  29.724  26.546  1.00  0.00     0.062 C 
ENDBRANCH  85  86
ENDBRANCH  83  85
ENDBRANCH  75  78
ENDBRANCH  73  74
ENDBRANCH  72  73
ENDBRANCH   1  72
TORSDOF 13
ENDMDL
