MODEL 1
REMARK VINA RESULT:     -11.5      0.000      0.000
REMARK SMILES [NH3+]CCOCC(=O)N1C[C@@H](C(=O)NCCCCNC(=O)c2ccc(-c3c4nc(c(-c5c(F)c(F)c(F)c(F)c5F)c5ccc([nH]5)c(-c5c(F)c(F)c(F)c(F)c5F)c5nc(c(-c6c(F)c(F)c(F)c(F)c6F)c6ccc3[nH]6)C=C5)C=C4)cc2)Oc2ccccc21
REMARK SMILES IDX 11 1 12 2 13 3 10 5 8 6 9 7 90 8 85 9 89 10 84 11 86 12
REMARK SMILES IDX 88 13 87 14 6 15 7 16 5 17 4 18 3 19 2 20 1 21 14 25 15 26
REMARK SMILES IDX 16 27 17 28 18 29 19 30 20 32 21 33 22 34 83 35 23 36 82 37
REMARK SMILES IDX 24 38 25 39 26 40 76 41 27 42 81 43 75 44 77 45 28 46 80 47
REMARK SMILES IDX 74 48 73 49 29 51 61 52 41 53 60 54 42 55 45 56 59 57 78 58
REMARK SMILES IDX 43 59 44 60 58 62 79 63 46 64 30 65 31 66 39 67 32 68 33 69
REMARK SMILES IDX 37 70 40 71 34 72 35 73 38 74 36 75 62 76 63 77 71 78 64 79
REMARK SMILES IDX 65 80 69 81 72 82 66 83 67 84 70 85 68 86 47 87 48 88 56 89
REMARK SMILES IDX 49 90 50 91 54 92 57 93 51 94 52 95 55 96 53 97
REMARK H PARENT 13 4 1 22 1 23 1 24 18 31 77 50 45 61
REMARK Flexibility Score: inf
ROOT
ATOM      1  C   UNL A   1      31.570  24.988  25.772  1.00  0.00     0.262 C 
ATOM      2  O   UNL A   1      30.857  25.547  26.617  1.00  0.00    -0.271 OA
ATOM      3  N   UNL A   1      32.609  24.269  26.273  1.00  0.00    -0.353 N 
ATOM      4  H   UNL A   1      32.819  24.483  27.211  1.00  0.00     0.163 HD
ENDROOT
BRANCH   1   5
ATOM      5  C   UNL A   1      31.226  25.148  24.271  1.00  0.00     0.281 C 
ATOM      6  N   UNL A   1      32.159  27.286  23.401  1.00  0.00    -0.303 N 
ATOM      7  C   UNL A   1      32.293  25.831  23.419  1.00  0.00     0.181 C 
ATOM      8  C   UNL A   1      30.799  27.743  23.325  1.00  0.00     0.086 A 
ATOM      9  C   UNL A   1      29.745  26.845  23.575  1.00  0.00     0.144 A 
ATOM     10  C   UNL A   1      30.466  29.071  23.024  1.00  0.00     0.030 A 
ATOM     11  O   UNL A   1      29.900  25.550  23.983  1.00  0.00    -0.477 OA
ATOM     12  C   UNL A   1      28.410  27.255  23.500  1.00  0.00     0.049 A 
ATOM     13  C   UNL A   1      29.130  29.486  22.978  1.00  0.00     0.002 A 
ATOM     14  C   UNL A   1      28.101  28.578  23.211  1.00  0.00     0.004 A 
BRANCH   6  15
ATOM     15  C   UNL A   1      33.242  28.149  23.575  1.00  0.00     0.253 C 
ATOM     16  O   UNL A   1      33.965  28.527  22.648  1.00  0.00    -0.272 OA
BRANCH  15  17
ATOM     17  C   UNL A   1      33.570  28.626  25.009  1.00  0.00     0.260 C 
BRANCH  17  18
ATOM     18  O   UNL A   1      33.080  29.838  25.536  1.00  0.00    -0.366 OA
BRANCH  18  19
ATOM     19  C   UNL A   1      32.654  29.812  26.897  1.00  0.00     0.222 C 
BRANCH  19  20
ATOM     20  C   UNL A   1      32.587  28.412  27.522  1.00  0.00     0.287 C 
BRANCH  20  21
ATOM     21  N   UNL A   1      31.259  28.030  28.001  1.00  0.00    -0.356 N 
ATOM     22  H   UNL A   1      30.768  27.517  27.268  1.00  0.00     0.344 HD
ATOM     23  H   UNL A   1      30.731  28.868  28.241  1.00  0.00     0.344 HD
ATOM     24  H   UNL A   1      31.352  27.437  28.826  1.00  0.00     0.344 HD
ENDBRANCH  20  21
ENDBRANCH  19  20
ENDBRANCH  18  19
ENDBRANCH  17  18
ENDBRANCH  15  17
ENDBRANCH   6  15
ENDBRANCH   1   5
BRANCH   3  25
ATOM     25  C   UNL A   1      33.468  23.251  25.704  1.00  0.00     0.116 C 
BRANCH  25  26
ATOM     26  C   UNL A   1      34.784  23.040  26.450  1.00  0.00     0.023 C 
BRANCH  26  27
ATOM     27  C   UNL A   1      35.564  21.796  26.021  1.00  0.00     0.023 C 
BRANCH  27  28
ATOM     28  C   UNL A   1      36.907  22.054  25.341  1.00  0.00     0.116 C 
BRANCH  28  29
ATOM     29  N   UNL A   1      37.905  21.014  25.530  1.00  0.00    -0.352 N 
ATOM     30  C   UNL A   1      39.154  21.133  26.109  1.00  0.00     0.251 C 
ATOM     31  H   UNL A   1      37.662  20.117  25.206  1.00  0.00     0.163 HD
ATOM     32  O   UNL A   1      39.926  20.187  26.138  1.00  0.00    -0.269 OA
BRANCH  30  33
ATOM     33  C   UNL A   1      39.575  22.450  26.647  1.00  0.00     0.039 A 
ATOM     34  C   UNL A   1      40.590  22.493  27.605  1.00  0.00     0.014 A 
ATOM     35  C   UNL A   1      39.019  23.636  26.162  1.00  0.00     0.014 A 
ATOM     36  C   UNL A   1      41.110  23.727  28.004  1.00  0.00     0.010 A 
ATOM     37  C   UNL A   1      39.598  24.858  26.492  1.00  0.00     0.010 A 
ATOM     38  C   UNL A   1      40.653  24.918  27.414  1.00  0.00    -0.014 A 
BRANCH  38  39
ATOM     39  C   UNL A   1      41.289  26.223  27.740  1.00  0.00     0.031 A 
ATOM     40  C   UNL A   1      42.692  26.525  27.295  1.00  0.00     0.074 A 
ATOM     41  C   UNL A   1      40.615  27.120  28.488  1.00  0.00     0.049 A 
ATOM     42  N   UNL A   1      43.402  27.612  27.474  1.00  0.00    -0.248 NA
ATOM     43  C   UNL A   1      43.410  25.455  26.586  1.00  0.00     0.031 C 
ATOM     44  C   UNL A   1      39.282  26.917  29.059  1.00  0.00     0.029 A 
ATOM     45  N   UNL A   1      40.958  28.386  28.895  1.00  0.00    -0.354 N 
ATOM     46  C   UNL A   1      44.644  27.351  26.910  1.00  0.00     0.074 A 
ATOM     47  C   UNL A   1      44.616  25.981  26.444  1.00  0.00     0.031 C 
ATOM     48  C   UNL A   1      38.904  28.032  29.704  1.00  0.00     0.029 A 
ATOM     49  C   UNL A   1      39.973  29.021  29.611  1.00  0.00     0.049 A 
ATOM     50  H   UNL A   1      41.827  28.801  28.691  1.00  0.00     0.167 HD
ATOM     51  C   UNL A   1      45.701  28.185  26.764  1.00  0.00     0.037 A 
ATOM     52  C   UNL A   1      39.929  30.266  30.123  1.00  0.00     0.037 A 
ATOM     53  C   UNL A   1      45.718  29.557  27.200  1.00  0.00     0.049 A 
ATOM     54  C   UNL A   1      41.097  31.189  29.904  1.00  0.00     0.074 A 
ATOM     55  C   UNL A   1      46.714  30.504  27.039  1.00  0.00     0.029 A 
ATOM     56  N   UNL A   1      44.685  30.177  27.888  1.00  0.00    -0.354 N 
ATOM     57  N   UNL A   1      42.229  30.961  29.285  1.00  0.00    -0.248 NA
ATOM     58  C   UNL A   1      40.971  32.552  30.440  1.00  0.00     0.031 C 
ATOM     59  C   UNL A   1      46.298  31.687  27.660  1.00  0.00     0.029 A 
ATOM     60  C   UNL A   1      45.025  31.491  28.169  1.00  0.00     0.049 A 
ATOM     61  H   UNL A   1      43.836  29.747  28.139  1.00  0.00     0.167 HD
ATOM     62  C   UNL A   1      42.939  32.153  29.334  1.00  0.00     0.074 A 
ATOM     63  C   UNL A   1      42.097  33.110  30.022  1.00  0.00     0.031 C 
ATOM     64  C   UNL A   1      44.176  32.431  28.855  1.00  0.00     0.037 A 
BRANCH  51  65
ATOM     65  C   UNL A   1      46.923  27.637  26.083  1.00  0.00     0.064 A 
ATOM     66  C   UNL A   1      47.073  27.691  24.689  1.00  0.00     0.173 A 
ATOM     67  C   UNL A   1      47.969  27.077  26.833  1.00  0.00     0.173 A 
ATOM     68  F   UNL A   1      46.097  28.206  23.925  1.00  0.00    -0.203 F 
ATOM     69  C   UNL A   1      48.206  27.173  24.068  1.00  0.00     0.198 A 
ATOM     70  C   UNL A   1      49.115  26.589  26.211  1.00  0.00     0.198 A 
ATOM     71  F   UNL A   1      47.881  27.006  28.169  1.00  0.00    -0.203 F 
ATOM     72  F   UNL A   1      48.300  27.187  22.731  1.00  0.00    -0.200 F 
ATOM     73  C   UNL A   1      49.229  26.629  24.829  1.00  0.00     0.200 A 
ATOM     74  F   UNL A   1      50.109  26.074  26.948  1.00  0.00    -0.200 F 
ATOM     75  F   UNL A   1      50.322  26.135  24.230  1.00  0.00    -0.200 F 
ENDBRANCH  51  65
BRANCH  52  76
ATOM     76  C   UNL A   1      38.715  30.735  30.840  1.00  0.00     0.064 A 
ATOM     77  C   UNL A   1      38.629  30.648  32.237  1.00  0.00     0.173 A 
ATOM     78  C   UNL A   1      37.618  31.270  30.151  1.00  0.00     0.173 A 
ATOM     79  F   UNL A   1      39.645  30.126  32.939  1.00  0.00    -0.203 F 
ATOM     80  C   UNL A   1      37.482  31.055  32.916  1.00  0.00     0.198 A 
ATOM     81  C   UNL A   1      36.482  31.702  30.833  1.00  0.00     0.198 A 
ATOM     82  F   UNL A   1      37.653  31.381  28.815  1.00  0.00    -0.203 F 
ATOM     83  F   UNL A   1      37.408  30.915  34.246  1.00  0.00    -0.200 F 
ATOM     84  C   UNL A   1      36.411  31.586  32.213  1.00  0.00     0.200 A 
ATOM     85  F   UNL A   1      35.454  32.228  30.152  1.00  0.00    -0.200 F 
ATOM     86  F   UNL A   1      35.309  31.979  32.865  1.00  0.00    -0.200 F 
ENDBRANCH  52  76
BRANCH  64  87
ATOM     87  C   UNL A   1      44.680  33.833  29.037  1.00  0.00     0.064 A 
ATOM     88  C   UNL A   1      44.440  34.832  28.082  1.00  0.00     0.173 A 
ATOM     89  C   UNL A   1      45.406  34.182  30.185  1.00  0.00     0.173 A 
ATOM     90  F   UNL A   1      43.763  34.544  26.960  1.00  0.00    -0.203 F 
ATOM     91  C   UNL A   1      44.941  36.120  28.252  1.00  0.00     0.198 A 
ATOM     92  C   UNL A   1      45.879  35.479  30.367  1.00  0.00     0.198 A 
ATOM     93  F   UNL A   1      45.657  33.267  31.133  1.00  0.00    -0.203 F 
ATOM     94  F   UNL A   1      44.751  37.042  27.298  1.00  0.00    -0.200 F 
ATOM     95  C   UNL A   1      45.655  36.444  29.396  1.00  0.00     0.200 A 
ATOM     96  F   UNL A   1      46.558  35.794  31.479  1.00  0.00    -0.200 F 
ATOM     97  F   UNL A   1      46.139  37.683  29.557  1.00  0.00    -0.200 F 
ENDBRANCH  64  87
ENDBRANCH  38  39
ENDBRANCH  30  33
ENDBRANCH  28  29
ENDBRANCH  27  28
ENDBRANCH  26  27
ENDBRANCH  25  26
ENDBRANCH   3  25
TORSDOF 17
ENDMDL
MODEL 2
REMARK VINA RESULT:     -11.5      4.267     10.039
REMARK SMILES [NH3+]CCOCC(=O)N1C[C@@H](C(=O)NCCCCNC(=O)c2ccc(-c3c4nc(c(-c5c(F)c(F)c(F)c(F)c5F)c5ccc([nH]5)c(-c5c(F)c(F)c(F)c(F)c5F)c5nc(c(-c6c(F)c(F)c(F)c(F)c6F)c6ccc3[nH]6)C=C5)C=C4)cc2)Oc2ccccc21
REMARK SMILES IDX 11 1 12 2 13 3 10 5 8 6 9 7 90 8 85 9 89 10 84 11 86 12
REMARK SMILES IDX 88 13 87 14 6 15 7 16 5 17 4 18 3 19 2 20 1 21 14 25 15 26
REMARK SMILES IDX 16 27 17 28 18 29 19 30 20 32 21 33 22 34 83 35 23 36 82 37
REMARK SMILES IDX 24 38 25 39 26 40 76 41 27 42 81 43 75 44 77 45 28 46 80 47
REMARK SMILES IDX 74 48 73 49 29 51 61 52 41 53 60 54 42 55 45 56 59 57 78 58
REMARK SMILES IDX 43 59 44 60 58 62 79 63 46 64 30 65 31 66 39 67 32 68 33 69
REMARK SMILES IDX 37 70 40 71 34 72 35 73 38 74 36 75 62 76 63 77 71 78 64 79
REMARK SMILES IDX 65 80 69 81 72 82 66 83 67 84 70 85 68 86 47 87 48 88 56 89
REMARK SMILES IDX 49 90 50 91 54 92 57 93 51 94 52 95 55 96 53 97
REMARK H PARENT 13 4 1 22 1 23 1 24 18 31 77 50 45 61
REMARK Flexibility Score: inf
ROOT
ATOM      1  C   UNL A   1      31.902  24.135  25.633  1.00  0.00     0.262 C 
ATOM      2  O   UNL A   1      32.045  23.465  26.665  1.00  0.00    -0.271 OA
ATOM      3  N   UNL A   1      30.981  25.131  25.711  1.00  0.00    -0.353 N 
ATOM      4  H   UNL A   1      30.368  25.041  26.476  1.00  0.00     0.163 HD
ENDROOT
BRANCH   1   5
ATOM      5  C   UNL A   1      32.757  23.794  24.388  1.00  0.00     0.281 C 
ATOM      6  N   UNL A   1      33.215  21.348  24.306  1.00  0.00    -0.303 N 
ATOM      7  C   UNL A   1      32.453  22.452  23.726  1.00  0.00     0.181 C 
ATOM      8  C   UNL A   1      34.576  21.685  24.622  1.00  0.00     0.086 A 
ATOM      9  C   UNL A   1      34.973  23.034  24.650  1.00  0.00     0.144 A 
ATOM     10  C   UNL A   1      35.541  20.715  24.924  1.00  0.00     0.030 A 
ATOM     11  O   UNL A   1      34.135  24.101  24.485  1.00  0.00    -0.477 OA
ATOM     12  C   UNL A   1      36.292  23.396  24.945  1.00  0.00     0.049 A 
ATOM     13  C   UNL A   1      36.854  21.080  25.248  1.00  0.00     0.002 A 
ATOM     14  C   UNL A   1      37.231  22.420  25.253  1.00  0.00     0.004 A 
BRANCH   6  15
ATOM     15  C   UNL A   1      32.638  20.123  24.644  1.00  0.00     0.253 C 
ATOM     16  O   UNL A   1      32.153  19.884  25.755  1.00  0.00    -0.272 OA
BRANCH  15  17
ATOM     17  C   UNL A   1      32.639  19.000  23.581  1.00  0.00     0.260 C 
BRANCH  17  18
ATOM     18  O   UNL A   1      33.671  18.043  23.490  1.00  0.00    -0.366 OA
BRANCH  18  19
ATOM     19  C   UNL A   1      33.285  16.678  23.642  1.00  0.00     0.222 C 
BRANCH  19  20
ATOM     20  C   UNL A   1      33.241  16.182  25.093  1.00  0.00     0.287 C 
BRANCH  20  21
ATOM     21  N   UNL A   1      32.154  15.245  25.375  1.00  0.00    -0.356 N 
ATOM     22  H   UNL A   1      31.300  15.765  25.578  1.00  0.00     0.344 HD
ATOM     23  H   UNL A   1      32.401  14.670  26.180  1.00  0.00     0.344 HD
ATOM     24  H   UNL A   1      32.001  14.646  24.563  1.00  0.00     0.344 HD
ENDBRANCH  20  21
ENDBRANCH  19  20
ENDBRANCH  18  19
ENDBRANCH  17  18
ENDBRANCH  15  17
ENDBRANCH   6  15
ENDBRANCH   1   5
BRANCH   3  25
ATOM     25  C   UNL A   1      30.721  26.299  24.894  1.00  0.00     0.116 C 
BRANCH  25  26
ATOM     26  C   UNL A   1      31.866  27.308  24.844  1.00  0.00     0.023 C 
BRANCH  26  27
ATOM     27  C   UNL A   1      31.777  28.422  25.888  1.00  0.00     0.023 C 
BRANCH  27  28
ATOM     28  C   UNL A   1      32.905  29.450  25.862  1.00  0.00     0.116 C 
BRANCH  28  29
ATOM     29  N   UNL A   1      32.553  30.767  26.367  1.00  0.00    -0.352 N 
ATOM     30  C   UNL A   1      33.282  31.570  27.223  1.00  0.00     0.251 C 
ATOM     31  H   UNL A   1      31.690  31.131  26.063  1.00  0.00     0.163 HD
ATOM     32  O   UNL A   1      32.831  32.630  27.628  1.00  0.00    -0.269 OA
BRANCH  30  33
ATOM     33  C   UNL A   1      34.606  31.098  27.699  1.00  0.00     0.039 A 
ATOM     34  C   UNL A   1      35.622  32.035  27.899  1.00  0.00     0.014 A 
ATOM     35  C   UNL A   1      34.823  29.753  28.006  1.00  0.00     0.014 A 
ATOM     36  C   UNL A   1      36.821  31.635  28.496  1.00  0.00     0.010 A 
ATOM     37  C   UNL A   1      35.979  29.375  28.683  1.00  0.00     0.010 A 
ATOM     38  C   UNL A   1      36.990  30.312  28.939  1.00  0.00    -0.014 A 
BRANCH  38  39
ATOM     39  C   UNL A   1      38.211  29.909  29.689  1.00  0.00     0.031 A 
ATOM     40  C   UNL A   1      38.456  30.415  31.083  1.00  0.00     0.074 A 
ATOM     41  C   UNL A   1      39.129  29.125  29.089  1.00  0.00     0.049 A 
ATOM     42  N   UNL A   1      39.454  30.160  31.893  1.00  0.00    -0.248 NA
ATOM     43  C   UNL A   1      37.471  31.361  31.631  1.00  0.00     0.031 C 
ATOM     44  C   UNL A   1      39.057  28.640  27.710  1.00  0.00     0.029 A 
ATOM     45  N   UNL A   1      40.304  28.597  29.564  1.00  0.00    -0.354 N 
ATOM     46  C   UNL A   1      39.220  30.917  33.033  1.00  0.00     0.074 A 
ATOM     47  C   UNL A   1      38.024  31.694  32.786  1.00  0.00     0.031 C 
ATOM     48  C   UNL A   1      40.116  27.851  27.464  1.00  0.00     0.029 A 
ATOM     49  C   UNL A   1      40.952  27.792  28.659  1.00  0.00     0.049 A 
ATOM     50  H   UNL A   1      40.650  28.776  30.468  1.00  0.00     0.167 HD
ATOM     51  C   UNL A   1      39.917  30.940  34.194  1.00  0.00     0.037 A 
ATOM     52  C   UNL A   1      42.085  27.074  28.783  1.00  0.00     0.037 A 
ATOM     53  C   UNL A   1      41.090  30.145  34.451  1.00  0.00     0.049 A 
ATOM     54  C   UNL A   1      42.815  27.078  30.098  1.00  0.00     0.074 A 
ATOM     55  C   UNL A   1      41.830  30.045  35.617  1.00  0.00     0.029 A 
ATOM     56  N   UNL A   1      41.694  29.310  33.523  1.00  0.00    -0.354 N 
ATOM     57  N   UNL A   1      42.529  27.725  31.202  1.00  0.00    -0.248 NA
ATOM     58  C   UNL A   1      44.015  26.235  30.190  1.00  0.00     0.031 C 
ATOM     59  C   UNL A   1      42.902  29.178  35.382  1.00  0.00     0.029 A 
ATOM     60  C   UNL A   1      42.805  28.701  34.085  1.00  0.00     0.049 A 
ATOM     61  H   UNL A   1      41.380  29.171  32.600  1.00  0.00     0.167 HD
ATOM     62  C   UNL A   1      43.496  27.350  32.125  1.00  0.00     0.074 A 
ATOM     63  C   UNL A   1      44.362  26.399  31.458  1.00  0.00     0.031 C 
ATOM     64  C   UNL A   1      43.656  27.757  33.408  1.00  0.00     0.037 A 
BRANCH  51  65
ATOM     65  C   UNL A   1      39.415  31.845  35.284  1.00  0.00     0.064 A 
ATOM     66  C   UNL A   1      39.780  33.199  35.339  1.00  0.00     0.173 A 
ATOM     67  C   UNL A   1      38.539  31.361  36.268  1.00  0.00     0.173 A 
ATOM     68  F   UNL A   1      40.625  33.708  34.429  1.00  0.00    -0.203 F 
ATOM     69  C   UNL A   1      39.316  34.026  36.358  1.00  0.00     0.198 A 
ATOM     70  C   UNL A   1      38.052  32.200  37.267  1.00  0.00     0.198 A 
ATOM     71  F   UNL A   1      38.153  30.077  36.259  1.00  0.00    -0.203 F 
ATOM     72  F   UNL A   1      39.723  35.301  36.420  1.00  0.00    -0.200 F 
ATOM     73  C   UNL A   1      38.447  33.529  37.317  1.00  0.00     0.200 A 
ATOM     74  F   UNL A   1      37.202  31.721  38.186  1.00  0.00    -0.200 F 
ATOM     75  F   UNL A   1      37.996  34.328  38.294  1.00  0.00    -0.200 F 
ENDBRANCH  51  65
BRANCH  52  76
ATOM     76  C   UNL A   1      42.568  26.243  27.649  1.00  0.00     0.064 A 
ATOM     77  C   UNL A   1      42.068  24.949  27.444  1.00  0.00     0.173 A 
ATOM     78  C   UNL A   1      43.539  26.716  26.756  1.00  0.00     0.173 A 
ATOM     79  F   UNL A   1      41.153  24.444  28.284  1.00  0.00    -0.203 F 
ATOM     80  C   UNL A   1      42.539  24.150  26.404  1.00  0.00     0.198 A 
ATOM     81  C   UNL A   1      43.990  25.927  25.699  1.00  0.00     0.198 A 
ATOM     82  F   UNL A   1      44.044  27.950  26.904  1.00  0.00    -0.203 F 
ATOM     83  F   UNL A   1      42.080  22.900  26.261  1.00  0.00    -0.200 F 
ATOM     84  C   UNL A   1      43.496  24.642  25.529  1.00  0.00     0.200 A 
ATOM     85  F   UNL A   1      44.904  26.411  24.847  1.00  0.00    -0.200 F 
ATOM     86  F   UNL A   1      43.948  23.876  24.528  1.00  0.00    -0.200 F 
ENDBRANCH  52  76
BRANCH  64  87
ATOM     87  C   UNL A   1      44.794  27.154  34.179  1.00  0.00     0.064 A 
ATOM     88  C   UNL A   1      44.644  25.960  34.901  1.00  0.00     0.173 A 
ATOM     89  C   UNL A   1      46.051  27.775  34.191  1.00  0.00     0.173 A 
ATOM     90  F   UNL A   1      43.456  25.336  34.934  1.00  0.00    -0.203 F 
ATOM     91  C   UNL A   1      45.701  25.431  35.637  1.00  0.00     0.198 A 
ATOM     92  C   UNL A   1      47.115  27.227  34.902  1.00  0.00     0.198 A 
ATOM     93  F   UNL A   1      46.251  28.914  33.511  1.00  0.00    -0.203 F 
ATOM     94  F   UNL A   1      45.517  24.323  36.368  1.00  0.00    -0.200 F 
ATOM     95  C   UNL A   1      46.937  26.062  35.632  1.00  0.00     0.200 A 
ATOM     96  F   UNL A   1      48.312  27.830  34.887  1.00  0.00    -0.200 F 
ATOM     97  F   UNL A   1      47.952  25.552  36.343  1.00  0.00    -0.200 F 
ENDBRANCH  64  87
ENDBRANCH  38  39
ENDBRANCH  30  33
ENDBRANCH  28  29
ENDBRANCH  27  28
ENDBRANCH  26  27
ENDBRANCH  25  26
ENDBRANCH   3  25
TORSDOF 17
ENDMDL
MODEL 3
REMARK VINA RESULT:     -11.4      2.420      3.787
REMARK SMILES [NH3+]CCOCC(=O)N1C[C@@H](C(=O)NCCCCNC(=O)c2ccc(-c3c4nc(c(-c5c(F)c(F)c(F)c(F)c5F)c5ccc([nH]5)c(-c5c(F)c(F)c(F)c(F)c5F)c5nc(c(-c6c(F)c(F)c(F)c(F)c6F)c6ccc3[nH]6)C=C5)C=C4)cc2)Oc2ccccc21
REMARK SMILES IDX 11 1 12 2 13 3 10 5 8 6 9 7 90 8 85 9 89 10 84 11 86 12
REMARK SMILES IDX 88 13 87 14 6 15 7 16 5 17 4 18 3 19 2 20 1 21 14 25 15 26
REMARK SMILES IDX 16 27 17 28 18 29 19 30 20 32 21 33 22 34 83 35 23 36 82 37
REMARK SMILES IDX 24 38 25 39 26 40 76 41 27 42 81 43 75 44 77 45 28 46 80 47
REMARK SMILES IDX 74 48 73 49 29 51 61 52 41 53 60 54 42 55 45 56 59 57 78 58
REMARK SMILES IDX 43 59 44 60 58 62 79 63 46 64 30 65 31 66 39 67 32 68 33 69
REMARK SMILES IDX 37 70 40 71 34 72 35 73 38 74 36 75 62 76 63 77 71 78 64 79
REMARK SMILES IDX 65 80 69 81 72 82 66 83 67 84 70 85 68 86 47 87 48 88 56 89
REMARK SMILES IDX 49 90 50 91 54 92 57 93 51 94 52 95 55 96 53 97
REMARK H PARENT 13 4 1 22 1 23 1 24 18 31 77 50 45 61
REMARK Flexibility Score: inf
ROOT
ATOM      1  C   UNL A   1      33.650  25.401  23.764  1.00  0.00     0.262 C 
ATOM      2  O   UNL A   1      33.993  26.361  23.061  1.00  0.00    -0.271 OA
ATOM      3  N   UNL A   1      34.041  24.180  23.311  1.00  0.00    -0.353 N 
ATOM      4  H   UNL A   1      34.322  24.183  22.368  1.00  0.00     0.163 HD
ENDROOT
BRANCH   1   5
ATOM      5  C   UNL A   1      32.836  25.664  25.054  1.00  0.00     0.281 C 
ATOM      6  N   UNL A   1      31.025  27.312  24.605  1.00  0.00    -0.303 N 
ATOM      7  C   UNL A   1      31.342  25.907  24.854  1.00  0.00     0.181 C 
ATOM      8  C   UNL A   1      31.786  28.231  25.405  1.00  0.00     0.086 A 
ATOM      9  C   UNL A   1      32.925  27.778  26.095  1.00  0.00     0.144 A 
ATOM     10  C   UNL A   1      31.450  29.587  25.520  1.00  0.00     0.030 A 
ATOM     11  O   UNL A   1      33.447  26.518  26.004  1.00  0.00    -0.477 OA
ATOM     12  C   UNL A   1      33.684  28.644  26.890  1.00  0.00     0.049 A 
ATOM     13  C   UNL A   1      32.227  30.459  26.293  1.00  0.00     0.002 A 
ATOM     14  C   UNL A   1      33.341  29.987  26.982  1.00  0.00     0.004 A 
BRANCH   6  15
ATOM     15  C   UNL A   1      30.159  27.725  23.590  1.00  0.00     0.253 C 
ATOM     16  O   UNL A   1      28.965  27.413  23.548  1.00  0.00    -0.272 OA
BRANCH  15  17
ATOM     17  C   UNL A   1      30.738  28.587  22.445  1.00  0.00     0.260 C 
BRANCH  17  18
ATOM     18  O   UNL A   1      29.947  29.476  21.689  1.00  0.00    -0.366 OA
BRANCH  18  19
ATOM     19  C   UNL A   1      29.277  30.504  22.416  1.00  0.00     0.222 C 
BRANCH  19  20
ATOM     20  C   UNL A   1      27.757  30.550  22.210  1.00  0.00     0.287 C 
BRANCH  20  21
ATOM     21  N   UNL A   1      27.033  29.440  22.830  1.00  0.00    -0.356 N 
ATOM     22  H   UNL A   1      26.056  29.467  22.538  1.00  0.00     0.344 HD
ATOM     23  H   UNL A   1      27.087  29.524  23.844  1.00  0.00     0.344 HD
ATOM     24  H   UNL A   1      27.450  28.556  22.538  1.00  0.00     0.344 HD
ENDBRANCH  20  21
ENDBRANCH  19  20
ENDBRANCH  18  19
ENDBRANCH  17  18
ENDBRANCH  15  17
ENDBRANCH   6  15
ENDBRANCH   1   5
BRANCH   3  25
ATOM     25  C   UNL A   1      34.128  22.878  23.939  1.00  0.00     0.116 C 
BRANCH  25  26
ATOM     26  C   UNL A   1      35.503  22.220  23.852  1.00  0.00     0.023 C 
BRANCH  26  27
ATOM     27  C   UNL A   1      36.674  23.154  24.160  1.00  0.00     0.023 C 
BRANCH  27  28
ATOM     28  C   UNL A   1      37.131  23.190  25.616  1.00  0.00     0.116 C 
BRANCH  28  29
ATOM     29  N   UNL A   1      38.271  22.344  25.928  1.00  0.00    -0.352 N 
ATOM     30  C   UNL A   1      39.451  22.706  26.551  1.00  0.00     0.251 C 
ATOM     31  H   UNL A   1      38.195  21.400  25.662  1.00  0.00     0.163 HD
ATOM     32  O   UNL A   1      40.362  21.904  26.685  1.00  0.00    -0.269 OA
BRANCH  30  33
ATOM     33  C   UNL A   1      39.624  24.108  27.005  1.00  0.00     0.039 A 
ATOM     34  C   UNL A   1      39.246  24.445  28.307  1.00  0.00     0.014 A 
ATOM     35  C   UNL A   1      40.214  25.065  26.177  1.00  0.00     0.014 A 
ATOM     36  C   UNL A   1      39.547  25.716  28.804  1.00  0.00     0.010 A 
ATOM     37  C   UNL A   1      40.594  26.296  26.703  1.00  0.00     0.010 A 
ATOM     38  C   UNL A   1      40.269  26.635  28.024  1.00  0.00    -0.014 A 
BRANCH  38  39
ATOM     39  C   UNL A   1      40.704  27.940  28.591  1.00  0.00     0.031 A 
ATOM     40  C   UNL A   1      42.152  28.195  28.906  1.00  0.00     0.074 A 
ATOM     41  C   UNL A   1      39.781  28.881  28.873  1.00  0.00     0.049 A 
ATOM     42  N   UNL A   1      42.716  29.275  29.389  1.00  0.00    -0.248 NA
ATOM     43  C   UNL A   1      43.087  27.082  28.684  1.00  0.00     0.031 C 
ATOM     44  C   UNL A   1      38.335  28.728  28.701  1.00  0.00     0.029 A 
ATOM     45  N   UNL A   1      39.921  30.156  29.363  1.00  0.00    -0.354 N 
ATOM     46  C   UNL A   1      44.062  28.966  29.535  1.00  0.00     0.074 A 
ATOM     47  C   UNL A   1      44.220  27.578  29.155  1.00  0.00     0.031 C 
ATOM     48  C   UNL A   1      37.726  29.876  29.037  1.00  0.00     0.029 A 
ATOM     49  C   UNL A   1      38.734  30.840  29.469  1.00  0.00     0.049 A 
ATOM     50  H   UNL A   1      40.790  30.545  29.614  1.00  0.00     0.167 HD
ATOM     51  C   UNL A   1      45.081  29.772  29.918  1.00  0.00     0.037 A 
ATOM     52  C   UNL A   1      38.487  32.106  29.855  1.00  0.00     0.037 A 
ATOM     53  C   UNL A   1      44.928  31.160  30.267  1.00  0.00     0.049 A 
ATOM     54  C   UNL A   1      39.641  32.996  30.230  1.00  0.00     0.074 A 
ATOM     55  C   UNL A   1      45.906  32.080  30.604  1.00  0.00     0.029 A 
ATOM     56  N   UNL A   1      43.715  31.829  30.324  1.00  0.00    -0.354 N 
ATOM     57  N   UNL A   1      40.921  32.719  30.271  1.00  0.00    -0.248 NA
ATOM     58  C   UNL A   1      39.315  34.382  30.592  1.00  0.00     0.031 C 
ATOM     59  C   UNL A   1      45.280  33.296  30.899  1.00  0.00     0.029 A 
ATOM     60  C   UNL A   1      43.917  33.147  30.702  1.00  0.00     0.049 A 
ATOM     61  H   UNL A   1      42.838  31.427  30.124  1.00  0.00     0.167 HD
ATOM     62  C   UNL A   1      41.555  33.899  30.639  1.00  0.00     0.074 A 
ATOM     63  C   UNL A   1      40.519  34.900  30.784  1.00  0.00     0.031 C 
ATOM     64  C   UNL A   1      42.875  34.132  30.841  1.00  0.00     0.037 A 
BRANCH  51  65
ATOM     65  C   UNL A   1      46.457  29.172  29.961  1.00  0.00     0.064 A 
ATOM     66  C   UNL A   1      47.297  29.180  28.836  1.00  0.00     0.173 A 
ATOM     67  C   UNL A   1      46.954  28.606  31.146  1.00  0.00     0.173 A 
ATOM     68  F   UNL A   1      46.865  29.697  27.676  1.00  0.00    -0.203 F 
ATOM     69  C   UNL A   1      48.567  28.614  28.885  1.00  0.00     0.198 A 
ATOM     70  C   UNL A   1      48.238  28.070  31.199  1.00  0.00     0.198 A 
ATOM     71  F   UNL A   1      46.198  28.577  32.252  1.00  0.00    -0.203 F 
ATOM     72  F   UNL A   1      49.328  28.585  27.782  1.00  0.00    -0.200 F 
ATOM     73  C   UNL A   1      49.040  28.066  30.067  1.00  0.00     0.200 A 
ATOM     74  F   UNL A   1      48.699  27.551  32.345  1.00  0.00    -0.200 F 
ATOM     75  F   UNL A   1      50.266  27.526  30.114  1.00  0.00    -0.200 F 
ENDBRANCH  51  65
BRANCH  52  76
ATOM     76  C   UNL A   1      37.096  32.629  29.850  1.00  0.00     0.064 A 
ATOM     77  C   UNL A   1      36.585  33.298  28.729  1.00  0.00     0.173 A 
ATOM     78  C   UNL A   1      36.254  32.479  30.961  1.00  0.00     0.173 A 
ATOM     79  F   UNL A   1      37.358  33.484  27.650  1.00  0.00    -0.203 F 
ATOM     80  C   UNL A   1      35.293  33.820  28.729  1.00  0.00     0.198 A 
ATOM     81  C   UNL A   1      34.952  32.977  30.949  1.00  0.00     0.198 A 
ATOM     82  F   UNL A   1      36.692  31.840  32.056  1.00  0.00    -0.203 F 
ATOM     83  F   UNL A   1      34.847  34.498  27.663  1.00  0.00    -0.200 F 
ATOM     84  C   UNL A   1      34.476  33.654  29.836  1.00  0.00     0.200 A 
ATOM     85  F   UNL A   1      34.161  32.803  32.016  1.00  0.00    -0.200 F 
ATOM     86  F   UNL A   1      33.233  34.155  29.836  1.00  0.00    -0.200 F 
ENDBRANCH  52  76
BRANCH  64  87
ATOM     87  C   UNL A   1      43.272  35.530  31.215  1.00  0.00     0.064 A 
ATOM     88  C   UNL A   1      43.614  36.483  30.245  1.00  0.00     0.173 A 
ATOM     89  C   UNL A   1      43.304  35.923  32.561  1.00  0.00     0.173 A 
ATOM     90  F   UNL A   1      43.614  36.152  28.944  1.00  0.00    -0.203 F 
ATOM     91  C   UNL A   1      44.011  37.767  30.610  1.00  0.00     0.198 A 
ATOM     92  C   UNL A   1      43.670  37.217  32.922  1.00  0.00     0.198 A 
ATOM     93  F   UNL A   1      42.978  35.053  33.529  1.00  0.00    -0.203 F 
ATOM     94  F   UNL A   1      44.392  38.641  29.668  1.00  0.00    -0.200 F 
ATOM     95  C   UNL A   1      44.033  38.134  31.947  1.00  0.00     0.200 A 
ATOM     96  F   UNL A   1      43.679  37.575  34.214  1.00  0.00    -0.200 F 
ATOM     97  F   UNL A   1      44.417  39.370  32.297  1.00  0.00    -0.200 F 
ENDBRANCH  64  87
ENDBRANCH  38  39
ENDBRANCH  30  33
ENDBRANCH  28  29
ENDBRANCH  27  28
ENDBRANCH  26  27
ENDBRANCH  25  26
ENDBRANCH   3  25
TORSDOF 17
ENDMDL
