MODEL 1
REMARK VINA RESULT:     -12.9      0.000      0.000
REMARK SMILES O=C(NCCCCNC(=O)c1cc(S(=O)(=O)Nc2ccc(F)c(C(F)(F)F)c2)c[nH]1)c1ccc(-c2c3nc(c(-c4c(F)c(F)c(F)c(F)c4F)c4ccc([nH]4)c(-c4c(F)c(F)c(F)c(F)c4F)c4nc(c(-c5c(F)c(F)c(F)c(F)c5F)c5ccc2[nH]5)C=C4)C=C3)cc1
REMARK SMILES IDX 6 1 5 2 4 3 3 4 1 5 2 6 31 8 32 9 93 10 33 11 92 12 34 13
REMARK SMILES IDX 35 14 36 15 86 16 37 17 91 18 85 19 87 20 38 21 90 22 84 23
REMARK SMILES IDX 83 24 39 26 71 27 51 28 70 29 52 30 55 31 69 32 88 33 53 34
REMARK SMILES IDX 54 35 68 37 89 38 56 39 40 40 41 41 49 42 42 43 43 44 47 45
REMARK SMILES IDX 50 46 44 47 45 48 48 49 46 50 72 51 73 52 81 53 74 54 75 55
REMARK SMILES IDX 79 56 82 57 76 58 77 59 80 60 78 61 57 62 58 63 66 64 59 65
REMARK SMILES IDX 60 66 64 67 67 68 61 69 62 70 65 71 63 72 7 73 8 74 9 75
REMARK SMILES IDX 10 77 11 78 12 79 30 80 13 81 29 82 14 84 15 85 16 86 17 87
REMARK SMILES IDX 18 89 19 90 28 91 20 92 23 93 21 94 22 95 24 96 25 97 26 98
REMARK SMILES IDX 27 99
REMARK H PARENT 3 7 87 25 55 36 8 76 30 83 17 88
REMARK Flexibility Score: inf
ROOT
ATOM      1  C   UNL A   1      32.629  28.829  25.255  1.00  0.00     0.023 C 
ENDROOT
BRANCH   1   2
ATOM      2  C   UNL A   1      34.079  28.364  25.284  1.00  0.00     0.023 C 
BRANCH   2   3
ATOM      3  C   UNL A   1      34.767  28.418  26.652  1.00  0.00     0.116 C 
BRANCH   3   4
ATOM      4  N   UNL A   1      34.956  29.732  27.243  1.00  0.00    -0.352 N 
ATOM      5  O   UNL A   1      35.968  31.587  28.000  1.00  0.00    -0.269 OA
ATOM      6  C   UNL A   1      36.059  30.394  27.715  1.00  0.00     0.251 C 
ATOM      7  H   UNL A   1      34.123  30.251  27.320  1.00  0.00     0.163 HD
BRANCH   6   8
ATOM      8  C   UNL A   1      37.327  29.690  27.986  1.00  0.00     0.039 A 
ATOM      9  C   UNL A   1      38.401  29.705  27.096  1.00  0.00     0.014 A 
ATOM     10  C   UNL A   1      37.413  28.965  29.184  1.00  0.00     0.014 A 
ATOM     11  C   UNL A   1      39.482  28.870  27.314  1.00  0.00     0.010 A 
ATOM     12  C   UNL A   1      38.525  28.169  29.441  1.00  0.00     0.010 A 
ATOM     13  C   UNL A   1      39.547  28.111  28.489  1.00  0.00    -0.014 A 
BRANCH  13  14
ATOM     14  C   UNL A   1      40.861  27.520  28.802  1.00  0.00     0.031 A 
ATOM     15  C   UNL A   1      40.949  26.097  28.179  1.00  0.00     0.074 A 
ATOM     16  C   UNL A   1      41.679  28.245  29.630  1.00  0.00     0.049 A 
ATOM     17  N   UNL A   1      41.628  25.060  28.557  1.00  0.00    -0.248 NA
ATOM     18  C   UNL A   1      40.097  25.756  26.997  1.00  0.00     0.031 C 
ATOM     19  C   UNL A   1      41.424  29.634  30.083  1.00  0.00     0.029 A 
ATOM     20  N   UNL A   1      42.873  27.978  30.276  1.00  0.00    -0.354 N 
ATOM     21  C   UNL A   1      41.447  24.042  27.590  1.00  0.00     0.074 A 
ATOM     22  C   UNL A   1      40.413  24.489  26.714  1.00  0.00     0.031 C 
ATOM     23  C   UNL A   1      42.354  30.036  30.981  1.00  0.00     0.029 A 
ATOM     24  C   UNL A   1      43.314  28.972  31.201  1.00  0.00     0.049 A 
ATOM     25  H   UNL A   1      43.385  27.154  30.109  1.00  0.00     0.167 HD
ATOM     26  C   UNL A   1      42.254  22.941  27.512  1.00  0.00     0.037 A 
ATOM     27  C   UNL A   1      44.345  28.907  32.107  1.00  0.00     0.037 A 
ATOM     28  C   UNL A   1      43.201  22.974  28.571  1.00  0.00     0.049 A 
ATOM     29  C   UNL A   1      45.036  27.655  31.775  1.00  0.00     0.074 A 
ATOM     30  C   UNL A   1      43.053  22.743  29.912  1.00  0.00     0.029 A 
ATOM     31  N   UNL A   1      44.356  23.680  28.348  1.00  0.00    -0.354 N 
ATOM     32  N   UNL A   1      45.770  27.476  30.719  1.00  0.00    -0.248 NA
ATOM     33  C   UNL A   1      44.810  26.485  32.633  1.00  0.00     0.031 C 
ATOM     34  C   UNL A   1      43.836  23.759  30.487  1.00  0.00     0.029 A 
ATOM     35  C   UNL A   1      44.644  24.351  29.508  1.00  0.00     0.049 A 
ATOM     36  H   UNL A   1      44.878  23.701  27.514  1.00  0.00     0.167 HD
ATOM     37  C   UNL A   1      45.789  26.108  30.620  1.00  0.00     0.074 A 
ATOM     38  C   UNL A   1      45.501  25.586  31.938  1.00  0.00     0.031 C 
ATOM     39  C   UNL A   1      45.473  25.526  29.436  1.00  0.00     0.037 A 
BRANCH  26  40
ATOM     40  C   UNL A   1      42.462  21.887  26.464  1.00  0.00     0.064 A 
ATOM     41  C   UNL A   1      43.431  21.992  25.461  1.00  0.00     0.173 A 
ATOM     42  C   UNL A   1      41.952  20.588  26.713  1.00  0.00     0.173 A 
ATOM     43  F   UNL A   1      43.986  23.174  25.161  1.00  0.00    -0.203 F 
ATOM     44  C   UNL A   1      43.929  20.855  24.815  1.00  0.00     0.198 A 
ATOM     45  C   UNL A   1      42.483  19.455  26.102  1.00  0.00     0.198 A 
ATOM     46  F   UNL A   1      40.985  20.392  27.625  1.00  0.00    -0.203 F 
ATOM     47  F   UNL A   1      44.902  20.984  23.903  1.00  0.00    -0.200 F 
ATOM     48  C   UNL A   1      43.488  19.587  25.166  1.00  0.00     0.200 A 
ATOM     49  F   UNL A   1      42.070  18.235  26.479  1.00  0.00    -0.200 F 
ATOM     50  F   UNL A   1      44.053  18.499  24.628  1.00  0.00    -0.200 F 
ENDBRANCH  26  40
BRANCH  27  51
ATOM     51  C   UNL A   1      44.883  29.643  33.327  1.00  0.00     0.064 A 
ATOM     52  C   UNL A   1      44.034  29.850  34.460  1.00  0.00     0.173 A 
ATOM     53  C   UNL A   1      46.130  30.265  33.441  1.00  0.00     0.173 A 
ATOM     54  F   UNL A   1      42.887  29.175  34.618  1.00  0.00    -0.203 F 
ATOM     55  C   UNL A   1      44.306  30.759  35.482  1.00  0.00     0.198 A 
ATOM     56  C   UNL A   1      46.437  31.131  34.515  1.00  0.00     0.198 A 
ATOM     57  F   UNL A   1      47.089  30.051  32.535  1.00  0.00    -0.203 F 
ATOM     58  F   UNL A   1      43.381  30.997  36.425  1.00  0.00    -0.200 F 
ATOM     59  C   UNL A   1      45.506  31.421  35.500  1.00  0.00     0.200 A 
ATOM     60  F   UNL A   1      47.644  31.710  34.579  1.00  0.00    -0.200 F 
ATOM     61  F   UNL A   1      45.767  32.315  36.463  1.00  0.00    -0.200 F 
ENDBRANCH  27  51
BRANCH  39  62
ATOM     62  C   UNL A   1      45.727  26.389  28.215  1.00  0.00     0.064 A 
ATOM     63  C   UNL A   1      44.722  26.948  27.409  1.00  0.00     0.173 A 
ATOM     64  C   UNL A   1      47.042  26.754  27.888  1.00  0.00     0.173 A 
ATOM     65  F   UNL A   1      43.441  26.661  27.624  1.00  0.00    -0.203 F 
ATOM     66  C   UNL A   1      44.999  27.816  26.349  1.00  0.00     0.198 A 
ATOM     67  C   UNL A   1      47.326  27.622  26.830  1.00  0.00     0.198 A 
ATOM     68  F   UNL A   1      48.066  26.255  28.597  1.00  0.00    -0.203 F 
ATOM     69  F   UNL A   1      43.998  28.312  25.606  1.00  0.00    -0.200 F 
ATOM     70  C   UNL A   1      46.306  28.153  26.060  1.00  0.00     0.200 A 
ATOM     71  F   UNL A   1      48.599  27.933  26.548  1.00  0.00    -0.200 F 
ATOM     72  F   UNL A   1      46.581  28.970  25.033  1.00  0.00    -0.200 F 
ENDBRANCH  39  62
ENDBRANCH  13  14
ENDBRANCH   6   8
ENDBRANCH   3   4
ENDBRANCH   2   3
ENDBRANCH   1   2
BRANCH   1  73
ATOM     73  C   UNL A   1      31.748  28.138  24.230  1.00  0.00     0.116 C 
BRANCH  73  74
ATOM     74  N   UNL A   1      32.466  27.719  23.040  1.00  0.00    -0.351 N 
ATOM     75  C   UNL A   1      32.833  26.455  22.651  1.00  0.00     0.267 C 
ATOM     76  H   UNL A   1      32.728  28.444  22.428  1.00  0.00     0.163 HD
ATOM     77  O   UNL A   1      33.611  26.343  21.706  1.00  0.00    -0.268 OA
BRANCH  75  78
ATOM     78  C   UNL A   1      32.282  25.302  23.327  1.00  0.00     0.105 A 
ATOM     79  C   UNL A   1      32.440  24.843  24.623  1.00  0.00     0.055 A 
ATOM     80  N   UNL A   1      31.366  24.457  22.736  1.00  0.00    -0.356 N 
ATOM     81  C   UNL A   1      31.532  23.792  24.857  1.00  0.00     0.106 A 
ATOM     82  C   UNL A   1      30.930  23.524  23.643  1.00  0.00     0.105 A 
ATOM     83  H   UNL A   1      31.068  24.515  21.800  1.00  0.00     0.166 HD
BRANCH  81  84
ATOM     84  S   UNL A   1      31.228  22.992  26.361  1.00  0.00     0.263 S 
ATOM     85  O   UNL A   1      30.869  24.068  27.253  1.00  0.00    -0.201 OA
ATOM     86  O   UNL A   1      30.278  21.954  26.001  1.00  0.00    -0.201 OA
BRANCH  84  87
ATOM     87  N   UNL A   1      32.535  22.174  27.058  1.00  0.00    -0.280 N 
ATOM     88  H   UNL A   1      32.533  22.023  28.031  1.00  0.00     0.180 HD
BRANCH  87  89
ATOM     89  C   UNL A   1      33.635  21.695  26.300  1.00  0.00     0.050 A 
ATOM     90  C   UNL A   1      33.581  20.480  25.617  1.00  0.00     0.030 A 
ATOM     91  C   UNL A   1      34.816  22.447  26.292  1.00  0.00     0.043 A 
ATOM     92  C   UNL A   1      34.732  19.980  25.001  1.00  0.00     0.042 A 
ATOM     93  C   UNL A   1      35.973  21.959  25.658  1.00  0.00     0.093 A 
ATOM     94  C   UNL A   1      35.917  20.715  25.035  1.00  0.00     0.135 A 
ATOM     95  F   UNL A   1      37.016  20.178  24.492  1.00  0.00    -0.206 F 
BRANCH  93  96
ATOM     96  C   UNL A   1      37.243  22.756  25.702  1.00  0.00     0.419 C 
ATOM     97  F   UNL A   1      37.558  23.300  24.497  1.00  0.00    -0.166 F 
ATOM     98  F   UNL A   1      37.141  23.799  26.574  1.00  0.00    -0.166 F 
ATOM     99  F   UNL A   1      38.336  22.055  26.107  1.00  0.00    -0.166 F 
ENDBRANCH  93  96
ENDBRANCH  87  89
ENDBRANCH  84  87
ENDBRANCH  81  84
ENDBRANCH  75  78
ENDBRANCH  73  74
ENDBRANCH   1  73
TORSDOF 15
ENDMDL
MODEL 2
REMARK VINA RESULT:     -12.7      4.401      9.238
REMARK SMILES O=C(NCCCCNC(=O)c1cc(S(=O)(=O)Nc2ccc(F)c(C(F)(F)F)c2)c[nH]1)c1ccc(-c2c3nc(c(-c4c(F)c(F)c(F)c(F)c4F)c4ccc([nH]4)c(-c4c(F)c(F)c(F)c(F)c4F)c4nc(c(-c5c(F)c(F)c(F)c(F)c5F)c5ccc2[nH]5)C=C4)C=C3)cc1
REMARK SMILES IDX 6 1 5 2 4 3 3 4 1 5 2 6 31 8 32 9 93 10 33 11 92 12 34 13
REMARK SMILES IDX 35 14 36 15 86 16 37 17 91 18 85 19 87 20 38 21 90 22 84 23
REMARK SMILES IDX 83 24 39 26 71 27 51 28 70 29 52 30 55 31 69 32 88 33 53 34
REMARK SMILES IDX 54 35 68 37 89 38 56 39 40 40 41 41 49 42 42 43 43 44 47 45
REMARK SMILES IDX 50 46 44 47 45 48 48 49 46 50 72 51 73 52 81 53 74 54 75 55
REMARK SMILES IDX 79 56 82 57 76 58 77 59 80 60 78 61 57 62 58 63 66 64 59 65
REMARK SMILES IDX 60 66 64 67 67 68 61 69 62 70 65 71 63 72 7 73 8 74 9 75
REMARK SMILES IDX 10 77 11 78 12 79 30 80 13 81 29 82 14 84 15 85 16 86 17 87
REMARK SMILES IDX 18 89 19 90 28 91 20 92 23 93 21 94 22 95 24 96 25 97 26 98
REMARK SMILES IDX 27 99
REMARK H PARENT 3 7 87 25 55 36 8 76 30 83 17 88
REMARK Flexibility Score: inf
ROOT
ATOM      1  C   UNL A   1      34.815  23.288  26.530  1.00  0.00     0.023 C 
ENDROOT
BRANCH   1   2
ATOM      2  C   UNL A   1      36.153  23.106  25.825  1.00  0.00     0.023 C 
BRANCH   2   3
ATOM      3  C   UNL A   1      37.261  24.078  26.242  1.00  0.00     0.116 C 
BRANCH   3   4
ATOM      4  N   UNL A   1      38.631  23.613  26.102  1.00  0.00    -0.352 N 
ATOM      5  O   UNL A   1      40.824  23.341  26.494  1.00  0.00    -0.269 OA
ATOM      6  C   UNL A   1      39.820  24.036  26.637  1.00  0.00     0.251 C 
ATOM      7  H   UNL A   1      38.723  22.838  25.502  1.00  0.00     0.163 HD
BRANCH   6   8
ATOM      8  C   UNL A   1      39.950  25.352  27.291  1.00  0.00     0.039 A 
ATOM      9  C   UNL A   1      39.620  25.562  28.630  1.00  0.00     0.014 A 
ATOM     10  C   UNL A   1      40.400  26.419  26.500  1.00  0.00     0.014 A 
ATOM     11  C   UNL A   1      39.576  26.850  29.131  1.00  0.00     0.010 A 
ATOM     12  C   UNL A   1      40.417  27.712  27.014  1.00  0.00     0.010 A 
ATOM     13  C   UNL A   1      39.982  27.922  28.325  1.00  0.00    -0.014 A 
BRANCH  13  14
ATOM     14  C   UNL A   1      40.226  29.197  29.025  1.00  0.00     0.031 A 
ATOM     15  C   UNL A   1      38.888  29.981  29.149  1.00  0.00     0.074 A 
ATOM     16  C   UNL A   1      41.530  29.493  29.325  1.00  0.00     0.049 A 
ATOM     17  N   UNL A   1      38.671  31.257  29.220  1.00  0.00    -0.248 NA
ATOM     18  C   UNL A   1      37.591  29.236  29.118  1.00  0.00     0.031 C 
ATOM     19  C   UNL A   1      42.677  28.566  29.166  1.00  0.00     0.029 A 
ATOM     20  N   UNL A   1      42.174  30.620  29.805  1.00  0.00    -0.354 N 
ATOM     21  C   UNL A   1      37.285  31.455  29.430  1.00  0.00     0.074 A 
ATOM     22  C   UNL A   1      36.660  30.184  29.250  1.00  0.00     0.031 C 
ATOM     23  C   UNL A   1      43.850  29.185  29.440  1.00  0.00     0.029 A 
ATOM     24  C   UNL A   1      43.600  30.563  29.816  1.00  0.00     0.049 A 
ATOM     25  H   UNL A   1      41.680  31.411  30.119  1.00  0.00     0.167 HD
ATOM     26  C   UNL A   1      36.762  32.643  29.858  1.00  0.00     0.037 A 
ATOM     27  C   UNL A   1      44.500  31.572  30.061  1.00  0.00     0.037 A 
ATOM     28  C   UNL A   1      37.801  33.605  29.967  1.00  0.00     0.049 A 
ATOM     29  C   UNL A   1      43.668  32.692  30.516  1.00  0.00     0.074 A 
ATOM     30  C   UNL A   1      38.499  34.284  29.005  1.00  0.00     0.029 A 
ATOM     31  N   UNL A   1      38.499  33.632  31.149  1.00  0.00    -0.354 N 
ATOM     32  N   UNL A   1      43.079  32.750  31.672  1.00  0.00    -0.248 NA
ATOM     33  C   UNL A   1      43.390  33.783  29.573  1.00  0.00     0.031 C 
ATOM     34  C   UNL A   1      39.817  34.242  29.493  1.00  0.00     0.029 A 
ATOM     35  C   UNL A   1      39.817  33.826  30.831  1.00  0.00     0.049 A 
ATOM     36  H   UNL A   1      38.123  33.531  32.053  1.00  0.00     0.167 HD
ATOM     37  C   UNL A   1      42.107  33.691  31.443  1.00  0.00     0.074 A 
ATOM     38  C   UNL A   1      42.550  34.491  30.322  1.00  0.00     0.031 C 
ATOM     39  C   UNL A   1      40.823  33.408  31.774  1.00  0.00     0.037 A 
BRANCH  26  40
ATOM     40  C   UNL A   1      35.424  33.042  30.409  1.00  0.00     0.064 A 
ATOM     41  C   UNL A   1      35.021  32.749  31.715  1.00  0.00     0.173 A 
ATOM     42  C   UNL A   1      34.707  34.069  29.744  1.00  0.00     0.173 A 
ATOM     43  F   UNL A   1      35.644  31.805  32.433  1.00  0.00    -0.203 F 
ATOM     44  C   UNL A   1      34.028  33.503  32.352  1.00  0.00     0.198 A 
ATOM     45  C   UNL A   1      33.754  34.847  30.396  1.00  0.00     0.198 A 
ATOM     46  F   UNL A   1      34.989  34.391  28.471  1.00  0.00    -0.203 F 
ATOM     47  F   UNL A   1      33.710  33.236  33.626  1.00  0.00    -0.200 F 
ATOM     48  C   UNL A   1      33.429  34.576  31.710  1.00  0.00     0.200 A 
ATOM     49  F   UNL A   1      33.210  35.902  29.772  1.00  0.00    -0.200 F 
ATOM     50  F   UNL A   1      32.567  35.364  32.365  1.00  0.00    -0.200 F 
ENDBRANCH  26  40
BRANCH  27  51
ATOM     51  C   UNL A   1      45.984  31.882  29.914  1.00  0.00     0.064 A 
ATOM     52  C   UNL A   1      46.739  32.293  31.058  1.00  0.00     0.173 A 
ATOM     53  C   UNL A   1      46.713  31.919  28.721  1.00  0.00     0.173 A 
ATOM     54  F   UNL A   1      46.274  32.136  32.305  1.00  0.00    -0.203 F 
ATOM     55  C   UNL A   1      47.997  32.890  30.990  1.00  0.00     0.198 A 
ATOM     56  C   UNL A   1      48.018  32.458  28.660  1.00  0.00     0.198 A 
ATOM     57  F   UNL A   1      46.198  31.432  27.588  1.00  0.00    -0.203 F 
ATOM     58  F   UNL A   1      48.563  33.381  32.103  1.00  0.00    -0.200 F 
ATOM     59  C   UNL A   1      48.634  32.994  29.780  1.00  0.00     0.200 A 
ATOM     60  F   UNL A   1      48.675  32.478  27.491  1.00  0.00    -0.200 F 
ATOM     61  F   UNL A   1      49.831  33.589  29.698  1.00  0.00    -0.200 F 
ENDBRANCH  27  51
BRANCH  39  62
ATOM     62  C   UNL A   1      40.661  32.391  32.887  1.00  0.00     0.064 A 
ATOM     63  C   UNL A   1      40.173  31.086  32.710  1.00  0.00     0.173 A 
ATOM     64  C   UNL A   1      41.106  32.705  34.179  1.00  0.00     0.173 A 
ATOM     65  F   UNL A   1      39.715  30.685  31.528  1.00  0.00    -0.203 F 
ATOM     66  C   UNL A   1      40.130  30.149  33.748  1.00  0.00     0.198 A 
ATOM     67  C   UNL A   1      41.067  31.772  35.220  1.00  0.00     0.198 A 
ATOM     68  F   UNL A   1      41.575  33.934  34.442  1.00  0.00    -0.203 F 
ATOM     69  F   UNL A   1      39.643  28.919  33.524  1.00  0.00    -0.200 F 
ATOM     70  C   UNL A   1      40.579  30.495  35.006  1.00  0.00     0.200 A 
ATOM     71  F   UNL A   1      41.492  32.121  36.443  1.00  0.00    -0.200 F 
ATOM     72  F   UNL A   1      40.524  29.607  36.010  1.00  0.00    -0.200 F 
ENDBRANCH  39  62
ENDBRANCH  13  14
ENDBRANCH   6   8
ENDBRANCH   3   4
ENDBRANCH   2   3
ENDBRANCH   1   2
BRANCH   1  73
ATOM     73  C   UNL A   1      33.688  22.412  26.014  1.00  0.00     0.116 C 
BRANCH  73  74
ATOM     74  N   UNL A   1      32.436  22.604  26.723  1.00  0.00    -0.351 N 
ATOM     75  C   UNL A   1      31.403  23.462  26.439  1.00  0.00     0.267 C 
ATOM     76  H   UNL A   1      32.312  22.040  27.520  1.00  0.00     0.163 HD
ATOM     77  O   UNL A   1      30.522  23.607  27.284  1.00  0.00    -0.268 OA
BRANCH  75  78
ATOM     78  C   UNL A   1      31.358  24.142  25.164  1.00  0.00     0.105 A 
ATOM     79  C   UNL A   1      32.271  24.972  24.540  1.00  0.00     0.055 A 
ATOM     80  N   UNL A   1      30.324  23.975  24.266  1.00  0.00    -0.356 N 
ATOM     81  C   UNL A   1      31.852  25.215  23.217  1.00  0.00     0.106 A 
ATOM     82  C   UNL A   1      30.599  24.644  23.100  1.00  0.00     0.105 A 
ATOM     83  H   UNL A   1      29.508  23.453  24.437  1.00  0.00     0.166 HD
BRANCH  81  84
ATOM     84  S   UNL A   1      32.724  26.059  21.984  1.00  0.00     0.263 S 
ATOM     85  O   UNL A   1      34.029  25.445  22.008  1.00  0.00    -0.201 OA
ATOM     86  O   UNL A   1      31.854  25.951  20.826  1.00  0.00    -0.201 OA
BRANCH  84  87
ATOM     87  N   UNL A   1      32.943  27.721  22.219  1.00  0.00    -0.280 N 
ATOM     88  H   UNL A   1      33.404  28.240  21.520  1.00  0.00     0.180 HD
BRANCH  87  89
ATOM     89  C   UNL A   1      32.492  28.400  23.381  1.00  0.00     0.050 A 
ATOM     90  C   UNL A   1      31.217  28.960  23.453  1.00  0.00     0.030 A 
ATOM     91  C   UNL A   1      33.381  28.549  24.452  1.00  0.00     0.043 A 
ATOM     92  C   UNL A   1      30.865  29.741  24.559  1.00  0.00     0.042 A 
ATOM     93  C   UNL A   1      33.028  29.316  25.577  1.00  0.00     0.093 A 
ATOM     94  C   UNL A   1      31.773  29.920  25.603  1.00  0.00     0.135 A 
ATOM     95  F   UNL A   1      31.429  30.725  26.615  1.00  0.00    -0.206 F 
BRANCH  93  96
ATOM     96  C   UNL A   1      34.011  29.506  26.692  1.00  0.00     0.419 C 
ATOM     97  F   UNL A   1      34.266  30.817  26.945  1.00  0.00    -0.166 F 
ATOM     98  F   UNL A   1      33.541  28.980  27.859  1.00  0.00    -0.166 F 
ATOM     99  F   UNL A   1      35.218  28.911  26.491  1.00  0.00    -0.166 F 
ENDBRANCH  93  96
ENDBRANCH  87  89
ENDBRANCH  84  87
ENDBRANCH  81  84
ENDBRANCH  75  78
ENDBRANCH  73  74
ENDBRANCH   1  73
TORSDOF 15
ENDMDL
MODEL 3
REMARK VINA RESULT:     -12.5      3.545      8.288
REMARK SMILES O=C(NCCCCNC(=O)c1cc(S(=O)(=O)Nc2ccc(F)c(C(F)(F)F)c2)c[nH]1)c1ccc(-c2c3nc(c(-c4c(F)c(F)c(F)c(F)c4F)c4ccc([nH]4)c(-c4c(F)c(F)c(F)c(F)c4F)c4nc(c(-c5c(F)c(F)c(F)c(F)c5F)c5ccc2[nH]5)C=C4)C=C3)cc1
REMARK SMILES IDX 6 1 5 2 4 3 3 4 1 5 2 6 31 8 32 9 93 10 33 11 92 12 34 13
REMARK SMILES IDX 35 14 36 15 86 16 37 17 91 18 85 19 87 20 38 21 90 22 84 23
REMARK SMILES IDX 83 24 39 26 71 27 51 28 70 29 52 30 55 31 69 32 88 33 53 34
REMARK SMILES IDX 54 35 68 37 89 38 56 39 40 40 41 41 49 42 42 43 43 44 47 45
REMARK SMILES IDX 50 46 44 47 45 48 48 49 46 50 72 51 73 52 81 53 74 54 75 55
REMARK SMILES IDX 79 56 82 57 76 58 77 59 80 60 78 61 57 62 58 63 66 64 59 65
REMARK SMILES IDX 60 66 64 67 67 68 61 69 62 70 65 71 63 72 7 73 8 74 9 75
REMARK SMILES IDX 10 77 11 78 12 79 30 80 13 81 29 82 14 84 15 85 16 86 17 87
REMARK SMILES IDX 18 89 19 90 28 91 20 92 23 93 21 94 22 95 24 96 25 97 26 98
REMARK SMILES IDX 27 99
REMARK H PARENT 3 7 87 25 55 36 8 76 30 83 17 88
REMARK Flexibility Score: inf
ROOT
ATOM      1  C   UNL A   1      36.777  19.596  24.794  1.00  0.00     0.023 C 
ENDROOT
BRANCH   1   2
ATOM      2  C   UNL A   1      38.267  19.899  24.708  1.00  0.00     0.023 C 
BRANCH   2   3
ATOM      3  C   UNL A   1      39.082  19.585  25.966  1.00  0.00     0.116 C 
BRANCH   3   4
ATOM      4  N   UNL A   1      40.336  18.875  25.778  1.00  0.00    -0.352 N 
ATOM      5  O   UNL A   1      42.500  18.313  25.972  1.00  0.00    -0.269 OA
ATOM      6  C   UNL A   1      41.639  19.184  26.072  1.00  0.00     0.251 C 
ATOM      7  H   UNL A   1      40.227  17.993  25.354  1.00  0.00     0.163 HD
BRANCH   6   8
ATOM      8  C   UNL A   1      42.050  20.561  26.406  1.00  0.00     0.039 A 
ATOM      9  C   UNL A   1      42.331  21.519  25.432  1.00  0.00     0.014 A 
ATOM     10  C   UNL A   1      42.180  20.878  27.766  1.00  0.00     0.014 A 
ATOM     11  C   UNL A   1      42.899  22.725  25.802  1.00  0.00     0.010 A 
ATOM     12  C   UNL A   1      42.693  22.113  28.150  1.00  0.00     0.010 A 
ATOM     13  C   UNL A   1      43.071  23.023  27.160  1.00  0.00    -0.014 A 
BRANCH  13  14
ATOM     14  C   UNL A   1      43.359  24.434  27.477  1.00  0.00     0.031 A 
ATOM     15  C   UNL A   1      42.020  25.200  27.683  1.00  0.00     0.074 A 
ATOM     16  C   UNL A   1      44.674  24.819  27.427  1.00  0.00     0.049 A 
ATOM     17  N   UNL A   1      41.736  26.451  27.495  1.00  0.00    -0.248 NA
ATOM     18  C   UNL A   1      40.795  24.446  28.092  1.00  0.00     0.031 C 
ATOM     19  C   UNL A   1      45.828  23.903  27.260  1.00  0.00     0.029 A 
ATOM     20  N   UNL A   1      45.321  26.041  27.488  1.00  0.00    -0.354 N 
ATOM     21  C   UNL A   1      40.407  26.668  27.930  1.00  0.00     0.074 A 
ATOM     22  C   UNL A   1      39.845  25.381  28.185  1.00  0.00     0.031 C 
ATOM     23  C   UNL A   1      46.987  24.591  27.137  1.00  0.00     0.029 A 
ATOM     24  C   UNL A   1      46.723  26.014  27.222  1.00  0.00     0.049 A 
ATOM     25  H   UNL A   1      44.844  26.875  27.702  1.00  0.00     0.167 HD
ATOM     26  C   UNL A   1      39.897  27.915  28.165  1.00  0.00     0.037 A 
ATOM     27  C   UNL A   1      47.584  27.070  27.035  1.00  0.00     0.037 A 
ATOM     28  C   UNL A   1      40.871  28.893  27.832  1.00  0.00     0.049 A 
ATOM     29  C   UNL A   1      46.781  28.251  27.373  1.00  0.00     0.074 A 
ATOM     30  C   UNL A   1      41.323  29.331  26.616  1.00  0.00     0.029 A 
ATOM     31  N   UNL A   1      41.780  29.220  28.806  1.00  0.00    -0.354 N 
ATOM     32  N   UNL A   1      46.424  28.578  28.579  1.00  0.00    -0.248 NA
ATOM     33  C   UNL A   1      46.254  29.074  26.278  1.00  0.00     0.031 C 
ATOM     34  C   UNL A   1      42.710  29.433  26.821  1.00  0.00     0.029 A 
ATOM     35  C   UNL A   1      42.996  29.355  28.191  1.00  0.00     0.049 A 
ATOM     36  H   UNL A   1      41.593  29.335  29.767  1.00  0.00     0.167 HD
ATOM     37  C   UNL A   1      45.365  29.416  28.338  1.00  0.00     0.074 A 
ATOM     38  C   UNL A   1      45.528  29.927  26.995  1.00  0.00     0.031 C 
ATOM     39  C   UNL A   1      44.190  29.199  28.981  1.00  0.00     0.037 A 
BRANCH  26  40
ATOM     40  C   UNL A   1      38.667  28.411  28.867  1.00  0.00     0.064 A 
ATOM     41  C   UNL A   1      38.410  28.163  30.219  1.00  0.00     0.173 A 
ATOM     42  C   UNL A   1      37.942  29.475  28.273  1.00  0.00     0.173 A 
ATOM     43  F   UNL A   1      39.055  27.189  30.875  1.00  0.00    -0.203 F 
ATOM     44  C   UNL A   1      37.556  28.992  30.957  1.00  0.00     0.198 A 
ATOM     45  C   UNL A   1      37.130  30.325  29.020  1.00  0.00     0.198 A 
ATOM     46  F   UNL A   1      38.084  29.761  26.968  1.00  0.00    -0.203 F 
ATOM     47  F   UNL A   1      37.382  28.764  32.265  1.00  0.00    -0.200 F 
ATOM     48  C   UNL A   1      36.954  30.094  30.369  1.00  0.00     0.200 A 
ATOM     49  F   UNL A   1      36.584  31.406  28.445  1.00  0.00    -0.200 F 
ATOM     50  F   UNL A   1      36.233  30.948  31.109  1.00  0.00    -0.200 F 
ENDBRANCH  26  40
BRANCH  27  51
ATOM     51  C   UNL A   1      48.986  27.362  26.521  1.00  0.00     0.064 A 
ATOM     52  C   UNL A   1      49.265  27.256  25.121  1.00  0.00     0.173 A 
ATOM     53  C   UNL A   1      50.118  27.631  27.296  1.00  0.00     0.173 A 
ATOM     54  F   UNL A   1      48.286  27.198  24.208  1.00  0.00    -0.203 F 
ATOM     55  C   UNL A   1      50.550  27.194  24.584  1.00  0.00     0.198 A 
ATOM     56  C   UNL A   1      51.419  27.641  26.742  1.00  0.00     0.198 A 
ATOM     57  F   UNL A   1      50.007  27.901  28.601  1.00  0.00    -0.203 F 
ATOM     58  F   UNL A   1      50.714  26.941  23.276  1.00  0.00    -0.200 F 
ATOM     59  C   UNL A   1      51.637  27.366  25.402  1.00  0.00     0.200 A 
ATOM     60  F   UNL A   1      52.474  27.898  27.528  1.00  0.00    -0.200 F 
ATOM     61  F   UNL A   1      52.876  27.283  24.900  1.00  0.00    -0.200 F 
ENDBRANCH  27  51
BRANCH  39  62
ATOM     62  C   UNL A   1      44.315  28.480  30.310  1.00  0.00     0.064 A 
ATOM     63  C   UNL A   1      43.945  27.143  30.532  1.00  0.00     0.173 A 
ATOM     64  C   UNL A   1      44.924  29.131  31.393  1.00  0.00     0.173 A 
ATOM     65  F   UNL A   1      43.350  26.435  29.577  1.00  0.00    -0.203 F 
ATOM     66  C   UNL A   1      44.167  26.491  31.749  1.00  0.00     0.198 A 
ATOM     67  C   UNL A   1      45.149  28.484  32.612  1.00  0.00     0.198 A 
ATOM     68  F   UNL A   1      45.297  30.414  31.274  1.00  0.00    -0.203 F 
ATOM     69  F   UNL A   1      43.782  25.215  31.909  1.00  0.00    -0.200 F 
ATOM     70  C   UNL A   1      44.770  27.165  32.791  1.00  0.00     0.200 A 
ATOM     71  F   UNL A   1      45.724  29.150  33.623  1.00  0.00    -0.200 F 
ATOM     72  F   UNL A   1      44.969  26.552  33.967  1.00  0.00    -0.200 F 
ENDBRANCH  39  62
ENDBRANCH  13  14
ENDBRANCH   6   8
ENDBRANCH   3   4
ENDBRANCH   2   3
ENDBRANCH   1   2
BRANCH   1  73
ATOM     73  C   UNL A   1      35.888  20.794  25.077  1.00  0.00     0.116 C 
BRANCH  73  74
ATOM     74  N   UNL A   1      36.627  21.986  25.449  1.00  0.00    -0.351 N 
ATOM     75  C   UNL A   1      36.162  23.159  25.990  1.00  0.00     0.267 C 
ATOM     76  H   UNL A   1      37.598  21.948  25.289  1.00  0.00     0.163 HD
ATOM     77  O   UNL A   1      36.930  24.117  26.042  1.00  0.00    -0.268 OA
BRANCH  75  78
ATOM     78  C   UNL A   1      34.814  23.232  26.505  1.00  0.00     0.105 A 
ATOM     79  C   UNL A   1      33.666  23.798  25.981  1.00  0.00     0.055 A 
ATOM     80  N   UNL A   1      34.428  22.614  27.677  1.00  0.00    -0.356 N 
ATOM     81  C   UNL A   1      32.560  23.425  26.769  1.00  0.00     0.106 A 
ATOM     82  C   UNL A   1      33.076  22.751  27.860  1.00  0.00     0.105 A 
ATOM     83  H   UNL A   1      35.036  22.144  28.292  1.00  0.00     0.166 HD
BRANCH  81  84
ATOM     84  S   UNL A   1      30.891  23.744  26.444  1.00  0.00     0.263 S 
ATOM     85  O   UNL A   1      30.749  23.423  25.045  1.00  0.00    -0.201 OA
ATOM     86  O   UNL A   1      30.200  22.986  27.473  1.00  0.00    -0.201 OA
BRANCH  84  87
ATOM     87  N   UNL A   1      30.375  25.343  26.650  1.00  0.00    -0.280 N 
ATOM     88  H   UNL A   1      29.540  25.509  27.145  1.00  0.00     0.180 HD
BRANCH  87  89
ATOM     89  C   UNL A   1      31.095  26.455  26.141  1.00  0.00     0.050 A 
ATOM     90  C   UNL A   1      32.164  27.017  26.838  1.00  0.00     0.030 A 
ATOM     91  C   UNL A   1      30.673  27.024  24.933  1.00  0.00     0.043 A 
ATOM     92  C   UNL A   1      32.752  28.196  26.369  1.00  0.00     0.042 A 
ATOM     93  C   UNL A   1      31.272  28.199  24.445  1.00  0.00     0.093 A 
ATOM     94  C   UNL A   1      32.297  28.781  25.188  1.00  0.00     0.135 A 
ATOM     95  F   UNL A   1      32.839  29.943  24.802  1.00  0.00    -0.206 F 
BRANCH  93  96
ATOM     96  C   UNL A   1      30.775  28.822  23.175  1.00  0.00     0.419 C 
ATOM     97  F   UNL A   1      29.927  28.008  22.493  1.00  0.00    -0.166 F 
ATOM     98  F   UNL A   1      30.079  29.967  23.427  1.00  0.00    -0.166 F 
ATOM     99  F   UNL A   1      31.752  29.180  22.300  1.00  0.00    -0.166 F 
ENDBRANCH  93  96
ENDBRANCH  87  89
ENDBRANCH  84  87
ENDBRANCH  81  84
ENDBRANCH  75  78
ENDBRANCH  73  74
ENDBRANCH   1  73
TORSDOF 15
ENDMDL
