MODEL 1
REMARK VINA RESULT:      -9.2      0.000      0.000
REMARK SMILES COc1ccc(NCc2ccc(C(=O)NCCCCNC(=O)c3ccc(-c4c5nc(c(-c6c(F)c(F)c(F)c(F)c6F)c6ccc([nH]6)c(-c6c(F)c(F)c(F)c(F)c6F)c6nc(c(-c7c(F)c(F)c(F)c(F)c7F)c7ccc4[nH]7)C=C6)C=C5)cc3)cn2)cc1Br
REMARK SMILES IDX 16 1 15 2 13 3 14 4 12 6 9 7 10 8 87 9 11 10 86 11 8 12 7 13
REMARK SMILES IDX 6 15 3 16 4 17 89 18 5 19 88 20 90 21 2 22 1 23 17 24 18 25
REMARK SMILES IDX 19 26 20 27 21 28 22 30 23 31 24 32 85 33 25 34 84 35 26 36
REMARK SMILES IDX 27 37 28 38 78 39 29 40 83 41 77 42 79 43 30 44 82 45 76 46
REMARK SMILES IDX 75 47 31 49 63 50 43 51 62 52 44 53 47 54 61 55 80 56 45 57
REMARK SMILES IDX 46 58 60 60 81 61 48 62 32 63 33 64 41 65 34 66 35 67 39 68
REMARK SMILES IDX 42 69 36 70 37 71 40 72 38 73 64 74 65 75 73 76 66 77 67 78
REMARK SMILES IDX 71 79 74 80 68 81 69 82 72 83 70 84 49 85 50 86 58 87 51 88
REMARK SMILES IDX 52 89 56 90 59 91 53 92 54 93 57 94 55 95
REMARK H PARENT 15 5 7 14 20 29 79 48 47 59
REMARK Flexibility Score: inf
ROOT
ATOM      1  C   UNL A   1      43.630  23.306  28.252  1.00  0.00     0.116 C 
ENDROOT
BRANCH   1   2
ATOM      2  N   UNL A   1      44.505  22.561  27.371  1.00  0.00    -0.352 N 
ATOM      3  C   UNL A   1      45.555  22.945  26.575  1.00  0.00     0.252 C 
ATOM      4  O   UNL A   1      46.146  22.057  25.959  1.00  0.00    -0.269 OA
ATOM      5  H   UNL A   1      44.309  21.597  27.336  1.00  0.00     0.163 HD
BRANCH   3   6
ATOM      6  C   UNL A   1      46.031  24.346  26.441  1.00  0.00     0.058 A 
ATOM      7  C   UNL A   1      46.781  26.978  25.922  1.00  0.00     0.059 A 
ATOM      8  C   UNL A   1      47.169  26.369  27.112  1.00  0.00     0.026 A 
ATOM      9  N   UNL A   1      46.037  26.315  25.002  1.00  0.00    -0.259 NA
ATOM     10  C   UNL A   1      46.765  25.062  27.381  1.00  0.00     0.017 A 
ATOM     11  C   UNL A   1      45.683  25.030  25.281  1.00  0.00     0.125 A 
BRANCH   7  12
ATOM     12  C   UNL A   1      47.183  28.404  25.585  1.00  0.00     0.169 C 
BRANCH  12  13
ATOM     13  N   UNL A   1      46.033  29.279  25.383  1.00  0.00    -0.379 N 
ATOM     14  H   UNL A   1      45.585  29.220  24.507  1.00  0.00     0.160 HD
BRANCH  13  15
ATOM     15  C   UNL A   1      45.505  30.181  26.282  1.00  0.00     0.036 A 
ATOM     16  C   UNL A   1      44.569  32.087  28.159  1.00  0.00     0.133 A 
ATOM     17  C   UNL A   1      43.788  30.983  27.819  1.00  0.00     0.050 A 
ATOM     18  C   UNL A   1      45.818  32.248  27.564  1.00  0.00     0.062 A 
ATOM     19  C   UNL A   1      44.248  30.051  26.880  1.00  0.00     0.029 A 
ATOM     20  C   UNL A   1      46.269  31.307  26.627  1.00  0.00     0.045 A 
ATOM     21  Br  UNL A   1      46.982  33.676  28.011  1.00  0.00    -0.047 Br
BRANCH  16  22
ATOM     22  O   UNL A   1      44.107  32.889  29.166  1.00  0.00    -0.496 OA
ATOM     23  C   UNL A   1      43.248  33.919  28.679  1.00  0.00     0.278 C 
ENDBRANCH  16  22
ENDBRANCH  13  15
ENDBRANCH  12  13
ENDBRANCH   7  12
ENDBRANCH   3   6
ENDBRANCH   1   2
BRANCH   1  24
ATOM     24  C   UNL A   1      42.366  22.502  28.572  1.00  0.00     0.023 C 
BRANCH  24  25
ATOM     25  C   UNL A   1      41.875  21.616  27.424  1.00  0.00     0.023 C 
BRANCH  25  26
ATOM     26  C   UNL A   1      41.499  22.364  26.149  1.00  0.00     0.116 C 
BRANCH  26  27
ATOM     27  N   UNL A   1      40.095  22.234  25.794  1.00  0.00    -0.352 N 
ATOM     28  C   UNL A   1      39.059  23.093  26.069  1.00  0.00     0.251 C 
ATOM     29  H   UNL A   1      39.854  21.421  25.290  1.00  0.00     0.163 HD
ATOM     30  O   UNL A   1      37.908  22.793  25.783  1.00  0.00    -0.269 OA
BRANCH  28  31
ATOM     31  C   UNL A   1      39.345  24.367  26.760  1.00  0.00     0.039 A 
ATOM     32  C   UNL A   1      38.937  24.513  28.088  1.00  0.00     0.014 A 
ATOM     33  C   UNL A   1      40.037  25.394  26.114  1.00  0.00     0.014 A 
ATOM     34  C   UNL A   1      39.285  25.667  28.792  1.00  0.00     0.010 A 
ATOM     35  C   UNL A   1      40.439  26.514  26.836  1.00  0.00     0.010 A 
ATOM     36  C   UNL A   1      40.069  26.658  28.181  1.00  0.00    -0.014 A 
BRANCH  36  37
ATOM     37  C   UNL A   1      40.518  27.851  28.940  1.00  0.00     0.031 A 
ATOM     38  C   UNL A   1      41.924  27.925  29.465  1.00  0.00     0.074 A 
ATOM     39  C   UNL A   1      39.640  28.836  29.209  1.00  0.00     0.049 A 
ATOM     40  N   UNL A   1      42.487  28.857  30.191  1.00  0.00    -0.248 NA
ATOM     41  C   UNL A   1      42.804  26.787  29.159  1.00  0.00     0.031 C 
ATOM     42  C   UNL A   1      38.233  28.848  28.803  1.00  0.00     0.029 A 
ATOM     43  N   UNL A   1      39.798  30.012  29.898  1.00  0.00    -0.354 N 
ATOM     44  C   UNL A   1      43.779  28.414  30.438  1.00  0.00     0.074 A 
ATOM     45  C   UNL A   1      43.901  27.106  29.831  1.00  0.00     0.031 C 
ATOM     46  C   UNL A   1      37.664  29.986  29.230  1.00  0.00     0.029 A 
ATOM     47  C   UNL A   1      38.653  30.767  29.966  1.00  0.00     0.049 A 
ATOM     48  H   UNL A   1      40.650  30.288  30.306  1.00  0.00     0.167 HD
ATOM     49  C   UNL A   1      44.780  29.050  31.090  1.00  0.00     0.037 A 
ATOM     50  C   UNL A   1      38.428  31.955  30.558  1.00  0.00     0.037 A 
ATOM     51  C   UNL A   1      44.662  30.363  31.667  1.00  0.00     0.049 A 
ATOM     52  C   UNL A   1      39.561  32.648  31.266  1.00  0.00     0.074 A 
ATOM     53  C   UNL A   1      45.636  31.124  32.289  1.00  0.00     0.029 A 
ATOM     54  N   UNL A   1      43.493  31.111  31.694  1.00  0.00    -0.354 N 
ATOM     55  N   UNL A   1      40.801  32.253  31.424  1.00  0.00    -0.248 NA
ATOM     56  C   UNL A   1      39.265  33.954  31.870  1.00  0.00     0.031 C 
ATOM     57  C   UNL A   1      45.048  32.315  32.729  1.00  0.00     0.029 A 
ATOM     58  C   UNL A   1      43.718  32.316  32.339  1.00  0.00     0.049 A 
ATOM     59  H   UNL A   1      42.632  30.828  31.311  1.00  0.00     0.167 HD
ATOM     60  C   UNL A   1      41.438  33.271  32.121  1.00  0.00     0.074 A 
ATOM     61  C   UNL A   1      40.452  34.308  32.342  1.00  0.00     0.031 C 
ATOM     62  C   UNL A   1      42.725  33.339  32.543  1.00  0.00     0.037 A 
BRANCH  49  63
ATOM     63  C   UNL A   1      46.095  28.337  31.209  1.00  0.00     0.064 A 
ATOM     64  C   UNL A   1      47.084  28.455  30.221  1.00  0.00     0.173 A 
ATOM     65  C   UNL A   1      46.383  27.555  32.336  1.00  0.00     0.173 A 
ATOM     66  F   UNL A   1      46.853  29.181  29.116  1.00  0.00    -0.203 F 
ATOM     67  C   UNL A   1      48.303  27.793  30.344  1.00  0.00     0.198 A 
ATOM     68  C   UNL A   1      47.614  26.919  32.471  1.00  0.00     0.198 A 
ATOM     69  F   UNL A   1      45.474  27.413  33.312  1.00  0.00    -0.203 F 
ATOM     70  F   UNL A   1      49.214  27.881  29.365  1.00  0.00    -0.200 F 
ATOM     71  C   UNL A   1      48.570  27.031  31.472  1.00  0.00     0.200 A 
ATOM     72  F   UNL A   1      47.875  26.192  33.566  1.00  0.00    -0.200 F 
ATOM     73  F   UNL A   1      49.745  26.399  31.593  1.00  0.00    -0.200 F 
ENDBRANCH  49  63
BRANCH  50  74
ATOM     74  C   UNL A   1      37.083  32.582  30.477  1.00  0.00     0.064 A 
ATOM     75  C   UNL A   1      36.144  32.398  31.501  1.00  0.00     0.173 A 
ATOM     76  C   UNL A   1      36.710  33.372  29.382  1.00  0.00     0.173 A 
ATOM     77  F   UNL A   1      36.449  31.634  32.560  1.00  0.00    -0.203 F 
ATOM     78  C   UNL A   1      34.873  32.963  31.422  1.00  0.00     0.198 A 
ATOM     79  C   UNL A   1      35.447  33.959  29.316  1.00  0.00     0.198 A 
ATOM     80  F   UNL A   1      37.575  33.583  28.379  1.00  0.00    -0.203 F 
ATOM     81  F   UNL A   1      33.979  32.735  32.395  1.00  0.00    -0.200 F 
ATOM     82  C   UNL A   1      34.527  33.747  30.332  1.00  0.00     0.200 A 
ATOM     83  F   UNL A   1      35.122  34.728  28.268  1.00  0.00    -0.200 F 
ATOM     84  F   UNL A   1      33.306  34.294  30.258  1.00  0.00    -0.200 F 
ENDBRANCH  50  74
BRANCH  62  85
ATOM     85  C   UNL A   1      43.147  34.589  33.257  1.00  0.00     0.064 A 
ATOM     86  C   UNL A   1      43.155  34.668  34.657  1.00  0.00     0.173 A 
ATOM     87  C   UNL A   1      43.587  35.707  32.532  1.00  0.00     0.173 A 
ATOM     88  F   UNL A   1      42.729  33.632  35.394  1.00  0.00    -0.203 F 
ATOM     89  C   UNL A   1      43.568  35.829  35.304  1.00  0.00     0.198 A 
ATOM     90  C   UNL A   1      44.026  36.856  33.183  1.00  0.00     0.198 A 
ATOM     91  F   UNL A   1      43.604  35.679  31.190  1.00  0.00    -0.203 F 
ATOM     92  F   UNL A   1      43.526  35.899  36.642  1.00  0.00    -0.200 F 
ATOM     93  C   UNL A   1      44.009  36.919  34.568  1.00  0.00     0.200 A 
ATOM     94  F   UNL A   1      44.463  37.903  32.470  1.00  0.00    -0.200 F 
ATOM     95  F   UNL A   1      44.413  38.033  35.193  1.00  0.00    -0.200 F 
ENDBRANCH  62  85
ENDBRANCH  36  37
ENDBRANCH  28  31
ENDBRANCH  26  27
ENDBRANCH  25  26
ENDBRANCH  24  25
ENDBRANCH   1  24
TORSDOF 15
ENDMDL
MODEL 2
REMARK VINA RESULT:      -9.1      2.162      3.798
REMARK SMILES COc1ccc(NCc2ccc(C(=O)NCCCCNC(=O)c3ccc(-c4c5nc(c(-c6c(F)c(F)c(F)c(F)c6F)c6ccc([nH]6)c(-c6c(F)c(F)c(F)c(F)c6F)c6nc(c(-c7c(F)c(F)c(F)c(F)c7F)c7ccc4[nH]7)C=C6)C=C5)cc3)cn2)cc1Br
REMARK SMILES IDX 16 1 15 2 13 3 14 4 12 6 9 7 10 8 87 9 11 10 86 11 8 12 7 13
REMARK SMILES IDX 6 15 3 16 4 17 89 18 5 19 88 20 90 21 2 22 1 23 17 24 18 25
REMARK SMILES IDX 19 26 20 27 21 28 22 30 23 31 24 32 85 33 25 34 84 35 26 36
REMARK SMILES IDX 27 37 28 38 78 39 29 40 83 41 77 42 79 43 30 44 82 45 76 46
REMARK SMILES IDX 75 47 31 49 63 50 43 51 62 52 44 53 47 54 61 55 80 56 45 57
REMARK SMILES IDX 46 58 60 60 81 61 48 62 32 63 33 64 41 65 34 66 35 67 39 68
REMARK SMILES IDX 42 69 36 70 37 71 40 72 38 73 64 74 65 75 73 76 66 77 67 78
REMARK SMILES IDX 71 79 74 80 68 81 69 82 72 83 70 84 49 85 50 86 58 87 51 88
REMARK SMILES IDX 52 89 56 90 59 91 53 92 54 93 57 94 55 95
REMARK H PARENT 15 5 7 14 20 29 79 48 47 59
REMARK Flexibility Score: inf
ROOT
ATOM      1  C   UNL A   1      42.427  19.257  25.530  1.00  0.00     0.116 C 
ENDROOT
BRANCH   1   2
ATOM      2  N   UNL A   1      43.737  18.696  25.269  1.00  0.00    -0.352 N 
ATOM      3  C   UNL A   1      44.951  19.277  25.003  1.00  0.00     0.252 C 
ATOM      4  O   UNL A   1      45.915  18.522  24.864  1.00  0.00    -0.269 OA
ATOM      5  H   UNL A   1      43.760  17.712  25.286  1.00  0.00     0.163 HD
BRANCH   3   6
ATOM      6  C   UNL A   1      45.172  20.742  24.907  1.00  0.00     0.058 A 
ATOM      7  C   UNL A   1      45.696  23.476  25.009  1.00  0.00     0.059 A 
ATOM      8  C   UNL A   1      45.148  22.919  23.858  1.00  0.00     0.026 A 
ATOM      9  N   UNL A   1      45.984  22.713  26.093  1.00  0.00    -0.259 NA
ATOM     10  C   UNL A   1      44.917  21.545  23.800  1.00  0.00     0.017 A 
ATOM     11  C   UNL A   1      45.720  21.379  26.016  1.00  0.00     0.125 A 
BRANCH   7  12
ATOM     12  C   UNL A   1      45.980  24.965  25.121  1.00  0.00     0.169 C 
BRANCH  12  13
ATOM     13  N   UNL A   1      46.836  25.289  26.257  1.00  0.00    -0.379 N 
ATOM     14  H   UNL A   1      46.391  25.379  27.131  1.00  0.00     0.160 HD
BRANCH  13  15
ATOM     15  C   UNL A   1      48.201  25.486  26.241  1.00  0.00     0.036 A 
ATOM     16  C   UNL A   1      50.996  25.911  26.049  1.00  0.00     0.133 A 
ATOM     17  C   UNL A   1      50.455  25.239  27.144  1.00  0.00     0.050 A 
ATOM     18  C   UNL A   1      50.149  26.377  25.047  1.00  0.00     0.062 A 
ATOM     19  C   UNL A   1      49.071  25.043  27.242  1.00  0.00     0.029 A 
ATOM     20  C   UNL A   1      48.766  26.173  25.155  1.00  0.00     0.045 A 
ATOM     21  Br  UNL A   1      50.795  27.240  23.487  1.00  0.00    -0.047 Br
BRANCH  16  22
ATOM     22  O   UNL A   1      52.361  25.962  25.965  1.00  0.00    -0.496 OA
ATOM     23  C   UNL A   1      52.917  24.723  25.531  1.00  0.00     0.278 C 
ENDBRANCH  16  22
ENDBRANCH  13  15
ENDBRANCH  12  13
ENDBRANCH   7  12
ENDBRANCH   3   6
ENDBRANCH   1   2
BRANCH   1  24
ATOM     24  C   UNL A   1      42.286  19.649  27.003  1.00  0.00     0.023 C 
BRANCH  24  25
ATOM     25  C   UNL A   1      42.308  21.159  27.257  1.00  0.00     0.023 C 
BRANCH  25  26
ATOM     26  C   UNL A   1      41.008  21.739  27.807  1.00  0.00     0.116 C 
BRANCH  26  27
ATOM     27  N   UNL A   1      39.913  21.713  26.850  1.00  0.00    -0.352 N 
ATOM     28  C   UNL A   1      39.135  22.757  26.412  1.00  0.00     0.251 C 
ATOM     29  H   UNL A   1      39.700  20.831  26.466  1.00  0.00     0.163 HD
ATOM     30  O   UNL A   1      38.183  22.556  25.670  1.00  0.00    -0.269 OA
BRANCH  28  31
ATOM     31  C   UNL A   1      39.432  24.124  26.886  1.00  0.00     0.039 A 
ATOM     32  C   UNL A   1      39.070  24.473  28.189  1.00  0.00     0.014 A 
ATOM     33  C   UNL A   1      40.089  25.042  26.063  1.00  0.00     0.014 A 
ATOM     34  C   UNL A   1      39.430  25.724  28.692  1.00  0.00     0.010 A 
ATOM     35  C   UNL A   1      40.504  26.262  26.586  1.00  0.00     0.010 A 
ATOM     36  C   UNL A   1      40.181  26.613  27.905  1.00  0.00    -0.014 A 
BRANCH  36  37
ATOM     37  C   UNL A   1      40.644  27.911  28.452  1.00  0.00     0.031 A 
ATOM     38  C   UNL A   1      42.097  28.119  28.773  1.00  0.00     0.074 A 
ATOM     39  C   UNL A   1      39.745  28.877  28.719  1.00  0.00     0.049 A 
ATOM     40  N   UNL A   1      42.686  29.162  29.303  1.00  0.00    -0.248 NA
ATOM     41  C   UNL A   1      43.004  26.997  28.487  1.00  0.00     0.031 C 
ATOM     42  C   UNL A   1      38.300  28.770  28.506  1.00  0.00     0.029 A 
ATOM     43  N   UNL A   1      39.912  30.136  29.239  1.00  0.00    -0.354 N 
ATOM     44  C   UNL A   1      44.025  28.816  29.425  1.00  0.00     0.074 A 
ATOM     45  C   UNL A   1      44.154  27.451  28.965  1.00  0.00     0.031 C 
ATOM     46  C   UNL A   1      37.716  29.923  28.869  1.00  0.00     0.029 A 
ATOM     47  C   UNL A   1      38.738  30.837  29.371  1.00  0.00     0.049 A 
ATOM     48  H   UNL A   1      40.789  30.503  29.494  1.00  0.00     0.167 HD
ATOM     49  C   UNL A   1      45.056  29.578  29.859  1.00  0.00     0.037 A 
ATOM     50  C   UNL A   1      38.513  32.077  29.843  1.00  0.00     0.037 A 
ATOM     51  C   UNL A   1      44.927  30.945  30.289  1.00  0.00     0.049 A 
ATOM     52  C   UNL A   1      39.678  32.907  30.308  1.00  0.00     0.074 A 
ATOM     53  C   UNL A   1      45.921  31.824  30.681  1.00  0.00     0.029 A 
ATOM     54  N   UNL A   1      43.725  31.632  30.383  1.00  0.00    -0.354 N 
ATOM     55  N   UNL A   1      40.952  32.597  30.345  1.00  0.00    -0.248 NA
ATOM     56  C   UNL A   1      39.377  34.262  30.789  1.00  0.00     0.031 C 
ATOM     57  C   UNL A   1      45.316  33.030  31.053  1.00  0.00     0.029 A 
ATOM     58  C   UNL A   1      43.951  32.917  30.848  1.00  0.00     0.049 A 
ATOM     59  H   UNL A   1      42.843  31.260  30.155  1.00  0.00     0.167 HD
ATOM     60  C   UNL A   1      41.604  33.724  30.826  1.00  0.00     0.074 A 
ATOM     61  C   UNL A   1      40.588  34.730  31.053  1.00  0.00     0.031 C 
ATOM     62  C   UNL A   1      42.927  33.908  31.061  1.00  0.00     0.037 A 
BRANCH  49  63
ATOM     63  C   UNL A   1      46.419  28.950  29.883  1.00  0.00     0.064 A 
ATOM     64  C   UNL A   1      46.889  28.260  31.011  1.00  0.00     0.173 A 
ATOM     65  C   UNL A   1      47.252  29.010  28.756  1.00  0.00     0.173 A 
ATOM     66  F   UNL A   1      46.136  28.185  32.119  1.00  0.00    -0.203 F 
ATOM     67  C   UNL A   1      48.153  27.677  31.020  1.00  0.00     0.198 A 
ATOM     68  C   UNL A   1      48.503  28.400  28.758  1.00  0.00     0.198 A 
ATOM     69  F   UNL A   1      46.850  29.653  27.651  1.00  0.00    -0.203 F 
ATOM     70  F   UNL A   1      48.600  27.065  32.125  1.00  0.00    -0.200 F 
ATOM     71  C   UNL A   1      48.956  27.741  29.891  1.00  0.00     0.200 A 
ATOM     72  F   UNL A   1      49.275  28.453  27.663  1.00  0.00    -0.200 F 
ATOM     73  F   UNL A   1      50.170  27.174  29.898  1.00  0.00    -0.200 F 
ENDBRANCH  49  63
BRANCH  50  74
ATOM     74  C   UNL A   1      37.131  32.622  29.871  1.00  0.00     0.064 A 
ATOM     75  C   UNL A   1      36.320  32.464  31.003  1.00  0.00     0.173 A 
ATOM     76  C   UNL A   1      36.593  33.306  28.772  1.00  0.00     0.173 A 
ATOM     77  F   UNL A   1      36.784  31.800  32.072  1.00  0.00    -0.203 F 
ATOM     78  C   UNL A   1      35.015  32.952  31.027  1.00  0.00     0.198 A 
ATOM     79  C   UNL A   1      35.297  33.816  28.807  1.00  0.00     0.198 A 
ATOM     80  F   UNL A   1      37.331  33.488  27.667  1.00  0.00    -0.203 F 
ATOM     81  F   UNL A   1      34.247  32.749  32.107  1.00  0.00    -0.200 F 
ATOM     82  C   UNL A   1      34.506  33.632  29.932  1.00  0.00     0.200 A 
ATOM     83  F   UNL A   1      34.814  34.486  27.752  1.00  0.00    -0.200 F 
ATOM     84  F   UNL A   1      33.253  34.105  29.957  1.00  0.00    -0.200 F 
ENDBRANCH  50  74
BRANCH  62  85
ATOM     85  C   UNL A   1      43.354  35.256  31.561  1.00  0.00     0.064 A 
ATOM     86  C   UNL A   1      43.775  36.265  30.682  1.00  0.00     0.173 A 
ATOM     87  C   UNL A   1      43.303  35.555  32.931  1.00  0.00     0.173 A 
ATOM     88  F   UNL A   1      43.856  36.023  29.366  1.00  0.00    -0.203 F 
ATOM     89  C   UNL A   1      44.150  37.517  31.160  1.00  0.00     0.198 A 
ATOM     90  C   UNL A   1      43.652  36.817  33.401  1.00  0.00     0.198 A 
ATOM     91  F   UNL A   1      42.901  34.625  33.811  1.00  0.00    -0.203 F 
ATOM     92  F   UNL A   1      44.592  38.453  30.308  1.00  0.00    -0.200 F 
ATOM     93  C   UNL A   1      44.082  37.795  32.518  1.00  0.00     0.200 A 
ATOM     94  F   UNL A   1      43.573  37.086  34.712  1.00  0.00    -0.200 F 
ATOM     95  F   UNL A   1      44.436  39.003  32.976  1.00  0.00    -0.200 F 
ENDBRANCH  62  85
ENDBRANCH  36  37
ENDBRANCH  28  31
ENDBRANCH  26  27
ENDBRANCH  25  26
ENDBRANCH  24  25
ENDBRANCH   1  24
TORSDOF 15
ENDMDL
MODEL 3
REMARK VINA RESULT:      -9.0      1.200      2.026
REMARK SMILES COc1ccc(NCc2ccc(C(=O)NCCCCNC(=O)c3ccc(-c4c5nc(c(-c6c(F)c(F)c(F)c(F)c6F)c6ccc([nH]6)c(-c6c(F)c(F)c(F)c(F)c6F)c6nc(c(-c7c(F)c(F)c(F)c(F)c7F)c7ccc4[nH]7)C=C6)C=C5)cc3)cn2)cc1Br
REMARK SMILES IDX 16 1 15 2 13 3 14 4 12 6 9 7 10 8 87 9 11 10 86 11 8 12 7 13
REMARK SMILES IDX 6 15 3 16 4 17 89 18 5 19 88 20 90 21 2 22 1 23 17 24 18 25
REMARK SMILES IDX 19 26 20 27 21 28 22 30 23 31 24 32 85 33 25 34 84 35 26 36
REMARK SMILES IDX 27 37 28 38 78 39 29 40 83 41 77 42 79 43 30 44 82 45 76 46
REMARK SMILES IDX 75 47 31 49 63 50 43 51 62 52 44 53 47 54 61 55 80 56 45 57
REMARK SMILES IDX 46 58 60 60 81 61 48 62 32 63 33 64 41 65 34 66 35 67 39 68
REMARK SMILES IDX 42 69 36 70 37 71 40 72 38 73 64 74 65 75 73 76 66 77 67 78
REMARK SMILES IDX 71 79 74 80 68 81 69 82 72 83 70 84 49 85 50 86 58 87 51 88
REMARK SMILES IDX 52 89 56 90 59 91 53 92 54 93 57 94 55 95
REMARK H PARENT 15 5 7 14 20 29 79 48 47 59
REMARK Flexibility Score: inf
ROOT
ATOM      1  C   UNL A   1      44.110  23.554  26.296  1.00  0.00     0.116 C 
ENDROOT
BRANCH   1   2
ATOM      2  N   UNL A   1      45.234  24.047  25.527  1.00  0.00    -0.352 N 
ATOM      3  C   UNL A   1      45.625  25.316  25.179  1.00  0.00     0.252 C 
ATOM      4  O   UNL A   1      46.674  25.423  24.541  1.00  0.00    -0.269 OA
ATOM      5  H   UNL A   1      45.829  23.339  25.192  1.00  0.00     0.163 HD
BRANCH   3   6
ATOM      6  C   UNL A   1      44.885  26.548  25.549  1.00  0.00     0.058 A 
ATOM      7  C   UNL A   1      43.750  28.953  26.380  1.00  0.00     0.059 A 
ATOM      8  C   UNL A   1      42.995  28.052  25.636  1.00  0.00     0.026 A 
ATOM      9  N   UNL A   1      45.038  28.686  26.713  1.00  0.00    -0.259 NA
ATOM     10  C   UNL A   1      43.577  26.864  25.195  1.00  0.00     0.017 A 
ATOM     11  C   UNL A   1      45.568  27.505  26.293  1.00  0.00     0.125 A 
BRANCH   7  12
ATOM     12  C   UNL A   1      43.170  30.267  26.875  1.00  0.00     0.169 C 
BRANCH  12  13
ATOM     13  N   UNL A   1      43.940  31.423  26.431  1.00  0.00    -0.379 N 
ATOM     14  H   UNL A   1      44.070  31.518  25.459  1.00  0.00     0.160 HD
BRANCH  13  15
ATOM     15  C   UNL A   1      44.510  32.399  27.223  1.00  0.00     0.036 A 
ATOM     16  C   UNL A   1      45.645  34.510  28.733  1.00  0.00     0.133 A 
ATOM     17  C   UNL A   1      45.991  33.185  28.995  1.00  0.00     0.050 A 
ATOM     18  C   UNL A   1      44.730  34.790  27.721  1.00  0.00     0.062 A 
ATOM     19  C   UNL A   1      45.417  32.143  28.255  1.00  0.00     0.029 A 
ATOM     20  C   UNL A   1      44.163  33.739  26.986  1.00  0.00     0.045 A 
ATOM     21  Br  UNL A   1      44.248  36.561  27.244  1.00  0.00    -0.047 Br
BRANCH  16  22
ATOM     22  O   UNL A   1      46.332  35.478  29.415  1.00  0.00    -0.496 OA
ATOM     23  C   UNL A   1      46.836  35.000  30.661  1.00  0.00     0.278 C 
ENDBRANCH  16  22
ENDBRANCH  13  15
ENDBRANCH  12  13
ENDBRANCH   7  12
ENDBRANCH   3   6
ENDBRANCH   1   2
BRANCH   1  24
ATOM     24  C   UNL A   1      43.039  22.962  25.376  1.00  0.00     0.023 C 
BRANCH  24  25
ATOM     25  C   UNL A   1      42.403  21.671  25.899  1.00  0.00     0.023 C 
BRANCH  25  26
ATOM     26  C   UNL A   1      41.224  21.871  26.847  1.00  0.00     0.116 C 
BRANCH  26  27
ATOM     27  N   UNL A   1      39.935  21.875  26.174  1.00  0.00    -0.352 N 
ATOM     28  C   UNL A   1      38.996  22.877  26.130  1.00  0.00     0.251 C 
ATOM     29  H   UNL A   1      39.704  21.051  25.685  1.00  0.00     0.163 HD
ATOM     30  O   UNL A   1      37.911  22.690  25.596  1.00  0.00    -0.269 OA
BRANCH  28  31
ATOM     31  C   UNL A   1      39.292  24.170  26.779  1.00  0.00     0.039 A 
ATOM     32  C   UNL A   1      38.895  24.359  28.104  1.00  0.00     0.014 A 
ATOM     33  C   UNL A   1      39.984  25.173  26.096  1.00  0.00     0.014 A 
ATOM     34  C   UNL A   1      39.253  25.533  28.770  1.00  0.00     0.010 A 
ATOM     35  C   UNL A   1      40.396  26.313  26.780  1.00  0.00     0.010 A 
ATOM     36  C   UNL A   1      40.036  26.502  28.122  1.00  0.00    -0.014 A 
BRANCH  36  37
ATOM     37  C   UNL A   1      40.496  27.715  28.840  1.00  0.00     0.031 A 
ATOM     38  C   UNL A   1      41.906  27.799  29.354  1.00  0.00     0.074 A 
ATOM     39  C   UNL A   1      39.625  28.712  29.084  1.00  0.00     0.049 A 
ATOM     40  N   UNL A   1      42.478  28.751  30.047  1.00  0.00    -0.248 NA
ATOM     41  C   UNL A   1      42.779  26.648  29.078  1.00  0.00     0.031 C 
ATOM     42  C   UNL A   1      38.215  28.719  28.686  1.00  0.00     0.029 A 
ATOM     43  N   UNL A   1      39.792  29.909  29.734  1.00  0.00    -0.354 N 
ATOM     44  C   UNL A   1      43.770  28.309  30.299  1.00  0.00     0.074 A 
ATOM     45  C   UNL A   1      43.881  26.982  29.733  1.00  0.00     0.031 C 
ATOM     46  C   UNL A   1      37.654  29.873  29.081  1.00  0.00     0.029 A 
ATOM     47  C   UNL A   1      38.651  30.672  29.786  1.00  0.00     0.049 A 
ATOM     48  H   UNL A   1      40.649  30.194  30.128  1.00  0.00     0.167 HD
ATOM     49  C   UNL A   1      44.777  28.961  30.925  1.00  0.00     0.037 A 
ATOM     50  C   UNL A   1      38.437  31.879  30.341  1.00  0.00     0.037 A 
ATOM     51  C   UNL A   1      44.669  30.292  31.461  1.00  0.00     0.049 A 
ATOM     52  C   UNL A   1      39.577  32.588  31.020  1.00  0.00     0.074 A 
ATOM     53  C   UNL A   1      45.651  31.067  32.052  1.00  0.00     0.029 A 
ATOM     54  N   UNL A   1      43.505  31.046  31.471  1.00  0.00    -0.354 N 
ATOM     55  N   UNL A   1      40.816  32.192  31.183  1.00  0.00    -0.248 NA
ATOM     56  C   UNL A   1      39.291  33.913  31.584  1.00  0.00     0.031 C 
ATOM     57  C   UNL A   1      45.071  32.274  32.457  1.00  0.00     0.029 A 
ATOM     58  C   UNL A   1      43.739  32.270  32.077  1.00  0.00     0.049 A 
ATOM     59  H   UNL A   1      42.640  30.755  31.103  1.00  0.00     0.167 HD
ATOM     60  C   UNL A   1      41.462  33.228  31.843  1.00  0.00     0.074 A 
ATOM     61  C   UNL A   1      40.483  34.276  32.037  1.00  0.00     0.031 C 
ATOM     62  C   UNL A   1      42.752  33.304  32.254  1.00  0.00     0.037 A 
BRANCH  49  63
ATOM     63  C   UNL A   1      46.089  28.245  31.057  1.00  0.00     0.064 A 
ATOM     64  C   UNL A   1      46.342  27.368  32.123  1.00  0.00     0.173 A 
ATOM     65  C   UNL A   1      47.093  28.410  30.091  1.00  0.00     0.173 A 
ATOM     66  F   UNL A   1      45.420  27.185  33.080  1.00  0.00    -0.203 F 
ATOM     67  C   UNL A   1      47.562  26.705  32.232  1.00  0.00     0.198 A 
ATOM     68  C   UNL A   1      48.300  27.723  30.187  1.00  0.00     0.198 A 
ATOM     69  F   UNL A   1      46.901  29.233  29.050  1.00  0.00    -0.203 F 
ATOM     70  F   UNL A   1      47.798  25.910  33.284  1.00  0.00    -0.200 F 
ATOM     71  C   UNL A   1      48.536  26.877  31.261  1.00  0.00     0.200 A 
ATOM     72  F   UNL A   1      49.237  27.881  29.243  1.00  0.00    -0.200 F 
ATOM     73  F   UNL A   1      49.707  26.234  31.364  1.00  0.00    -0.200 F 
ENDBRANCH  49  63
BRANCH  50  74
ATOM     74  C   UNL A   1      37.094  32.510  30.249  1.00  0.00     0.064 A 
ATOM     75  C   UNL A   1      36.155  32.350  31.278  1.00  0.00     0.173 A 
ATOM     76  C   UNL A   1      36.722  33.279  29.138  1.00  0.00     0.173 A 
ATOM     77  F   UNL A   1      36.458  31.607  32.352  1.00  0.00    -0.203 F 
ATOM     78  C   UNL A   1      34.886  32.919  31.188  1.00  0.00     0.198 A 
ATOM     79  C   UNL A   1      35.462  33.869  29.062  1.00  0.00     0.198 A 
ATOM     80  F   UNL A   1      37.587  33.466  28.131  1.00  0.00    -0.203 F 
ATOM     81  F   UNL A   1      33.993  32.714  32.166  1.00  0.00    -0.200 F 
ATOM     82  C   UNL A   1      34.543  33.682  30.083  1.00  0.00     0.200 A 
ATOM     83  F   UNL A   1      35.139  34.619  27.999  1.00  0.00    -0.200 F 
ATOM     84  F   UNL A   1      33.324  34.232  29.999  1.00  0.00    -0.200 F 
ENDBRANCH  50  74
BRANCH  62  85
ATOM     85  C   UNL A   1      43.185  34.573  32.925  1.00  0.00     0.064 A 
ATOM     86  C   UNL A   1      43.271  34.673  34.322  1.00  0.00     0.173 A 
ATOM     87  C   UNL A   1      43.558  35.690  32.161  1.00  0.00     0.173 A 
ATOM     88  F   UNL A   1      42.911  33.639  35.096  1.00  0.00    -0.203 F 
ATOM     89  C   UNL A   1      43.692  35.853  34.928  1.00  0.00     0.198 A 
ATOM     90  C   UNL A   1      44.005  36.857  32.771  1.00  0.00     0.198 A 
ATOM     91  F   UNL A   1      43.498  35.642  30.822  1.00  0.00    -0.203 F 
ATOM     92  F   UNL A   1      43.725  35.942  36.265  1.00  0.00    -0.200 F 
ATOM     93  C   UNL A   1      44.066  36.942  34.153  1.00  0.00     0.200 A 
ATOM     94  F   UNL A   1      44.377  37.903  32.020  1.00  0.00    -0.200 F 
ATOM     95  F   UNL A   1      44.478  38.074  34.739  1.00  0.00    -0.200 F 
ENDBRANCH  62  85
ENDBRANCH  36  37
ENDBRANCH  28  31
ENDBRANCH  26  27
ENDBRANCH  25  26
ENDBRANCH  24  25
ENDBRANCH   1  24
TORSDOF 15
ENDMDL
