MODEL 1
REMARK VINA RESULT:     -11.3      0.000      0.000
REMARK SMILES CC(C)N(CC1CC[NH2+]CC1)S(=O)(=O)[C@H](C)C(=O)NCCCCNC(=O)c1ccc(-c2c3nc(c(-c4c(F)c(F)c(F)c(F)c4F)c4ccc([nH]4)c(-c4c(F)c(F)c(F)c(F)c4F)c4nc(c(-c5c(F)c(F)c(F)c(F)c5F)c5ccc2[nH]5)C=C4)C=C3)cc1
REMARK SMILES IDX 20 1 19 2 17 3 18 4 15 6 16 7 12 8 13 9 14 10 4 11 2 12 1 13
REMARK SMILES IDX 3 14 5 15 6 16 7 17 11 18 8 19 10 20 9 21 21 24 22 25 23 26
REMARK SMILES IDX 24 27 25 28 26 30 27 31 28 32 89 33 29 34 88 35 30 36 31 37
REMARK SMILES IDX 32 38 82 39 33 40 87 41 81 42 83 43 34 44 86 45 80 46 79 47
REMARK SMILES IDX 35 49 67 50 47 51 66 52 48 53 51 54 65 55 84 56 49 57 50 58
REMARK SMILES IDX 64 60 85 61 52 62 36 63 37 64 45 65 38 66 39 67 43 68 46 69
REMARK SMILES IDX 40 70 41 71 44 72 42 73 68 74 69 75 77 76 70 77 71 78 75 79
REMARK SMILES IDX 78 80 72 81 73 82 76 83 74 84 53 85 54 86 62 87 55 88 56 89
REMARK SMILES IDX 60 90 63 91 57 92 58 93 61 94 59 95
REMARK H PARENT 19 5 9 22 9 23 24 29 83 48 51 59
REMARK Flexibility Score: inf
ROOT
ATOM      1  C   UNL A   1      31.346  29.865  25.215  1.00  0.00     0.116 C 
ENDROOT
BRANCH   1   2
ATOM      2  N   UNL A   1      32.455  29.617  24.331  1.00  0.00    -0.355 N 
ATOM      3  C   UNL A   1      33.223  28.494  24.198  1.00  0.00     0.239 C 
ATOM      4  O   UNL A   1      33.967  28.472  23.210  1.00  0.00    -0.274 OA
ATOM      5  H   UNL A   1      32.697  30.364  23.737  1.00  0.00     0.163 HD
BRANCH   3   6
ATOM      6  C   UNL A   1      33.318  27.407  25.246  1.00  0.00     0.210 C 
ATOM      7  C   UNL A   1      33.980  27.842  26.541  1.00  0.00     0.037 C 
BRANCH   6   8
ATOM      8  S   UNL A   1      31.898  26.319  25.356  1.00  0.00     0.226 S 
ATOM      9  O   UNL A   1      31.001  26.671  24.275  1.00  0.00    -0.211 OA
ATOM     10  O   UNL A   1      31.414  26.396  26.720  1.00  0.00    -0.211 OA
BRANCH   8  11
ATOM     11  N   UNL A   1      32.389  24.726  25.061  1.00  0.00    -0.198 NA
BRANCH  11  12
ATOM     12  C   UNL A   1      31.391  23.673  24.637  1.00  0.00     0.066 C 
ATOM     13  C   UNL A   1      31.925  22.750  23.542  1.00  0.00     0.025 C 
ATOM     14  C   UNL A   1      30.833  22.864  25.804  1.00  0.00     0.025 C 
ENDBRANCH  11  12
BRANCH  11  15
ATOM     15  C   UNL A   1      33.788  24.456  24.595  1.00  0.00     0.106 C 
BRANCH  15  16
ATOM     16  C   UNL A   1      34.843  24.257  25.692  1.00  0.00     0.015 C 
ATOM     17  C   UNL A   1      36.197  23.877  25.064  1.00  0.00     0.066 C 
ATOM     18  C   UNL A   1      34.448  23.148  26.688  1.00  0.00     0.066 C 
ATOM     19  C   UNL A   1      36.188  22.459  24.482  1.00  0.00     0.260 C 
ATOM     20  C   UNL A   1      34.502  21.749  26.076  1.00  0.00     0.260 C 
ATOM     21  N   UNL A   1      35.808  21.474  25.487  1.00  0.00    -0.346 N 
ATOM     22  H   UNL A   1      36.507  21.478  26.230  1.00  0.00     0.346 HD
ATOM     23  H   UNL A   1      35.755  20.565  25.027  1.00  0.00     0.346 HD
ENDBRANCH  15  16
ENDBRANCH  11  15
ENDBRANCH   8  11
ENDBRANCH   6   8
ENDBRANCH   3   6
ENDBRANCH   1   2
BRANCH   1  24
ATOM     24  C   UNL A   1      31.714  30.502  26.546  1.00  0.00     0.023 C 
BRANCH  24  25
ATOM     25  C   UNL A   1      31.562  32.017  26.616  1.00  0.00     0.023 C 
BRANCH  25  26
ATOM     26  C   UNL A   1      32.696  32.771  27.303  1.00  0.00     0.116 C 
BRANCH  26  27
ATOM     27  N   UNL A   1      32.372  34.145  27.655  1.00  0.00    -0.352 N 
ATOM     28  C   UNL A   1      32.974  34.973  28.574  1.00  0.00     0.251 C 
ATOM     29  H   UNL A   1      31.614  34.539  27.165  1.00  0.00     0.163 HD
ATOM     30  O   UNL A   1      32.520  36.095  28.776  1.00  0.00    -0.269 OA
BRANCH  28  31
ATOM     31  C   UNL A   1      34.132  34.491  29.358  1.00  0.00     0.039 A 
ATOM     32  C   UNL A   1      33.895  33.870  30.587  1.00  0.00     0.014 A 
ATOM     33  C   UNL A   1      35.439  34.617  28.878  1.00  0.00     0.014 A 
ATOM     34  C   UNL A   1      34.959  33.302  31.292  1.00  0.00     0.010 A 
ATOM     35  C   UNL A   1      36.486  33.982  29.541  1.00  0.00     0.010 A 
ATOM     36  C   UNL A   1      36.257  33.315  30.752  1.00  0.00    -0.014 A 
BRANCH  36  37
ATOM     37  C   UNL A   1      37.369  32.612  31.440  1.00  0.00     0.031 A 
ATOM     38  C   UNL A   1      38.057  31.445  30.789  1.00  0.00     0.074 A 
ATOM     39  C   UNL A   1      37.726  32.997  32.681  1.00  0.00     0.049 A 
ATOM     40  N   UNL A   1      39.059  30.726  31.230  1.00  0.00    -0.248 NA
ATOM     41  C   UNL A   1      37.532  31.006  29.488  1.00  0.00     0.031 C 
ATOM     42  C   UNL A   1      37.078  34.056  33.457  1.00  0.00     0.029 A 
ATOM     43  N   UNL A   1      38.720  32.541  33.510  1.00  0.00    -0.354 N 
ATOM     44  C   UNL A   1      39.273  29.748  30.270  1.00  0.00     0.074 A 
ATOM     45  C   UNL A   1      38.262  29.927  29.250  1.00  0.00     0.031 C 
ATOM     46  C   UNL A   1      37.714  34.193  34.632  1.00  0.00     0.029 A 
ATOM     47  C   UNL A   1      38.800  33.221  34.699  1.00  0.00     0.049 A 
ATOM     48  H   UNL A   1      39.319  31.796  33.273  1.00  0.00     0.167 HD
ATOM     49  C   UNL A   1      40.241  28.801  30.227  1.00  0.00     0.037 A 
ATOM     50  C   UNL A   1      39.665  33.088  35.723  1.00  0.00     0.037 A 
ATOM     51  C   UNL A   1      41.265  28.643  31.227  1.00  0.00     0.049 A 
ATOM     52  C   UNL A   1      40.772  32.075  35.622  1.00  0.00     0.074 A 
ATOM     53  C   UNL A   1      42.333  27.763  31.241  1.00  0.00     0.029 A 
ATOM     54  N   UNL A   1      41.348  29.388  32.394  1.00  0.00    -0.354 N 
ATOM     55  N   UNL A   1      41.024  31.219  34.662  1.00  0.00    -0.248 NA
ATOM     56  C   UNL A   1      41.726  32.026  36.737  1.00  0.00     0.031 C 
ATOM     57  C   UNL A   1      43.043  27.953  32.431  1.00  0.00     0.029 A 
ATOM     58  C   UNL A   1      42.441  28.980  33.140  1.00  0.00     0.049 A 
ATOM     59  H   UNL A   1      40.721  30.101  32.654  1.00  0.00     0.167 HD
ATOM     60  C   UNL A   1      42.177  30.548  35.044  1.00  0.00     0.074 A 
ATOM     61  C   UNL A   1      42.585  31.109  36.314  1.00  0.00     0.031 C 
ATOM     62  C   UNL A   1      42.837  29.553  34.401  1.00  0.00     0.037 A 
BRANCH  49  63
ATOM     63  C   UNL A   1      40.247  27.870  29.050  1.00  0.00     0.064 A 
ATOM     64  C   UNL A   1      40.973  28.166  27.886  1.00  0.00     0.173 A 
ATOM     65  C   UNL A   1      39.542  26.659  29.094  1.00  0.00     0.173 A 
ATOM     66  F   UNL A   1      41.653  29.318  27.788  1.00  0.00    -0.203 F 
ATOM     67  C   UNL A   1      40.969  27.296  26.799  1.00  0.00     0.198 A 
ATOM     68  C   UNL A   1      39.564  25.778  28.015  1.00  0.00     0.198 A 
ATOM     69  F   UNL A   1      38.835  26.326  30.184  1.00  0.00    -0.203 F 
ATOM     70  F   UNL A   1      41.629  27.623  25.679  1.00  0.00    -0.200 F 
ATOM     71  C   UNL A   1      40.270  26.101  26.867  1.00  0.00     0.200 A 
ATOM     72  F   UNL A   1      38.896  24.617  28.086  1.00  0.00    -0.200 F 
ATOM     73  F   UNL A   1      40.271  25.262  25.820  1.00  0.00    -0.200 F 
ENDBRANCH  49  63
BRANCH  50  74
ATOM     74  C   UNL A   1      39.558  33.984  36.902  1.00  0.00     0.064 A 
ATOM     75  C   UNL A   1      38.804  33.609  38.022  1.00  0.00     0.173 A 
ATOM     76  C   UNL A   1      40.209  35.225  36.938  1.00  0.00     0.173 A 
ATOM     77  F   UNL A   1      38.149  32.438  38.027  1.00  0.00    -0.203 F 
ATOM     78  C   UNL A   1      38.687  34.449  39.127  1.00  0.00     0.198 A 
ATOM     79  C   UNL A   1      40.111  36.055  38.053  1.00  0.00     0.198 A 
ATOM     80  F   UNL A   1      40.949  35.625  35.894  1.00  0.00    -0.203 F 
ATOM     81  F   UNL A   1      37.927  34.084  40.168  1.00  0.00    -0.200 F 
ATOM     82  C   UNL A   1      39.345  35.670  39.143  1.00  0.00     0.200 A 
ATOM     83  F   UNL A   1      40.761  37.227  38.071  1.00  0.00    -0.200 F 
ATOM     84  F   UNL A   1      39.238  36.477  40.208  1.00  0.00    -0.200 F 
ENDBRANCH  50  74
BRANCH  62  85
ATOM     85  C   UNL A   1      44.085  29.033  35.049  1.00  0.00     0.064 A 
ATOM     86  C   UNL A   1      44.053  27.959  35.952  1.00  0.00     0.173 A 
ATOM     87  C   UNL A   1      45.331  29.606  34.753  1.00  0.00     0.173 A 
ATOM     88  F   UNL A   1      42.883  27.388  36.279  1.00  0.00    -0.203 F 
ATOM     89  C   UNL A   1      45.218  27.500  36.560  1.00  0.00     0.198 A 
ATOM     90  C   UNL A   1      46.497  29.127  35.341  1.00  0.00     0.198 A 
ATOM     91  F   UNL A   1      45.416  30.632  33.892  1.00  0.00    -0.203 F 
ATOM     92  F   UNL A   1      45.157  26.510  37.460  1.00  0.00    -0.200 F 
ATOM     93  C   UNL A   1      46.439  28.081  36.250  1.00  0.00     0.200 A 
ATOM     94  F   UNL A   1      47.678  29.682  35.035  1.00  0.00    -0.200 F 
ATOM     95  F   UNL A   1      47.560  27.640  36.838  1.00  0.00    -0.200 F 
ENDBRANCH  62  85
ENDBRANCH  36  37
ENDBRANCH  28  31
ENDBRANCH  26  27
ENDBRANCH  25  26
ENDBRANCH  24  25
ENDBRANCH   1  24
TORSDOF 16
ENDMDL
MODEL 2
REMARK VINA RESULT:     -11.2      5.518     11.036
REMARK SMILES CC(C)N(CC1CC[NH2+]CC1)S(=O)(=O)[C@H](C)C(=O)NCCCCNC(=O)c1ccc(-c2c3nc(c(-c4c(F)c(F)c(F)c(F)c4F)c4ccc([nH]4)c(-c4c(F)c(F)c(F)c(F)c4F)c4nc(c(-c5c(F)c(F)c(F)c(F)c5F)c5ccc2[nH]5)C=C4)C=C3)cc1
REMARK SMILES IDX 20 1 19 2 17 3 18 4 15 6 16 7 12 8 13 9 14 10 4 11 2 12 1 13
REMARK SMILES IDX 3 14 5 15 6 16 7 17 11 18 8 19 10 20 9 21 21 24 22 25 23 26
REMARK SMILES IDX 24 27 25 28 26 30 27 31 28 32 89 33 29 34 88 35 30 36 31 37
REMARK SMILES IDX 32 38 82 39 33 40 87 41 81 42 83 43 34 44 86 45 80 46 79 47
REMARK SMILES IDX 35 49 67 50 47 51 66 52 48 53 51 54 65 55 84 56 49 57 50 58
REMARK SMILES IDX 64 60 85 61 52 62 36 63 37 64 45 65 38 66 39 67 43 68 46 69
REMARK SMILES IDX 40 70 41 71 44 72 42 73 68 74 69 75 77 76 70 77 71 78 75 79
REMARK SMILES IDX 78 80 72 81 73 82 76 83 74 84 53 85 54 86 62 87 55 88 56 89
REMARK SMILES IDX 60 90 63 91 57 92 58 93 61 94 59 95
REMARK H PARENT 19 5 9 22 9 23 24 29 83 48 51 59
REMARK Flexibility Score: inf
ROOT
ATOM      1  C   UNL A   1      35.945  21.594  25.704  1.00  0.00     0.116 C 
ENDROOT
BRANCH   1   2
ATOM      2  N   UNL A   1      34.874  20.672  25.981  1.00  0.00    -0.355 N 
ATOM      3  C   UNL A   1      33.657  20.549  25.371  1.00  0.00     0.239 C 
ATOM      4  O   UNL A   1      33.016  19.532  25.662  1.00  0.00    -0.274 OA
ATOM      5  H   UNL A   1      35.041  20.040  26.717  1.00  0.00     0.163 HD
BRANCH   3   6
ATOM      6  C   UNL A   1      33.021  21.634  24.529  1.00  0.00     0.210 C 
ATOM      7  C   UNL A   1      32.405  21.141  23.233  1.00  0.00     0.037 C 
BRANCH   6   8
ATOM      8  S   UNL A   1      32.144  22.902  25.445  1.00  0.00     0.226 S 
ATOM      9  O   UNL A   1      32.864  23.116  26.682  1.00  0.00    -0.211 OA
ATOM     10  O   UNL A   1      30.755  22.490  25.505  1.00  0.00    -0.211 OA
BRANCH   8  11
ATOM     11  N   UNL A   1      32.223  24.363  24.594  1.00  0.00    -0.198 NA
BRANCH  11  12
ATOM     12  C   UNL A   1      33.516  24.819  23.958  1.00  0.00     0.066 C 
ATOM     13  C   UNL A   1      33.301  25.619  22.673  1.00  0.00     0.025 C 
ATOM     14  C   UNL A   1      34.430  25.573  24.918  1.00  0.00     0.025 C 
ENDBRANCH  11  12
BRANCH  11  15
ATOM     15  C   UNL A   1      30.996  24.895  23.918  1.00  0.00     0.106 C 
BRANCH  15  16
ATOM     16  C   UNL A   1      30.069  25.765  24.780  1.00  0.00     0.015 C 
ATOM     17  C   UNL A   1      29.126  26.587  23.882  1.00  0.00     0.066 C 
ATOM     18  C   UNL A   1      30.853  26.744  25.676  1.00  0.00     0.066 C 
ATOM     19  C   UNL A   1      29.865  27.699  23.130  1.00  0.00     0.260 C 
ATOM     20  C   UNL A   1      31.531  27.863  24.886  1.00  0.00     0.260 C 
ATOM     21  N   UNL A   1      30.576  28.580  24.049  1.00  0.00    -0.346 N 
ATOM     22  H   UNL A   1      29.896  29.041  24.653  1.00  0.00     0.346 HD
ATOM     23  H   UNL A   1      31.099  29.254  23.491  1.00  0.00     0.346 HD
ENDBRANCH  15  16
ENDBRANCH  11  15
ENDBRANCH   8  11
ENDBRANCH   6   8
ENDBRANCH   3   6
ENDBRANCH   1   2
BRANCH   1  24
ATOM     24  C   UNL A   1      36.922  21.141  24.629  1.00  0.00     0.023 C 
BRANCH  24  25
ATOM     25  C   UNL A   1      37.816  19.965  25.005  1.00  0.00     0.023 C 
BRANCH  25  26
ATOM     26  C   UNL A   1      39.097  20.314  25.756  1.00  0.00     0.116 C 
BRANCH  26  27
ATOM     27  N   UNL A   1      40.058  19.225  25.832  1.00  0.00    -0.352 N 
ATOM     28  C   UNL A   1      41.406  19.271  26.107  1.00  0.00     0.251 C 
ATOM     29  H   UNL A   1      39.694  18.326  25.663  1.00  0.00     0.163 HD
ATOM     30  O   UNL A   1      42.074  18.243  26.070  1.00  0.00    -0.269 OA
BRANCH  28  31
ATOM     31  C   UNL A   1      42.058  20.568  26.392  1.00  0.00     0.039 A 
ATOM     32  C   UNL A   1      42.456  21.367  25.316  1.00  0.00     0.014 A 
ATOM     33  C   UNL A   1      42.251  21.013  27.702  1.00  0.00     0.014 A 
ATOM     34  C   UNL A   1      42.967  22.644  25.555  1.00  0.00     0.010 A 
ATOM     35  C   UNL A   1      42.686  22.316  27.936  1.00  0.00     0.010 A 
ATOM     36  C   UNL A   1      43.045  23.145  26.865  1.00  0.00    -0.014 A 
BRANCH  36  37
ATOM     37  C   UNL A   1      43.477  24.543  27.116  1.00  0.00     0.031 A 
ATOM     38  C   UNL A   1      42.513  25.557  27.667  1.00  0.00     0.074 A 
ATOM     39  C   UNL A   1      44.732  24.914  26.796  1.00  0.00     0.049 A 
ATOM     40  N   UNL A   1      42.719  26.814  27.969  1.00  0.00    -0.248 NA
ATOM     41  C   UNL A   1      41.128  25.110  27.876  1.00  0.00     0.031 C 
ATOM     42  C   UNL A   1      45.736  24.049  26.173  1.00  0.00     0.029 A 
ATOM     43  N   UNL A   1      45.379  26.115  26.950  1.00  0.00    -0.354 N 
ATOM     44  C   UNL A   1      41.492  27.308  28.390  1.00  0.00     0.074 A 
ATOM     45  C   UNL A   1      40.534  26.233  28.250  1.00  0.00     0.031 C 
ATOM     46  C   UNL A   1      46.881  24.736  26.030  1.00  0.00     0.029 A 
ATOM     47  C   UNL A   1      46.687  26.091  26.535  1.00  0.00     0.049 A 
ATOM     48  H   UNL A   1      44.946  26.916  27.322  1.00  0.00     0.167 HD
ATOM     49  C   UNL A   1      41.196  28.538  28.874  1.00  0.00     0.037 A 
ATOM     50  C   UNL A   1      47.632  27.051  26.575  1.00  0.00     0.037 A 
ATOM     51  C   UNL A   1      42.157  29.597  29.041  1.00  0.00     0.049 A 
ATOM     52  C   UNL A   1      47.296  28.386  27.179  1.00  0.00     0.074 A 
ATOM     53  C   UNL A   1      41.973  30.854  29.590  1.00  0.00     0.029 A 
ATOM     54  N   UNL A   1      43.489  29.518  28.661  1.00  0.00    -0.354 N 
ATOM     55  N   UNL A   1      46.155  28.811  27.665  1.00  0.00    -0.248 NA
ATOM     56  C   UNL A   1      48.385  29.368  27.259  1.00  0.00     0.031 C 
ATOM     57  C   UNL A   1      43.186  31.548  29.511  1.00  0.00     0.029 A 
ATOM     58  C   UNL A   1      44.135  30.709  28.951  1.00  0.00     0.049 A 
ATOM     59  H   UNL A   1      43.912  28.733  28.244  1.00  0.00     0.167 HD
ATOM     60  C   UNL A   1      46.394  30.096  28.130  1.00  0.00     0.074 A 
ATOM     61  C   UNL A   1      47.793  30.374  27.886  1.00  0.00     0.031 C 
ATOM     62  C   UNL A   1      45.530  30.968  28.706  1.00  0.00     0.037 A 
BRANCH  49  63
ATOM     63  C   UNL A   1      39.773  28.799  29.273  1.00  0.00     0.064 A 
ATOM     64  C   UNL A   1      38.835  29.298  28.357  1.00  0.00     0.173 A 
ATOM     65  C   UNL A   1      39.335  28.523  30.576  1.00  0.00     0.173 A 
ATOM     66  F   UNL A   1      39.206  29.592  27.102  1.00  0.00    -0.203 F 
ATOM     67  C   UNL A   1      37.518  29.539  28.739  1.00  0.00     0.198 A 
ATOM     68  C   UNL A   1      38.010  28.737  30.947  1.00  0.00     0.198 A 
ATOM     69  F   UNL A   1      40.191  28.040  31.489  1.00  0.00    -0.203 F 
ATOM     70  F   UNL A   1      36.652  30.063  27.861  1.00  0.00    -0.200 F 
ATOM     71  C   UNL A   1      37.105  29.252  30.031  1.00  0.00     0.200 A 
ATOM     72  F   UNL A   1      37.610  28.449  32.194  1.00  0.00    -0.200 F 
ATOM     73  F   UNL A   1      35.835  29.480  30.397  1.00  0.00    -0.200 F 
ENDBRANCH  49  63
BRANCH  50  74
ATOM     74  C   UNL A   1      49.003  26.759  26.087  1.00  0.00     0.064 A 
ATOM     75  C   UNL A   1      49.388  27.096  24.783  1.00  0.00     0.173 A 
ATOM     76  C   UNL A   1      49.956  26.144  26.912  1.00  0.00     0.173 A 
ATOM     77  F   UNL A   1      48.505  27.670  23.952  1.00  0.00    -0.203 F 
ATOM     78  C   UNL A   1      50.669  26.814  24.313  1.00  0.00     0.198 A 
ATOM     79  C   UNL A   1      51.244  25.884  26.449  1.00  0.00     0.198 A 
ATOM     80  F   UNL A   1      49.638  25.809  28.171  1.00  0.00    -0.203 F 
ATOM     81  F   UNL A   1      50.998  27.111  23.049  1.00  0.00    -0.200 F 
ATOM     82  C   UNL A   1      51.597  26.212  25.148  1.00  0.00     0.200 A 
ATOM     83  F   UNL A   1      52.144  25.315  27.264  1.00  0.00    -0.200 F 
ATOM     84  F   UNL A   1      52.831  25.944  24.699  1.00  0.00    -0.200 F 
ENDBRANCH  50  74
BRANCH  62  85
ATOM     85  C   UNL A   1      46.086  32.293  29.138  1.00  0.00     0.064 A 
ATOM     86  C   UNL A   1      46.633  32.480  30.416  1.00  0.00     0.173 A 
ATOM     87  C   UNL A   1      46.086  33.384  28.256  1.00  0.00     0.173 A 
ATOM     88  F   UNL A   1      46.642  31.471  31.300  1.00  0.00    -0.203 F 
ATOM     89  C   UNL A   1      47.128  33.720  30.808  1.00  0.00     0.198 A 
ATOM     90  C   UNL A   1      46.608  34.615  28.641  1.00  0.00     0.198 A 
ATOM     91  F   UNL A   1      45.580  33.255  27.020  1.00  0.00    -0.203 F 
ATOM     92  F   UNL A   1      47.595  33.891  32.052  1.00  0.00    -0.200 F 
ATOM     93  C   UNL A   1      47.120  34.785  29.919  1.00  0.00     0.200 A 
ATOM     94  F   UNL A   1      46.608  35.641  27.778  1.00  0.00    -0.200 F 
ATOM     95  F   UNL A   1      47.595  35.980  30.298  1.00  0.00    -0.200 F 
ENDBRANCH  62  85
ENDBRANCH  36  37
ENDBRANCH  28  31
ENDBRANCH  26  27
ENDBRANCH  25  26
ENDBRANCH  24  25
ENDBRANCH   1  24
TORSDOF 16
ENDMDL
MODEL 3
REMARK VINA RESULT:     -11.1      5.596     11.016
REMARK SMILES CC(C)N(CC1CC[NH2+]CC1)S(=O)(=O)[C@H](C)C(=O)NCCCCNC(=O)c1ccc(-c2c3nc(c(-c4c(F)c(F)c(F)c(F)c4F)c4ccc([nH]4)c(-c4c(F)c(F)c(F)c(F)c4F)c4nc(c(-c5c(F)c(F)c(F)c(F)c5F)c5ccc2[nH]5)C=C4)C=C3)cc1
REMARK SMILES IDX 20 1 19 2 17 3 18 4 15 6 16 7 12 8 13 9 14 10 4 11 2 12 1 13
REMARK SMILES IDX 3 14 5 15 6 16 7 17 11 18 8 19 10 20 9 21 21 24 22 25 23 26
REMARK SMILES IDX 24 27 25 28 26 30 27 31 28 32 89 33 29 34 88 35 30 36 31 37
REMARK SMILES IDX 32 38 82 39 33 40 87 41 81 42 83 43 34 44 86 45 80 46 79 47
REMARK SMILES IDX 35 49 67 50 47 51 66 52 48 53 51 54 65 55 84 56 49 57 50 58
REMARK SMILES IDX 64 60 85 61 52 62 36 63 37 64 45 65 38 66 39 67 43 68 46 69
REMARK SMILES IDX 40 70 41 71 44 72 42 73 68 74 69 75 77 76 70 77 71 78 75 79
REMARK SMILES IDX 78 80 72 81 73 82 76 83 74 84 53 85 54 86 62 87 55 88 56 89
REMARK SMILES IDX 60 90 63 91 57 92 58 93 61 94 59 95
REMARK H PARENT 19 5 9 22 9 23 24 29 83 48 51 59
REMARK Flexibility Score: inf
ROOT
ATOM      1  C   UNL A   1      35.664  20.565  25.180  1.00  0.00     0.116 C 
ENDROOT
BRANCH   1   2
ATOM      2  N   UNL A   1      35.119  21.198  26.353  1.00  0.00    -0.355 N 
ATOM      3  C   UNL A   1      34.614  22.459  26.502  1.00  0.00     0.239 C 
ATOM      4  O   UNL A   1      34.010  22.668  27.560  1.00  0.00    -0.274 OA
ATOM      5  H   UNL A   1      35.109  20.642  27.166  1.00  0.00     0.163 HD
BRANCH   3   6
ATOM      6  C   UNL A   1      34.894  23.599  25.546  1.00  0.00     0.210 C 
ATOM      7  C   UNL A   1      36.326  24.099  25.572  1.00  0.00     0.037 C 
BRANCH   6   8
ATOM      8  S   UNL A   1      34.073  23.487  23.956  1.00  0.00     0.226 S 
ATOM      9  O   UNL A   1      33.172  22.355  24.015  1.00  0.00    -0.211 OA
ATOM     10  O   UNL A   1      35.112  23.504  22.946  1.00  0.00    -0.211 OA
BRANCH   8  11
ATOM     11  N   UNL A   1      33.100  24.854  23.732  1.00  0.00    -0.198 NA
BRANCH  11  12
ATOM     12  C   UNL A   1      32.009  24.864  22.686  1.00  0.00     0.066 C 
ATOM     13  C   UNL A   1      30.642  25.249  23.252  1.00  0.00     0.025 C 
ATOM     14  C   UNL A   1      32.349  25.716  21.467  1.00  0.00     0.025 C 
ENDBRANCH  11  12
BRANCH  11  15
ATOM     15  C   UNL A   1      32.842  25.777  24.884  1.00  0.00     0.106 C 
BRANCH  15  16
ATOM     16  C   UNL A   1      33.601  27.112  24.868  1.00  0.00     0.015 C 
ATOM     17  C   UNL A   1      33.888  27.577  26.308  1.00  0.00     0.066 C 
ATOM     18  C   UNL A   1      32.811  28.225  24.152  1.00  0.00     0.066 C 
ATOM     19  C   UNL A   1      32.617  28.034  27.033  1.00  0.00     0.260 C 
ATOM     20  C   UNL A   1      31.581  28.682  24.936  1.00  0.00     0.260 C 
ATOM     21  N   UNL A   1      31.933  29.088  26.292  1.00  0.00    -0.346 N 
ATOM     22  H   UNL A   1      32.546  29.902  26.240  1.00  0.00     0.346 HD
ATOM     23  H   UNL A   1      31.067  29.303  26.786  1.00  0.00     0.346 HD
ENDBRANCH  15  16
ENDBRANCH  11  15
ENDBRANCH   8  11
ENDBRANCH   6   8
ENDBRANCH   3   6
ENDBRANCH   1   2
BRANCH   1  24
ATOM     24  C   UNL A   1      37.107  20.928  24.863  1.00  0.00     0.023 C 
BRANCH  24  25
ATOM     25  C   UNL A   1      38.119  19.800  25.020  1.00  0.00     0.023 C 
BRANCH  25  26
ATOM     26  C   UNL A   1      39.341  20.114  25.877  1.00  0.00     0.116 C 
BRANCH  26  27
ATOM     27  N   UNL A   1      40.335  19.052  25.910  1.00  0.00    -0.352 N 
ATOM     28  C   UNL A   1      41.686  19.133  26.155  1.00  0.00     0.251 C 
ATOM     29  H   UNL A   1      39.992  18.146  25.733  1.00  0.00     0.163 HD
ATOM     30  O   UNL A   1      42.383  18.125  26.084  1.00  0.00    -0.269 OA
BRANCH  28  31
ATOM     31  C   UNL A   1      42.309  20.442  26.450  1.00  0.00     0.039 A 
ATOM     32  C   UNL A   1      42.837  21.184  25.390  1.00  0.00     0.014 A 
ATOM     33  C   UNL A   1      42.346  20.954  27.749  1.00  0.00     0.014 A 
ATOM     34  C   UNL A   1      43.324  22.473  25.622  1.00  0.00     0.010 A 
ATOM     35  C   UNL A   1      42.757  22.267  27.966  1.00  0.00     0.010 A 
ATOM     36  C   UNL A   1      43.247  23.041  26.905  1.00  0.00    -0.014 A 
BRANCH  36  37
ATOM     37  C   UNL A   1      43.655  24.450  27.134  1.00  0.00     0.031 A 
ATOM     38  C   UNL A   1      42.654  25.473  27.592  1.00  0.00     0.074 A 
ATOM     39  C   UNL A   1      44.925  24.819  26.877  1.00  0.00     0.049 A 
ATOM     40  N   UNL A   1      42.834  26.742  27.864  1.00  0.00    -0.248 NA
ATOM     41  C   UNL A   1      41.261  25.022  27.734  1.00  0.00     0.031 C 
ATOM     42  C   UNL A   1      45.969  23.943  26.344  1.00  0.00     0.029 A 
ATOM     43  N   UNL A   1      45.554  26.030  27.028  1.00  0.00    -0.354 N 
ATOM     44  C   UNL A   1      41.581  27.238  28.194  1.00  0.00     0.074 A 
ATOM     45  C   UNL A   1      40.639  26.152  28.034  1.00  0.00     0.031 C 
ATOM     46  C   UNL A   1      47.117  24.634  26.246  1.00  0.00     0.029 A 
ATOM     47  C   UNL A   1      46.885  26.003  26.693  1.00  0.00     0.049 A 
ATOM     48  H   UNL A   1      45.095  26.840  27.347  1.00  0.00     0.167 HD
ATOM     49  C   UNL A   1      41.249  28.482  28.618  1.00  0.00     0.037 A 
ATOM     50  C   UNL A   1      47.819  26.971  26.756  1.00  0.00     0.037 A 
ATOM     51  C   UNL A   1      42.192  29.553  28.806  1.00  0.00     0.049 A 
ATOM     52  C   UNL A   1      47.440  28.324  27.293  1.00  0.00     0.074 A 
ATOM     53  C   UNL A   1      41.968  30.827  29.300  1.00  0.00     0.029 A 
ATOM     54  N   UNL A   1      43.544  29.473  28.508  1.00  0.00    -0.354 N 
ATOM     55  N   UNL A   1      46.270  28.755  27.696  1.00  0.00    -0.248 NA
ATOM     56  C   UNL A   1      48.516  29.316  27.405  1.00  0.00     0.031 C 
ATOM     57  C   UNL A   1      43.179  31.528  29.270  1.00  0.00     0.029 A 
ATOM     58  C   UNL A   1      44.165  30.678  28.797  1.00  0.00     0.049 A 
ATOM     59  H   UNL A   1      43.997  28.678  28.144  1.00  0.00     0.167 HD
ATOM     60  C   UNL A   1      46.472  30.057  28.132  1.00  0.00     0.074 A 
ATOM     61  C   UNL A   1      47.882  30.338  27.962  1.00  0.00     0.031 C 
ATOM     62  C   UNL A   1      45.570  30.940  28.626  1.00  0.00     0.037 A 
BRANCH  49  63
ATOM     63  C   UNL A   1      39.803  28.744  28.923  1.00  0.00     0.064 A 
ATOM     64  C   UNL A   1      39.271  28.519  30.201  1.00  0.00     0.173 A 
ATOM     65  C   UNL A   1      38.946  29.252  27.936  1.00  0.00     0.173 A 
ATOM     66  F   UNL A   1      40.045  28.021  31.177  1.00  0.00    -0.203 F 
ATOM     67  C   UNL A   1      37.928  28.764  30.472  1.00  0.00     0.198 A 
ATOM     68  C   UNL A   1      37.609  29.524  28.218  1.00  0.00     0.198 A 
ATOM     69  F   UNL A   1      39.405  29.490  26.698  1.00  0.00    -0.203 F 
ATOM     70  F   UNL A   1      37.430  28.494  31.687  1.00  0.00    -0.200 F 
ATOM     71  C   UNL A   1      37.100  29.272  29.482  1.00  0.00     0.200 A 
ATOM     72  F   UNL A   1      36.813  30.025  27.263  1.00  0.00    -0.200 F 
ATOM     73  F   UNL A   1      35.808  29.512  29.746  1.00  0.00    -0.200 F 
ENDBRANCH  49  63
BRANCH  50  74
ATOM     74  C   UNL A   1      49.219  26.675  26.360  1.00  0.00     0.064 A 
ATOM     75  C   UNL A   1      50.159  26.252  27.309  1.00  0.00     0.173 A 
ATOM     76  C   UNL A   1      49.644  26.800  25.029  1.00  0.00     0.173 A 
ATOM     77  F   UNL A   1      49.803  26.134  28.597  1.00  0.00    -0.203 F 
ATOM     78  C   UNL A   1      51.477  25.984  26.948  1.00  0.00     0.198 A 
ATOM     79  C   UNL A   1      50.957  26.509  24.665  1.00  0.00     0.198 A 
ATOM     80  F   UNL A   1      48.779  27.194  24.083  1.00  0.00    -0.203 F 
ATOM     81  F   UNL A   1      52.366  25.620  27.882  1.00  0.00    -0.200 F 
ATOM     82  C   UNL A   1      51.874  26.109  25.625  1.00  0.00     0.200 A 
ATOM     83  F   UNL A   1      51.333  26.616  23.383  1.00  0.00    -0.200 F 
ATOM     84  F   UNL A   1      53.141  25.847  25.276  1.00  0.00    -0.200 F 
ENDBRANCH  50  74
BRANCH  62  85
ATOM     85  C   UNL A   1      46.092  32.283  29.045  1.00  0.00     0.064 A 
ATOM     86  C   UNL A   1      46.561  32.517  30.346  1.00  0.00     0.173 A 
ATOM     87  C   UNL A   1      46.136  33.345  28.129  1.00  0.00     0.173 A 
ATOM     88  F   UNL A   1      46.524  31.537  31.263  1.00  0.00    -0.203 F 
ATOM     89  C   UNL A   1      47.024  33.773  30.724  1.00  0.00     0.198 A 
ATOM     90  C   UNL A   1      46.627  34.592  28.502  1.00  0.00     0.198 A 
ATOM     91  F   UNL A   1      45.705  33.170  26.870  1.00  0.00    -0.203 F 
ATOM     92  F   UNL A   1      47.416  33.989  31.987  1.00  0.00    -0.200 F 
ATOM     93  C   UNL A   1      47.061  34.808  29.801  1.00  0.00     0.200 A 
ATOM     94  F   UNL A   1      46.671  35.589  27.607  1.00  0.00    -0.200 F 
ATOM     95  F   UNL A   1      47.506  36.019  30.168  1.00  0.00    -0.200 F 
ENDBRANCH  62  85
ENDBRANCH  36  37
ENDBRANCH  28  31
ENDBRANCH  26  27
ENDBRANCH  25  26
ENDBRANCH  24  25
ENDBRANCH   1  24
TORSDOF 16
ENDMDL
