MODEL 1
REMARK VINA RESULT:     -13.0      0.000      0.000
REMARK SMILES NC(=O)c1c(-c2ccc(Cl)cc2)csc1NC(=O)[C@H]1[C@@H](C(=O)NCCCCNC(=O)c2ccc(-c3c4nc(c(-c5c(F)c(F)c(F)c(F)c5F)c5ccc([nH]5)c(-c5c(F)c(F)c(F)c(F)c5F)c5nc(c(-c6c(F)c(F)c(F)c(F)c6F)c6ccc3[nH]6)C=C5)C=C4)cc2)[C@@H]2CC[C@H]1O2
REMARK SMILES IDX 25 1 24 2 23 3 21 4 22 5 20 7 19 8 97 9 94 10 96 11 98 12
REMARK SMILES IDX 95 13 17 14 16 15 18 17 15 18 4 19 5 20 13 21 14 22 2 23
REMARK SMILES IDX 1 24 3 27 6 28 7 29 12 30 8 31 11 32 9 33 10 34 26 35 27 36
REMARK SMILES IDX 28 37 29 38 30 40 31 41 32 42 93 43 33 44 92 45 34 46 35 47
REMARK SMILES IDX 36 48 86 49 37 50 91 51 85 52 87 53 38 54 90 55 84 56 83 57
REMARK SMILES IDX 39 59 71 60 51 61 70 62 52 63 55 64 69 65 88 66 53 67 54 68
REMARK SMILES IDX 68 70 89 71 56 72 40 73 41 74 49 75 42 76 43 77 47 78 50 79
REMARK SMILES IDX 44 80 45 81 48 82 46 83 72 84 73 85 81 86 74 87 75 88 79 89
REMARK SMILES IDX 82 90 76 91 77 92 80 93 78 94 57 95 58 96 66 97 59 98 60 99
REMARK SMILES IDX 64 100 67 101 61 102 62 103 65 104 63 105
REMARK H PARENT 23 6 16 16 1 25 1 26 28 39 87 58 55 69
REMARK Flexibility Score: inf
ROOT
ATOM      1  C   UNL A   1      32.183  28.193  27.575  1.00  0.00     0.023 C 
ENDROOT
BRANCH   1   2
ATOM      2  C   UNL A   1      32.116  27.117  26.479  1.00  0.00     0.116 C 
BRANCH   2   3
ATOM      3  N   UNL A   1      31.772  25.817  27.018  1.00  0.00    -0.356 N 
ATOM      4  C   UNL A   1      32.157  24.547  26.755  1.00  0.00     0.226 C 
ATOM      5  O   UNL A   1      31.599  23.694  27.454  1.00  0.00    -0.275 OA
ATOM      6  H   UNL A   1      31.105  25.871  27.741  1.00  0.00     0.163 HD
BRANCH   4   7
ATOM      7  C   UNL A   1      33.344  24.194  25.862  1.00  0.00     0.122 C 
ATOM      8  C   UNL A   1      33.225  23.340  24.584  1.00  0.00     0.123 C 
ATOM      9  C   UNL A   1      33.961  22.041  24.975  1.00  0.00     0.132 C 
ATOM     10  C   UNL A   1      34.337  23.332  26.674  1.00  0.00     0.132 C 
ATOM     11  C   UNL A   1      35.470  22.217  24.892  1.00  0.00     0.035 C 
ATOM     12  O   UNL A   1      33.818  22.009  26.411  1.00  0.00    -0.373 OA
ATOM     13  C   UNL A   1      35.713  23.245  25.995  1.00  0.00     0.035 C 
BRANCH   8  14
ATOM     14  C   UNL A   1      31.877  22.938  24.038  1.00  0.00     0.231 C 
ATOM     15  N   UNL A   1      31.001  23.850  23.502  1.00  0.00    -0.317 N 
ATOM     16  H   UNL A   1      30.089  23.490  23.403  1.00  0.00     0.170 HD
ATOM     17  O   UNL A   1      31.520  21.757  24.059  1.00  0.00    -0.274 OA
BRANCH  15  18
ATOM     18  C   UNL A   1      31.108  25.169  23.067  1.00  0.00     0.108 A 
ATOM     19  C   UNL A   1      30.267  26.229  23.418  1.00  0.00     0.082 A 
ATOM     20  C   UNL A   1      30.664  27.457  22.748  1.00  0.00     0.007 A 
ATOM     21  C   UNL A   1      31.749  27.256  21.921  1.00  0.00     0.076 A 
ATOM     22  S   UNL A   1      32.227  25.637  21.886  1.00  0.00    -0.125 S 
BRANCH  19  23
ATOM     23  C   UNL A   1      29.152  26.041  24.345  1.00  0.00     0.252 C 
ATOM     24  N   UNL A   1      27.907  26.331  23.875  1.00  0.00    -0.365 N 
ATOM     25  H   UNL A   1      27.123  26.221  24.458  1.00  0.00     0.159 HD
ATOM     26  H   UNL A   1      27.792  26.652  22.951  1.00  0.00     0.159 HD
ATOM     27  O   UNL A   1      29.298  25.578  25.474  1.00  0.00    -0.269 OA
ENDBRANCH  19  23
BRANCH  20  28
ATOM     28  C   UNL A   1      30.103  28.801  22.840  1.00  0.00    -0.017 A 
ATOM     29  C   UNL A   1      29.388  29.329  21.754  1.00  0.00     0.010 A 
ATOM     30  C   UNL A   1      30.285  29.578  23.989  1.00  0.00     0.010 A 
ATOM     31  C   UNL A   1      28.862  30.621  21.816  1.00  0.00     0.021 A 
ATOM     32  C   UNL A   1      29.755  30.871  24.050  1.00  0.00     0.021 A 
ATOM     33  C   UNL A   1      29.048  31.386  22.965  1.00  0.00     0.041 A 
ATOM     34  Cl  UNL A   1      28.399  32.977  23.041  1.00  0.00    -0.084 Cl
ENDBRANCH  20  28
ENDBRANCH  15  18
ENDBRANCH   8  14
ENDBRANCH   4   7
ENDBRANCH   2   3
ENDBRANCH   1   2
BRANCH   1  35
ATOM     35  C   UNL A   1      31.775  29.609  27.148  1.00  0.00     0.023 C 
BRANCH  35  36
ATOM     36  C   UNL A   1      32.848  30.386  26.396  1.00  0.00     0.116 C 
BRANCH  36  37
ATOM     37  N   UNL A   1      32.827  31.802  26.730  1.00  0.00    -0.352 N 
ATOM     38  C   UNL A   1      33.605  32.517  27.606  1.00  0.00     0.251 C 
ATOM     39  H   UNL A   1      32.149  32.331  26.251  1.00  0.00     0.163 HD
ATOM     40  O   UNL A   1      33.297  33.673  27.883  1.00  0.00    -0.269 OA
BRANCH  38  41
ATOM     41  C   UNL A   1      34.799  31.909  28.239  1.00  0.00     0.039 A 
ATOM     42  C   UNL A   1      35.969  32.668  28.323  1.00  0.00     0.014 A 
ATOM     43  C   UNL A   1      34.793  30.595  28.714  1.00  0.00     0.014 A 
ATOM     44  C   UNL A   1      37.109  32.133  28.929  1.00  0.00     0.010 A 
ATOM     45  C   UNL A   1      35.903  30.091  29.393  1.00  0.00     0.010 A 
ATOM     46  C   UNL A   1      37.075  30.852  29.503  1.00  0.00    -0.014 A 
BRANCH  46  47
ATOM     47  C   UNL A   1      38.257  30.309  30.226  1.00  0.00     0.031 A 
ATOM     48  C   UNL A   1      38.555  30.730  31.640  1.00  0.00     0.074 A 
ATOM     49  C   UNL A   1      39.092  29.464  29.590  1.00  0.00     0.049 A 
ATOM     50  N   UNL A   1      39.547  30.375  32.419  1.00  0.00    -0.248 NA
ATOM     51  C   UNL A   1      37.630  31.696  32.252  1.00  0.00     0.031 C 
ATOM     52  C   UNL A   1      38.947  29.020  28.203  1.00  0.00     0.029 A 
ATOM     53  N   UNL A   1      40.231  28.831  30.023  1.00  0.00    -0.354 N 
ATOM     54  C   UNL A   1      39.372  31.080  33.602  1.00  0.00     0.074 A 
ATOM     55  C   UNL A   1      38.212  31.927  33.420  1.00  0.00     0.031 C 
ATOM     56  C   UNL A   1      39.940  28.167  27.908  1.00  0.00     0.029 A 
ATOM     57  C   UNL A   1      40.814  28.034  29.068  1.00  0.00     0.049 A 
ATOM     58  H   UNL A   1      40.595  28.940  30.932  1.00  0.00     0.167 HD
ATOM     59  C   UNL A   1      40.098  31.012  34.745  1.00  0.00     0.037 A 
ATOM     60  C   UNL A   1      41.933  27.285  29.119  1.00  0.00     0.037 A 
ATOM     61  C   UNL A   1      41.245  30.160  34.928  1.00  0.00     0.049 A 
ATOM     62  C   UNL A   1      42.726  27.234  30.397  1.00  0.00     0.074 A 
ATOM     63  C   UNL A   1      42.009  29.973  36.068  1.00  0.00     0.029 A 
ATOM     64  N   UNL A   1      41.803  29.360  33.940  1.00  0.00    -0.354 N 
ATOM     65  N   UNL A   1      42.501  27.840  31.537  1.00  0.00    -0.248 NA
ATOM     66  C   UNL A   1      43.922  26.381  30.397  1.00  0.00     0.031 C 
ATOM     67  C   UNL A   1      43.064  29.110  35.752  1.00  0.00     0.029 A 
ATOM     68  C   UNL A   1      42.919  28.704  34.436  1.00  0.00     0.049 A 
ATOM     69  H   UNL A   1      41.456  29.272  33.023  1.00  0.00     0.167 HD
ATOM     70  C   UNL A   1      43.510  27.424  32.397  1.00  0.00     0.074 A 
ATOM     71  C   UNL A   1      44.333  26.494  31.651  1.00  0.00     0.031 C 
ATOM     72  C   UNL A   1      43.734  27.781  33.686  1.00  0.00     0.037 A 
BRANCH  59  73
ATOM     73  C   UNL A   1      39.675  31.891  35.891  1.00  0.00     0.064 A 
ATOM     74  C   UNL A   1      40.314  33.112  36.161  1.00  0.00     0.173 A 
ATOM     75  C   UNL A   1      38.594  31.525  36.707  1.00  0.00     0.173 A 
ATOM     76  F   UNL A   1      41.358  33.508  35.418  1.00  0.00    -0.203 F 
ATOM     77  C   UNL A   1      39.909  33.914  37.226  1.00  0.00     0.198 A 
ATOM     78  C   UNL A   1      38.170  32.347  37.749  1.00  0.00     0.198 A 
ATOM     79  F   UNL A   1      37.941  30.374  36.490  1.00  0.00    -0.203 F 
ATOM     80  F   UNL A   1      40.571  35.047  37.499  1.00  0.00    -0.200 F 
ATOM     81  C   UNL A   1      38.833  33.534  38.014  1.00  0.00     0.200 A 
ATOM     82  F   UNL A   1      37.117  31.987  38.498  1.00  0.00    -0.200 F 
ATOM     83  F   UNL A   1      38.440  34.311  39.032  1.00  0.00    -0.200 F 
ENDBRANCH  59  73
BRANCH  60  84
ATOM     84  C   UNL A   1      42.358  26.506  27.926  1.00  0.00     0.064 A 
ATOM     85  C   UNL A   1      41.858  25.219  27.687  1.00  0.00     0.173 A 
ATOM     86  C   UNL A   1      43.276  27.030  27.003  1.00  0.00     0.173 A 
ATOM     87  F   UNL A   1      40.994  24.665  28.551  1.00  0.00    -0.203 F 
ATOM     88  C   UNL A   1      42.277  24.475  26.586  1.00  0.00     0.198 A 
ATOM     89  C   UNL A   1      43.670  26.298  25.884  1.00  0.00     0.198 A 
ATOM     90  F   UNL A   1      43.782  28.258  27.182  1.00  0.00    -0.203 F 
ATOM     91  F   UNL A   1      41.823  23.226  26.412  1.00  0.00    -0.200 F 
ATOM     92  C   UNL A   1      43.177  25.018  25.682  1.00  0.00     0.200 A 
ATOM     93  F   UNL A   1      44.526  26.833  25.004  1.00  0.00    -0.200 F 
ATOM     94  F   UNL A   1      43.576  24.304  24.620  1.00  0.00    -0.200 F 
ENDBRANCH  60  84
BRANCH  72  95
ATOM     95  C   UNL A   1      44.898  27.134  34.385  1.00  0.00     0.064 A 
ATOM     96  C   UNL A   1      46.171  27.724  34.407  1.00  0.00     0.173 A 
ATOM     97  C   UNL A   1      44.732  25.912  35.056  1.00  0.00     0.173 A 
ATOM     98  F   UNL A   1      46.389  28.885  33.770  1.00  0.00    -0.203 F 
ATOM     99  C   UNL A   1      47.242  27.096  35.039  1.00  0.00     0.198 A 
ATOM    100  C   UNL A   1      45.796  25.306  35.720  1.00  0.00     0.198 A 
ATOM    101  F   UNL A   1      43.535  25.308  35.077  1.00  0.00    -0.203 F 
ATOM    102  F   UNL A   1      48.463  27.646  34.988  1.00  0.00    -0.200 F 
ATOM    103  C   UNL A   1      47.052  25.891  35.699  1.00  0.00     0.200 A 
ATOM    104  F   UNL A   1      45.606  24.152  36.372  1.00  0.00    -0.200 F 
ATOM    105  F   UNL A   1      48.083  25.289  36.307  1.00  0.00    -0.200 F 
ENDBRANCH  72  95
ENDBRANCH  46  47
ENDBRANCH  38  41
ENDBRANCH  36  37
ENDBRANCH  35  36
ENDBRANCH   1  35
TORSDOF 15
ENDMDL
MODEL 2
REMARK VINA RESULT:     -12.7      4.597      9.661
REMARK SMILES NC(=O)c1c(-c2ccc(Cl)cc2)csc1NC(=O)[C@H]1[C@@H](C(=O)NCCCCNC(=O)c2ccc(-c3c4nc(c(-c5c(F)c(F)c(F)c(F)c5F)c5ccc([nH]5)c(-c5c(F)c(F)c(F)c(F)c5F)c5nc(c(-c6c(F)c(F)c(F)c(F)c6F)c6ccc3[nH]6)C=C5)C=C4)cc2)[C@@H]2CC[C@H]1O2
REMARK SMILES IDX 25 1 24 2 23 3 21 4 22 5 20 7 19 8 97 9 94 10 96 11 98 12
REMARK SMILES IDX 95 13 17 14 16 15 18 17 15 18 4 19 5 20 13 21 14 22 2 23
REMARK SMILES IDX 1 24 3 27 6 28 7 29 12 30 8 31 11 32 9 33 10 34 26 35 27 36
REMARK SMILES IDX 28 37 29 38 30 40 31 41 32 42 93 43 33 44 92 45 34 46 35 47
REMARK SMILES IDX 36 48 86 49 37 50 91 51 85 52 87 53 38 54 90 55 84 56 83 57
REMARK SMILES IDX 39 59 71 60 51 61 70 62 52 63 55 64 69 65 88 66 53 67 54 68
REMARK SMILES IDX 68 70 89 71 56 72 40 73 41 74 49 75 42 76 43 77 47 78 50 79
REMARK SMILES IDX 44 80 45 81 48 82 46 83 72 84 73 85 81 86 74 87 75 88 79 89
REMARK SMILES IDX 82 90 76 91 77 92 80 93 78 94 57 95 58 96 66 97 59 98 60 99
REMARK SMILES IDX 64 100 67 101 61 102 62 103 65 104 63 105
REMARK H PARENT 23 6 16 16 1 25 1 26 28 39 87 58 55 69
REMARK Flexibility Score: inf
ROOT
ATOM      1  C   UNL A   1      35.641  23.070  23.710  1.00  0.00     0.023 C 
ENDROOT
BRANCH   1   2
ATOM      2  C   UNL A   1      35.026  24.169  24.590  1.00  0.00     0.116 C 
BRANCH   2   3
ATOM      3  N   UNL A   1      34.591  25.308  23.808  1.00  0.00    -0.356 N 
ATOM      4  C   UNL A   1      33.761  26.354  24.032  1.00  0.00     0.226 C 
ATOM      5  O   UNL A   1      33.648  27.124  23.072  1.00  0.00    -0.275 OA
ATOM      6  H   UNL A   1      34.990  25.325  22.908  1.00  0.00     0.163 HD
BRANCH   4   7
ATOM      7  C   UNL A   1      33.204  26.707  25.408  1.00  0.00     0.122 C 
ATOM      8  C   UNL A   1      31.698  26.735  25.736  1.00  0.00     0.123 C 
ATOM      9  C   UNL A   1      31.425  28.238  25.954  1.00  0.00     0.132 C 
ATOM     10  C   UNL A   1      33.579  28.170  25.735  1.00  0.00     0.132 C 
ATOM     11  C   UNL A   1      31.882  28.686  27.334  1.00  0.00     0.035 C 
ATOM     12  O   UNL A   1      32.453  28.870  25.160  1.00  0.00    -0.373 OA
ATOM     13  C   UNL A   1      33.393  28.493  27.226  1.00  0.00     0.035 C 
BRANCH   8  14
ATOM     14  C   UNL A   1      30.674  26.239  24.744  1.00  0.00     0.231 C 
ATOM     15  N   UNL A   1      30.572  24.914  24.396  1.00  0.00    -0.317 N 
ATOM     16  H   UNL A   1      30.032  24.774  23.584  1.00  0.00     0.170 HD
ATOM     17  O   UNL A   1      29.888  27.024  24.210  1.00  0.00    -0.274 OA
BRANCH  15  18
ATOM     18  C   UNL A   1      31.060  23.722  24.931  1.00  0.00     0.108 A 
ATOM     19  C   UNL A   1      31.722  22.709  24.230  1.00  0.00     0.082 A 
ATOM     20  C   UNL A   1      32.059  21.600  25.108  1.00  0.00     0.007 A 
ATOM     21  C   UNL A   1      31.617  21.820  26.396  1.00  0.00     0.076 A 
ATOM     22  S   UNL A   1      30.759  23.267  26.533  1.00  0.00    -0.125 S 
BRANCH  19  23
ATOM     23  C   UNL A   1      31.999  22.829  22.800  1.00  0.00     0.252 C 
ATOM     24  N   UNL A   1      31.712  21.746  22.026  1.00  0.00    -0.365 N 
ATOM     25  H   UNL A   1      31.880  21.775  21.057  1.00  0.00     0.159 HD
ATOM     26  H   UNL A   1      31.337  20.934  22.437  1.00  0.00     0.159 HD
ATOM     27  O   UNL A   1      32.406  23.870  22.287  1.00  0.00    -0.269 OA
ENDBRANCH  19  23
BRANCH  20  28
ATOM     28  C   UNL A   1      32.773  20.360  24.823  1.00  0.00    -0.017 A 
ATOM     29  C   UNL A   1      32.061  19.239  24.369  1.00  0.00     0.010 A 
ATOM     30  C   UNL A   1      34.155  20.267  25.015  1.00  0.00     0.010 A 
ATOM     31  C   UNL A   1      32.724  18.038  24.112  1.00  0.00     0.021 A 
ATOM     32  C   UNL A   1      34.818  19.064  24.754  1.00  0.00     0.021 A 
ATOM     33  C   UNL A   1      34.101  17.956  24.304  1.00  0.00     0.041 A 
ATOM     34  Cl  UNL A   1      34.918  16.477  23.985  1.00  0.00    -0.084 Cl
ENDBRANCH  20  28
ENDBRANCH  15  18
ENDBRANCH   8  14
ENDBRANCH   4   7
ENDBRANCH   2   3
ENDBRANCH   1   2
BRANCH   1  35
ATOM     35  C   UNL A   1      37.028  22.568  24.138  1.00  0.00     0.023 C 
BRANCH  35  36
ATOM     36  C   UNL A   1      37.199  22.357  25.636  1.00  0.00     0.116 C 
BRANCH  36  37
ATOM     37  N   UNL A   1      38.280  21.431  25.934  1.00  0.00    -0.352 N 
ATOM     38  C   UNL A   1      39.560  21.672  26.364  1.00  0.00     0.251 C 
ATOM     39  H   UNL A   1      38.057  20.480  25.808  1.00  0.00     0.163 HD
ATOM     40  O   UNL A   1      40.379  20.756  26.372  1.00  0.00    -0.269 OA
BRANCH  38  41
ATOM     41  C   UNL A   1      39.978  23.026  26.799  1.00  0.00     0.039 A 
ATOM     42  C   UNL A   1      40.777  23.144  27.940  1.00  0.00     0.014 A 
ATOM     43  C   UNL A   1      39.563  24.178  26.125  1.00  0.00     0.014 A 
ATOM     44  C   UNL A   1      41.203  24.403  28.369  1.00  0.00     0.010 A 
ATOM     45  C   UNL A   1      40.057  25.427  26.504  1.00  0.00     0.010 A 
ATOM     46  C   UNL A   1      40.877  25.554  27.634  1.00  0.00    -0.014 A 
BRANCH  46  47
ATOM     47  C   UNL A   1      41.400  26.888  28.034  1.00  0.00     0.031 A 
ATOM     48  C   UNL A   1      42.856  27.228  27.866  1.00  0.00     0.074 A 
ATOM     49  C   UNL A   1      40.564  27.785  28.594  1.00  0.00     0.049 A 
ATOM     50  N   UNL A   1      43.490  28.332  28.175  1.00  0.00    -0.248 NA
ATOM     51  C   UNL A   1      43.718  26.181  27.298  1.00  0.00     0.031 C 
ATOM     52  C   UNL A   1      39.143  27.561  28.864  1.00  0.00     0.029 A 
ATOM     53  N   UNL A   1      40.788  29.063  29.043  1.00  0.00    -0.354 N 
ATOM     54  C   UNL A   1      44.822  28.108  27.851  1.00  0.00     0.074 A 
ATOM     55  C   UNL A   1      44.916  26.745  27.374  1.00  0.00     0.031 C 
ATOM     56  C   UNL A   1      38.617  28.671  29.403  1.00  0.00     0.029 A 
ATOM     57  C   UNL A   1      39.668  29.671  29.556  1.00  0.00     0.049 A 
ATOM     58  H   UNL A   1      41.668  29.502  29.001  1.00  0.00     0.167 HD
ATOM     59  C   UNL A   1      45.868  28.968  27.922  1.00  0.00     0.037 A 
ATOM     60  C   UNL A   1      39.506  30.894  30.098  1.00  0.00     0.037 A 
ATOM     61  C   UNL A   1      45.770  30.328  28.385  1.00  0.00     0.049 A 
ATOM     62  C   UNL A   1      40.686  31.826  30.172  1.00  0.00     0.074 A 
ATOM     63  C   UNL A   1      46.759  31.296  28.436  1.00  0.00     0.029 A 
ATOM     64  N   UNL A   1      44.617  30.911  28.891  1.00  0.00    -0.354 N 
ATOM     65  N   UNL A   1      41.923  31.632  29.784  1.00  0.00    -0.248 NA
ATOM     66  C   UNL A   1      40.442  33.153  30.751  1.00  0.00     0.031 C 
ATOM     67  C   UNL A   1      46.220  32.443  29.029  1.00  0.00     0.029 A 
ATOM     68  C   UNL A   1      44.878  32.215  29.285  1.00  0.00     0.049 A 
ATOM     69  H   UNL A   1      43.742  30.465  28.959  1.00  0.00     0.167 HD
ATOM     70  C   UNL A   1      42.596  32.817  30.046  1.00  0.00     0.074 A 
ATOM     71  C   UNL A   1      41.623  33.733  30.604  1.00  0.00     0.031 C 
ATOM     72  C   UNL A   1      43.903  33.119  29.843  1.00  0.00     0.037 A 
BRANCH  59  73
ATOM     73  C   UNL A   1      47.217  28.459  27.492  1.00  0.00     0.064 A 
ATOM     74  C   UNL A   1      48.162  27.995  28.421  1.00  0.00     0.173 A 
ATOM     75  C   UNL A   1      47.556  28.400  26.132  1.00  0.00     0.173 A 
ATOM     76  F   UNL A   1      47.896  28.034  29.735  1.00  0.00    -0.203 F 
ATOM     77  C   UNL A   1      49.407  27.525  28.006  1.00  0.00     0.198 A 
ATOM     78  C   UNL A   1      48.787  27.897  25.718  1.00  0.00     0.198 A 
ATOM     79  F   UNL A   1      46.688  28.821  25.200  1.00  0.00    -0.203 F 
ATOM     80  F   UNL A   1      50.314  27.142  28.915  1.00  0.00    -0.200 F 
ATOM     81  C   UNL A   1      49.715  27.470  26.655  1.00  0.00     0.200 A 
ATOM     82  F   UNL A   1      49.076  27.828  24.411  1.00  0.00    -0.200 F 
ATOM     83  F   UNL A   1      50.909  27.011  26.257  1.00  0.00    -0.200 F 
ENDBRANCH  59  73
BRANCH  60  84
ATOM     84  C   UNL A   1      38.169  31.315  30.592  1.00  0.00     0.064 A 
ATOM     85  C   UNL A   1      37.195  31.806  29.713  1.00  0.00     0.173 A 
ATOM     86  C   UNL A   1      37.839  31.240  31.954  1.00  0.00     0.173 A 
ATOM     87  F   UNL A   1      37.468  31.918  28.405  1.00  0.00    -0.203 F 
ATOM     88  C   UNL A   1      35.951  32.230  30.178  1.00  0.00     0.198 A 
ATOM     89  C   UNL A   1      36.583  31.632  32.414  1.00  0.00     0.198 A 
ATOM     90  F   UNL A   1      38.733  30.774  32.837  1.00  0.00    -0.203 F 
ATOM     91  F   UNL A   1      35.058  32.746  29.322  1.00  0.00    -0.200 F 
ATOM     92  C   UNL A   1      35.644  32.135  31.528  1.00  0.00     0.200 A 
ATOM     93  F   UNL A   1      36.285  31.523  33.716  1.00  0.00    -0.200 F 
ATOM     94  F   UNL A   1      34.446  32.538  31.973  1.00  0.00    -0.200 F 
ENDBRANCH  60  84
BRANCH  72  95
ATOM     95  C   UNL A   1      44.349  34.512  30.194  1.00  0.00     0.064 A 
ATOM     96  C   UNL A   1      44.871  34.827  31.457  1.00  0.00     0.173 A 
ATOM     97  C   UNL A   1      44.265  35.544  29.245  1.00  0.00     0.173 A 
ATOM     98  F   UNL A   1      44.960  33.882  32.407  1.00  0.00    -0.203 F 
ATOM     99  C   UNL A   1      45.254  36.130  31.771  1.00  0.00     0.198 A 
ATOM    100  C   UNL A   1      44.685  36.836  29.550  1.00  0.00     0.198 A 
ATOM    101  F   UNL A   1      43.784  35.298  28.018  1.00  0.00    -0.203 F 
ATOM    102  F   UNL A   1      45.686  36.419  33.006  1.00  0.00    -0.200 F 
ATOM    103  C   UNL A   1      45.166  37.131  30.816  1.00  0.00     0.200 A 
ATOM    104  F   UNL A   1      44.617  37.798  28.619  1.00  0.00    -0.200 F 
ATOM    105  F   UNL A   1      45.537  38.382  31.119  1.00  0.00    -0.200 F 
ENDBRANCH  72  95
ENDBRANCH  46  47
ENDBRANCH  38  41
ENDBRANCH  36  37
ENDBRANCH  35  36
ENDBRANCH   1  35
TORSDOF 15
ENDMDL
MODEL 3
REMARK VINA RESULT:     -12.7      4.739     10.055
REMARK SMILES NC(=O)c1c(-c2ccc(Cl)cc2)csc1NC(=O)[C@H]1[C@@H](C(=O)NCCCCNC(=O)c2ccc(-c3c4nc(c(-c5c(F)c(F)c(F)c(F)c5F)c5ccc([nH]5)c(-c5c(F)c(F)c(F)c(F)c5F)c5nc(c(-c6c(F)c(F)c(F)c(F)c6F)c6ccc3[nH]6)C=C5)C=C4)cc2)[C@@H]2CC[C@H]1O2
REMARK SMILES IDX 25 1 24 2 23 3 21 4 22 5 20 7 19 8 97 9 94 10 96 11 98 12
REMARK SMILES IDX 95 13 17 14 16 15 18 17 15 18 4 19 5 20 13 21 14 22 2 23
REMARK SMILES IDX 1 24 3 27 6 28 7 29 12 30 8 31 11 32 9 33 10 34 26 35 27 36
REMARK SMILES IDX 28 37 29 38 30 40 31 41 32 42 93 43 33 44 92 45 34 46 35 47
REMARK SMILES IDX 36 48 86 49 37 50 91 51 85 52 87 53 38 54 90 55 84 56 83 57
REMARK SMILES IDX 39 59 71 60 51 61 70 62 52 63 55 64 69 65 88 66 53 67 54 68
REMARK SMILES IDX 68 70 89 71 56 72 40 73 41 74 49 75 42 76 43 77 47 78 50 79
REMARK SMILES IDX 44 80 45 81 48 82 46 83 72 84 73 85 81 86 74 87 75 88 79 89
REMARK SMILES IDX 82 90 76 91 77 92 80 93 78 94 57 95 58 96 66 97 59 98 60 99
REMARK SMILES IDX 64 100 67 101 61 102 62 103 65 104 63 105
REMARK H PARENT 23 6 16 16 1 25 1 26 28 39 87 58 55 69
REMARK Flexibility Score: inf
ROOT
ATOM      1  C   UNL A   1      36.662  23.066  23.503  1.00  0.00     0.023 C 
ENDROOT
BRANCH   1   2
ATOM      2  C   UNL A   1      35.312  23.673  23.917  1.00  0.00     0.116 C 
BRANCH   2   3
ATOM      3  N   UNL A   1      34.817  24.615  22.934  1.00  0.00    -0.356 N 
ATOM      4  C   UNL A   1      33.933  25.638  22.960  1.00  0.00     0.226 C 
ATOM      5  O   UNL A   1      33.779  26.202  21.870  1.00  0.00    -0.275 OA
ATOM      6  H   UNL A   1      35.217  24.479  22.044  1.00  0.00     0.163 HD
BRANCH   4   7
ATOM      7  C   UNL A   1      33.355  26.221  24.247  1.00  0.00     0.122 C 
ATOM      8  C   UNL A   1      31.845  26.290  24.548  1.00  0.00     0.123 C 
ATOM      9  C   UNL A   1      31.557  27.806  24.497  1.00  0.00     0.132 C 
ATOM     10  C   UNL A   1      33.715  27.722  24.318  1.00  0.00     0.132 C 
ATOM     11  C   UNL A   1      31.994  28.492  25.783  1.00  0.00     0.035 C 
ATOM     12  O   UNL A   1      32.591  28.300  23.617  1.00  0.00    -0.373 OA
ATOM     13  C   UNL A   1      33.508  28.298  25.727  1.00  0.00     0.035 C 
BRANCH   8  14
ATOM     14  C   UNL A   1      30.838  25.619  23.647  1.00  0.00     0.231 C 
ATOM     15  N   UNL A   1      30.746  24.252  23.540  1.00  0.00    -0.317 N 
ATOM     16  H   UNL A   1      30.218  23.966  22.759  1.00  0.00     0.170 HD
ATOM     17  O   UNL A   1      30.057  26.292  22.970  1.00  0.00    -0.274 OA
BRANCH  15  18
ATOM     18  C   UNL A   1      31.229  23.179  24.286  1.00  0.00     0.108 A 
ATOM     19  C   UNL A   1      31.901  22.059  23.786  1.00  0.00     0.082 A 
ATOM     20  C   UNL A   1      32.230  21.127  24.853  1.00  0.00     0.007 A 
ATOM     21  C   UNL A   1      31.773  21.573  26.076  1.00  0.00     0.076 A 
ATOM     22  S   UNL A   1      30.911  23.019  25.941  1.00  0.00    -0.125 S 
BRANCH  19  23
ATOM     23  C   UNL A   1      32.194  21.920  22.361  1.00  0.00     0.252 C 
ATOM     24  N   UNL A   1      31.550  20.921  21.696  1.00  0.00    -0.365 N 
ATOM     25  H   UNL A   1      31.712  20.785  20.735  1.00  0.00     0.159 HD
ATOM     26  H   UNL A   1      30.923  20.334  22.178  1.00  0.00     0.159 HD
ATOM     27  O   UNL A   1      32.929  22.698  21.755  1.00  0.00    -0.269 OA
ENDBRANCH  19  23
BRANCH  20  28
ATOM     28  C   UNL A   1      32.949  19.858  24.804  1.00  0.00    -0.017 A 
ATOM     29  C   UNL A   1      32.235  18.653  24.885  1.00  0.00     0.010 A 
ATOM     30  C   UNL A   1      34.343  19.828  24.697  1.00  0.00     0.010 A 
ATOM     31  C   UNL A   1      32.908  17.431  24.861  1.00  0.00     0.021 A 
ATOM     32  C   UNL A   1      35.016  18.602  24.670  1.00  0.00     0.021 A 
ATOM     33  C   UNL A   1      34.297  17.410  24.752  1.00  0.00     0.041 A 
ATOM     34  Cl  UNL A   1      35.125  15.903  24.721  1.00  0.00    -0.084 Cl
ENDBRANCH  20  28
ENDBRANCH  15  18
ENDBRANCH   8  14
ENDBRANCH   4   7
ENDBRANCH   2   3
ENDBRANCH   1   2
BRANCH   1  35
ATOM     35  C   UNL A   1      37.041  21.747  24.189  1.00  0.00     0.023 C 
BRANCH  35  36
ATOM     36  C   UNL A   1      37.371  21.867  25.671  1.00  0.00     0.116 C 
BRANCH  36  37
ATOM     37  N   UNL A   1      38.377  20.901  26.084  1.00  0.00    -0.352 N 
ATOM     38  C   UNL A   1      39.659  21.095  26.534  1.00  0.00     0.251 C 
ATOM     39  H   UNL A   1      38.093  19.960  26.033  1.00  0.00     0.163 HD
ATOM     40  O   UNL A   1      40.412  20.131  26.649  1.00  0.00    -0.269 OA
BRANCH  38  41
ATOM     41  C   UNL A   1      40.156  22.452  26.865  1.00  0.00     0.039 A 
ATOM     42  C   UNL A   1      41.149  22.579  27.840  1.00  0.00     0.014 A 
ATOM     43  C   UNL A   1      39.632  23.596  26.259  1.00  0.00     0.014 A 
ATOM     44  C   UNL A   1      41.654  23.841  28.164  1.00  0.00     0.010 A 
ATOM     45  C   UNL A   1      40.192  24.847  26.522  1.00  0.00     0.010 A 
ATOM     46  C   UNL A   1      41.206  24.983  27.482  1.00  0.00    -0.014 A 
BRANCH  46  47
ATOM     47  C   UNL A   1      41.799  26.319  27.760  1.00  0.00     0.031 A 
ATOM     48  C   UNL A   1      43.180  26.665  27.273  1.00  0.00     0.074 A 
ATOM     49  C   UNL A   1      41.106  27.212  28.494  1.00  0.00     0.049 A 
ATOM     50  N   UNL A   1      43.864  27.771  27.437  1.00  0.00    -0.248 NA
ATOM     51  C   UNL A   1      43.899  25.623  26.524  1.00  0.00     0.031 C 
ATOM     52  C   UNL A   1      39.781  26.981  29.073  1.00  0.00     0.029 A 
ATOM     53  N   UNL A   1      41.420  28.490  28.886  1.00  0.00    -0.354 N 
ATOM     54  C   UNL A   1      45.091  27.553  26.823  1.00  0.00     0.074 A 
ATOM     55  C   UNL A   1      45.081  26.191  26.335  1.00  0.00     0.031 C 
ATOM     56  C   UNL A   1      39.384  28.088  29.719  1.00  0.00     0.029 A 
ATOM     57  C   UNL A   1      40.440  29.092  29.637  1.00  0.00     0.049 A 
ATOM     58  H   UNL A   1      42.267  28.933  28.650  1.00  0.00     0.167 HD
ATOM     59  C   UNL A   1      46.123  28.417  26.662  1.00  0.00     0.037 A 
ATOM     60  C   UNL A   1      40.398  30.313  30.205  1.00  0.00     0.037 A 
ATOM     61  C   UNL A   1      46.126  29.776  27.140  1.00  0.00     0.049 A 
ATOM     62  C   UNL A   1      41.562  31.250  30.017  1.00  0.00     0.074 A 
ATOM     63  C   UNL A   1      47.098  30.748  26.972  1.00  0.00     0.029 A 
ATOM     64  N   UNL A   1      45.112  30.354  27.891  1.00  0.00    -0.354 N 
ATOM     65  N   UNL A   1      42.682  31.061  29.363  1.00  0.00    -0.248 NA
ATOM     66  C   UNL A   1      41.448  32.575  30.639  1.00  0.00     0.031 C 
ATOM     67  C   UNL A   1      46.701  31.891  27.673  1.00  0.00     0.029 A 
ATOM     68  C   UNL A   1      45.450  31.657  28.221  1.00  0.00     0.049 A 
ATOM     69  H   UNL A   1      44.276  29.904  28.151  1.00  0.00     0.167 HD
ATOM     70  C   UNL A   1      43.393  32.249  29.471  1.00  0.00     0.074 A 
ATOM     71  C   UNL A   1      42.565  33.160  30.235  1.00  0.00     0.031 C 
ATOM     72  C   UNL A   1      44.621  32.557  28.984  1.00  0.00     0.037 A 
BRANCH  59  73
ATOM     73  C   UNL A   1      47.345  27.914  25.942  1.00  0.00     0.064 A 
ATOM     74  C   UNL A   1      47.408  27.862  24.540  1.00  0.00     0.173 A 
ATOM     75  C   UNL A   1      48.481  27.515  26.662  1.00  0.00     0.173 A 
ATOM     76  F   UNL A   1      46.349  28.225  23.801  1.00  0.00    -0.203 F 
ATOM     77  C   UNL A   1      48.548  27.395  23.890  1.00  0.00     0.198 A 
ATOM     78  C   UNL A   1      49.632  27.082  26.007  1.00  0.00     0.198 A 
ATOM     79  F   UNL A   1      48.481  27.552  28.003  1.00  0.00    -0.203 F 
ATOM     80  F   UNL A   1      48.563  27.300  22.553  1.00  0.00    -0.200 F 
ATOM     81  C   UNL A   1      49.661  27.013  24.623  1.00  0.00     0.200 A 
ATOM     82  F   UNL A   1      50.713  26.730  26.717  1.00  0.00    -0.200 F 
ATOM     83  F   UNL A   1      50.759  26.572  23.995  1.00  0.00    -0.200 F 
ENDBRANCH  59  73
BRANCH  60  84
ATOM     84  C   UNL A   1      39.203  30.728  30.985  1.00  0.00     0.064 A 
ATOM     85  C   UNL A   1      38.136  31.398  30.372  1.00  0.00     0.173 A 
ATOM     86  C   UNL A   1      39.105  30.468  32.360  1.00  0.00     0.173 A 
ATOM     87  F   UNL A   1      38.190  31.688  29.064  1.00  0.00    -0.203 F 
ATOM     88  C   UNL A   1      37.028  31.814  31.107  1.00  0.00     0.198 A 
ATOM     89  C   UNL A   1      37.982  30.856  33.089  1.00  0.00     0.198 A 
ATOM     90  F   UNL A   1      40.096  29.827  32.995  1.00  0.00    -0.203 F 
ATOM     91  F   UNL A   1      36.046  32.500  30.505  1.00  0.00    -0.200 F 
ATOM     92  C   UNL A   1      36.949  31.536  32.464  1.00  0.00     0.200 A 
ATOM     93  F   UNL A   1      37.903  30.570  34.395  1.00  0.00    -0.200 F 
ATOM     94  F   UNL A   1      35.881  31.932  33.169  1.00  0.00    -0.200 F 
ENDBRANCH  60  84
BRANCH  72  95
ATOM     95  C   UNL A   1      45.128  33.951  29.230  1.00  0.00     0.064 A 
ATOM     96  C   UNL A   1      44.848  35.008  28.351  1.00  0.00     0.173 A 
ATOM     97  C   UNL A   1      45.893  34.236  30.372  1.00  0.00     0.173 A 
ATOM     98  F   UNL A   1      44.133  34.789  27.236  1.00  0.00    -0.203 F 
ATOM     99  C   UNL A   1      45.349  36.287  28.584  1.00  0.00     0.198 A 
ATOM    100  C   UNL A   1      46.359  35.524  30.622  1.00  0.00     0.198 A 
ATOM    101  F   UNL A   1      46.183  33.267  31.253  1.00  0.00    -0.203 F 
ATOM    102  F   UNL A   1      45.125  37.264  27.694  1.00  0.00    -0.200 F 
ATOM    103  C   UNL A   1      46.099  36.545  29.721  1.00  0.00     0.200 A 
ATOM    104  F   UNL A   1      47.068  35.775  31.731  1.00  0.00    -0.200 F 
ATOM    105  F   UNL A   1      46.578  37.776  29.945  1.00  0.00    -0.200 F 
ENDBRANCH  72  95
ENDBRANCH  46  47
ENDBRANCH  38  41
ENDBRANCH  36  37
ENDBRANCH  35  36
ENDBRANCH   1  35
TORSDOF 15
ENDMDL
