MODEL 1
REMARK VINA RESULT:     -12.6      0.000      0.000
REMARK SMILES O=C(NCCCCNC(=O)C1CCN(c2nc(-c3ccc(F)cc3)cc(C(F)F)n2)CC1)c1ccc(-c2c3nc(c(-c4c(F)c(F)c(F)c(F)c4F)c4ccc([nH]4)c(-c4c(F)c(F)c(F)c(F)c4F)c4nc(c(-c5c(F)c(F)c(F)c(F)c5F)c5ccc2[nH]5)C=C4)C=C3)cc1
REMARK SMILES IDX 5 1 4 2 3 3 1 4 2 5 33 7 34 8 95 9 35 10 94 11 36 12 37 13
REMARK SMILES IDX 38 14 88 15 39 16 93 17 87 18 89 19 40 20 92 21 86 22 85 23
REMARK SMILES IDX 41 25 73 26 53 27 72 28 54 29 57 30 71 31 90 32 55 33 56 34
REMARK SMILES IDX 70 36 91 37 58 38 42 39 43 40 51 41 44 42 45 43 49 44 52 45
REMARK SMILES IDX 46 46 47 47 50 48 48 49 74 50 75 51 83 52 76 53 77 54 81 55
REMARK SMILES IDX 84 56 78 57 79 58 82 59 80 60 59 61 60 62 68 63 61 64 62 65
REMARK SMILES IDX 66 66 69 67 63 68 64 69 67 70 65 71 6 72 7 73 8 74 9 75
REMARK SMILES IDX 10 77 11 78 12 79 32 80 13 81 31 82 14 83 15 84 16 85 30 86
REMARK SMILES IDX 17 87 26 88 25 89 18 90 19 91 24 92 20 93 23 94 21 95 22 96
REMARK SMILES IDX 27 97 28 98 29 99
REMARK H PARENT 3 6 89 24 57 35 8 76
REMARK Flexibility Score: inf
ROOT
ATOM      1  C   UNL A   1      33.276  34.455  28.817  1.00  0.00     0.023 C 
ENDROOT
BRANCH   1   2
ATOM      2  C   UNL A   1      33.420  35.903  29.271  1.00  0.00     0.116 C 
BRANCH   2   3
ATOM      3  N   UNL A   1      32.528  36.250  30.367  1.00  0.00    -0.352 N 
ATOM      4  O   UNL A   1      31.699  36.169  32.465  1.00  0.00    -0.269 OA
ATOM      5  C   UNL A   1      32.609  35.887  31.690  1.00  0.00     0.251 C 
ATOM      6  H   UNL A   1      31.763  36.822  30.127  1.00  0.00     0.163 HD
BRANCH   5   7
ATOM      7  C   UNL A   1      33.783  35.130  32.175  1.00  0.00     0.039 A 
ATOM      8  C   UNL A   1      35.056  35.704  32.165  1.00  0.00     0.014 A 
ATOM      9  C   UNL A   1      33.603  33.826  32.645  1.00  0.00     0.014 A 
ATOM     10  C   UNL A   1      36.162  34.932  32.501  1.00  0.00     0.010 A 
ATOM     11  C   UNL A   1      34.710  33.075  33.055  1.00  0.00     0.010 A 
ATOM     12  C   UNL A   1      36.002  33.614  32.959  1.00  0.00    -0.014 A 
BRANCH  12  13
ATOM     13  C   UNL A   1      37.198  32.846  33.387  1.00  0.00     0.031 A 
ATOM     14  C   UNL A   1      37.821  31.812  32.492  1.00  0.00     0.074 A 
ATOM     15  C   UNL A   1      37.754  33.133  34.580  1.00  0.00     0.049 A 
ATOM     16  N   UNL A   1      38.889  31.082  32.699  1.00  0.00    -0.248 NA
ATOM     17  C   UNL A   1      37.166  31.561  31.199  1.00  0.00     0.031 C 
ATOM     18  C   UNL A   1      37.237  34.120  35.530  1.00  0.00     0.029 A 
ATOM     19  N   UNL A   1      38.887  32.651  35.186  1.00  0.00    -0.354 N 
ATOM     20  C   UNL A   1      39.030  30.284  31.572  1.00  0.00     0.074 A 
ATOM     21  C   UNL A   1      37.924  30.596  30.692  1.00  0.00     0.031 C 
ATOM     22  C   UNL A   1      38.081  34.216  36.567  1.00  0.00     0.029 A 
ATOM     23  C   UNL A   1      39.164  33.256  36.387  1.00  0.00     0.049 A 
ATOM     24  H   UNL A   1      39.446  31.940  34.797  1.00  0.00     0.167 HD
ATOM     25  C   UNL A   1      40.002  29.381  31.297  1.00  0.00     0.037 A 
ATOM     26  C   UNL A   1      40.176  33.057  37.252  1.00  0.00     0.037 A 
ATOM     27  C   UNL A   1      41.110  29.086  32.169  1.00  0.00     0.049 A 
ATOM     28  C   UNL A   1      41.218  32.024  36.932  1.00  0.00     0.074 A 
ATOM     29  C   UNL A   1      42.147  28.191  31.970  1.00  0.00     0.029 A 
ATOM     30  N   UNL A   1      41.327  29.682  33.402  1.00  0.00    -0.354 N 
ATOM     31  N   UNL A   1      41.338  31.278  35.863  1.00  0.00    -0.248 NA
ATOM     32  C   UNL A   1      42.258  31.798  37.945  1.00  0.00     0.031 C 
ATOM     33  C   UNL A   1      42.973  28.218  33.097  1.00  0.00     0.029 A 
ATOM     34  C   UNL A   1      42.475  29.161  33.980  1.00  0.00     0.049 A 
ATOM     35  H   UNL A   1      40.753  30.370  33.807  1.00  0.00     0.167 HD
ATOM     36  C   UNL A   1      42.471  30.504  36.066  1.00  0.00     0.074 A 
ATOM     37  C   UNL A   1      43.016  30.886  37.352  1.00  0.00     0.031 C 
ATOM     38  C   UNL A   1      43.007  29.557  35.259  1.00  0.00     0.037 A 
BRANCH  25  39
ATOM     39  C   UNL A   1      39.930  28.640  29.994  1.00  0.00     0.064 A 
ATOM     40  C   UNL A   1      39.353  27.362  29.934  1.00  0.00     0.173 A 
ATOM     41  C   UNL A   1      40.529  29.146  28.832  1.00  0.00     0.173 A 
ATOM     42  F   UNL A   1      38.775  26.829  31.021  1.00  0.00    -0.203 F 
ATOM     43  C   UNL A   1      39.396  26.611  28.762  1.00  0.00     0.198 A 
ATOM     44  C   UNL A   1      40.552  28.401  27.656  1.00  0.00     0.198 A 
ATOM     45  F   UNL A   1      41.086  30.366  28.837  1.00  0.00    -0.203 F 
ATOM     46  F   UNL A   1      38.871  25.377  28.738  1.00  0.00    -0.200 F 
ATOM     47  C   UNL A   1      39.996  27.130  27.625  1.00  0.00     0.200 A 
ATOM     48  F   UNL A   1      41.116  28.910  26.552  1.00  0.00    -0.200 F 
ATOM     49  F   UNL A   1      40.040  26.405  26.499  1.00  0.00    -0.200 F 
ENDBRANCH  25  39
BRANCH  26  50
ATOM     50  C   UNL A   1      40.253  33.868  38.494  1.00  0.00     0.064 A 
ATOM     51  C   UNL A   1      41.017  35.042  38.552  1.00  0.00     0.173 A 
ATOM     52  C   UNL A   1      39.580  33.466  39.655  1.00  0.00     0.173 A 
ATOM     53  F   UNL A   1      41.683  35.466  37.468  1.00  0.00    -0.203 F 
ATOM     54  C   UNL A   1      41.122  35.773  39.734  1.00  0.00     0.198 A 
ATOM     55  C   UNL A   1      39.663  34.213  40.828  1.00  0.00     0.198 A 
ATOM     56  F   UNL A   1      38.821  32.360  39.641  1.00  0.00    -0.203 F 
ATOM     57  F   UNL A   1      41.888  36.872  39.772  1.00  0.00    -0.200 F 
ATOM     58  C   UNL A   1      40.441  35.361  40.869  1.00  0.00     0.200 A 
ATOM     59  F   UNL A   1      38.985  33.826  41.916  1.00  0.00    -0.200 F 
ATOM     60  F   UNL A   1      40.531  36.073  42.000  1.00  0.00    -0.200 F 
ENDBRANCH  26  50
BRANCH  38  61
ATOM     61  C   UNL A   1      44.256  28.877  35.732  1.00  0.00     0.064 A 
ATOM     62  C   UNL A   1      44.182  27.726  36.529  1.00  0.00     0.173 A 
ATOM     63  C   UNL A   1      45.525  29.400  35.444  1.00  0.00     0.173 A 
ATOM     64  F   UNL A   1      42.990  27.192  36.836  1.00  0.00    -0.203 F 
ATOM     65  C   UNL A   1      45.334  27.128  37.029  1.00  0.00     0.198 A 
ATOM     66  C   UNL A   1      46.676  28.785  35.925  1.00  0.00     0.198 A 
ATOM     67  F   UNL A   1      45.646  30.492  34.674  1.00  0.00    -0.203 F 
ATOM     68  F   UNL A   1      45.238  26.043  37.811  1.00  0.00    -0.200 F 
ATOM     69  C   UNL A   1      46.580  27.654  36.725  1.00  0.00     0.200 A 
ATOM     70  F   UNL A   1      47.881  29.281  35.611  1.00  0.00    -0.200 F 
ATOM     71  F   UNL A   1      47.689  27.070  37.197  1.00  0.00    -0.200 F 
ENDBRANCH  38  61
ENDBRANCH  12  13
ENDBRANCH   5   7
ENDBRANCH   2   3
ENDBRANCH   1   2
BRANCH   1  72
ATOM     72  C   UNL A   1      34.553  33.613  28.901  1.00  0.00     0.023 C 
BRANCH  72  73
ATOM     73  C   UNL A   1      34.367  32.140  28.533  1.00  0.00     0.116 C 
BRANCH  73  74
ATOM     74  N   UNL A   1      33.271  31.969  27.596  1.00  0.00    -0.356 N 
ATOM     75  C   UNL A   1      32.774  30.824  27.043  1.00  0.00     0.223 C 
ATOM     76  H   UNL A   1      32.820  32.799  27.319  1.00  0.00     0.163 HD
ATOM     77  O   UNL A   1      31.946  30.928  26.139  1.00  0.00    -0.275 OA
BRANCH  75  78
ATOM     78  C   UNL A   1      33.198  29.481  27.618  1.00  0.00     0.082 C 
ATOM     79  C   UNL A   1      34.413  28.899  26.879  1.00  0.00     0.035 C 
ATOM     80  C   UNL A   1      31.980  28.536  27.626  1.00  0.00     0.035 C 
ATOM     81  C   UNL A   1      34.059  28.214  25.564  1.00  0.00     0.120 C 
ATOM     82  C   UNL A   1      31.698  27.920  26.250  1.00  0.00     0.120 C 
ATOM     83  N   UNL A   1      32.932  27.335  25.786  1.00  0.00    -0.341 N 
BRANCH  83  84
ATOM     84  C   UNL A   1      32.987  26.061  25.300  1.00  0.00     0.226 A 
ATOM     85  N   UNL A   1      34.178  25.449  25.324  1.00  0.00    -0.213 NA
ATOM     86  N   UNL A   1      31.871  25.477  24.849  1.00  0.00    -0.212 NA
ATOM     87  C   UNL A   1      34.249  24.188  24.867  1.00  0.00     0.076 A 
ATOM     88  C   UNL A   1      31.970  24.232  24.325  1.00  0.00     0.112 A 
ATOM     89  C   UNL A   1      33.164  23.537  24.321  1.00  0.00     0.059 A 
BRANCH  87  90
ATOM     90  C   UNL A   1      35.549  23.531  25.039  1.00  0.00     0.001 A 
ATOM     91  C   UNL A   1      35.876  22.355  24.343  1.00  0.00     0.013 A 
ATOM     92  C   UNL A   1      36.501  24.073  25.925  1.00  0.00     0.013 A 
ATOM     93  C   UNL A   1      37.112  21.733  24.537  1.00  0.00     0.040 A 
ATOM     94  C   UNL A   1      37.732  23.446  26.126  1.00  0.00     0.040 A 
ATOM     95  C   UNL A   1      38.025  22.281  25.430  1.00  0.00     0.123 A 
ATOM     96  F   UNL A   1      39.205  21.677  25.621  1.00  0.00    -0.207 F 
ENDBRANCH  87  90
BRANCH  88  97
ATOM     97  C   UNL A   1      30.733  23.613  23.713  1.00  0.00     0.391 C 
ATOM     98  F   UNL A   1      29.905  24.522  23.126  1.00  0.00    -0.203 F 
ATOM     99  F   UNL A   1      31.020  22.685  22.754  1.00  0.00    -0.203 F 
ENDBRANCH  88  97
ENDBRANCH  83  84
ENDBRANCH  75  78
ENDBRANCH  73  74
ENDBRANCH  72  73
ENDBRANCH   1  72
TORSDOF 14
ENDMDL
MODEL 2
REMARK VINA RESULT:     -12.3      5.521      9.815
REMARK SMILES O=C(NCCCCNC(=O)C1CCN(c2nc(-c3ccc(F)cc3)cc(C(F)F)n2)CC1)c1ccc(-c2c3nc(c(-c4c(F)c(F)c(F)c(F)c4F)c4ccc([nH]4)c(-c4c(F)c(F)c(F)c(F)c4F)c4nc(c(-c5c(F)c(F)c(F)c(F)c5F)c5ccc2[nH]5)C=C4)C=C3)cc1
REMARK SMILES IDX 5 1 4 2 3 3 1 4 2 5 33 7 34 8 95 9 35 10 94 11 36 12 37 13
REMARK SMILES IDX 38 14 88 15 39 16 93 17 87 18 89 19 40 20 92 21 86 22 85 23
REMARK SMILES IDX 41 25 73 26 53 27 72 28 54 29 57 30 71 31 90 32 55 33 56 34
REMARK SMILES IDX 70 36 91 37 58 38 42 39 43 40 51 41 44 42 45 43 49 44 52 45
REMARK SMILES IDX 46 46 47 47 50 48 48 49 74 50 75 51 83 52 76 53 77 54 81 55
REMARK SMILES IDX 84 56 78 57 79 58 82 59 80 60 59 61 60 62 68 63 61 64 62 65
REMARK SMILES IDX 66 66 69 67 63 68 64 69 67 70 65 71 6 72 7 73 8 74 9 75
REMARK SMILES IDX 10 77 11 78 12 79 32 80 13 81 31 82 14 83 15 84 16 85 30 86
REMARK SMILES IDX 17 87 26 88 25 89 18 90 19 91 24 92 20 93 23 94 21 95 22 96
REMARK SMILES IDX 27 97 28 98 29 99
REMARK H PARENT 3 6 89 24 57 35 8 76
REMARK Flexibility Score: inf
ROOT
ATOM      1  C   UNL A   1      35.186  21.983  26.166  1.00  0.00     0.023 C 
ENDROOT
BRANCH   1   2
ATOM      2  C   UNL A   1      36.586  22.425  25.756  1.00  0.00     0.116 C 
BRANCH   2   3
ATOM      3  N   UNL A   1      37.560  21.345  25.791  1.00  0.00    -0.352 N 
ATOM      4  O   UNL A   1      39.606  20.407  25.966  1.00  0.00    -0.269 OA
ATOM      5  C   UNL A   1      38.896  21.400  26.105  1.00  0.00     0.251 C 
ATOM      6  H   UNL A   1      37.213  20.453  25.557  1.00  0.00     0.163 HD
BRANCH   5   7
ATOM      7  C   UNL A   1      39.487  22.668  26.584  1.00  0.00     0.039 A 
ATOM      8  C   UNL A   1      39.130  23.886  26.002  1.00  0.00     0.014 A 
ATOM      9  C   UNL A   1      40.411  22.634  27.633  1.00  0.00     0.014 A 
ATOM     10  C   UNL A   1      39.792  25.050  26.377  1.00  0.00     0.010 A 
ATOM     11  C   UNL A   1      41.021  23.818  28.061  1.00  0.00     0.010 A 
ATOM     12  C   UNL A   1      40.736  25.031  27.417  1.00  0.00    -0.014 A 
BRANCH  12  13
ATOM     13  C   UNL A   1      41.365  26.305  27.848  1.00  0.00     0.031 A 
ATOM     14  C   UNL A   1      42.800  26.614  27.526  1.00  0.00     0.074 A 
ATOM     15  C   UNL A   1      40.604  27.213  28.489  1.00  0.00     0.049 A 
ATOM     16  N   UNL A   1      43.489  27.695  27.795  1.00  0.00    -0.248 NA
ATOM     17  C   UNL A   1      43.565  25.580  26.813  1.00  0.00     0.031 C 
ATOM     18  C   UNL A   1      39.198  27.023  28.850  1.00  0.00     0.029 A 
ATOM     19  N   UNL A   1      40.889  28.483  28.923  1.00  0.00    -0.354 N 
ATOM     20  C   UNL A   1      44.763  27.471  27.293  1.00  0.00     0.074 A 
ATOM     21  C   UNL A   1      44.765  26.140  26.726  1.00  0.00     0.031 C 
ATOM     22  C   UNL A   1      38.726  28.154  29.393  1.00  0.00     0.029 A 
ATOM     23  C   UNL A   1      39.810  29.127  29.474  1.00  0.00     0.049 A 
ATOM     24  H   UNL A   1      41.781  28.891  28.847  1.00  0.00     0.167 HD
ATOM     25  C   UNL A   1      45.828  28.309  27.298  1.00  0.00     0.037 A 
ATOM     26  C   UNL A   1      39.703  30.365  29.994  1.00  0.00     0.037 A 
ATOM     27  C   UNL A   1      45.815  29.639  27.850  1.00  0.00     0.049 A 
ATOM     28  C   UNL A   1      40.913  31.254  30.016  1.00  0.00     0.074 A 
ATOM     29  C   UNL A   1      46.846  30.563  27.894  1.00  0.00     0.029 A 
ATOM     30  N   UNL A   1      44.717  30.238  28.448  1.00  0.00    -0.354 N 
ATOM     31  N   UNL A   1      42.111  31.030  29.537  1.00  0.00    -0.248 NA
ATOM     32  C   UNL A   1      40.757  32.566  30.660  1.00  0.00     0.031 C 
ATOM     33  C   UNL A   1      46.383  31.706  28.550  1.00  0.00     0.029 A 
ATOM     34  C   UNL A   1      45.051  31.513  28.877  1.00  0.00     0.049 A 
ATOM     35  H   UNL A   1      43.832  29.820  28.554  1.00  0.00     0.167 HD
ATOM     36  C   UNL A   1      42.849  32.171  29.809  1.00  0.00     0.074 A 
ATOM     37  C   UNL A   1      41.958  33.098  30.476  1.00  0.00     0.031 C 
ATOM     38  C   UNL A   1      44.151  32.425  29.535  1.00  0.00     0.037 A 
BRANCH  25  39
ATOM     39  C   UNL A   1      47.110  27.827  26.684  1.00  0.00     0.064 A 
ATOM     40  C   UNL A   1      47.322  27.939  25.301  1.00  0.00     0.173 A 
ATOM     41  C   UNL A   1      48.078  27.158  27.446  1.00  0.00     0.173 A 
ATOM     42  F   UNL A   1      46.421  28.563  24.527  1.00  0.00    -0.203 F 
ATOM     43  C   UNL A   1      48.447  27.381  24.702  1.00  0.00     0.198 A 
ATOM     44  C   UNL A   1      49.213  26.619  26.846  1.00  0.00     0.198 A 
ATOM     45  F   UNL A   1      47.924  27.033  28.772  1.00  0.00    -0.203 F 
ATOM     46  F   UNL A   1      48.611  27.467  23.373  1.00  0.00    -0.200 F 
ATOM     47  C   UNL A   1      49.391  26.720  25.474  1.00  0.00     0.200 A 
ATOM     48  F   UNL A   1      50.133  25.996  27.595  1.00  0.00    -0.200 F 
ATOM     49  F   UNL A   1      50.472  26.180  24.896  1.00  0.00    -0.200 F 
ENDBRANCH  25  39
BRANCH  26  50
ATOM     50  C   UNL A   1      38.396  30.832  30.521  1.00  0.00     0.064 A 
ATOM     51  C   UNL A   1      37.390  31.303  29.665  1.00  0.00     0.173 A 
ATOM     52  C   UNL A   1      38.138  30.837  31.899  1.00  0.00     0.173 A 
ATOM     53  F   UNL A   1      37.590  31.322  28.339  1.00  0.00    -0.203 F 
ATOM     54  C   UNL A   1      36.183  31.783  30.169  1.00  0.00     0.198 A 
ATOM     55  C   UNL A   1      36.920  31.290  32.399  1.00  0.00     0.198 A 
ATOM     56  F   UNL A   1      39.062  30.377  32.755  1.00  0.00    -0.203 F 
ATOM     57  F   UNL A   1      35.254  32.262  29.332  1.00  0.00    -0.200 F 
ATOM     58  C   UNL A   1      35.947  31.772  31.535  1.00  0.00     0.200 A 
ATOM     59  F   UNL A   1      36.686  31.255  33.718  1.00  0.00    -0.200 F 
ATOM     60  F   UNL A   1      34.781  32.219  32.018  1.00  0.00    -0.200 F 
ENDBRANCH  26  50
BRANCH  38  61
ATOM     61  C   UNL A   1      44.691  33.764  29.938  1.00  0.00     0.064 A 
ATOM     62  C   UNL A   1      44.647  34.846  29.048  1.00  0.00     0.173 A 
ATOM     63  C   UNL A   1      45.305  33.958  31.184  1.00  0.00     0.173 A 
ATOM     64  F   UNL A   1      44.075  34.708  27.843  1.00  0.00    -0.203 F 
ATOM     65  C   UNL A   1      45.206  36.074  29.388  1.00  0.00     0.198 A 
ATOM     66  C   UNL A   1      45.842  35.193  31.530  1.00  0.00     0.198 A 
ATOM     67  F   UNL A   1      45.359  32.955  32.073  1.00  0.00    -0.203 F 
ATOM     68  F   UNL A   1      45.176  37.089  28.512  1.00  0.00    -0.200 F 
ATOM     69  C   UNL A   1      45.800  36.249  30.629  1.00  0.00     0.200 A 
ATOM     70  F   UNL A   1      46.394  35.368  32.738  1.00  0.00    -0.200 F 
ATOM     71  F   UNL A   1      46.328  37.435  30.960  1.00  0.00    -0.200 F 
ENDBRANCH  38  61
ENDBRANCH  12  13
ENDBRANCH   5   7
ENDBRANCH   2   3
ENDBRANCH   1   2
BRANCH   1  72
ATOM     72  C   UNL A   1      34.641  20.760  25.420  1.00  0.00     0.023 C 
BRANCH  72  73
ATOM     73  C   UNL A   1      33.519  21.073  24.428  1.00  0.00     0.116 C 
BRANCH  73  74
ATOM     74  N   UNL A   1      32.279  21.381  25.119  1.00  0.00    -0.356 N 
ATOM     75  C   UNL A   1      31.586  22.556  25.173  1.00  0.00     0.223 C 
ATOM     76  H   UNL A   1      31.880  20.634  25.621  1.00  0.00     0.163 HD
ATOM     77  O   UNL A   1      30.644  22.637  25.960  1.00  0.00    -0.275 OA
BRANCH  75  78
ATOM     78  C   UNL A   1      31.952  23.675  24.210  1.00  0.00     0.082 C 
ATOM     79  C   UNL A   1      33.133  24.512  24.726  1.00  0.00     0.035 C 
ATOM     80  C   UNL A   1      30.692  24.514  23.921  1.00  0.00     0.035 C 
ATOM     81  C   UNL A   1      32.739  25.550  25.769  1.00  0.00     0.120 C 
ATOM     82  C   UNL A   1      30.371  25.510  25.043  1.00  0.00     0.120 C 
ATOM     83  N   UNL A   1      31.574  26.265  25.296  1.00  0.00    -0.341 N 
BRANCH  83  84
ATOM     84  C   UNL A   1      31.566  27.628  25.366  1.00  0.00     0.226 A 
ATOM     85  N   UNL A   1      30.846  28.284  24.448  1.00  0.00    -0.213 NA
ATOM     86  N   UNL A   1      32.246  28.243  26.340  1.00  0.00    -0.212 NA
ATOM     87  C   UNL A   1      30.811  29.625  24.510  1.00  0.00     0.076 A 
ATOM     88  C   UNL A   1      32.261  29.597  26.350  1.00  0.00     0.112 A 
ATOM     89  C   UNL A   1      31.536  30.340  25.438  1.00  0.00     0.059 A 
BRANCH  87  90
ATOM     90  C   UNL A   1      29.903  30.274  23.559  1.00  0.00     0.001 A 
ATOM     91  C   UNL A   1      29.795  29.836  22.229  1.00  0.00     0.013 A 
ATOM     92  C   UNL A   1      29.117  31.369  23.971  1.00  0.00     0.013 A 
ATOM     93  C   UNL A   1      28.938  30.482  21.334  1.00  0.00     0.040 A 
ATOM     94  C   UNL A   1      28.269  32.020  23.074  1.00  0.00     0.040 A 
ATOM     95  C   UNL A   1      28.189  31.571  21.763  1.00  0.00     0.123 A 
ATOM     96  F   UNL A   1      27.376  32.194  20.899  1.00  0.00    -0.207 F 
ENDBRANCH  87  90
BRANCH  88  97
ATOM     97  C   UNL A   1      33.118  30.296  27.382  1.00  0.00     0.391 C 
ATOM     98  F   UNL A   1      34.454  30.082  27.214  1.00  0.00    -0.203 F 
ATOM     99  F   UNL A   1      32.949  31.651  27.388  1.00  0.00    -0.203 F 
ENDBRANCH  88  97
ENDBRANCH  83  84
ENDBRANCH  75  78
ENDBRANCH  73  74
ENDBRANCH  72  73
ENDBRANCH   1  72
TORSDOF 14
ENDMDL
MODEL 3
REMARK VINA RESULT:     -12.2      5.446      9.723
REMARK SMILES O=C(NCCCCNC(=O)C1CCN(c2nc(-c3ccc(F)cc3)cc(C(F)F)n2)CC1)c1ccc(-c2c3nc(c(-c4c(F)c(F)c(F)c(F)c4F)c4ccc([nH]4)c(-c4c(F)c(F)c(F)c(F)c4F)c4nc(c(-c5c(F)c(F)c(F)c(F)c5F)c5ccc2[nH]5)C=C4)C=C3)cc1
REMARK SMILES IDX 5 1 4 2 3 3 1 4 2 5 33 7 34 8 95 9 35 10 94 11 36 12 37 13
REMARK SMILES IDX 38 14 88 15 39 16 93 17 87 18 89 19 40 20 92 21 86 22 85 23
REMARK SMILES IDX 41 25 73 26 53 27 72 28 54 29 57 30 71 31 90 32 55 33 56 34
REMARK SMILES IDX 70 36 91 37 58 38 42 39 43 40 51 41 44 42 45 43 49 44 52 45
REMARK SMILES IDX 46 46 47 47 50 48 48 49 74 50 75 51 83 52 76 53 77 54 81 55
REMARK SMILES IDX 84 56 78 57 79 58 82 59 80 60 59 61 60 62 68 63 61 64 62 65
REMARK SMILES IDX 66 66 69 67 63 68 64 69 67 70 65 71 6 72 7 73 8 74 9 75
REMARK SMILES IDX 10 77 11 78 12 79 32 80 13 81 31 82 14 83 15 84 16 85 30 86
REMARK SMILES IDX 17 87 26 88 25 89 18 90 19 91 24 92 20 93 23 94 21 95 22 96
REMARK SMILES IDX 27 97 28 98 29 99
REMARK H PARENT 3 6 89 24 57 35 8 76
REMARK Flexibility Score: inf
ROOT
ATOM      1  C   UNL A   1      34.478  21.804  26.827  1.00  0.00     0.023 C 
ENDROOT
BRANCH   1   2
ATOM      2  C   UNL A   1      35.834  22.386  26.446  1.00  0.00     0.116 C 
BRANCH   2   3
ATOM      3  N   UNL A   1      36.764  21.388  25.943  1.00  0.00    -0.352 N 
ATOM      4  O   UNL A   1      38.751  20.577  25.241  1.00  0.00    -0.269 OA
ATOM      5  C   UNL A   1      38.128  21.475  25.800  1.00  0.00     0.251 C 
ATOM      6  H   UNL A   1      36.361  20.533  25.667  1.00  0.00     0.163 HD
BRANCH   5   7
ATOM      7  C   UNL A   1      38.844  22.671  26.296  1.00  0.00     0.039 A 
ATOM      8  C   UNL A   1      38.534  23.942  25.807  1.00  0.00     0.014 A 
ATOM      9  C   UNL A   1      39.839  22.514  27.265  1.00  0.00     0.014 A 
ATOM     10  C   UNL A   1      39.305  25.034  26.188  1.00  0.00     0.010 A 
ATOM     11  C   UNL A   1      40.564  23.627  27.704  1.00  0.00     0.010 A 
ATOM     12  C   UNL A   1      40.321  24.892  27.147  1.00  0.00    -0.014 A 
BRANCH  12  13
ATOM     13  C   UNL A   1      41.071  26.094  27.592  1.00  0.00     0.031 A 
ATOM     14  C   UNL A   1      42.510  26.298  27.212  1.00  0.00     0.074 A 
ATOM     15  C   UNL A   1      40.417  27.033  28.301  1.00  0.00     0.049 A 
ATOM     16  N   UNL A   1      43.297  27.309  27.485  1.00  0.00    -0.248 NA
ATOM     17  C   UNL A   1      43.155  25.234  26.427  1.00  0.00     0.031 C 
ATOM     18  C   UNL A   1      39.018  26.943  28.723  1.00  0.00     0.029 A 
ATOM     19  N   UNL A   1      40.825  28.258  28.766  1.00  0.00    -0.354 N 
ATOM     20  C   UNL A   1      44.525  27.003  26.915  1.00  0.00     0.074 A 
ATOM     21  C   UNL A   1      44.392  25.699  26.301  1.00  0.00     0.031 C 
ATOM     22  C   UNL A   1      38.666  28.086  29.327  1.00  0.00     0.029 A 
ATOM     23  C   UNL A   1      39.828  28.965  29.391  1.00  0.00     0.049 A 
ATOM     24  H   UNL A   1      41.743  28.596  28.660  1.00  0.00     0.167 HD
ATOM     25  C   UNL A   1      45.654  27.752  26.898  1.00  0.00     0.037 A 
ATOM     26  C   UNL A   1      39.847  30.186  29.959  1.00  0.00     0.037 A 
ATOM     27  C   UNL A   1      45.776  29.056  27.496  1.00  0.00     0.049 A 
ATOM     28  C   UNL A   1      41.126  30.974  29.953  1.00  0.00     0.074 A 
ATOM     29  C   UNL A   1      46.880  29.892  27.523  1.00  0.00     0.029 A 
ATOM     30  N   UNL A   1      44.758  29.717  28.168  1.00  0.00    -0.354 N 
ATOM     31  N   UNL A   1      42.278  30.673  29.409  1.00  0.00    -0.248 NA
ATOM     32  C   UNL A   1      41.108  32.267  30.650  1.00  0.00     0.031 C 
ATOM     33  C   UNL A   1      46.543  31.042  28.241  1.00  0.00     0.029 A 
ATOM     34  C   UNL A   1      45.215  30.944  28.625  1.00  0.00     0.049 A 
ATOM     35  H   UNL A   1      43.848  29.368  28.301  1.00  0.00     0.167 HD
ATOM     36  C   UNL A   1      43.120  31.740  29.685  1.00  0.00     0.074 A 
ATOM     37  C   UNL A   1      42.339  32.708  30.427  1.00  0.00     0.031 C 
ATOM     38  C   UNL A   1      44.424  31.899  29.357  1.00  0.00     0.037 A 
BRANCH  25  39
ATOM     39  C   UNL A   1      46.862  27.193  26.205  1.00  0.00     0.064 A 
ATOM     40  C   UNL A   1      47.803  26.434  26.918  1.00  0.00     0.173 A 
ATOM     41  C   UNL A   1      47.143  27.499  24.866  1.00  0.00     0.173 A 
ATOM     42  F   UNL A   1      47.585  26.121  28.205  1.00  0.00    -0.203 F 
ATOM     43  C   UNL A   1      48.991  26.020  26.320  1.00  0.00     0.198 A 
ATOM     44  C   UNL A   1      48.322  27.065  24.266  1.00  0.00     0.198 A 
ATOM     45  F   UNL A   1      46.271  28.214  24.141  1.00  0.00    -0.203 F 
ATOM     46  F   UNL A   1      49.892  25.328  27.032  1.00  0.00    -0.200 F 
ATOM     47  C   UNL A   1      49.249  26.336  24.995  1.00  0.00     0.200 A 
ATOM     48  F   UNL A   1      48.564  27.357  22.980  1.00  0.00    -0.200 F 
ATOM     49  F   UNL A   1      50.394  25.941  24.422  1.00  0.00    -0.200 F 
ENDBRANCH  25  39
BRANCH  26  50
ATOM     50  C   UNL A   1      38.608  30.735  30.565  1.00  0.00     0.064 A 
ATOM     51  C   UNL A   1      38.391  30.689  31.950  1.00  0.00     0.173 A 
ATOM     52  C   UNL A   1      37.605  31.296  29.764  1.00  0.00     0.173 A 
ATOM     53  F   UNL A   1      39.320  30.158  32.759  1.00  0.00    -0.203 F 
ATOM     54  C   UNL A   1      37.207  31.164  32.508  1.00  0.00     0.198 A 
ATOM     55  C   UNL A   1      36.433  31.796  30.326  1.00  0.00     0.198 A 
ATOM     56  F   UNL A   1      37.777  31.380  28.436  1.00  0.00    -0.203 F 
ATOM     57  F   UNL A   1      37.009  31.074  33.830  1.00  0.00    -0.200 F 
ATOM     58  C   UNL A   1      36.231  31.721  31.697  1.00  0.00     0.200 A 
ATOM     59  F   UNL A   1      35.503  32.357  29.542  1.00  0.00    -0.200 F 
ATOM     60  F   UNL A   1      35.098  32.191  32.236  1.00  0.00    -0.200 F 
ENDBRANCH  26  50
BRANCH  38  61
ATOM     61  C   UNL A   1      45.090  33.173  29.781  1.00  0.00     0.064 A 
ATOM     62  C   UNL A   1      45.719  33.265  31.030  1.00  0.00     0.173 A 
ATOM     63  C   UNL A   1      45.052  34.319  28.975  1.00  0.00     0.173 A 
ATOM     64  F   UNL A   1      45.775  32.197  31.840  1.00  0.00    -0.203 F 
ATOM     65  C   UNL A   1      46.280  34.463  31.462  1.00  0.00     0.198 A 
ATOM     66  C   UNL A   1      45.636  35.509  29.398  1.00  0.00     0.198 A 
ATOM     67  F   UNL A   1      44.473  34.275  27.765  1.00  0.00    -0.203 F 
ATOM     68  F   UNL A   1      46.854  34.536  32.671  1.00  0.00    -0.200 F 
ATOM     69  C   UNL A   1      46.242  35.583  30.645  1.00  0.00     0.200 A 
ATOM     70  F   UNL A   1      45.619  36.584  28.598  1.00  0.00    -0.200 F 
ATOM     71  F   UNL A   1      46.793  36.733  31.056  1.00  0.00    -0.200 F 
ENDBRANCH  38  61
ENDBRANCH  12  13
ENDBRANCH   5   7
ENDBRANCH   2   3
ENDBRANCH   1   2
BRANCH   1  72
ATOM     72  C   UNL A   1      34.020  20.609  25.983  1.00  0.00     0.023 C 
BRANCH  72  73
ATOM     73  C   UNL A   1      32.924  20.935  24.967  1.00  0.00     0.116 C 
BRANCH  73  74
ATOM     74  N   UNL A   1      31.720  21.406  25.627  1.00  0.00    -0.356 N 
ATOM     75  C   UNL A   1      31.163  22.653  25.629  1.00  0.00     0.223 C 
ATOM     76  H   UNL A   1      31.233  20.728  26.150  1.00  0.00     0.163 HD
ATOM     77  O   UNL A   1      30.228  22.869  26.398  1.00  0.00    -0.275 OA
BRANCH  75  78
ATOM     78  C   UNL A   1      31.664  23.686  24.632  1.00  0.00     0.082 C 
ATOM     79  C   UNL A   1      32.856  24.484  25.183  1.00  0.00     0.035 C 
ATOM     80  C   UNL A   1      30.482  24.577  24.203  1.00  0.00     0.035 C 
ATOM     81  C   UNL A   1      32.455  25.607  26.133  1.00  0.00     0.120 C 
ATOM     82  C   UNL A   1      30.146  25.658  25.239  1.00  0.00     0.120 C 
ATOM     83  N   UNL A   1      31.373  26.357  25.535  1.00  0.00    -0.341 N 
BRANCH  83  84
ATOM     84  C   UNL A   1      31.445  27.719  25.525  1.00  0.00     0.226 A 
ATOM     85  N   UNL A   1      30.748  28.362  24.580  1.00  0.00    -0.213 NA
ATOM     86  N   UNL A   1      32.177  28.349  26.452  1.00  0.00    -0.212 NA
ATOM     87  C   UNL A   1      30.791  29.704  24.564  1.00  0.00     0.076 A 
ATOM     88  C   UNL A   1      32.269  29.698  26.382  1.00  0.00     0.112 A 
ATOM     89  C   UNL A   1      31.573  30.428  25.438  1.00  0.00     0.059 A 
BRANCH  87  90
ATOM     90  C   UNL A   1      29.906  30.350  23.590  1.00  0.00     0.001 A 
ATOM     91  C   UNL A   1      29.121  31.463  23.935  1.00  0.00     0.013 A 
ATOM     92  C   UNL A   1      29.823  29.852  22.275  1.00  0.00     0.013 A 
ATOM     93  C   UNL A   1      28.268  32.051  22.996  1.00  0.00     0.040 A 
ATOM     94  C   UNL A   1      28.965  30.434  21.340  1.00  0.00     0.040 A 
ATOM     95  C   UNL A   1      28.194  31.528  21.711  1.00  0.00     0.123 A 
ATOM     96  F   UNL A   1      27.369  32.088  20.817  1.00  0.00    -0.207 F 
ENDBRANCH  87  90
BRANCH  88  97
ATOM     97  C   UNL A   1      33.183  30.404  27.360  1.00  0.00     0.391 C 
ATOM     98  F   UNL A   1      34.507  30.189  27.117  1.00  0.00    -0.203 F 
ATOM     99  F   UNL A   1      33.013  31.759  27.367  1.00  0.00    -0.203 F 
ENDBRANCH  88  97
ENDBRANCH  83  84
ENDBRANCH  75  78
ENDBRANCH  73  74
ENDBRANCH  72  73
ENDBRANCH   1  72
TORSDOF 14
ENDMDL
