MODEL 1
REMARK VINA RESULT:     -12.1      0.000      0.000
REMARK SMILES O=C(COc1ccc(Br)cc1)NC(=S)Nc1ccc(Cl)cc1C(=O)NCCCCNC(=O)c1ccc(-c2c3nc(c(-c4c(F)c(F)c(F)c(F)c4F)c4ccc([nH]4)c(-c4c(F)c(F)c(F)c(F)c4F)c4nc(c(-c5c(F)c(F)c(F)c(F)c5F)c5ccc2[nH]5)C=C4)C=C3)cc1
REMARK SMILES IDX 23 1 24 2 25 3 22 5 16 6 17 7 18 8 21 9 19 10 20 11 15 12
REMARK SMILES IDX 13 14 14 15 12 16 1 17 2 18 3 20 4 21 5 22 6 23 11 24 7 25
REMARK SMILES IDX 10 26 8 27 9 28 26 29 27 30 28 31 29 32 30 33 31 34 32 36
REMARK SMILES IDX 33 37 34 38 95 39 35 40 94 41 36 42 37 43 38 44 88 45 39 46
REMARK SMILES IDX 93 47 87 48 89 49 40 50 92 51 86 52 85 53 41 55 73 56 53 57
REMARK SMILES IDX 72 58 54 59 57 60 71 61 90 62 55 63 56 64 70 66 91 67 58 68
REMARK SMILES IDX 42 69 43 70 51 71 44 72 45 73 49 74 52 75 46 76 47 77 50 78
REMARK SMILES IDX 48 79 74 80 75 81 83 82 76 83 77 84 81 85 84 86 78 87 79 88
REMARK SMILES IDX 82 89 80 90 59 91 60 92 68 93 61 94 62 95 66 96 69 97 63 98
REMARK SMILES IDX 64 99 67 100 65 101
REMARK H PARENT 25 4 15 13 12 19 30 35 89 54 57 65
REMARK Flexibility Score: inf
ROOT
ATOM      1  C   UNL A   1      29.503  26.788  24.155  1.00  0.00     0.253 C 
ATOM      2  O   UNL A   1      28.471  26.126  24.001  1.00  0.00    -0.269 OA
ATOM      3  N   UNL A   1      30.385  26.287  25.084  1.00  0.00    -0.352 N 
ATOM      4  H   UNL A   1      30.063  25.478  25.543  1.00  0.00     0.163 HD
ENDROOT
BRANCH   1   5
ATOM      5  C   UNL A   1      29.641  28.048  23.354  1.00  0.00     0.064 A 
ATOM      6  C   UNL A   1      30.463  28.320  22.241  1.00  0.00     0.053 A 
ATOM      7  C   UNL A   1      30.374  29.563  21.575  1.00  0.00     0.028 A 
ATOM      8  C   UNL A   1      29.543  30.573  22.045  1.00  0.00     0.023 A 
ATOM      9  C   UNL A   1      28.818  29.101  23.819  1.00  0.00     0.036 A 
ATOM     10  C   UNL A   1      28.787  30.345  23.185  1.00  0.00     0.041 A 
ATOM     11  Cl  UNL A   1      27.807  31.611  23.815  1.00  0.00    -0.084 Cl
BRANCH   6  12
ATOM     12  N   UNL A   1      31.395  27.414  21.722  1.00  0.00    -0.332 N 
ATOM     13  H   UNL A   1      31.156  26.987  20.867  1.00  0.00     0.169 HD
BRANCH  12  14
ATOM     14  C   UNL A   1      32.594  27.055  22.256  1.00  0.00     0.177 C 
ATOM     15  S   UNL A   1      33.648  28.255  22.754  1.00  0.00    -0.040 S 
BRANCH  14  16
ATOM     16  N   UNL A   1      33.045  25.752  22.299  1.00  0.00    -0.300 N 
ATOM     17  O   UNL A   1      31.247  24.332  22.795  1.00  0.00    -0.271 OA
ATOM     18  C   UNL A   1      32.433  24.510  22.536  1.00  0.00     0.264 C 
ATOM     19  H   UNL A   1      34.011  25.676  22.125  1.00  0.00     0.172 HD
BRANCH  18  20
ATOM     20  C   UNL A   1      33.358  23.300  22.355  1.00  0.00     0.329 C 
BRANCH  20  21
ATOM     21  O   UNL A   1      33.513  22.524  23.546  1.00  0.00    -0.484 OA
BRANCH  21  22
ATOM     22  C   UNL A   1      34.661  22.863  24.218  1.00  0.00     0.120 A 
ATOM     23  C   UNL A   1      34.595  23.094  25.593  1.00  0.00     0.047 A 
ATOM     24  C   UNL A   1      35.880  22.944  23.547  1.00  0.00     0.047 A 
ATOM     25  C   UNL A   1      35.735  23.494  26.290  1.00  0.00     0.019 A 
ATOM     26  C   UNL A   1      37.029  23.320  24.248  1.00  0.00     0.019 A 
ATOM     27  C   UNL A   1      36.947  23.607  25.613  1.00  0.00     0.018 A 
ATOM     28  Br  UNL A   1      38.494  24.153  26.554  1.00  0.00    -0.051 Br
ENDBRANCH  21  22
ENDBRANCH  20  21
ENDBRANCH  18  20
ENDBRANCH  14  16
ENDBRANCH  12  14
ENDBRANCH   6  12
ENDBRANCH   1   5
BRANCH   3  29
ATOM     29  C   UNL A   1      31.690  26.722  25.516  1.00  0.00     0.116 C 
BRANCH  29  30
ATOM     30  C   UNL A   1      31.791  27.194  26.963  1.00  0.00     0.023 C 
BRANCH  30  31
ATOM     31  C   UNL A   1      31.662  28.697  27.216  1.00  0.00     0.023 C 
BRANCH  31  32
ATOM     32  C   UNL A   1      32.558  29.625  26.399  1.00  0.00     0.116 C 
BRANCH  32  33
ATOM     33  N   UNL A   1      32.428  31.038  26.727  1.00  0.00    -0.352 N 
ATOM     34  C   UNL A   1      33.296  31.907  27.353  1.00  0.00     0.251 C 
ATOM     35  H   UNL A   1      31.573  31.442  26.455  1.00  0.00     0.163 HD
ATOM     36  O   UNL A   1      32.952  33.062  27.564  1.00  0.00    -0.269 OA
BRANCH  34  37
ATOM     37  C   UNL A   1      34.617  31.445  27.834  1.00  0.00     0.039 A 
ATOM     38  C   UNL A   1      35.654  32.379  27.939  1.00  0.00     0.014 A 
ATOM     39  C   UNL A   1      34.848  30.118  28.199  1.00  0.00     0.014 A 
ATOM     40  C   UNL A   1      36.868  32.017  28.526  1.00  0.00     0.010 A 
ATOM     41  C   UNL A   1      36.023  29.775  28.864  1.00  0.00     0.010 A 
ATOM     42  C   UNL A   1      37.037  30.728  29.057  1.00  0.00    -0.014 A 
BRANCH  42  43
ATOM     43  C   UNL A   1      38.238  30.367  29.857  1.00  0.00     0.031 A 
ATOM     44  C   UNL A   1      39.266  29.421  29.304  1.00  0.00     0.074 A 
ATOM     45  C   UNL A   1      38.351  30.814  31.124  1.00  0.00     0.049 A 
ATOM     46  N   UNL A   1      40.307  28.889  29.895  1.00  0.00    -0.248 NA
ATOM     47  C   UNL A   1      39.082  28.989  27.910  1.00  0.00     0.031 C 
ATOM     48  C   UNL A   1      37.397  31.695  31.801  1.00  0.00     0.029 A 
ATOM     49  N   UNL A   1      39.312  30.576  32.077  1.00  0.00    -0.354 N 
ATOM     50  C   UNL A   1      40.884  28.044  28.957  1.00  0.00     0.074 A 
ATOM     51  C   UNL A   1      40.053  28.097  27.774  1.00  0.00     0.031 C 
ATOM     52  C   UNL A   1      37.831  31.942  33.047  1.00  0.00     0.029 A 
ATOM     53  C   UNL A   1      39.069  31.204  33.274  1.00  0.00     0.049 A 
ATOM     54  H   UNL A   1      40.100  30.008  31.916  1.00  0.00     0.167 HD
ATOM     55  C   UNL A   1      42.015  27.305  29.066  1.00  0.00     0.037 A 
ATOM     56  C   UNL A   1      39.760  31.180  34.430  1.00  0.00     0.037 A 
ATOM     57  C   UNL A   1      42.862  27.281  30.229  1.00  0.00     0.049 A 
ATOM     58  C   UNL A   1      41.018  30.360  34.521  1.00  0.00     0.074 A 
ATOM     59  C   UNL A   1      44.064  26.618  30.409  1.00  0.00     0.029 A 
ATOM     60  N   UNL A   1      42.597  27.956  31.412  1.00  0.00    -0.354 N 
ATOM     61  N   UNL A   1      41.584  29.611  33.607  1.00  0.00    -0.248 NA
ATOM     62  C   UNL A   1      41.733  30.384  35.805  1.00  0.00     0.031 C 
ATOM     63  C   UNL A   1      44.509  26.864  31.713  1.00  0.00     0.029 A 
ATOM     64  C   UNL A   1      43.605  27.713  32.331  1.00  0.00     0.049 A 
ATOM     65  H   UNL A   1      41.810  28.524  31.574  1.00  0.00     0.167 HD
ATOM     66  C   UNL A   1      42.732  29.097  34.193  1.00  0.00     0.074 A 
ATOM     67  C   UNL A   1      42.789  29.628  35.539  1.00  0.00     0.031 C 
ATOM     68  C   UNL A   1      43.655  28.259  33.662  1.00  0.00     0.037 A 
BRANCH  55  69
ATOM     69  C   UNL A   1      42.407  26.467  27.884  1.00  0.00     0.064 A 
ATOM     70  C   UNL A   1      43.237  26.969  26.871  1.00  0.00     0.173 A 
ATOM     71  C   UNL A   1      41.969  25.138  27.776  1.00  0.00     0.173 A 
ATOM     72  F   UNL A   1      43.672  28.237  26.923  1.00  0.00    -0.203 F 
ATOM     73  C   UNL A   1      43.589  26.183  25.778  1.00  0.00     0.198 A 
ATOM     74  C   UNL A   1      42.348  24.346  26.696  1.00  0.00     0.198 A 
ATOM     75  F   UNL A   1      41.180  24.606  28.721  1.00  0.00    -0.203 F 
ATOM     76  F   UNL A   1      44.342  26.702  24.797  1.00  0.00    -0.200 F 
ATOM     77  C   UNL A   1      43.150  24.871  25.694  1.00  0.00     0.200 A 
ATOM     78  F   UNL A   1      41.932  23.073  26.621  1.00  0.00    -0.200 F 
ATOM     79  F   UNL A   1      43.492  24.115  24.641  1.00  0.00    -0.200 F 
ENDBRANCH  55  69
BRANCH  56  80
ATOM     80  C   UNL A   1      39.294  31.982  35.590  1.00  0.00     0.064 A 
ATOM     81  C   UNL A   1      38.432  31.423  36.545  1.00  0.00     0.173 A 
ATOM     82  C   UNL A   1      39.691  33.314  35.770  1.00  0.00     0.173 A 
ATOM     83  F   UNL A   1      38.007  30.159  36.402  1.00  0.00    -0.203 F 
ATOM     84  C   UNL A   1      37.970  32.171  37.625  1.00  0.00     0.198 A 
ATOM     85  C   UNL A   1      39.249  34.054  36.865  1.00  0.00     0.198 A 
ATOM     86  F   UNL A   1      40.518  33.893  34.888  1.00  0.00    -0.203 F 
ATOM     87  F   UNL A   1      37.115  31.625  38.499  1.00  0.00    -0.200 F 
ATOM     88  C   UNL A   1      38.384  33.485  37.788  1.00  0.00     0.200 A 
ATOM     89  F   UNL A   1      39.660  35.320  37.026  1.00  0.00    -0.200 F 
ATOM     90  F   UNL A   1      37.943  34.204  38.828  1.00  0.00    -0.200 F 
ENDBRANCH  56  80
BRANCH  68  91
ATOM     91  C   UNL A   1      44.826  27.893  34.524  1.00  0.00     0.064 A 
ATOM     92  C   UNL A   1      44.810  26.753  35.339  1.00  0.00     0.173 A 
ATOM     93  C   UNL A   1      45.994  28.670  34.500  1.00  0.00     0.173 A 
ATOM     94  F   UNL A   1      43.709  25.989  35.410  1.00  0.00    -0.203 F 
ATOM     95  C   UNL A   1      45.916  26.413  36.114  1.00  0.00     0.198 A 
ATOM     96  C   UNL A   1      47.107  28.314  35.255  1.00  0.00     0.198 A 
ATOM     97  F   UNL A   1      46.060  29.768  33.732  1.00  0.00    -0.203 F 
ATOM     98  F   UNL A   1      45.866  25.341  36.917  1.00  0.00    -0.200 F 
ATOM     99  C   UNL A   1      47.065  27.189  36.066  1.00  0.00     0.200 A 
ATOM    100  F   UNL A   1      48.220  29.058  35.199  1.00  0.00    -0.200 F 
ATOM    101  F   UNL A   1      48.131  26.856  36.807  1.00  0.00    -0.200 F 
ENDBRANCH  68  91
ENDBRANCH  42  43
ENDBRANCH  34  37
ENDBRANCH  32  33
ENDBRANCH  31  32
ENDBRANCH  30  31
ENDBRANCH  29  30
ENDBRANCH   3  29
TORSDOF 17
ENDMDL
MODEL 2
REMARK VINA RESULT:     -12.1      4.366      9.203
REMARK SMILES O=C(COc1ccc(Br)cc1)NC(=S)Nc1ccc(Cl)cc1C(=O)NCCCCNC(=O)c1ccc(-c2c3nc(c(-c4c(F)c(F)c(F)c(F)c4F)c4ccc([nH]4)c(-c4c(F)c(F)c(F)c(F)c4F)c4nc(c(-c5c(F)c(F)c(F)c(F)c5F)c5ccc2[nH]5)C=C4)C=C3)cc1
REMARK SMILES IDX 23 1 24 2 25 3 22 5 16 6 17 7 18 8 21 9 19 10 20 11 15 12
REMARK SMILES IDX 13 14 14 15 12 16 1 17 2 18 3 20 4 21 5 22 6 23 11 24 7 25
REMARK SMILES IDX 10 26 8 27 9 28 26 29 27 30 28 31 29 32 30 33 31 34 32 36
REMARK SMILES IDX 33 37 34 38 95 39 35 40 94 41 36 42 37 43 38 44 88 45 39 46
REMARK SMILES IDX 93 47 87 48 89 49 40 50 92 51 86 52 85 53 41 55 73 56 53 57
REMARK SMILES IDX 72 58 54 59 57 60 71 61 90 62 55 63 56 64 70 66 91 67 58 68
REMARK SMILES IDX 42 69 43 70 51 71 44 72 45 73 49 74 52 75 46 76 47 77 50 78
REMARK SMILES IDX 48 79 74 80 75 81 83 82 76 83 77 84 81 85 84 86 78 87 79 88
REMARK SMILES IDX 82 89 80 90 59 91 60 92 68 93 61 94 62 95 66 96 69 97 63 98
REMARK SMILES IDX 64 99 67 100 65 101
REMARK H PARENT 25 4 15 13 12 19 30 35 89 54 57 65
REMARK Flexibility Score: inf
ROOT
ATOM      1  C   UNL A   1      32.020  25.352  26.179  1.00  0.00     0.253 C 
ATOM      2  O   UNL A   1      30.839  25.209  26.513  1.00  0.00    -0.269 OA
ATOM      3  N   UNL A   1      32.828  24.263  26.404  1.00  0.00    -0.352 N 
ATOM      4  H   UNL A   1      32.369  23.511  26.843  1.00  0.00     0.163 HD
ENDROOT
BRANCH   1   5
ATOM      5  C   UNL A   1      32.422  26.685  25.619  1.00  0.00     0.064 A 
ATOM      6  C   UNL A   1      32.123  27.261  24.368  1.00  0.00     0.053 A 
ATOM      7  C   UNL A   1      32.535  28.579  24.071  1.00  0.00     0.028 A 
ATOM      8  C   UNL A   1      33.313  29.307  24.965  1.00  0.00     0.023 A 
ATOM      9  C   UNL A   1      33.228  27.443  26.500  1.00  0.00     0.036 A 
ATOM     10  C   UNL A   1      33.680  28.723  26.167  1.00  0.00     0.041 A 
ATOM     11  Cl  UNL A   1      34.698  29.588  27.250  1.00  0.00    -0.084 Cl
BRANCH   6  12
ATOM     12  N   UNL A   1      31.415  26.600  23.356  1.00  0.00    -0.332 N 
ATOM     13  H   UNL A   1      30.493  26.909  23.199  1.00  0.00     0.169 HD
BRANCH  12  14
ATOM     14  C   UNL A   1      31.850  25.584  22.562  1.00  0.00     0.177 C 
ATOM     15  S   UNL A   1      32.370  25.937  21.012  1.00  0.00    -0.040 S 
BRANCH  14  16
ATOM     16  N   UNL A   1      31.773  24.255  22.922  1.00  0.00    -0.300 N 
ATOM     17  O   UNL A   1      33.877  23.259  22.643  1.00  0.00    -0.271 OA
ATOM     18  C   UNL A   1      32.695  23.196  22.968  1.00  0.00     0.264 C 
ATOM     19  H   UNL A   1      30.871  23.989  23.211  1.00  0.00     0.172 HD
BRANCH  18  20
ATOM     20  C   UNL A   1      32.143  21.897  23.568  1.00  0.00     0.329 C 
BRANCH  20  21
ATOM     21  O   UNL A   1      32.153  20.801  22.648  1.00  0.00    -0.484 OA
BRANCH  21  22
ATOM     22  C   UNL A   1      32.435  19.618  23.284  1.00  0.00     0.120 A 
ATOM     23  C   UNL A   1      32.647  18.472  22.515  1.00  0.00     0.047 A 
ATOM     24  C   UNL A   1      32.543  19.565  24.672  1.00  0.00     0.047 A 
ATOM     25  C   UNL A   1      32.881  17.246  23.138  1.00  0.00     0.019 A 
ATOM     26  C   UNL A   1      32.803  18.342  25.298  1.00  0.00     0.019 A 
ATOM     27  C   UNL A   1      32.955  17.187  24.528  1.00  0.00     0.018 A 
ATOM     28  Br  UNL A   1      33.268  15.525  25.376  1.00  0.00    -0.051 Br
ENDBRANCH  21  22
ENDBRANCH  20  21
ENDBRANCH  18  20
ENDBRANCH  14  16
ENDBRANCH  12  14
ENDBRANCH   6  12
ENDBRANCH   1   5
BRANCH   3  29
ATOM     29  C   UNL A   1      34.219  24.011  26.121  1.00  0.00     0.116 C 
BRANCH  29  30
ATOM     30  C   UNL A   1      34.775  22.686  26.633  1.00  0.00     0.023 C 
BRANCH  30  31
ATOM     31  C   UNL A   1      35.371  21.733  25.597  1.00  0.00     0.023 C 
BRANCH  31  32
ATOM     32  C   UNL A   1      36.754  22.072  25.046  1.00  0.00     0.116 C 
BRANCH  32  33
ATOM     33  N   UNL A   1      37.776  21.069  25.314  1.00  0.00    -0.352 N 
ATOM     34  C   UNL A   1      38.982  21.158  25.975  1.00  0.00     0.251 C 
ATOM     35  H   UNL A   1      37.570  20.174  24.961  1.00  0.00     0.163 HD
ATOM     36  O   UNL A   1      39.711  20.177  26.042  1.00  0.00    -0.269 OA
BRANCH  34  37
ATOM     37  C   UNL A   1      39.440  22.442  26.551  1.00  0.00     0.039 A 
ATOM     38  C   UNL A   1      40.431  22.416  27.540  1.00  0.00     0.014 A 
ATOM     39  C   UNL A   1      38.927  23.667  26.124  1.00  0.00     0.014 A 
ATOM     40  C   UNL A   1      40.992  23.608  28.001  1.00  0.00     0.010 A 
ATOM     41  C   UNL A   1      39.544  24.853  26.516  1.00  0.00     0.010 A 
ATOM     42  C   UNL A   1      40.602  24.834  27.440  1.00  0.00    -0.014 A 
BRANCH  42  43
ATOM     43  C   UNL A   1      41.312  26.101  27.766  1.00  0.00     0.031 A 
ATOM     44  C   UNL A   1      40.599  27.210  28.487  1.00  0.00     0.074 A 
ATOM     45  C   UNL A   1      42.571  26.289  27.323  1.00  0.00     0.049 A 
ATOM     46  N   UNL A   1      41.006  28.429  28.743  1.00  0.00    -0.248 NA
ATOM     47  C   UNL A   1      39.234  26.924  28.952  1.00  0.00     0.031 C 
ATOM     48  C   UNL A   1      43.358  25.314  26.565  1.00  0.00     0.029 A 
ATOM     49  N   UNL A   1      43.406  27.374  27.431  1.00  0.00    -0.354 N 
ATOM     50  C   UNL A   1      39.942  29.058  29.374  1.00  0.00     0.074 A 
ATOM     51  C   UNL A   1      38.855  28.105  29.421  1.00  0.00     0.031 C 
ATOM     52  C   UNL A   1      44.566  25.834  26.299  1.00  0.00     0.029 A 
ATOM     53  C   UNL A   1      44.626  27.193  26.826  1.00  0.00     0.049 A 
ATOM     54  H   UNL A   1      43.154  28.204  27.898  1.00  0.00     0.167 HD
ATOM     55  C   UNL A   1      39.883  30.312  29.887  1.00  0.00     0.037 A 
ATOM     56  C   UNL A   1      45.673  28.031  26.701  1.00  0.00     0.037 A 
ATOM     57  C   UNL A   1      40.976  31.247  29.874  1.00  0.00     0.049 A 
ATOM     58  C   UNL A   1      45.586  29.414  27.287  1.00  0.00     0.074 A 
ATOM     59  C   UNL A   1      41.035  32.515  30.427  1.00  0.00     0.029 A 
ATOM     60  N   UNL A   1      42.207  31.014  29.278  1.00  0.00    -0.354 N 
ATOM     61  N   UNL A   1      44.594  29.976  27.933  1.00  0.00    -0.248 NA
ATOM     62  C   UNL A   1      46.765  30.277  27.127  1.00  0.00     0.031 C 
ATOM     63  C   UNL A   1      42.290  33.062  30.137  1.00  0.00     0.029 A 
ATOM     64  C   UNL A   1      43.027  32.120  29.439  1.00  0.00     0.049 A 
ATOM     65  H   UNL A   1      42.462  30.185  28.812  1.00  0.00     0.167 HD
ATOM     66  C   UNL A   1      45.036  31.246  28.279  1.00  0.00     0.074 A 
ATOM     67  C   UNL A   1      46.391  31.367  27.783  1.00  0.00     0.031 C 
ATOM     68  C   UNL A   1      44.377  32.222  28.950  1.00  0.00     0.037 A 
BRANCH  55  69
ATOM     69  C   UNL A   1      38.589  30.739  30.515  1.00  0.00     0.064 A 
ATOM     70  C   UNL A   1      38.404  30.712  31.906  1.00  0.00     0.173 A 
ATOM     71  C   UNL A   1      37.531  31.207  29.721  1.00  0.00     0.173 A 
ATOM     72  F   UNL A   1      39.383  30.263  32.706  1.00  0.00    -0.203 F 
ATOM     73  C   UNL A   1      37.198  31.107  32.476  1.00  0.00     0.198 A 
ATOM     74  C   UNL A   1      36.336  31.628  30.297  1.00  0.00     0.198 A 
ATOM     75  F   UNL A   1      37.658  31.260  28.387  1.00  0.00    -0.203 F 
ATOM     76  F   UNL A   1      37.028  31.023  33.803  1.00  0.00    -0.200 F 
ATOM     77  C   UNL A   1      36.167  31.569  31.673  1.00  0.00     0.200 A 
ATOM     78  F   UNL A   1      35.343  32.086  29.521  1.00  0.00    -0.200 F 
ATOM     79  F   UNL A   1      35.007  31.951  32.224  1.00  0.00    -0.200 F 
ENDBRANCH  55  69
BRANCH  56  80
ATOM     80  C   UNL A   1      46.910  27.577  26.015  1.00  0.00     0.064 A 
ATOM     81  C   UNL A   1      47.972  27.025  26.747  1.00  0.00     0.173 A 
ATOM     82  C   UNL A   1      47.062  27.686  24.626  1.00  0.00     0.173 A 
ATOM     83  F   UNL A   1      47.881  26.922  28.081  1.00  0.00    -0.203 F 
ATOM     84  C   UNL A   1      49.145  26.616  26.118  1.00  0.00     0.198 A 
ATOM     85  C   UNL A   1      48.226  27.253  23.994  1.00  0.00     0.198 A 
ATOM     86  F   UNL A   1      46.074  28.203  23.881  1.00  0.00    -0.203 F 
ATOM     87  F   UNL A   1      50.159  26.131  26.846  1.00  0.00    -0.200 F 
ATOM     88  C   UNL A   1      49.269  26.725  24.740  1.00  0.00     0.200 A 
ATOM     89  F   UNL A   1      48.339  27.349  22.662  1.00  0.00    -0.200 F 
ATOM     90  F   UNL A   1      50.397  26.329  24.134  1.00  0.00    -0.200 F 
ENDBRANCH  56  80
BRANCH  68  91
ATOM     91  C   UNL A   1      45.123  33.494  29.217  1.00  0.00     0.064 A 
ATOM     92  C   UNL A   1      45.059  34.583  28.335  1.00  0.00     0.173 A 
ATOM     93  C   UNL A   1      45.876  33.641  30.392  1.00  0.00     0.173 A 
ATOM     94  F   UNL A   1      44.367  34.484  27.191  1.00  0.00    -0.203 F 
ATOM     95  C   UNL A   1      45.737  35.767  28.612  1.00  0.00     0.198 A 
ATOM     96  C   UNL A   1      46.532  34.834  30.677  1.00  0.00     0.198 A 
ATOM     97  F   UNL A   1      45.965  32.630  31.269  1.00  0.00    -0.203 F 
ATOM     98  F   UNL A   1      45.695  36.781  27.737  1.00  0.00    -0.200 F 
ATOM     99  C   UNL A   1      46.467  35.895  29.785  1.00  0.00     0.200 A 
ATOM    100  F   UNL A   1      47.227  34.960  31.817  1.00  0.00    -0.200 F 
ATOM    101  F   UNL A   1      47.112  37.038  30.053  1.00  0.00    -0.200 F 
ENDBRANCH  68  91
ENDBRANCH  42  43
ENDBRANCH  34  37
ENDBRANCH  32  33
ENDBRANCH  31  32
ENDBRANCH  30  31
ENDBRANCH  29  30
ENDBRANCH   3  29
TORSDOF 17
ENDMDL
MODEL 3
REMARK VINA RESULT:     -12.0      4.399      6.735
REMARK SMILES O=C(COc1ccc(Br)cc1)NC(=S)Nc1ccc(Cl)cc1C(=O)NCCCCNC(=O)c1ccc(-c2c3nc(c(-c4c(F)c(F)c(F)c(F)c4F)c4ccc([nH]4)c(-c4c(F)c(F)c(F)c(F)c4F)c4nc(c(-c5c(F)c(F)c(F)c(F)c5F)c5ccc2[nH]5)C=C4)C=C3)cc1
REMARK SMILES IDX 23 1 24 2 25 3 22 5 16 6 17 7 18 8 21 9 19 10 20 11 15 12
REMARK SMILES IDX 13 14 14 15 12 16 1 17 2 18 3 20 4 21 5 22 6 23 11 24 7 25
REMARK SMILES IDX 10 26 8 27 9 28 26 29 27 30 28 31 29 32 30 33 31 34 32 36
REMARK SMILES IDX 33 37 34 38 95 39 35 40 94 41 36 42 37 43 38 44 88 45 39 46
REMARK SMILES IDX 93 47 87 48 89 49 40 50 92 51 86 52 85 53 41 55 73 56 53 57
REMARK SMILES IDX 72 58 54 59 57 60 71 61 90 62 55 63 56 64 70 66 91 67 58 68
REMARK SMILES IDX 42 69 43 70 51 71 44 72 45 73 49 74 52 75 46 76 47 77 50 78
REMARK SMILES IDX 48 79 74 80 75 81 83 82 76 83 77 84 81 85 84 86 78 87 79 88
REMARK SMILES IDX 82 89 80 90 59 91 60 92 68 93 61 94 62 95 66 96 69 97 63 98
REMARK SMILES IDX 64 99 67 100 65 101
REMARK H PARENT 25 4 15 13 12 19 30 35 89 54 57 65
REMARK Flexibility Score: inf
ROOT
ATOM      1  C   UNL A   1      32.146  25.108  26.243  1.00  0.00     0.253 C 
ATOM      2  O   UNL A   1      31.092  24.958  26.870  1.00  0.00    -0.269 OA
ATOM      3  N   UNL A   1      33.011  24.041  26.291  1.00  0.00    -0.352 N 
ATOM      4  H   UNL A   1      32.697  23.298  26.856  1.00  0.00     0.163 HD
ENDROOT
BRANCH   1   5
ATOM      5  C   UNL A   1      32.359  26.425  25.556  1.00  0.00     0.064 A 
ATOM      6  C   UNL A   1      32.010  26.824  24.251  1.00  0.00     0.053 A 
ATOM      7  C   UNL A   1      32.229  28.154  23.828  1.00  0.00     0.028 A 
ATOM      8  C   UNL A   1      32.865  29.075  24.653  1.00  0.00     0.023 A 
ATOM      9  C   UNL A   1      33.020  27.378  26.366  1.00  0.00     0.036 A 
ATOM     10  C   UNL A   1      33.283  28.672  25.911  1.00  0.00     0.041 A 
ATOM     11  Cl  UNL A   1      34.133  29.783  26.914  1.00  0.00    -0.084 Cl
BRANCH   6  12
ATOM     12  N   UNL A   1      31.435  25.969  23.303  1.00  0.00    -0.332 N 
ATOM     13  H   UNL A   1      30.452  25.908  23.312  1.00  0.00     0.169 HD
BRANCH  12  14
ATOM     14  C   UNL A   1      32.073  25.214  22.367  1.00  0.00     0.177 C 
ATOM     15  S   UNL A   1      32.532  25.930  20.927  1.00  0.00    -0.040 S 
BRANCH  14  16
ATOM     16  N   UNL A   1      32.256  23.852  22.489  1.00  0.00    -0.300 N 
ATOM     17  O   UNL A   1      30.800  23.024  24.130  1.00  0.00    -0.271 OA
ATOM     18  C   UNL A   1      31.673  22.852  23.284  1.00  0.00     0.264 C 
ATOM     19  H   UNL A   1      32.950  23.504  21.885  1.00  0.00     0.172 HD
BRANCH  18  20
ATOM     20  C   UNL A   1      32.144  21.427  22.963  1.00  0.00     0.329 C 
BRANCH  20  21
ATOM     21  O   UNL A   1      33.185  20.967  23.828  1.00  0.00    -0.484 OA
BRANCH  21  22
ATOM     22  C   UNL A   1      33.012  19.647  24.160  1.00  0.00     0.120 A 
ATOM     23  C   UNL A   1      32.913  19.296  25.507  1.00  0.00     0.047 A 
ATOM     24  C   UNL A   1      32.902  18.674  23.168  1.00  0.00     0.047 A 
ATOM     25  C   UNL A   1      32.793  17.955  25.873  1.00  0.00     0.019 A 
ATOM     26  C   UNL A   1      32.755  17.332  23.532  1.00  0.00     0.019 A 
ATOM     27  C   UNL A   1      32.716  16.979  24.883  1.00  0.00     0.018 A 
ATOM     28  Br  UNL A   1      32.557  15.160  25.376  1.00  0.00    -0.051 Br
ENDBRANCH  21  22
ENDBRANCH  20  21
ENDBRANCH  18  20
ENDBRANCH  14  16
ENDBRANCH  12  14
ENDBRANCH   6  12
ENDBRANCH   1   5
BRANCH   3  29
ATOM     29  C   UNL A   1      34.291  23.801  25.673  1.00  0.00     0.116 C 
BRANCH  29  30
ATOM     30  C   UNL A   1      35.285  22.982  26.491  1.00  0.00     0.023 C 
BRANCH  30  31
ATOM     31  C   UNL A   1      35.800  21.684  25.867  1.00  0.00     0.023 C 
BRANCH  31  32
ATOM     32  C   UNL A   1      37.069  21.767  25.024  1.00  0.00     0.116 C 
BRANCH  32  33
ATOM     33  N   UNL A   1      38.118  20.835  25.412  1.00  0.00    -0.352 N 
ATOM     34  C   UNL A   1      39.284  21.027  26.122  1.00  0.00     0.251 C 
ATOM     35  H   UNL A   1      37.969  19.909  25.117  1.00  0.00     0.163 HD
ATOM     36  O   UNL A   1      40.050  20.088  26.296  1.00  0.00    -0.269 OA
BRANCH  34  37
ATOM     37  C   UNL A   1      39.656  22.368  26.623  1.00  0.00     0.039 A 
ATOM     38  C   UNL A   1      40.688  22.468  27.564  1.00  0.00     0.014 A 
ATOM     39  C   UNL A   1      39.024  23.527  26.171  1.00  0.00     0.014 A 
ATOM     40  C   UNL A   1      41.167  23.722  27.950  1.00  0.00     0.010 A 
ATOM     41  C   UNL A   1      39.556  24.776  26.485  1.00  0.00     0.010 A 
ATOM     42  C   UNL A   1      40.650  24.885  27.359  1.00  0.00    -0.014 A 
BRANCH  42  43
ATOM     43  C   UNL A   1      41.264  26.220  27.599  1.00  0.00     0.031 A 
ATOM     44  C   UNL A   1      42.673  26.501  27.160  1.00  0.00     0.074 A 
ATOM     45  C   UNL A   1      40.583  27.146  28.303  1.00  0.00     0.049 A 
ATOM     46  N   UNL A   1      43.420  27.551  27.393  1.00  0.00    -0.248 NA
ATOM     47  C   UNL A   1      43.344  25.448  26.384  1.00  0.00     0.031 C 
ATOM     48  C   UNL A   1      39.228  26.982  28.834  1.00  0.00     0.029 A 
ATOM     49  N   UNL A   1      40.945  28.408  28.710  1.00  0.00    -0.354 N 
ATOM     50  C   UNL A   1      44.652  27.274  26.817  1.00  0.00     0.074 A 
ATOM     51  C   UNL A   1      44.569  25.940  26.263  1.00  0.00     0.031 C 
ATOM     52  C   UNL A   1      38.865  28.105  29.472  1.00  0.00     0.029 A 
ATOM     53  C   UNL A   1      39.974  29.053  29.436  1.00  0.00     0.049 A 
ATOM     54  H   UNL A   1      41.818  28.811  28.500  1.00  0.00     0.167 HD
ATOM     55  C   UNL A   1      45.748  28.068  26.738  1.00  0.00     0.037 A 
ATOM     56  C   UNL A   1      39.979  30.268  30.017  1.00  0.00     0.037 A 
ATOM     57  C   UNL A   1      45.819  29.409  27.256  1.00  0.00     0.049 A 
ATOM     58  C   UNL A   1      41.204  31.133  29.907  1.00  0.00     0.074 A 
ATOM     59  C   UNL A   1      46.861  30.316  27.165  1.00  0.00     0.029 A 
ATOM     60  N   UNL A   1      44.801  30.038  27.959  1.00  0.00    -0.354 N 
ATOM     61  N   UNL A   1      42.342  30.882  29.308  1.00  0.00    -0.248 NA
ATOM     62  C   UNL A   1      41.143  32.452  30.553  1.00  0.00     0.031 C 
ATOM     63  C   UNL A   1      46.487  31.482  27.843  1.00  0.00     0.029 A 
ATOM     64  C   UNL A   1      45.197  31.317  28.320  1.00  0.00     0.049 A 
ATOM     65  H   UNL A   1      43.928  29.637  28.169  1.00  0.00     0.167 HD
ATOM     66  C   UNL A   1      43.122  32.017  29.481  1.00  0.00     0.074 A 
ATOM     67  C   UNL A   1      42.323  32.964  30.231  1.00  0.00     0.031 C 
ATOM     68  C   UNL A   1      44.387  32.252  29.055  1.00  0.00     0.037 A 
BRANCH  55  69
ATOM     69  C   UNL A   1      46.960  27.505  26.056  1.00  0.00     0.064 A 
ATOM     70  C   UNL A   1      47.173  27.675  24.680  1.00  0.00     0.173 A 
ATOM     71  C   UNL A   1      47.934  26.811  26.791  1.00  0.00     0.173 A 
ATOM     72  F   UNL A   1      46.266  28.321  23.933  1.00  0.00    -0.203 F 
ATOM     73  C   UNL A   1      48.299  27.143  24.058  1.00  0.00     0.198 A 
ATOM     74  C   UNL A   1      49.073  26.306  26.170  1.00  0.00     0.198 A 
ATOM     75  F   UNL A   1      47.783  26.627  28.110  1.00  0.00    -0.203 F 
ATOM     76  F   UNL A   1      48.454  27.274  22.732  1.00  0.00    -0.200 F 
ATOM     77  C   UNL A   1      49.250  26.465  24.803  1.00  0.00     0.200 A 
ATOM     78  F   UNL A   1      49.998  25.660  26.893  1.00  0.00    -0.200 F 
ATOM     79  F   UNL A   1      50.335  25.955  24.203  1.00  0.00    -0.200 F 
ENDBRANCH  55  69
BRANCH  56  80
ATOM     80  C   UNL A   1      38.771  30.753  30.734  1.00  0.00     0.064 A 
ATOM     81  C   UNL A   1      38.650  30.589  32.121  1.00  0.00     0.173 A 
ATOM     82  C   UNL A   1      37.717  31.382  30.056  1.00  0.00     0.173 A 
ATOM     83  F   UNL A   1      39.622  29.972  32.808  1.00  0.00    -0.203 F 
ATOM     84  C   UNL A   1      37.513  31.019  32.801  1.00  0.00     0.198 A 
ATOM     85  C   UNL A   1      36.592  31.835  30.741  1.00  0.00     0.198 A 
ATOM     86  F   UNL A   1      37.787  31.567  28.730  1.00  0.00    -0.203 F 
ATOM     87  F   UNL A   1      37.406  30.812  34.120  1.00  0.00    -0.200 F 
ATOM     88  C   UNL A   1      36.487  31.648  32.111  1.00  0.00     0.200 A 
ATOM     89  F   UNL A   1      35.607  32.453  30.074  1.00  0.00    -0.200 F 
ATOM     90  F   UNL A   1      35.395  32.065  32.765  1.00  0.00    -0.200 F 
ENDBRANCH  56  80
BRANCH  68  91
ATOM     91  C   UNL A   1      44.974  33.597  29.359  1.00  0.00     0.064 A 
ATOM     92  C   UNL A   1      45.697  33.836  30.536  1.00  0.00     0.173 A 
ATOM     93  C   UNL A   1      44.848  34.649  28.438  1.00  0.00     0.173 A 
ATOM     94  F   UNL A   1      45.829  32.866  31.454  1.00  0.00    -0.203 F 
ATOM     95  C   UNL A   1      46.258  35.084  30.790  1.00  0.00     0.198 A 
ATOM     96  C   UNL A   1      45.432  35.888  28.683  1.00  0.00     0.198 A 
ATOM     97  F   UNL A   1      44.170  34.470  27.295  1.00  0.00    -0.203 F 
ATOM     98  F   UNL A   1      46.911  35.303  31.940  1.00  0.00    -0.200 F 
ATOM     99  C   UNL A   1      46.132  36.107  29.861  1.00  0.00     0.200 A 
ATOM    100  F   UNL A   1      45.318  36.872  27.780  1.00  0.00    -0.200 F 
ATOM    101  F   UNL A   1      46.679  37.306  30.104  1.00  0.00    -0.200 F 
ENDBRANCH  68  91
ENDBRANCH  42  43
ENDBRANCH  34  37
ENDBRANCH  32  33
ENDBRANCH  31  32
ENDBRANCH  30  31
ENDBRANCH  29  30
ENDBRANCH   3  29
TORSDOF 17
ENDMDL
