MODEL 1
REMARK VINA RESULT:     -12.3      0.000      0.000
REMARK SMILES C=CCN1C(=O)/C(=C/c2ccc(OCC(=O)NCCCCNC(=O)c3ccc(-c4c5nc(c(-c6c(F)c(F)c(F)c(F)c6F)c6ccc([nH]6)c(-c6c(F)c(F)c(F)c(F)c6F)c6nc(c(-c7c(F)c(F)c(F)c(F)c7F)c7ccc4[nH]7)C=C6)C=C5)cc3)c(OC)c2)C(=O)[NH+]=C1S
REMARK SMILES IDX 18 1 17 2 15 3 16 4 14 6 13 7 12 8 9 9 10 10 91 11 11 12
REMARK SMILES IDX 88 13 8 14 4 15 5 16 95 17 6 18 7 19 94 20 92 21 93 23 3 24
REMARK SMILES IDX 2 25 1 26 96 27 89 29 90 30 19 31 20 32 21 33 22 34 23 35
REMARK SMILES IDX 24 37 25 38 26 39 87 40 27 41 86 42 28 43 29 44 30 45 80 46
REMARK SMILES IDX 31 47 85 48 79 49 81 50 32 51 84 52 78 53 77 54 33 56 65 57
REMARK SMILES IDX 45 58 64 59 46 60 49 61 63 62 82 63 47 64 48 65 62 67 83 68
REMARK SMILES IDX 50 69 34 70 35 71 43 72 36 73 37 74 41 75 44 76 38 77 39 78
REMARK SMILES IDX 42 79 40 80 66 81 67 82 75 83 68 84 69 85 73 86 76 87 70 88
REMARK SMILES IDX 71 89 74 90 72 91 51 92 52 93 60 94 53 95 54 96 58 97 61 98
REMARK SMILES IDX 55 99 56 100 59 101 57 102
REMARK H PARENT 17 5 94 22 96 28 22 36 81 55 49 66
REMARK Flexibility Score: inf
ROOT
ATOM      1  C   UNL A   1      31.685  29.888  25.280  1.00  0.00     0.116 C 
ENDROOT
BRANCH   1   2
ATOM      2  N   UNL A   1      30.621  30.165  24.336  1.00  0.00    -0.353 N 
ATOM      3  C   UNL A   1      30.392  29.588  23.118  1.00  0.00     0.257 C 
ATOM      4  O   UNL A   1      29.342  29.870  22.536  1.00  0.00    -0.271 OA
ATOM      5  H   UNL A   1      29.980  30.859  24.608  1.00  0.00     0.163 HD
BRANCH   3   6
ATOM      6  C   UNL A   1      31.391  28.556  22.566  1.00  0.00     0.329 C 
BRANCH   6   7
ATOM      7  O   UNL A   1      30.886  27.386  21.943  1.00  0.00    -0.480 OA
BRANCH   7   8
ATOM      8  C   UNL A   1      31.052  26.173  22.559  1.00  0.00     0.161 A 
ATOM      9  C   UNL A   1      31.596  23.570  23.484  1.00  0.00    -0.021 A 
ATOM     10  C   UNL A   1      32.293  24.077  22.390  1.00  0.00     0.012 A 
ATOM     11  C   UNL A   1      30.675  24.389  24.151  1.00  0.00     0.058 A 
ATOM     12  C   UNL A   1      32.022  25.372  21.937  1.00  0.00     0.051 A 
ATOM     13  C   UNL A   1      30.392  25.685  23.695  1.00  0.00     0.161 A 
BRANCH   9  14
ATOM     14  C   UNL A   1      31.837  22.205  23.966  1.00  0.00     0.032 C 
ATOM     15  N   UNL A   1      34.372  19.786  24.999  1.00  0.00    -0.183 N 
ATOM     16  C   UNL A   1      33.098  20.279  24.731  1.00  0.00     0.349 C 
ATOM     17  C   UNL A   1      35.437  20.655  24.913  1.00  0.00     0.318 C 
ATOM     18  O   UNL A   1      32.103  19.561  24.618  1.00  0.00    -0.240 OA
ATOM     19  C   UNL A   1      32.996  21.736  24.476  1.00  0.00     0.154 C 
ATOM     20  N   UNL A   1      35.364  21.932  24.797  1.00  0.00    -0.200 N 
ATOM     21  C   UNL A   1      34.173  22.584  24.748  1.00  0.00     0.347 C 
ATOM     22  H   UNL A   1      36.196  22.454  24.741  1.00  0.00     0.316 HD
ATOM     23  O   UNL A   1      34.095  23.795  24.909  1.00  0.00    -0.241 OA
BRANCH  15  24
ATOM     24  C   UNL A   1      34.451  18.314  25.070  1.00  0.00     0.275 C 
BRANCH  24  25
ATOM     25  C   UNL A   1      34.645  17.601  23.764  1.00  0.00     0.011 C 
ATOM     26  C   UNL A   1      33.745  16.840  23.129  1.00  0.00     0.008 C 
ENDBRANCH  24  25
ENDBRANCH  15  24
BRANCH  17  27
ATOM     27  S   UNL A   1      37.082  20.068  24.928  1.00  0.00    -0.055 SA
ATOM     28  H   UNL A   1      37.808  20.775  25.834  1.00  0.00     0.116 HD
ENDBRANCH  17  27
ENDBRANCH   9  14
BRANCH  13  29
ATOM     29  O   UNL A   1      29.553  26.521  24.383  1.00  0.00    -0.493 OA
ATOM     30  C   UNL A   1      28.204  26.575  23.928  1.00  0.00     0.278 C 
ENDBRANCH  13  29
ENDBRANCH   7   8
ENDBRANCH   6   7
ENDBRANCH   3   6
ENDBRANCH   1   2
BRANCH   1  31
ATOM     31  C   UNL A   1      31.469  30.579  26.624  1.00  0.00     0.023 C 
BRANCH  31  32
ATOM     32  C   UNL A   1      31.475  32.108  26.582  1.00  0.00     0.023 C 
BRANCH  32  33
ATOM     33  C   UNL A   1      32.636  32.786  27.301  1.00  0.00     0.116 C 
BRANCH  33  34
ATOM     34  N   UNL A   1      32.363  34.172  27.649  1.00  0.00    -0.352 N 
ATOM     35  C   UNL A   1      32.972  34.974  28.584  1.00  0.00     0.251 C 
ATOM     36  H   UNL A   1      31.637  34.597  27.139  1.00  0.00     0.163 HD
ATOM     37  O   UNL A   1      32.516  36.087  28.829  1.00  0.00    -0.269 OA
BRANCH  35  38
ATOM     38  C   UNL A   1      34.157  34.489  29.324  1.00  0.00     0.039 A 
ATOM     39  C   UNL A   1      33.971  33.889  30.573  1.00  0.00     0.014 A 
ATOM     40  C   UNL A   1      35.444  34.616  28.795  1.00  0.00     0.014 A 
ATOM     41  C   UNL A   1      35.065  33.352  31.255  1.00  0.00     0.010 A 
ATOM     42  C   UNL A   1      36.522  34.010  29.438  1.00  0.00     0.010 A 
ATOM     43  C   UNL A   1      36.344  33.369  30.675  1.00  0.00    -0.014 A 
BRANCH  43  44
ATOM     44  C   UNL A   1      37.501  32.713  31.338  1.00  0.00     0.031 A 
ATOM     45  C   UNL A   1      38.215  31.571  30.669  1.00  0.00     0.074 A 
ATOM     46  C   UNL A   1      37.871  33.105  32.574  1.00  0.00     0.049 A 
ATOM     47  N   UNL A   1      39.201  30.834  31.116  1.00  0.00    -0.248 NA
ATOM     48  C   UNL A   1      37.742  31.190  29.329  1.00  0.00     0.031 C 
ATOM     49  C   UNL A   1      37.231  34.169  33.349  1.00  0.00     0.029 A 
ATOM     50  N   UNL A   1      38.867  32.645  33.400  1.00  0.00    -0.354 N 
ATOM     51  C   UNL A   1      39.455  29.898  30.122  1.00  0.00     0.074 A 
ATOM     52  C   UNL A   1      38.486  30.124  29.073  1.00  0.00     0.031 C 
ATOM     53  C   UNL A   1      37.864  34.296  34.526  1.00  0.00     0.029 A 
ATOM     54  C   UNL A   1      38.924  33.296  34.609  1.00  0.00     0.049 A 
ATOM     55  H   UNL A   1      39.483  31.919  33.151  1.00  0.00     0.167 HD
ATOM     56  C   UNL A   1      40.422  28.950  30.079  1.00  0.00     0.037 A 
ATOM     57  C   UNL A   1      39.730  33.101  35.671  1.00  0.00     0.037 A 
ATOM     58  C   UNL A   1      41.396  28.738  31.119  1.00  0.00     0.049 A 
ATOM     59  C   UNL A   1      40.783  32.026  35.606  1.00  0.00     0.074 A 
ATOM     60  C   UNL A   1      42.453  27.846  31.142  1.00  0.00     0.029 A 
ATOM     61  N   UNL A   1      41.425  29.423  32.327  1.00  0.00    -0.354 N 
ATOM     62  N   UNL A   1      41.061  31.197  34.630  1.00  0.00    -0.248 NA
ATOM     63  C   UNL A   1      41.638  31.865  36.790  1.00  0.00     0.031 C 
ATOM     64  C   UNL A   1      43.084  27.945  32.386  1.00  0.00     0.029 A 
ATOM     65  C   UNL A   1      42.465  28.949  33.113  1.00  0.00     0.049 A 
ATOM     66  H   UNL A   1      40.802  30.139  32.586  1.00  0.00     0.167 HD
ATOM     67  C   UNL A   1      42.140  30.439  35.066  1.00  0.00     0.074 A 
ATOM     68  C   UNL A   1      42.476  30.920  36.391  1.00  0.00     0.031 C 
ATOM     69  C   UNL A   1      42.795  29.439  34.427  1.00  0.00     0.037 A 
BRANCH  56  70
ATOM     70  C   UNL A   1      40.475  28.062  28.868  1.00  0.00     0.064 A 
ATOM     71  C   UNL A   1      41.242  28.396  27.741  1.00  0.00     0.173 A 
ATOM     72  C   UNL A   1      39.786  26.840  28.851  1.00  0.00     0.173 A 
ATOM     73  F   UNL A   1      41.915  29.556  27.700  1.00  0.00    -0.203 F 
ATOM     74  C   UNL A   1      41.290  27.556  26.631  1.00  0.00     0.198 A 
ATOM     75  C   UNL A   1      39.864  25.986  27.754  1.00  0.00     0.198 A 
ATOM     76  F   UNL A   1      39.044  26.466  29.905  1.00  0.00    -0.203 F 
ATOM     77  F   UNL A   1      41.985  27.921  25.545  1.00  0.00    -0.200 F 
ATOM     78  C   UNL A   1      40.608  26.349  26.642  1.00  0.00     0.200 A 
ATOM     79  F   UNL A   1      39.218  24.812  27.773  1.00  0.00    -0.200 F 
ATOM     80  F   UNL A   1      40.662  25.536  25.577  1.00  0.00    -0.200 F 
ENDBRANCH  56  70
BRANCH  57  81
ATOM     81  C   UNL A   1      39.585  33.951  36.882  1.00  0.00     0.064 A 
ATOM     82  C   UNL A   1      40.234  35.191  36.976  1.00  0.00     0.173 A 
ATOM     83  C   UNL A   1      38.807  33.540  37.974  1.00  0.00     0.173 A 
ATOM     84  F   UNL A   1      41.007  35.619  35.967  1.00  0.00    -0.203 F 
ATOM     85  C   UNL A   1      40.130  35.974  38.122  1.00  0.00     0.198 A 
ATOM     86  C   UNL A   1      38.676  34.340  39.108  1.00  0.00     0.198 A 
ATOM     87  F   UNL A   1      38.162  32.364  37.937  1.00  0.00    -0.203 F 
ATOM     88  F   UNL A   1      40.803  37.130  38.205  1.00  0.00    -0.200 F 
ATOM     89  C   UNL A   1      39.346  35.552  39.186  1.00  0.00     0.200 A 
ATOM     90  F   UNL A   1      37.905  33.934  40.127  1.00  0.00    -0.200 F 
ATOM     91  F   UNL A   1      39.243  36.307  40.287  1.00  0.00    -0.200 F 
ENDBRANCH  57  81
BRANCH  69  92
ATOM     92  C   UNL A   1      43.969  28.819  35.132  1.00  0.00     0.064 A 
ATOM     93  C   UNL A   1      45.259  29.362  35.043  1.00  0.00     0.173 A 
ATOM     94  C   UNL A   1      43.789  27.685  35.941  1.00  0.00     0.173 A 
ATOM     95  F   UNL A   1      45.488  30.437  34.272  1.00  0.00    -0.203 F 
ATOM     96  C   UNL A   1      46.329  28.778  35.715  1.00  0.00     0.198 A 
ATOM     97  C   UNL A   1      44.856  27.125  36.639  1.00  0.00     0.198 A 
ATOM     98  F   UNL A   1      42.575  27.129  36.066  1.00  0.00    -0.203 F 
ATOM     99  F   UNL A   1      47.563  29.282  35.573  1.00  0.00    -0.200 F 
ATOM    100  C   UNL A   1      46.126  27.666  36.518  1.00  0.00     0.200 A 
ATOM    101  F   UNL A   1      44.653  26.061  37.429  1.00  0.00    -0.200 F 
ATOM    102  F   UNL A   1      47.157  27.111  37.172  1.00  0.00    -0.200 F 
ENDBRANCH  69  92
ENDBRANCH  43  44
ENDBRANCH  35  38
ENDBRANCH  33  34
ENDBRANCH  32  33
ENDBRANCH  31  32
ENDBRANCH   1  31
TORSDOF 18
ENDMDL
MODEL 2
REMARK VINA RESULT:     -12.2      5.347     11.494
REMARK SMILES C=CCN1C(=O)/C(=C/c2ccc(OCC(=O)NCCCCNC(=O)c3ccc(-c4c5nc(c(-c6c(F)c(F)c(F)c(F)c6F)c6ccc([nH]6)c(-c6c(F)c(F)c(F)c(F)c6F)c6nc(c(-c7c(F)c(F)c(F)c(F)c7F)c7ccc4[nH]7)C=C6)C=C5)cc3)c(OC)c2)C(=O)[NH+]=C1S
REMARK SMILES IDX 18 1 17 2 15 3 16 4 14 6 13 7 12 8 9 9 10 10 91 11 11 12
REMARK SMILES IDX 88 13 8 14 4 15 5 16 95 17 6 18 7 19 94 20 92 21 93 23 3 24
REMARK SMILES IDX 2 25 1 26 96 27 89 29 90 30 19 31 20 32 21 33 22 34 23 35
REMARK SMILES IDX 24 37 25 38 26 39 87 40 27 41 86 42 28 43 29 44 30 45 80 46
REMARK SMILES IDX 31 47 85 48 79 49 81 50 32 51 84 52 78 53 77 54 33 56 65 57
REMARK SMILES IDX 45 58 64 59 46 60 49 61 63 62 82 63 47 64 48 65 62 67 83 68
REMARK SMILES IDX 50 69 34 70 35 71 43 72 36 73 37 74 41 75 44 76 38 77 39 78
REMARK SMILES IDX 42 79 40 80 66 81 67 82 75 83 68 84 69 85 73 86 76 87 70 88
REMARK SMILES IDX 71 89 74 90 72 91 51 92 52 93 60 94 53 95 54 96 58 97 61 98
REMARK SMILES IDX 55 99 56 100 59 101 57 102
REMARK H PARENT 17 5 94 22 96 28 22 36 81 55 49 66
REMARK Flexibility Score: inf
ROOT
ATOM      1  C   UNL A   1      34.009  34.576  31.344  1.00  0.00     0.116 C 
ENDROOT
BRANCH   1   2
ATOM      2  N   UNL A   1      35.130  35.179  32.035  1.00  0.00    -0.353 N 
ATOM      3  C   UNL A   1      36.055  34.578  32.843  1.00  0.00     0.257 C 
ATOM      4  O   UNL A   1      37.017  35.253  33.217  1.00  0.00    -0.271 OA
ATOM      5  H   UNL A   1      35.241  36.147  31.905  1.00  0.00     0.163 HD
BRANCH   3   6
ATOM      6  C   UNL A   1      35.915  33.084  33.180  1.00  0.00     0.329 C 
BRANCH   6   7
ATOM      7  O   UNL A   1      36.632  32.564  34.287  1.00  0.00    -0.480 OA
BRANCH   7   8
ATOM      8  C   UNL A   1      37.775  31.841  34.067  1.00  0.00     0.161 A 
ATOM      9  C   UNL A   1      39.874  30.030  33.580  1.00  0.00    -0.021 A 
ATOM     10  C   UNL A   1      38.560  29.659  33.304  1.00  0.00     0.012 A 
ATOM     11  C   UNL A   1      40.139  31.327  34.039  1.00  0.00     0.058 A 
ATOM     12  C   UNL A   1      37.522  30.564  33.543  1.00  0.00     0.051 A 
ATOM     13  C   UNL A   1      39.102  32.236  34.291  1.00  0.00     0.161 A 
BRANCH   9  14
ATOM     14  C   UNL A   1      40.984  29.093  33.366  1.00  0.00     0.032 C 
ATOM     15  N   UNL A   1      43.856  27.437  34.900  1.00  0.00    -0.183 N 
ATOM     16  C   UNL A   1      42.944  27.767  33.902  1.00  0.00     0.349 C 
ATOM     17  C   UNL A   1      43.638  27.926  36.169  1.00  0.00     0.318 C 
ATOM     18  O   UNL A   1      43.127  27.525  32.709  1.00  0.00    -0.240 OA
ATOM     19  C   UNL A   1      41.752  28.539  34.329  1.00  0.00     0.154 C 
ATOM     20  N   UNL A   1      42.569  28.504  36.584  1.00  0.00    -0.200 N 
ATOM     21  C   UNL A   1      41.495  28.698  35.774  1.00  0.00     0.347 C 
ATOM     22  H   UNL A   1      42.527  28.817  37.515  1.00  0.00     0.316 HD
ATOM     23  O   UNL A   1      40.396  28.995  36.224  1.00  0.00    -0.241 OA
BRANCH  15  24
ATOM     24  C   UNL A   1      45.106  26.828  34.403  1.00  0.00     0.275 C 
BRANCH  24  25
ATOM     25  C   UNL A   1      45.147  25.328  34.390  1.00  0.00     0.011 C 
ATOM     26  C   UNL A   1      44.122  24.503  34.144  1.00  0.00     0.008 C 
ENDBRANCH  24  25
ENDBRANCH  15  24
BRANCH  17  27
ATOM     27  S   UNL A   1      44.875  27.824  37.399  1.00  0.00    -0.055 SA
ATOM     28  H   UNL A   1      45.589  26.679  37.230  1.00  0.00     0.116 HD
ENDBRANCH  17  27
ENDBRANCH   9  14
BRANCH  13  29
ATOM     29  O   UNL A   1      39.353  33.529  34.664  1.00  0.00    -0.493 OA
ATOM     30  C   UNL A   1      39.573  33.752  36.054  1.00  0.00     0.278 C 
ENDBRANCH  13  29
ENDBRANCH   7   8
ENDBRANCH   6   7
ENDBRANCH   3   6
ENDBRANCH   1   2
BRANCH   1  31
ATOM     31  C   UNL A   1      33.966  34.946  29.863  1.00  0.00     0.023 C 
BRANCH  31  32
ATOM     32  C   UNL A   1      34.879  34.119  28.956  1.00  0.00     0.023 C 
BRANCH  32  33
ATOM     33  C   UNL A   1      35.124  32.681  29.398  1.00  0.00     0.116 C 
BRANCH  33  34
ATOM     34  N   UNL A   1      34.324  31.711  28.666  1.00  0.00    -0.352 N 
ATOM     35  C   UNL A   1      34.694  30.505  28.121  1.00  0.00     0.251 C 
ATOM     36  H   UNL A   1      33.379  31.956  28.543  1.00  0.00     0.163 HD
ATOM     37  O   UNL A   1      33.905  29.880  27.420  1.00  0.00    -0.269 OA
BRANCH  35  38
ATOM     38  C   UNL A   1      36.055  29.972  28.348  1.00  0.00     0.039 A 
ATOM     39  C   UNL A   1      37.012  30.118  27.339  1.00  0.00     0.014 A 
ATOM     40  C   UNL A   1      36.394  29.336  29.545  1.00  0.00     0.014 A 
ATOM     41  C   UNL A   1      38.324  29.694  27.560  1.00  0.00     0.010 A 
ATOM     42  C   UNL A   1      37.720  28.986  29.794  1.00  0.00     0.010 A 
ATOM     43  C   UNL A   1      38.700  29.163  28.805  1.00  0.00    -0.014 A 
BRANCH  43  44
ATOM     44  C   UNL A   1      40.113  28.801  29.094  1.00  0.00     0.031 A 
ATOM     45  C   UNL A   1      41.016  29.769  29.808  1.00  0.00     0.074 A 
ATOM     46  C   UNL A   1      40.602  27.623  28.658  1.00  0.00     0.049 A 
ATOM     47  N   UNL A   1      42.290  29.658  30.092  1.00  0.00    -0.248 NA
ATOM     48  C   UNL A   1      40.415  31.041  30.238  1.00  0.00     0.031 C 
ATOM     49  C   UNL A   1      39.842  26.617  27.914  1.00  0.00     0.029 A 
ATOM     50  N   UNL A   1      41.857  27.078  28.764  1.00  0.00    -0.354 N 
ATOM     51  C   UNL A   1      42.642  30.847  30.718  1.00  0.00     0.074 A 
ATOM     52  C   UNL A   1      41.465  31.686  30.724  1.00  0.00     0.031 C 
ATOM     53  C   UNL A   1      40.638  25.569  27.653  1.00  0.00     0.029 A 
ATOM     54  C   UNL A   1      41.975  25.845  28.169  1.00  0.00     0.049 A 
ATOM     55  H   UNL A   1      42.603  27.526  29.225  1.00  0.00     0.167 HD
ATOM     56  C   UNL A   1      43.834  31.197  31.258  1.00  0.00     0.037 A 
ATOM     57  C   UNL A   1      43.043  25.033  28.041  1.00  0.00     0.037 A 
ATOM     58  C   UNL A   1      45.001  30.353  31.264  1.00  0.00     0.049 A 
ATOM     59  C   UNL A   1      44.362  25.456  28.633  1.00  0.00     0.074 A 
ATOM     60  C   UNL A   1      46.236  30.592  31.840  1.00  0.00     0.029 A 
ATOM     61  N   UNL A   1      45.079  29.107  30.657  1.00  0.00    -0.354 N 
ATOM     62  N   UNL A   1      44.663  26.551  29.288  1.00  0.00    -0.248 NA
ATOM     63  C   UNL A   1      45.489  24.527  28.469  1.00  0.00     0.031 C 
ATOM     64  C   UNL A   1      47.081  29.523  31.529  1.00  0.00     0.029 A 
ATOM     65  C   UNL A   1      46.352  28.582  30.819  1.00  0.00     0.049 A 
ATOM     66  H   UNL A   1      44.340  28.662  30.183  1.00  0.00     0.167 HD
ATOM     67  C   UNL A   1      46.000  26.429  29.643  1.00  0.00     0.074 A 
ATOM     68  C   UNL A   1      46.448  25.145  29.143  1.00  0.00     0.031 C 
ATOM     69  C   UNL A   1      46.785  27.300  30.323  1.00  0.00     0.037 A 
BRANCH  56  70
ATOM     70  C   UNL A   1      43.942  32.559  31.886  1.00  0.00     0.064 A 
ATOM     71  C   UNL A   1      44.215  33.705  31.122  1.00  0.00     0.173 A 
ATOM     72  C   UNL A   1      43.727  32.727  33.262  1.00  0.00     0.173 A 
ATOM     73  F   UNL A   1      44.438  33.600  29.803  1.00  0.00    -0.203 F 
ATOM     74  C   UNL A   1      44.301  34.960  31.717  1.00  0.00     0.198 A 
ATOM     75  C   UNL A   1      43.777  33.989  33.848  1.00  0.00     0.198 A 
ATOM     76  F   UNL A   1      43.453  31.668  34.039  1.00  0.00    -0.203 F 
ATOM     77  F   UNL A   1      44.616  36.032  30.977  1.00  0.00    -0.200 F 
ATOM     78  C   UNL A   1      44.074  35.103  33.078  1.00  0.00     0.200 A 
ATOM     79  F   UNL A   1      43.541  34.127  35.160  1.00  0.00    -0.200 F 
ATOM     80  F   UNL A   1      44.146  36.314  33.648  1.00  0.00    -0.200 F 
ENDBRANCH  56  70
BRANCH  57  81
ATOM     81  C   UNL A   1      42.908  23.730  27.338  1.00  0.00     0.064 A 
ATOM     82  C   UNL A   1      43.300  23.589  25.999  1.00  0.00     0.173 A 
ATOM     83  C   UNL A   1      42.377  22.604  27.982  1.00  0.00     0.173 A 
ATOM     84  F   UNL A   1      43.794  24.643  25.331  1.00  0.00    -0.203 F 
ATOM     85  C   UNL A   1      43.143  22.380  25.325  1.00  0.00     0.198 A 
ATOM     86  C   UNL A   1      42.251  21.385  27.317  1.00  0.00     0.198 A 
ATOM     87  F   UNL A   1      41.989  22.682  29.264  1.00  0.00    -0.203 F 
ATOM     88  F   UNL A   1      43.477  22.289  24.031  1.00  0.00    -0.200 F 
ATOM     89  C   UNL A   1      42.625  21.277  25.986  1.00  0.00     0.200 A 
ATOM     90  F   UNL A   1      41.764  20.317  27.965  1.00  0.00    -0.200 F 
ATOM     91  F   UNL A   1      42.478  20.113  25.339  1.00  0.00    -0.200 F 
ENDBRANCH  57  81
BRANCH  69  92
ATOM     92  C   UNL A   1      48.201  26.881  30.606  1.00  0.00     0.064 A 
ATOM     93  C   UNL A   1      48.525  26.035  31.677  1.00  0.00     0.173 A 
ATOM     94  C   UNL A   1      49.244  27.302  29.765  1.00  0.00     0.173 A 
ATOM     95  F   UNL A   1      47.568  25.615  32.519  1.00  0.00    -0.203 F 
ATOM     96  C   UNL A   1      49.841  25.650  31.913  1.00  0.00     0.198 A 
ATOM     97  C   UNL A   1      50.555  26.886  29.983  1.00  0.00     0.198 A 
ATOM     98  F   UNL A   1      48.989  28.106  28.722  1.00  0.00    -0.203 F 
ATOM     99  F   UNL A   1      50.134  24.885  32.973  1.00  0.00    -0.200 F 
ATOM    100  C   UNL A   1      50.853  26.068  31.062  1.00  0.00     0.200 A 
ATOM    101  F   UNL A   1      51.527  27.277  29.149  1.00  0.00    -0.200 F 
ATOM    102  F   UNL A   1      52.119  25.687  31.284  1.00  0.00    -0.200 F 
ENDBRANCH  69  92
ENDBRANCH  43  44
ENDBRANCH  35  38
ENDBRANCH  33  34
ENDBRANCH  32  33
ENDBRANCH  31  32
ENDBRANCH   1  31
TORSDOF 18
ENDMDL
MODEL 3
REMARK VINA RESULT:     -12.2      5.715     11.492
REMARK SMILES C=CCN1C(=O)/C(=C/c2ccc(OCC(=O)NCCCCNC(=O)c3ccc(-c4c5nc(c(-c6c(F)c(F)c(F)c(F)c6F)c6ccc([nH]6)c(-c6c(F)c(F)c(F)c(F)c6F)c6nc(c(-c7c(F)c(F)c(F)c(F)c7F)c7ccc4[nH]7)C=C6)C=C5)cc3)c(OC)c2)C(=O)[NH+]=C1S
REMARK SMILES IDX 18 1 17 2 15 3 16 4 14 6 13 7 12 8 9 9 10 10 91 11 11 12
REMARK SMILES IDX 88 13 8 14 4 15 5 16 95 17 6 18 7 19 94 20 92 21 93 23 3 24
REMARK SMILES IDX 2 25 1 26 96 27 89 29 90 30 19 31 20 32 21 33 22 34 23 35
REMARK SMILES IDX 24 37 25 38 26 39 87 40 27 41 86 42 28 43 29 44 30 45 80 46
REMARK SMILES IDX 31 47 85 48 79 49 81 50 32 51 84 52 78 53 77 54 33 56 65 57
REMARK SMILES IDX 45 58 64 59 46 60 49 61 63 62 82 63 47 64 48 65 62 67 83 68
REMARK SMILES IDX 50 69 34 70 35 71 43 72 36 73 37 74 41 75 44 76 38 77 39 78
REMARK SMILES IDX 42 79 40 80 66 81 67 82 75 83 68 84 69 85 73 86 76 87 70 88
REMARK SMILES IDX 71 89 74 90 72 91 51 92 52 93 60 94 53 95 54 96 58 97 61 98
REMARK SMILES IDX 55 99 56 100 59 101 57 102
REMARK H PARENT 17 5 94 22 96 28 22 36 81 55 49 66
REMARK Flexibility Score: inf
ROOT
ATOM      1  C   UNL A   1      44.664  21.017  25.091  1.00  0.00     0.116 C 
ENDROOT
BRANCH   1   2
ATOM      2  N   UNL A   1      45.655  21.668  25.923  1.00  0.00    -0.353 N 
ATOM      3  C   UNL A   1      46.023  22.984  25.939  1.00  0.00     0.257 C 
ATOM      4  O   UNL A   1      46.788  23.358  26.830  1.00  0.00    -0.271 OA
ATOM      5  H   UNL A   1      46.125  21.086  26.561  1.00  0.00     0.163 HD
BRANCH   3   6
ATOM      6  C   UNL A   1      45.409  23.957  24.917  1.00  0.00     0.329 C 
BRANCH   6   7
ATOM      7  O   UNL A   1      46.077  25.180  24.655  1.00  0.00    -0.480 OA
BRANCH   7   8
ATOM      8  C   UNL A   1      45.821  26.268  25.448  1.00  0.00     0.161 A 
ATOM      9  C   UNL A   1      44.956  28.552  26.848  1.00  0.00    -0.021 A 
ATOM     10  C   UNL A   1      44.072  27.876  26.010  1.00  0.00     0.012 A 
ATOM     11  C   UNL A   1      46.251  28.047  27.031  1.00  0.00     0.058 A 
ATOM     12  C   UNL A   1      44.505  26.740  25.321  1.00  0.00     0.051 A 
ATOM     13  C   UNL A   1      46.694  26.914  26.334  1.00  0.00     0.161 A 
BRANCH   9  14
ATOM     14  C   UNL A   1      44.541  29.764  27.564  1.00  0.00     0.032 C 
ATOM     15  N   UNL A   1      45.331  33.262  28.261  1.00  0.00    -0.183 N 
ATOM     16  C   UNL A   1      44.618  32.068  28.321  1.00  0.00     0.349 C 
ATOM     17  C   UNL A   1      46.408  33.336  27.404  1.00  0.00     0.318 C 
ATOM     18  O   UNL A   1      43.749  31.839  29.162  1.00  0.00    -0.240 OA
ATOM     19  C   UNL A   1      45.028  31.009  27.367  1.00  0.00     0.154 C 
ATOM     20  N   UNL A   1      46.716  32.476  26.502  1.00  0.00    -0.200 N 
ATOM     21  C   UNL A   1      45.975  31.357  26.290  1.00  0.00     0.347 C 
ATOM     22  H   UNL A   1      47.514  32.632  25.947  1.00  0.00     0.316 HD
ATOM     23  O   UNL A   1      46.101  30.684  25.274  1.00  0.00    -0.241 OA
BRANCH  15  24
ATOM     24  C   UNL A   1      45.009  34.217  29.340  1.00  0.00     0.275 C 
BRANCH  24  25
ATOM     25  C   UNL A   1      45.886  34.157  30.556  1.00  0.00     0.011 C 
ATOM     26  C   UNL A   1      46.460  35.194  31.178  1.00  0.00     0.008 C 
ENDBRANCH  24  25
ENDBRANCH  15  24
BRANCH  17  27
ATOM     27  S   UNL A   1      47.535  34.667  27.486  1.00  0.00    -0.055 SA
ATOM     28  H   UNL A   1      47.692  35.206  26.247  1.00  0.00     0.116 HD
ENDBRANCH  17  27
ENDBRANCH   9  14
BRANCH  13  29
ATOM     29  O   UNL A   1      47.928  26.366  26.563  1.00  0.00    -0.493 OA
ATOM     30  C   UNL A   1      48.901  27.227  27.148  1.00  0.00     0.278 C 
ENDBRANCH  13  29
ENDBRANCH   7   8
ENDBRANCH   6   7
ENDBRANCH   3   6
ENDBRANCH   1   2
BRANCH   1  31
ATOM     31  C   UNL A   1      43.312  20.882  25.786  1.00  0.00     0.023 C 
BRANCH  31  32
ATOM     32  C   UNL A   1      42.496  22.172  25.887  1.00  0.00     0.023 C 
BRANCH  32  33
ATOM     33  C   UNL A   1      41.301  22.127  26.831  1.00  0.00     0.116 C 
BRANCH  33  34
ATOM     34  N   UNL A   1      40.023  22.212  26.141  1.00  0.00    -0.352 N 
ATOM     35  C   UNL A   1      39.083  23.215  26.163  1.00  0.00     0.251 C 
ATOM     36  H   UNL A   1      39.800  21.439  25.575  1.00  0.00     0.163 HD
ATOM     37  O   UNL A   1      37.997  23.051  25.615  1.00  0.00    -0.269 OA
BRANCH  35  38
ATOM     38  C   UNL A   1      39.360  24.481  26.876  1.00  0.00     0.039 A 
ATOM     39  C   UNL A   1      38.911  24.623  28.192  1.00  0.00     0.014 A 
ATOM     40  C   UNL A   1      40.061  25.520  26.260  1.00  0.00     0.014 A 
ATOM     41  C   UNL A   1      39.228  25.777  28.912  1.00  0.00     0.010 A 
ATOM     42  C   UNL A   1      40.446  26.635  27.004  1.00  0.00     0.010 A 
ATOM     43  C   UNL A   1      40.035  26.774  28.339  1.00  0.00    -0.014 A 
BRANCH  43  44
ATOM     44  C   UNL A   1      40.469  27.960  29.123  1.00  0.00     0.031 A 
ATOM     45  C   UNL A   1      41.848  28.015  29.721  1.00  0.00     0.074 A 
ATOM     46  C   UNL A   1      39.597  28.964  29.351  1.00  0.00     0.049 A 
ATOM     47  N   UNL A   1      42.384  28.934  30.486  1.00  0.00    -0.248 NA
ATOM     48  C   UNL A   1      42.735  26.876  29.443  1.00  0.00     0.031 C 
ATOM     49  C   UNL A   1      38.217  29.010  28.866  1.00  0.00     0.029 A 
ATOM     50  N   UNL A   1      39.739  30.132  30.060  1.00  0.00    -0.354 N 
ATOM     51  C   UNL A   1      43.659  28.476  30.789  1.00  0.00     0.074 A 
ATOM     52  C   UNL A   1      43.799  27.176  30.173  1.00  0.00     0.031 C 
ATOM     53  C   UNL A   1      37.648  30.156  29.270  1.00  0.00     0.029 A 
ATOM     54  C   UNL A   1      38.604  30.906  30.079  1.00  0.00     0.049 A 
ATOM     55  H   UNL A   1      40.575  30.391  30.510  1.00  0.00     0.167 HD
ATOM     56  C   UNL A   1      44.633  29.095  31.499  1.00  0.00     0.037 A 
ATOM     57  C   UNL A   1      38.356  32.080  30.690  1.00  0.00     0.037 A 
ATOM     58  C   UNL A   1      44.496  30.397  32.099  1.00  0.00     0.049 A 
ATOM     59  C   UNL A   1      39.449  32.736  31.492  1.00  0.00     0.074 A 
ATOM     60  C   UNL A   1      45.445  31.135  32.785  1.00  0.00     0.029 A 
ATOM     61  N   UNL A   1      43.332  31.154  32.091  1.00  0.00    -0.354 N 
ATOM     62  N   UNL A   1      40.676  32.328  31.709  1.00  0.00    -0.248 NA
ATOM     63  C   UNL A   1      39.123  34.020  32.129  1.00  0.00     0.031 C 
ATOM     64  C   UNL A   1      44.840  32.308  33.246  1.00  0.00     0.029 A 
ATOM     65  C   UNL A   1      43.532  32.336  32.788  1.00  0.00     0.049 A 
ATOM     66  H   UNL A   1      42.490  30.890  31.654  1.00  0.00     0.167 HD
ATOM     67  C   UNL A   1      41.277  33.317  32.478  1.00  0.00     0.074 A 
ATOM     68  C   UNL A   1      40.284  34.352  32.675  1.00  0.00     0.031 C 
ATOM     69  C   UNL A   1      42.539  33.363  32.973  1.00  0.00     0.037 A 
BRANCH  56  70
ATOM     70  C   UNL A   1      45.937  28.368  31.674  1.00  0.00     0.064 A 
ATOM     71  C   UNL A   1      47.046  28.634  30.856  1.00  0.00     0.173 A 
ATOM     72  C   UNL A   1      46.094  27.426  32.702  1.00  0.00     0.173 A 
ATOM     73  F   UNL A   1      46.949  29.520  29.852  1.00  0.00    -0.203 F 
ATOM     74  C   UNL A   1      48.251  27.960  31.038  1.00  0.00     0.198 A 
ATOM     75  C   UNL A   1      47.311  26.780  32.905  1.00  0.00     0.198 A 
ATOM     76  F   UNL A   1      45.071  27.139  33.521  1.00  0.00    -0.203 F 
ATOM     77  F   UNL A   1      49.279  28.190  30.210  1.00  0.00    -0.200 F 
ATOM     78  C   UNL A   1      48.385  27.040  32.067  1.00  0.00     0.200 A 
ATOM     79  F   UNL A   1      47.444  25.904  33.911  1.00  0.00    -0.200 F 
ATOM     80  F   UNL A   1      49.548  26.399  32.249  1.00  0.00    -0.200 F 
ENDBRANCH  56  70
BRANCH  57  81
ATOM     81  C   UNL A   1      37.021  32.722  30.557  1.00  0.00     0.064 A 
ATOM     82  C   UNL A   1      36.691  33.472  29.419  1.00  0.00     0.173 A 
ATOM     83  C   UNL A   1      36.053  32.610  31.566  1.00  0.00     0.173 A 
ATOM     84  F   UNL A   1      37.591  33.627  28.436  1.00  0.00    -0.203 F 
ATOM     85  C   UNL A   1      35.455  34.104  29.305  1.00  0.00     0.198 A 
ATOM     86  C   UNL A   1      34.804  33.215  31.436  1.00  0.00     0.198 A 
ATOM     87  F   UNL A   1      36.315  31.902  32.674  1.00  0.00    -0.203 F 
ATOM     88  F   UNL A   1      35.187  34.858  28.231  1.00  0.00    -0.200 F 
ATOM     89  C   UNL A   1      34.510  33.971  30.311  1.00  0.00     0.200 A 
ATOM     90  F   UNL A   1      33.888  33.071  32.404  1.00  0.00    -0.200 F 
ATOM     91  F   UNL A   1      33.320  34.576  30.200  1.00  0.00    -0.200 F 
ENDBRANCH  57  81
BRANCH  69  92
ATOM     92  C   UNL A   1      42.935  34.591  33.744  1.00  0.00     0.064 A 
ATOM     93  C   UNL A   1      43.256  35.797  33.104  1.00  0.00     0.173 A 
ATOM     94  C   UNL A   1      42.954  34.568  35.148  1.00  0.00     0.173 A 
ATOM     95  F   UNL A   1      43.267  35.869  31.764  1.00  0.00    -0.203 F 
ATOM     96  C   UNL A   1      43.609  36.925  33.840  1.00  0.00     0.198 A 
ATOM     97  C   UNL A   1      43.272  35.709  35.880  1.00  0.00     0.198 A 
ATOM     98  F   UNL A   1      42.649  33.442  35.811  1.00  0.00    -0.203 F 
ATOM     99  F   UNL A   1      43.964  38.052  33.206  1.00  0.00    -0.200 F 
ATOM    100  C   UNL A   1      43.608  36.883  35.226  1.00  0.00     0.200 A 
ATOM    101  F   UNL A   1      43.254  35.669  37.220  1.00  0.00    -0.200 F 
ATOM    102  F   UNL A   1      43.938  37.974  35.932  1.00  0.00    -0.200 F 
ENDBRANCH  69  92
ENDBRANCH  43  44
ENDBRANCH  35  38
ENDBRANCH  33  34
ENDBRANCH  32  33
ENDBRANCH  31  32
ENDBRANCH   1  31
TORSDOF 18
ENDMDL
