MODEL 1
REMARK VINA RESULT:     -14.5      0.000      0.000
REMARK SMILES Cc1c(CC(=O)N[C@@H](C)C(=O)NCCCCNC(=O)c2ccc(-c3c4nc(c(-c5c(F)c(F)c(F)c(F)c5F)c5ccc([nH]5)c(-c5c(F)c(F)c(F)c(F)c5F)c5nc(c(-c6c(F)c(F)c(F)c(F)c6F)c6ccc3[nH]6)C=C5)C=C4)cc2)c(=O)oc2cc3oc4c(c3cc12)CCCC4
REMARK SMILES IDX 14 1 13 2 12 3 10 4 11 5 8 7 9 8 7 9 5 10 6 11 4 13 3 14
REMARK SMILES IDX 1 15 2 16 94 17 83 18 86 19 93 20 84 21 85 22 87 23 92 24
REMARK SMILES IDX 88 25 91 26 89 27 90 28 95 29 98 30 96 31 97 32 15 33 16 34
REMARK SMILES IDX 17 35 18 36 19 38 20 39 21 40 82 41 22 42 81 43 23 44 24 45
REMARK SMILES IDX 25 46 75 47 26 48 80 49 74 50 76 51 27 52 79 53 73 54 72 55
REMARK SMILES IDX 28 57 60 58 40 59 59 60 41 61 44 62 58 63 77 64 42 65 43 66
REMARK SMILES IDX 57 68 78 69 45 70 29 71 30 72 38 73 31 74 32 75 36 76 39 77
REMARK SMILES IDX 33 78 34 79 37 80 35 81 61 82 62 83 70 84 63 85 64 86 68 87
REMARK SMILES IDX 71 88 65 89 66 90 69 91 67 92 46 93 47 94 55 95 48 96 49 97
REMARK SMILES IDX 53 98 56 99 50 100 51 101 54 102 52 103
REMARK H PARENT 12 6 7 12 17 37 76 56 44 67
REMARK Flexibility Score: inf
ROOT
ATOM      1  C   UNL A   1      45.679  20.671  35.100  1.00  0.00     0.023 C 
ENDROOT
BRANCH   1   2
ATOM      2  C   UNL A   1      46.169  19.573  36.040  1.00  0.00     0.116 C 
BRANCH   2   3
ATOM      3  N   UNL A   1      47.586  19.723  36.352  1.00  0.00    -0.354 N 
ATOM      4  C   UNL A   1      48.247  19.781  37.543  1.00  0.00     0.242 C 
ATOM      5  O   UNL A   1      49.476  19.707  37.520  1.00  0.00    -0.273 OA
ATOM      6  H   UNL A   1      48.168  19.793  35.563  1.00  0.00     0.163 HD
BRANCH   4   7
ATOM      7  C   UNL A   1      47.473  19.842  38.858  1.00  0.00     0.168 C 
ATOM      8  C   UNL A   1      47.825  21.131  39.602  1.00  0.00     0.041 C 
BRANCH   7   9
ATOM      9  N   UNL A   1      47.743  18.616  39.612  1.00  0.00    -0.344 N 
ATOM     10  C   UNL A   1      46.892  17.821  40.313  1.00  0.00     0.225 C 
ATOM     11  O   UNL A   1      47.315  16.730  40.699  1.00  0.00    -0.275 OA
ATOM     12  H   UNL A   1      48.684  18.325  39.613  1.00  0.00     0.164 HD
BRANCH  10  13
ATOM     13  C   UNL A   1      45.475  18.277  40.622  1.00  0.00     0.143 C 
BRANCH  13  14
ATOM     14  C   UNL A   1      44.536  17.101  40.711  1.00  0.00     0.051 A 
ATOM     15  C   UNL A   1      44.927  16.715  43.178  1.00  0.00     0.046 C 
ATOM     16  C   UNL A   1      44.218  16.476  41.864  1.00  0.00    -0.029 A 
ATOM     17  C   UNL A   1      43.162  15.453  41.846  1.00  0.00     0.022 A 
ATOM     18  C   UNL A   1      43.920  16.706  39.414  1.00  0.00     0.340 A 
ATOM     19  C   UNL A   1      42.662  15.010  40.619  1.00  0.00     0.142 A 
ATOM     20  C   UNL A   1      42.736  14.823  43.021  1.00  0.00     0.024 A 
ATOM     21  O   UNL A   1      44.198  17.280  38.367  1.00  0.00    -0.246 OA
ATOM     22  O   UNL A   1      43.010  15.666  39.427  1.00  0.00    -0.422 OA
ATOM     23  C   UNL A   1      41.884  13.858  40.469  1.00  0.00     0.095 A 
ATOM     24  C   UNL A   1      42.123  13.571  42.893  1.00  0.00     0.025 A 
ATOM     25  C   UNL A   1      41.776  13.106  41.628  1.00  0.00     0.138 A 
ATOM     26  C   UNL A   1      42.033  12.462  43.767  1.00  0.00     0.001 A 
ATOM     27  O   UNL A   1      41.532  11.763  41.669  1.00  0.00    -0.461 OA
ATOM     28  C   UNL A   1      41.885  11.383  42.922  1.00  0.00     0.108 A 
ATOM     29  C   UNL A   1      42.652  12.268  45.104  1.00  0.00     0.040 C 
ATOM     30  C   UNL A   1      42.661  10.127  43.116  1.00  0.00     0.076 C 
ATOM     31  C   UNL A   1      43.976  11.492  44.929  1.00  0.00     0.005 C 
ATOM     32  C   UNL A   1      44.045  10.577  43.668  1.00  0.00     0.008 C 
ENDBRANCH  13  14
ENDBRANCH  10  13
ENDBRANCH   7   9
ENDBRANCH   4   7
ENDBRANCH   2   3
ENDBRANCH   1   2
BRANCH   1  33
ATOM     33  C   UNL A   1      46.536  21.937  35.127  1.00  0.00     0.023 C 
BRANCH  33  34
ATOM     34  C   UNL A   1      46.111  22.940  36.197  1.00  0.00     0.116 C 
BRANCH  34  35
ATOM     35  N   UNL A   1      44.666  23.040  36.333  1.00  0.00    -0.352 N 
ATOM     36  C   UNL A   1      43.787  23.711  35.514  1.00  0.00     0.251 C 
ATOM     37  H   UNL A   1      44.270  22.573  37.103  1.00  0.00     0.163 HD
ATOM     38  O   UNL A   1      42.604  23.813  35.781  1.00  0.00    -0.269 OA
BRANCH  36  39
ATOM     39  C   UNL A   1      44.353  24.362  34.317  1.00  0.00     0.039 A 
ATOM     40  C   UNL A   1      44.882  25.653  34.421  1.00  0.00     0.014 A 
ATOM     41  C   UNL A   1      44.178  23.744  33.080  1.00  0.00     0.014 A 
ATOM     42  C   UNL A   1      45.074  26.400  33.270  1.00  0.00     0.010 A 
ATOM     43  C   UNL A   1      44.431  24.477  31.927  1.00  0.00     0.010 A 
ATOM     44  C   UNL A   1      44.818  25.823  32.024  1.00  0.00    -0.014 A 
BRANCH  44  45
ATOM     45  C   UNL A   1      45.069  26.662  30.843  1.00  0.00     0.031 A 
ATOM     46  C   UNL A   1      45.007  25.887  29.578  1.00  0.00     0.074 A 
ATOM     47  C   UNL A   1      44.631  27.934  30.732  1.00  0.00     0.049 A 
ATOM     48  N   UNL A   1      43.867  25.650  29.006  1.00  0.00    -0.248 NA
ATOM     49  C   UNL A   1      46.120  25.103  29.052  1.00  0.00     0.031 C 
ATOM     50  C   UNL A   1      43.460  28.483  31.428  1.00  0.00     0.029 A 
ATOM     51  N   UNL A   1      44.956  28.888  29.795  1.00  0.00    -0.354 N 
ATOM     52  C   UNL A   1      44.069  24.621  28.113  1.00  0.00     0.074 A 
ATOM     53  C   UNL A   1      45.489  24.338  28.145  1.00  0.00     0.031 C 
ATOM     54  C   UNL A   1      43.044  29.577  30.761  1.00  0.00     0.029 A 
ATOM     55  C   UNL A   1      44.014  29.900  29.724  1.00  0.00     0.049 A 
ATOM     56  H   UNL A   1      45.767  28.855  29.238  1.00  0.00     0.167 HD
ATOM     57  C   UNL A   1      43.047  24.049  27.426  1.00  0.00     0.037 A 
ATOM     58  C   UNL A   1      43.820  30.740  28.679  1.00  0.00     0.037 A 
ATOM     59  C   UNL A   1      41.703  24.569  27.573  1.00  0.00     0.049 A 
ATOM     60  C   UNL A   1      42.909  29.927  27.799  1.00  0.00     0.074 A 
ATOM     61  C   UNL A   1      40.417  24.140  27.296  1.00  0.00     0.029 A 
ATOM     62  N   UNL A   1      41.539  25.839  28.061  1.00  0.00    -0.354 N 
ATOM     63  N   UNL A   1      41.613  29.809  27.944  1.00  0.00    -0.248 NA
ATOM     64  C   UNL A   1      43.514  28.944  26.881  1.00  0.00     0.031 C 
ATOM     65  C   UNL A   1      39.565  25.292  27.332  1.00  0.00     0.029 A 
ATOM     66  C   UNL A   1      40.365  26.385  27.606  1.00  0.00     0.049 A 
ATOM     67  H   UNL A   1      42.176  26.298  28.656  1.00  0.00     0.167 HD
ATOM     68  C   UNL A   1      41.308  28.588  27.355  1.00  0.00     0.074 A 
ATOM     69  C   UNL A   1      42.475  28.164  26.613  1.00  0.00     0.031 C 
ATOM     70  C   UNL A   1      40.245  27.812  27.699  1.00  0.00     0.037 A 
BRANCH  57  71
ATOM     71  C   UNL A   1      43.298  23.052  26.365  1.00  0.00     0.064 A 
ATOM     72  C   UNL A   1      43.060  21.703  26.667  1.00  0.00     0.173 A 
ATOM     73  C   UNL A   1      43.908  23.365  25.149  1.00  0.00     0.173 A 
ATOM     74  F   UNL A   1      42.465  21.368  27.824  1.00  0.00    -0.203 F 
ATOM     75  C   UNL A   1      43.456  20.693  25.801  1.00  0.00     0.198 A 
ATOM     76  C   UNL A   1      44.297  22.350  24.276  1.00  0.00     0.198 A 
ATOM     77  F   UNL A   1      44.155  24.642  24.823  1.00  0.00    -0.203 F 
ATOM     78  F   UNL A   1      43.249  19.412  26.129  1.00  0.00    -0.200 F 
ATOM     79  C   UNL A   1      44.084  21.017  24.609  1.00  0.00     0.200 A 
ATOM     80  F   UNL A   1      44.902  22.657  23.120  1.00  0.00    -0.200 F 
ATOM     81  F   UNL A   1      44.488  20.043  23.781  1.00  0.00    -0.200 F 
ENDBRANCH  57  71
BRANCH  58  82
ATOM     82  C   UNL A   1      45.043  31.475  28.234  1.00  0.00     0.064 A 
ATOM     83  C   UNL A   1      45.064  32.877  28.424  1.00  0.00     0.173 A 
ATOM     84  C   UNL A   1      46.185  30.919  27.648  1.00  0.00     0.173 A 
ATOM     85  F   UNL A   1      43.971  33.514  28.877  1.00  0.00    -0.203 F 
ATOM     86  C   UNL A   1      46.198  33.646  28.168  1.00  0.00     0.198 A 
ATOM     87  C   UNL A   1      47.330  31.686  27.411  1.00  0.00     0.198 A 
ATOM     88  F   UNL A   1      46.228  29.627  27.303  1.00  0.00    -0.203 F 
ATOM     89  F   UNL A   1      46.184  34.964  28.408  1.00  0.00    -0.200 F 
ATOM     90  C   UNL A   1      47.343  33.042  27.688  1.00  0.00     0.200 A 
ATOM     91  F   UNL A   1      48.433  31.095  26.931  1.00  0.00    -0.200 F 
ATOM     92  F   UNL A   1      48.456  33.762  27.490  1.00  0.00    -0.200 F 
ENDBRANCH  58  82
BRANCH  70  93
ATOM     93  C   UNL A   1      39.080  28.469  28.321  1.00  0.00     0.064 A 
ATOM     94  C   UNL A   1      38.769  28.211  29.665  1.00  0.00     0.173 A 
ATOM     95  C   UNL A   1      38.301  29.402  27.628  1.00  0.00     0.173 A 
ATOM     96  F   UNL A   1      39.516  27.357  30.383  1.00  0.00    -0.203 F 
ATOM     97  C   UNL A   1      37.711  28.860  30.291  1.00  0.00     0.198 A 
ATOM     98  C   UNL A   1      37.250  30.058  28.261  1.00  0.00     0.198 A 
ATOM     99  F   UNL A   1      38.555  29.680  26.340  1.00  0.00    -0.203 F 
ATOM    100  F   UNL A   1      37.438  28.606  31.578  1.00  0.00    -0.200 F 
ATOM    101  C   UNL A   1      36.957  29.787  29.590  1.00  0.00     0.200 A 
ATOM    102  F   UNL A   1      36.528  30.965  27.588  1.00  0.00    -0.200 F 
ATOM    103  F   UNL A   1      35.952  30.431  30.200  1.00  0.00    -0.200 F 
ENDBRANCH  70  93
ENDBRANCH  44  45
ENDBRANCH  36  39
ENDBRANCH  34  35
ENDBRANCH  33  34
ENDBRANCH   1  33
TORSDOF 14
ENDMDL
MODEL 2
REMARK VINA RESULT:     -13.7      5.663     11.977
REMARK SMILES Cc1c(CC(=O)N[C@@H](C)C(=O)NCCCCNC(=O)c2ccc(-c3c4nc(c(-c5c(F)c(F)c(F)c(F)c5F)c5ccc([nH]5)c(-c5c(F)c(F)c(F)c(F)c5F)c5nc(c(-c6c(F)c(F)c(F)c(F)c6F)c6ccc3[nH]6)C=C5)C=C4)cc2)c(=O)oc2cc3oc4c(c3cc12)CCCC4
REMARK SMILES IDX 14 1 13 2 12 3 10 4 11 5 8 7 9 8 7 9 5 10 6 11 4 13 3 14
REMARK SMILES IDX 1 15 2 16 94 17 83 18 86 19 93 20 84 21 85 22 87 23 92 24
REMARK SMILES IDX 88 25 91 26 89 27 90 28 95 29 98 30 96 31 97 32 15 33 16 34
REMARK SMILES IDX 17 35 18 36 19 38 20 39 21 40 82 41 22 42 81 43 23 44 24 45
REMARK SMILES IDX 25 46 75 47 26 48 80 49 74 50 76 51 27 52 79 53 73 54 72 55
REMARK SMILES IDX 28 57 60 58 40 59 59 60 41 61 44 62 58 63 77 64 42 65 43 66
REMARK SMILES IDX 57 68 78 69 45 70 29 71 30 72 38 73 31 74 32 75 36 76 39 77
REMARK SMILES IDX 33 78 34 79 37 80 35 81 61 82 62 83 70 84 63 85 64 86 68 87
REMARK SMILES IDX 71 88 65 89 66 90 69 91 67 92 46 93 47 94 55 95 48 96 49 97
REMARK SMILES IDX 53 98 56 99 50 100 51 101 54 102 52 103
REMARK H PARENT 12 6 7 12 17 37 76 56 44 67
REMARK Flexibility Score: inf
ROOT
ATOM      1  C   UNL A   1      42.126  27.009  34.565  1.00  0.00     0.023 C 
ENDROOT
BRANCH   1   2
ATOM      2  C   UNL A   1      41.583  28.404  34.859  1.00  0.00     0.116 C 
BRANCH   2   3
ATOM      3  N   UNL A   1      42.276  29.028  35.980  1.00  0.00    -0.354 N 
ATOM      4  C   UNL A   1      42.247  30.301  36.465  1.00  0.00     0.242 C 
ATOM      5  O   UNL A   1      42.778  30.512  37.556  1.00  0.00    -0.273 OA
ATOM      6  H   UNL A   1      42.870  28.420  36.477  1.00  0.00     0.163 HD
BRANCH   4   7
ATOM      7  C   UNL A   1      41.497  31.400  35.714  1.00  0.00     0.168 C 
ATOM      8  C   UNL A   1      41.752  32.749  36.388  1.00  0.00     0.041 C 
BRANCH   7   9
ATOM      9  N   UNL A   1      40.084  31.024  35.630  1.00  0.00    -0.344 N 
ATOM     10  C   UNL A   1      39.123  31.441  34.766  1.00  0.00     0.225 C 
ATOM     11  O   UNL A   1      38.051  30.832  34.762  1.00  0.00    -0.275 OA
ATOM     12  H   UNL A   1      39.786  30.369  36.303  1.00  0.00     0.164 HD
BRANCH  10  13
ATOM     13  C   UNL A   1      39.361  32.632  33.850  1.00  0.00     0.143 C 
BRANCH  13  14
ATOM     14  C   UNL A   1      38.071  33.354  33.554  1.00  0.00     0.051 A 
ATOM     15  C   UNL A   1      37.675  32.167  31.357  1.00  0.00     0.046 C 
ATOM     16  C   UNL A   1      37.275  33.074  32.500  1.00  0.00    -0.029 A 
ATOM     17  C   UNL A   1      35.961  33.728  32.413  1.00  0.00     0.022 A 
ATOM     18  C   UNL A   1      37.695  34.381  34.563  1.00  0.00     0.340 A 
ATOM     19  C   UNL A   1      35.655  34.765  33.297  1.00  0.00     0.142 A 
ATOM     20  C   UNL A   1      35.062  33.423  31.386  1.00  0.00     0.024 A 
ATOM     21  O   UNL A   1      38.411  34.630  35.527  1.00  0.00    -0.246 OA
ATOM     22  O   UNL A   1      36.499  35.050  34.384  1.00  0.00    -0.422 OA
ATOM     23  C   UNL A   1      34.578  35.639  33.125  1.00  0.00     0.095 A 
ATOM     24  C   UNL A   1      34.091  34.382  31.075  1.00  0.00     0.025 A 
ATOM     25  C   UNL A   1      33.924  35.482  31.913  1.00  0.00     0.138 A 
ATOM     26  C   UNL A   1      33.395  34.679  29.880  1.00  0.00     0.001 A 
ATOM     27  O   UNL A   1      33.211  36.456  31.277  1.00  0.00    -0.461 OA
ATOM     28  C   UNL A   1      33.083  36.017  30.000  1.00  0.00     0.108 A 
ATOM     29  C   UNL A   1      33.551  34.081  28.529  1.00  0.00     0.040 C 
ATOM     30  C   UNL A   1      33.280  36.969  28.873  1.00  0.00     0.076 C 
ATOM     31  C   UNL A   1      34.507  34.969  27.701  1.00  0.00     0.005 C 
ATOM     32  C   UNL A   1      34.551  36.469  28.127  1.00  0.00     0.008 C 
ENDBRANCH  13  14
ENDBRANCH  10  13
ENDBRANCH   7   9
ENDBRANCH   4   7
ENDBRANCH   2   3
ENDBRANCH   1   2
BRANCH   1  33
ATOM     33  C   UNL A   1      41.965  26.025  35.724  1.00  0.00     0.023 C 
BRANCH  33  34
ATOM     34  C   UNL A   1      41.926  24.563  35.284  1.00  0.00     0.116 C 
BRANCH  34  35
ATOM     35  N   UNL A   1      42.923  23.744  35.956  1.00  0.00    -0.352 N 
ATOM     36  C   UNL A   1      44.208  23.475  35.545  1.00  0.00     0.251 C 
ATOM     37  H   UNL A   1      42.644  23.334  36.806  1.00  0.00     0.163 HD
ATOM     38  O   UNL A   1      44.925  22.691  36.138  1.00  0.00    -0.269 OA
BRANCH  36  39
ATOM     39  C   UNL A   1      44.667  24.135  34.308  1.00  0.00     0.039 A 
ATOM     40  C   UNL A   1      45.413  25.314  34.392  1.00  0.00     0.014 A 
ATOM     41  C   UNL A   1      44.189  23.662  33.087  1.00  0.00     0.014 A 
ATOM     42  C   UNL A   1      45.534  26.121  33.273  1.00  0.00     0.010 A 
ATOM     43  C   UNL A   1      44.365  24.446  31.953  1.00  0.00     0.010 A 
ATOM     44  C   UNL A   1      44.982  25.702  32.059  1.00  0.00    -0.014 A 
BRANCH  44  45
ATOM     45  C   UNL A   1      45.170  26.593  30.906  1.00  0.00     0.031 A 
ATOM     46  C   UNL A   1      45.113  25.861  29.614  1.00  0.00     0.074 A 
ATOM     47  C   UNL A   1      44.675  27.847  30.850  1.00  0.00     0.049 A 
ATOM     48  N   UNL A   1      43.971  25.595  29.058  1.00  0.00    -0.248 NA
ATOM     49  C   UNL A   1      46.246  25.146  29.037  1.00  0.00     0.031 C 
ATOM     50  C   UNL A   1      43.498  28.319  31.590  1.00  0.00     0.029 A 
ATOM     51  N   UNL A   1      44.937  28.848  29.942  1.00  0.00    -0.354 N 
ATOM     52  C   UNL A   1      44.197  24.609  28.124  1.00  0.00     0.074 A 
ATOM     53  C   UNL A   1      45.629  24.387  28.116  1.00  0.00     0.031 C 
ATOM     54  C   UNL A   1      43.019  29.418  30.973  1.00  0.00     0.029 A 
ATOM     55  C   UNL A   1      43.951  29.819  29.928  1.00  0.00     0.049 A 
ATOM     56  H   UNL A   1      45.736  28.870  29.368  1.00  0.00     0.167 HD
ATOM     57  C   UNL A   1      43.185  24.017  27.438  1.00  0.00     0.037 A 
ATOM     58  C   UNL A   1      43.697  30.686  28.919  1.00  0.00     0.037 A 
ATOM     59  C   UNL A   1      41.823  24.472  27.633  1.00  0.00     0.049 A 
ATOM     60  C   UNL A   1      42.802  29.866  28.029  1.00  0.00     0.074 A 
ATOM     61  C   UNL A   1      40.551  23.997  27.367  1.00  0.00     0.029 A 
ATOM     62  N   UNL A   1      41.616  25.716  28.170  1.00  0.00    -0.354 N 
ATOM     63  N   UNL A   1      41.516  29.686  28.197  1.00  0.00    -0.248 NA
ATOM     64  C   UNL A   1      43.429  28.944  27.064  1.00  0.00     0.031 C 
ATOM     65  C   UNL A   1      39.651  25.109  27.464  1.00  0.00     0.029 A 
ATOM     66  C   UNL A   1      40.410  26.226  27.760  1.00  0.00     0.049 A 
ATOM     67  H   UNL A   1      42.246  26.180  28.768  1.00  0.00     0.167 HD
ATOM     68  C   UNL A   1      41.251  28.475  27.570  1.00  0.00     0.074 A 
ATOM     69  C   UNL A   1      42.418  28.129  26.789  1.00  0.00     0.031 C 
ATOM     70  C   UNL A   1      40.231  27.642  27.908  1.00  0.00     0.037 A 
BRANCH  57  71
ATOM     71  C   UNL A   1      43.454  23.071  26.337  1.00  0.00     0.064 A 
ATOM     72  C   UNL A   1      43.236  21.706  26.579  1.00  0.00     0.173 A 
ATOM     73  C   UNL A   1      44.063  23.444  25.137  1.00  0.00     0.173 A 
ATOM     74  F   UNL A   1      42.643  21.313  27.719  1.00  0.00    -0.203 F 
ATOM     75  C   UNL A   1      43.651  20.741  25.672  1.00  0.00     0.198 A 
ATOM     76  C   UNL A   1      44.471  22.474  24.223  1.00  0.00     0.198 A 
ATOM     77  F   UNL A   1      44.292  24.738  24.867  1.00  0.00    -0.203 F 
ATOM     78  F   UNL A   1      43.462  19.443  25.945  1.00  0.00    -0.200 F 
ATOM     79  C   UNL A   1      44.277  21.125  24.497  1.00  0.00     0.200 A 
ATOM     80  F   UNL A   1      45.075  22.839  23.083  1.00  0.00    -0.200 F 
ATOM     81  F   UNL A   1      44.699  20.194  23.630  1.00  0.00    -0.200 F 
ENDBRANCH  57  71
BRANCH  58  82
ATOM     82  C   UNL A   1      44.877  31.490  28.475  1.00  0.00     0.064 A 
ATOM     83  C   UNL A   1      44.836  32.886  28.704  1.00  0.00     0.173 A 
ATOM     84  C   UNL A   1      46.033  31.004  27.856  1.00  0.00     0.173 A 
ATOM     85  F   UNL A   1      43.723  33.458  29.192  1.00  0.00    -0.203 F 
ATOM     86  C   UNL A   1      45.929  33.714  28.452  1.00  0.00     0.198 A 
ATOM     87  C   UNL A   1      47.137  31.830  27.622  1.00  0.00     0.198 A 
ATOM     88  F   UNL A   1      46.130  29.726  27.474  1.00  0.00    -0.203 F 
ATOM     89  F   UNL A   1      45.857  35.023  28.729  1.00  0.00    -0.200 F 
ATOM     90  C   UNL A   1      47.093  33.178  27.937  1.00  0.00     0.200 A 
ATOM     91  F   UNL A   1      48.258  31.305  27.109  1.00  0.00    -0.200 F 
ATOM     92  F   UNL A   1      48.167  33.954  27.742  1.00  0.00    -0.200 F 
ENDBRANCH  58  82
BRANCH  70  93
ATOM     93  C   UNL A   1      39.053  28.224  28.578  1.00  0.00     0.064 A 
ATOM     94  C   UNL A   1      38.804  27.933  29.929  1.00  0.00     0.173 A 
ATOM     95  C   UNL A   1      38.198  29.119  27.924  1.00  0.00     0.173 A 
ATOM     96  F   UNL A   1      39.623  27.115  30.609  1.00  0.00    -0.203 F 
ATOM     97  C   UNL A   1      37.734  28.514  30.598  1.00  0.00     0.198 A 
ATOM     98  C   UNL A   1      37.135  29.707  28.602  1.00  0.00     0.198 A 
ATOM     99  F   UNL A   1      38.391  29.426  26.632  1.00  0.00    -0.203 F 
ATOM    100  F   UNL A   1      37.520  28.230  31.890  1.00  0.00    -0.200 F 
ATOM    101  C   UNL A   1      36.904  29.405  29.936  1.00  0.00     0.200 A 
ATOM    102  F   UNL A   1      36.339  30.579  27.966  1.00  0.00    -0.200 F 
ATOM    103  F   UNL A   1      35.886  29.983  30.588  1.00  0.00    -0.200 F 
ENDBRANCH  70  93
ENDBRANCH  44  45
ENDBRANCH  36  39
ENDBRANCH  34  35
ENDBRANCH  33  34
ENDBRANCH   1  33
TORSDOF 14
ENDMDL
MODEL 3
REMARK VINA RESULT:     -13.5      9.863     21.617
REMARK SMILES Cc1c(CC(=O)N[C@@H](C)C(=O)NCCCCNC(=O)c2ccc(-c3c4nc(c(-c5c(F)c(F)c(F)c(F)c5F)c5ccc([nH]5)c(-c5c(F)c(F)c(F)c(F)c5F)c5nc(c(-c6c(F)c(F)c(F)c(F)c6F)c6ccc3[nH]6)C=C5)C=C4)cc2)c(=O)oc2cc3oc4c(c3cc12)CCCC4
REMARK SMILES IDX 14 1 13 2 12 3 10 4 11 5 8 7 9 8 7 9 5 10 6 11 4 13 3 14
REMARK SMILES IDX 1 15 2 16 94 17 83 18 86 19 93 20 84 21 85 22 87 23 92 24
REMARK SMILES IDX 88 25 91 26 89 27 90 28 95 29 98 30 96 31 97 32 15 33 16 34
REMARK SMILES IDX 17 35 18 36 19 38 20 39 21 40 82 41 22 42 81 43 23 44 24 45
REMARK SMILES IDX 25 46 75 47 26 48 80 49 74 50 76 51 27 52 79 53 73 54 72 55
REMARK SMILES IDX 28 57 60 58 40 59 59 60 41 61 44 62 58 63 77 64 42 65 43 66
REMARK SMILES IDX 57 68 78 69 45 70 29 71 30 72 38 73 31 74 32 75 36 76 39 77
REMARK SMILES IDX 33 78 34 79 37 80 35 81 61 82 62 83 70 84 63 85 64 86 68 87
REMARK SMILES IDX 71 88 65 89 66 90 69 91 67 92 46 93 47 94 55 95 48 96 49 97
REMARK SMILES IDX 53 98 56 99 50 100 51 101 54 102 52 103
REMARK H PARENT 12 6 7 12 17 37 76 56 44 67
REMARK Flexibility Score: inf
ROOT
ATOM      1  C   UNL A   1      46.726  39.540  27.945  1.00  0.00     0.023 C 
ENDROOT
BRANCH   1   2
ATOM      2  C   UNL A   1      46.205  40.578  26.955  1.00  0.00     0.116 C 
BRANCH   2   3
ATOM      3  N   UNL A   1      45.778  41.799  27.628  1.00  0.00    -0.354 N 
ATOM      4  C   UNL A   1      45.493  43.043  27.149  1.00  0.00     0.242 C 
ATOM      5  O   UNL A   1      44.956  43.844  27.915  1.00  0.00    -0.273 OA
ATOM      6  H   UNL A   1      45.677  41.709  28.603  1.00  0.00     0.163 HD
BRANCH   4   7
ATOM      7  C   UNL A   1      45.751  43.387  25.683  1.00  0.00     0.168 C 
ATOM      8  C   UNL A   1      46.997  44.266  25.574  1.00  0.00     0.041 C 
BRANCH   7   9
ATOM      9  N   UNL A   1      44.536  43.989  25.128  1.00  0.00    -0.344 N 
ATOM     10  C   UNL A   1      43.906  43.746  23.950  1.00  0.00     0.225 C 
ATOM     11  O   UNL A   1      42.785  44.232  23.788  1.00  0.00    -0.275 OA
ATOM     12  H   UNL A   1      44.113  44.675  25.695  1.00  0.00     0.164 HD
BRANCH  10  13
ATOM     13  C   UNL A   1      44.574  42.917  22.864  1.00  0.00     0.143 C 
BRANCH  13  14
ATOM     14  C   UNL A   1      44.060  43.297  21.499  1.00  0.00     0.051 A 
ATOM     15  C   UNL A   1      45.554  45.325  21.278  1.00  0.00     0.046 C 
ATOM     16  C   UNL A   1      44.567  44.304  20.756  1.00  0.00    -0.029 A 
ATOM     17  C   UNL A   1      44.096  44.469  19.373  1.00  0.00     0.022 A 
ATOM     18  C   UNL A   1      42.968  42.425  20.987  1.00  0.00     0.340 A 
ATOM     19  C   UNL A   1      43.001  43.722  18.931  1.00  0.00     0.142 A 
ATOM     20  C   UNL A   1      44.636  45.447  18.530  1.00  0.00     0.024 A 
ATOM     21  O   UNL A   1      42.514  41.502  21.655  1.00  0.00    -0.246 OA
ATOM     22  O   UNL A   1      42.480  42.683  19.720  1.00  0.00    -0.422 OA
ATOM     23  C   UNL A   1      42.295  44.000  17.757  1.00  0.00     0.095 A 
ATOM     24  C   UNL A   1      43.851  45.873  17.453  1.00  0.00     0.025 A 
ATOM     25  C   UNL A   1      42.684  45.180  17.143  1.00  0.00     0.138 A 
ATOM     26  C   UNL A   1      43.795  47.094  16.741  1.00  0.00     0.001 A 
ATOM     27  O   UNL A   1      41.893  45.932  16.323  1.00  0.00    -0.461 OA
ATOM     28  C   UNL A   1      42.501  47.143  16.265  1.00  0.00     0.108 A 
ATOM     29  C   UNL A   1      44.534  48.358  16.986  1.00  0.00     0.040 C 
ATOM     30  C   UNL A   1      41.682  48.382  16.358  1.00  0.00     0.076 C 
ATOM     31  C   UNL A   1      43.647  49.296  17.835  1.00  0.00     0.005 C 
ATOM     32  C   UNL A   1      42.112  49.063  17.690  1.00  0.00     0.008 C 
ENDBRANCH  13  14
ENDBRANCH  10  13
ENDBRANCH   7   9
ENDBRANCH   4   7
ENDBRANCH   2   3
ENDBRANCH   1   2
BRANCH   1  33
ATOM     33  C   UNL A   1      46.117  38.149  27.760  1.00  0.00     0.023 C 
BRANCH  33  34
ATOM     34  C   UNL A   1      44.591  38.152  27.717  1.00  0.00     0.116 C 
BRANCH  34  35
ATOM     35  N   UNL A   1      44.057  37.422  26.578  1.00  0.00    -0.352 N 
ATOM     36  C   UNL A   1      43.362  36.234  26.589  1.00  0.00     0.251 C 
ATOM     37  H   UNL A   1      44.211  37.826  25.694  1.00  0.00     0.163 HD
ATOM     38  O   UNL A   1      43.049  35.659  25.563  1.00  0.00    -0.269 OA
BRANCH  36  39
ATOM     39  C   UNL A   1      43.062  35.647  27.908  1.00  0.00     0.039 A 
ATOM     40  C   UNL A   1      44.044  34.903  28.570  1.00  0.00     0.014 A 
ATOM     41  C   UNL A   1      41.750  35.697  28.375  1.00  0.00     0.014 A 
ATOM     42  C   UNL A   1      43.673  34.061  29.606  1.00  0.00     0.010 A 
ATOM     43  C   UNL A   1      41.394  34.897  29.453  1.00  0.00     0.010 A 
ATOM     44  C   UNL A   1      42.341  34.034  30.027  1.00  0.00    -0.014 A 
BRANCH  44  45
ATOM     45  C   UNL A   1      42.021  33.139  31.148  1.00  0.00     0.031 A 
ATOM     46  C   UNL A   1      40.589  33.214  31.537  1.00  0.00     0.074 A 
ATOM     47  C   UNL A   1      42.569  31.915  31.298  1.00  0.00     0.049 A 
ATOM     48  N   UNL A   1      39.696  32.522  30.900  1.00  0.00    -0.248 NA
ATOM     49  C   UNL A   1      40.041  34.241  32.417  1.00  0.00     0.031 C 
ATOM     50  C   UNL A   1      43.089  31.087  30.203  1.00  0.00     0.029 A 
ATOM     51  N   UNL A   1      42.521  31.066  32.381  1.00  0.00    -0.354 N 
ATOM     52  C   UNL A   1      38.469  33.070  31.202  1.00  0.00     0.074 A 
ATOM     53  C   UNL A   1      38.725  34.110  32.177  1.00  0.00     0.031 C 
ATOM     54  C   UNL A   1      43.120  29.805  30.615  1.00  0.00     0.029 A 
ATOM     55  C   UNL A   1      42.803  29.755  32.036  1.00  0.00     0.049 A 
ATOM     56  H   UNL A   1      42.310  31.358  33.296  1.00  0.00     0.167 HD
ATOM     57  C   UNL A   1      37.324  32.650  30.606  1.00  0.00     0.037 A 
ATOM     58  C   UNL A   1      42.460  28.651  32.742  1.00  0.00     0.037 A 
ATOM     59  C   UNL A   1      37.365  31.545  29.668  1.00  0.00     0.049 A 
ATOM     60  C   UNL A   1      41.058  28.402  32.257  1.00  0.00     0.074 A 
ATOM     61  C   UNL A   1      36.538  31.016  28.693  1.00  0.00     0.029 A 
ATOM     62  N   UNL A   1      38.440  30.697  29.699  1.00  0.00    -0.354 N 
ATOM     63  N   UNL A   1      40.731  27.792  31.145  1.00  0.00    -0.248 NA
ATOM     64  C   UNL A   1      39.953  29.140  32.897  1.00  0.00     0.031 C 
ATOM     65  C   UNL A   1      37.010  29.693  28.405  1.00  0.00     0.029 A 
ATOM     66  C   UNL A   1      38.091  29.454  29.233  1.00  0.00     0.049 A 
ATOM     67  H   UNL A   1      39.341  30.944  30.012  1.00  0.00     0.167 HD
ATOM     68  C   UNL A   1      39.476  28.296  30.828  1.00  0.00     0.074 A 
ATOM     69  C   UNL A   1      38.995  29.014  31.987  1.00  0.00     0.031 C 
ATOM     70  C   UNL A   1      38.975  28.374  29.566  1.00  0.00     0.037 A 
BRANCH  57  71
ATOM     71  C   UNL A   1      36.003  33.141  31.048  1.00  0.00     0.064 A 
ATOM     72  C   UNL A   1      35.391  34.148  30.285  1.00  0.00     0.173 A 
ATOM     73  C   UNL A   1      35.417  32.777  32.261  1.00  0.00     0.173 A 
ATOM     74  F   UNL A   1      35.923  34.515  29.108  1.00  0.00    -0.203 F 
ATOM     75  C   UNL A   1      34.253  34.800  30.739  1.00  0.00     0.198 A 
ATOM     76  C   UNL A   1      34.268  33.427  32.711  1.00  0.00     0.198 A 
ATOM     77  F   UNL A   1      35.970  31.821  33.022  1.00  0.00    -0.203 F 
ATOM     78  F   UNL A   1      33.710  35.781  30.007  1.00  0.00    -0.200 F 
ATOM     79  C   UNL A   1      33.697  34.445  31.957  1.00  0.00     0.200 A 
ATOM     80  F   UNL A   1      33.724  33.086  33.888  1.00  0.00    -0.200 F 
ATOM     81  F   UNL A   1      32.611  35.089  32.408  1.00  0.00    -0.200 F 
ENDBRANCH  57  71
BRANCH  58  82
ATOM     82  C   UNL A   1      42.906  28.660  34.169  1.00  0.00     0.064 A 
ATOM     83  C   UNL A   1      43.821  27.657  34.570  1.00  0.00     0.173 A 
ATOM     84  C   UNL A   1      42.516  29.565  35.160  1.00  0.00     0.173 A 
ATOM     85  F   UNL A   1      44.167  26.679  33.717  1.00  0.00    -0.203 F 
ATOM     86  C   UNL A   1      44.404  27.645  35.836  1.00  0.00     0.198 A 
ATOM     87  C   UNL A   1      43.115  29.566  36.424  1.00  0.00     0.198 A 
ATOM     88  F   UNL A   1      41.561  30.474  34.933  1.00  0.00    -0.203 F 
ATOM     89  F   UNL A   1      45.301  26.701  36.153  1.00  0.00    -0.200 F 
ATOM     90  C   UNL A   1      44.071  28.620  36.755  1.00  0.00     0.200 A 
ATOM     91  F   UNL A   1      42.776  30.508  37.315  1.00  0.00    -0.200 F 
ATOM     92  F   UNL A   1      44.665  28.651  37.956  1.00  0.00    -0.200 F 
ENDBRANCH  58  82
BRANCH  70  93
ATOM     93  C   UNL A   1      39.506  27.445  28.551  1.00  0.00     0.064 A 
ATOM     94  C   UNL A   1      40.261  27.941  27.477  1.00  0.00     0.173 A 
ATOM     95  C   UNL A   1      39.334  26.060  28.657  1.00  0.00     0.173 A 
ATOM     96  F   UNL A   1      40.488  29.259  27.359  1.00  0.00    -0.203 F 
ATOM     97  C   UNL A   1      40.819  27.081  26.539  1.00  0.00     0.198 A 
ATOM     98  C   UNL A   1      39.906  25.201  27.722  1.00  0.00     0.198 A 
ATOM     99  F   UNL A   1      38.617  25.536  29.663  1.00  0.00    -0.203 F 
ATOM    100  F   UNL A   1      41.545  27.576  25.527  1.00  0.00    -0.200 F 
ATOM    101  C   UNL A   1      40.646  25.712  26.666  1.00  0.00     0.200 A 
ATOM    102  F   UNL A   1      39.750  23.876  27.851  1.00  0.00    -0.200 F 
ATOM    103  F   UNL A   1      41.205  24.881  25.775  1.00  0.00    -0.200 F 
ENDBRANCH  70  93
ENDBRANCH  44  45
ENDBRANCH  36  39
ENDBRANCH  34  35
ENDBRANCH  33  34
ENDBRANCH   1  33
TORSDOF 14
ENDMDL
