MODEL 1
REMARK VINA RESULT:     -13.0      0.000      0.000
REMARK SMILES Cc1cc(C(=O)N[C@H](C(=O)NCCCCNC(=O)c2ccc(-c3c4nc(c(-c5c(F)c(F)c(F)c(F)c5F)c5ccc([nH]5)c(-c5c(F)c(F)c(F)c(F)c5F)c5nc(c(-c6c(F)c(F)c(F)c(F)c6F)c6ccc3[nH]6)C=C5)C=C4)cc2)c2c(C)n[nH]c2C)c2ccc(C)c(C)c2n1
REMARK SMILES IDX 13 1 12 2 11 3 9 4 10 5 8 7 7 8 5 9 6 10 4 12 1 13 2 14 3 15
REMARK SMILES IDX 97 16 96 17 89 18 94 19 90 20 92 21 95 22 91 23 93 24 82 25
REMARK SMILES IDX 83 26 87 27 84 28 85 29 86 30 88 31 14 33 15 34 16 35 17 36
REMARK SMILES IDX 18 38 19 39 20 40 81 41 21 42 80 43 22 44 23 45 24 46 74 47
REMARK SMILES IDX 25 48 79 49 73 50 75 51 26 52 78 53 72 54 71 55 27 57 59 58
REMARK SMILES IDX 39 59 58 60 40 61 43 62 57 63 76 64 41 65 42 66 56 68 77 69
REMARK SMILES IDX 44 70 28 71 29 72 37 73 30 74 31 75 35 76 38 77 32 78 33 79
REMARK SMILES IDX 36 80 34 81 60 82 61 83 69 84 62 85 63 86 67 87 70 88 64 89
REMARK SMILES IDX 65 90 68 91 66 92 45 93 46 94 54 95 47 96 48 97 52 98 55 99
REMARK SMILES IDX 49 100 50 101 53 102 51 103
REMARK H PARENT 11 6 7 11 86 32 16 37 75 56 43 67
REMARK Flexibility Score: inf
ROOT
ATOM      1  C   UNL A   1      36.693  19.879  25.043  1.00  0.00     0.023 C 
ENDROOT
BRANCH   1   2
ATOM      2  C   UNL A   1      36.735  21.363  25.375  1.00  0.00     0.116 C 
BRANCH   2   3
ATOM      3  N   UNL A   1      36.929  22.229  24.232  1.00  0.00    -0.354 N 
ATOM      4  C   UNL A   1      36.148  23.267  23.807  1.00  0.00     0.247 C 
ATOM      5  O   UNL A   1      36.492  23.815  22.751  1.00  0.00    -0.272 OA
ATOM      6  H   UNL A   1      37.728  22.046  23.687  1.00  0.00     0.163 HD
BRANCH   4   7
ATOM      7  C   UNL A   1      34.802  23.667  24.485  1.00  0.00     0.206 C 
BRANCH   7   8
ATOM      8  N   UNL A   1      34.902  25.052  24.956  1.00  0.00    -0.336 N 
ATOM      9  C   UNL A   1      34.048  25.887  25.635  1.00  0.00     0.252 C 
ATOM     10  O   UNL A   1      34.536  26.865  26.198  1.00  0.00    -0.269 OA
ATOM     11  H   UNL A   1      35.766  25.472  24.740  1.00  0.00     0.165 HD
BRANCH   9  12
ATOM     12  C   UNL A   1      32.571  25.692  25.635  1.00  0.00     0.051 A 
ATOM     13  C   UNL A   1      30.190  22.955  26.561  1.00  0.00     0.067 C 
ATOM     14  C   UNL A   1      30.726  24.278  26.105  1.00  0.00     0.039 A 
ATOM     15  C   UNL A   1      32.035  24.627  26.350  1.00  0.00     0.038 A 
ATOM     16  N   UNL A   1      29.903  25.044  25.363  1.00  0.00    -0.253 NA
ATOM     17  C   UNL A   1      30.362  26.166  24.778  1.00  0.00     0.074 A 
ATOM     18  C   UNL A   1      31.724  26.530  24.849  1.00  0.00     0.013 A 
ATOM     19  C   UNL A   1      29.460  26.958  24.041  1.00  0.00    -0.022 A 
ATOM     20  C   UNL A   1      32.145  27.666  24.113  1.00  0.00     0.011 A 
ATOM     21  C   UNL A   1      29.901  28.084  23.311  1.00  0.00    -0.046 A 
ATOM     22  C   UNL A   1      28.005  26.543  24.036  1.00  0.00     0.047 C 
ATOM     23  C   UNL A   1      31.252  28.424  23.358  1.00  0.00     0.004 A 
ATOM     24  C   UNL A   1      28.963  28.932  22.496  1.00  0.00     0.044 C 
ENDBRANCH   9  12
ENDBRANCH   7   8
BRANCH   7  25
ATOM     25  C   UNL A   1      33.573  23.304  23.705  1.00  0.00     0.027 A 
ATOM     26  C   UNL A   1      32.817  22.101  23.919  1.00  0.00     0.065 A 
ATOM     27  C   UNL A   1      32.918  23.915  22.640  1.00  0.00     0.038 A 
ATOM     28  C   UNL A   1      33.099  20.987  24.865  1.00  0.00     0.069 C 
ATOM     29  N   UNL A   1      31.773  22.013  23.095  1.00  0.00    -0.180 NA
ATOM     30  N   UNL A   1      31.821  23.138  22.376  1.00  0.00    -0.282 N 
ATOM     31  C   UNL A   1      33.183  25.116  21.813  1.00  0.00     0.066 C 
ATOM     32  H   UNL A   1      31.133  23.387  21.718  1.00  0.00     0.190 HD
ENDBRANCH   7  25
ENDBRANCH   4   7
ENDBRANCH   2   3
ENDBRANCH   1   2
BRANCH   1  33
ATOM     33  C   UNL A   1      38.062  19.204  24.903  1.00  0.00     0.023 C 
BRANCH  33  34
ATOM     34  C   UNL A   1      39.191  19.790  25.751  1.00  0.00     0.116 C 
BRANCH  34  35
ATOM     35  N   UNL A   1      40.325  18.894  25.904  1.00  0.00    -0.352 N 
ATOM     36  C   UNL A   1      41.652  19.180  26.126  1.00  0.00     0.251 C 
ATOM     37  H   UNL A   1      40.111  17.935  25.837  1.00  0.00     0.163 HD
ATOM     38  O   UNL A   1      42.499  18.299  26.070  1.00  0.00    -0.269 OA
BRANCH  36  39
ATOM     39  C   UNL A   1      42.064  20.572  26.410  1.00  0.00     0.039 A 
ATOM     40  C   UNL A   1      42.238  20.972  27.738  1.00  0.00     0.014 A 
ATOM     41  C   UNL A   1      42.250  21.487  25.372  1.00  0.00     0.014 A 
ATOM     42  C   UNL A   1      42.670  22.270  28.021  1.00  0.00     0.010 A 
ATOM     43  C   UNL A   1      42.744  22.759  25.648  1.00  0.00     0.010 A 
ATOM     44  C   UNL A   1      42.955  23.162  26.976  1.00  0.00    -0.014 A 
BRANCH  44  45
ATOM     45  C   UNL A   1      43.425  24.544  27.243  1.00  0.00     0.031 A 
ATOM     46  C   UNL A   1      42.461  25.563  27.780  1.00  0.00     0.074 A 
ATOM     47  C   UNL A   1      44.692  24.895  26.952  1.00  0.00     0.049 A 
ATOM     48  N   UNL A   1      42.642  26.842  27.994  1.00  0.00    -0.248 NA
ATOM     49  C   UNL A   1      41.108  25.084  28.101  1.00  0.00     0.031 C 
ATOM     50  C   UNL A   1      45.715  23.999  26.414  1.00  0.00     0.029 A 
ATOM     51  N   UNL A   1      45.330  26.106  27.059  1.00  0.00    -0.354 N 
ATOM     52  C   UNL A   1      41.429  27.316  28.474  1.00  0.00     0.074 A 
ATOM     53  C   UNL A   1      40.503  26.205  28.464  1.00  0.00     0.031 C 
ATOM     54  C   UNL A   1      46.857  24.687  26.251  1.00  0.00     0.029 A 
ATOM     55  C   UNL A   1      46.636  26.079  26.637  1.00  0.00     0.049 A 
ATOM     56  H   UNL A   1      44.892  26.917  27.404  1.00  0.00     0.167 HD
ATOM     57  C   UNL A   1      41.123  28.561  28.909  1.00  0.00     0.037 A 
ATOM     58  C   UNL A   1      47.547  27.069  26.563  1.00  0.00     0.037 A 
ATOM     59  C   UNL A   1      42.046  29.664  28.926  1.00  0.00     0.049 A 
ATOM     60  C   UNL A   1      47.164  28.458  26.999  1.00  0.00     0.074 A 
ATOM     61  C   UNL A   1      41.838  30.956  29.374  1.00  0.00     0.029 A 
ATOM     62  N   UNL A   1      43.356  29.603  28.473  1.00  0.00    -0.354 N 
ATOM     63  N   UNL A   1      46.026  28.889  27.487  1.00  0.00    -0.248 NA
ATOM     64  C   UNL A   1      48.194  29.499  26.877  1.00  0.00     0.031 C 
ATOM     65  C   UNL A   1      43.007  31.690  29.151  1.00  0.00     0.029 A 
ATOM     66  C   UNL A   1      43.961  30.843  28.610  1.00  0.00     0.049 A 
ATOM     67  H   UNL A   1      43.791  28.799  28.108  1.00  0.00     0.167 HD
ATOM     68  C   UNL A   1      46.207  30.240  27.749  1.00  0.00     0.074 A 
ATOM     69  C   UNL A   1      47.574  30.554  27.386  1.00  0.00     0.031 C 
ATOM     70  C   UNL A   1      45.322  31.140  28.241  1.00  0.00     0.037 A 
BRANCH  57  71
ATOM     71  C   UNL A   1      39.729  28.795  29.414  1.00  0.00     0.064 A 
ATOM     72  C   UNL A   1      39.402  28.610  30.767  1.00  0.00     0.173 A 
ATOM     73  C   UNL A   1      38.723  29.256  28.552  1.00  0.00     0.173 A 
ATOM     74  F   UNL A   1      40.325  28.157  31.627  1.00  0.00    -0.203 F 
ATOM     75  C   UNL A   1      38.114  28.859  31.232  1.00  0.00     0.198 A 
ATOM     76  C   UNL A   1      37.444  29.531  29.027  1.00  0.00     0.198 A 
ATOM     77  F   UNL A   1      38.983  29.451  27.251  1.00  0.00    -0.203 F 
ATOM     78  F   UNL A   1      37.814  28.635  32.519  1.00  0.00    -0.200 F 
ATOM     79  C   UNL A   1      37.139  29.328  30.365  1.00  0.00     0.200 A 
ATOM     80  F   UNL A   1      36.505  29.996  28.192  1.00  0.00    -0.200 F 
ATOM     81  F   UNL A   1      35.903  29.579  30.818  1.00  0.00    -0.200 F 
ENDBRANCH  57  71
BRANCH  58  82
ATOM     82  C   UNL A   1      48.921  26.778  26.077  1.00  0.00     0.064 A 
ATOM     83  C   UNL A   1      49.263  26.984  24.732  1.00  0.00     0.173 A 
ATOM     84  C   UNL A   1      49.917  26.292  26.935  1.00  0.00     0.173 A 
ATOM     85  F   UNL A   1      48.338  27.424  23.867  1.00  0.00    -0.203 F 
ATOM     86  C   UNL A   1      50.545  26.703  24.264  1.00  0.00     0.198 A 
ATOM     87  C   UNL A   1      51.207  26.037  26.472  1.00  0.00     0.198 A 
ATOM     88  F   UNL A   1      49.642  26.078  28.231  1.00  0.00    -0.203 F 
ATOM     89  F   UNL A   1      50.833  26.871  22.967  1.00  0.00    -0.200 F 
ATOM     90  C   UNL A   1      51.518  26.237  25.135  1.00  0.00     0.200 A 
ATOM     91  F   UNL A   1      52.147  25.599  27.320  1.00  0.00    -0.200 F 
ATOM     92  F   UNL A   1      52.753  25.975  24.686  1.00  0.00    -0.200 F 
ENDBRANCH  58  82
BRANCH  70  93
ATOM     93  C   UNL A   1      45.802  32.552  28.430  1.00  0.00     0.064 A 
ATOM     94  C   UNL A   1      46.448  32.954  29.609  1.00  0.00     0.173 A 
ATOM     95  C   UNL A   1      45.664  33.497  27.401  1.00  0.00     0.173 A 
ATOM     96  F   UNL A   1      46.593  32.093  30.627  1.00  0.00    -0.203 F 
ATOM     97  C   UNL A   1      46.916  34.257  29.759  1.00  0.00     0.198 A 
ATOM     98  C   UNL A   1      46.163  34.788  27.543  1.00  0.00     0.198 A 
ATOM     99  F   UNL A   1      45.062  33.160  26.251  1.00  0.00    -0.203 F 
ATOM    100  F   UNL A   1      47.490  34.632  30.910  1.00  0.00    -0.200 F 
ATOM    101  C   UNL A   1      46.782  35.169  28.723  1.00  0.00     0.200 A 
ATOM    102  F   UNL A   1      46.046  35.664  26.534  1.00  0.00    -0.200 F 
ATOM    103  F   UNL A   1      47.245  36.419  28.865  1.00  0.00    -0.200 F 
ENDBRANCH  70  93
ENDBRANCH  44  45
ENDBRANCH  36  39
ENDBRANCH  34  35
ENDBRANCH  33  34
ENDBRANCH   1  33
TORSDOF 14
ENDMDL
MODEL 2
REMARK VINA RESULT:     -13.0      3.166      8.228
REMARK SMILES Cc1cc(C(=O)N[C@H](C(=O)NCCCCNC(=O)c2ccc(-c3c4nc(c(-c5c(F)c(F)c(F)c(F)c5F)c5ccc([nH]5)c(-c5c(F)c(F)c(F)c(F)c5F)c5nc(c(-c6c(F)c(F)c(F)c(F)c6F)c6ccc3[nH]6)C=C5)C=C4)cc2)c2c(C)n[nH]c2C)c2ccc(C)c(C)c2n1
REMARK SMILES IDX 13 1 12 2 11 3 9 4 10 5 8 7 7 8 5 9 6 10 4 12 1 13 2 14 3 15
REMARK SMILES IDX 97 16 96 17 89 18 94 19 90 20 92 21 95 22 91 23 93 24 82 25
REMARK SMILES IDX 83 26 87 27 84 28 85 29 86 30 88 31 14 33 15 34 16 35 17 36
REMARK SMILES IDX 18 38 19 39 20 40 81 41 21 42 80 43 22 44 23 45 24 46 74 47
REMARK SMILES IDX 25 48 79 49 73 50 75 51 26 52 78 53 72 54 71 55 27 57 59 58
REMARK SMILES IDX 39 59 58 60 40 61 43 62 57 63 76 64 41 65 42 66 56 68 77 69
REMARK SMILES IDX 44 70 28 71 29 72 37 73 30 74 31 75 35 76 38 77 32 78 33 79
REMARK SMILES IDX 36 80 34 81 60 82 61 83 69 84 62 85 63 86 67 87 70 88 64 89
REMARK SMILES IDX 65 90 68 91 66 92 45 93 46 94 54 95 47 96 48 97 52 98 55 99
REMARK SMILES IDX 49 100 50 101 53 102 51 103
REMARK H PARENT 11 6 7 11 86 32 16 37 75 56 43 67
REMARK Flexibility Score: inf
ROOT
ATOM      1  C   UNL A   1      35.567  22.533  23.851  1.00  0.00     0.023 C 
ENDROOT
BRANCH   1   2
ATOM      2  C   UNL A   1      34.401  21.879  24.578  1.00  0.00     0.116 C 
BRANCH   2   3
ATOM      3  N   UNL A   1      33.176  21.809  23.810  1.00  0.00    -0.354 N 
ATOM      4  C   UNL A   1      32.373  22.833  23.394  1.00  0.00     0.247 C 
ATOM      5  O   UNL A   1      31.332  22.508  22.805  1.00  0.00    -0.272 OA
ATOM      6  H   UNL A   1      32.883  20.905  23.555  1.00  0.00     0.163 HD
BRANCH   4   7
ATOM      7  C   UNL A   1      32.620  24.328  23.760  1.00  0.00     0.206 C 
BRANCH   7   8
ATOM      8  N   UNL A   1      32.766  25.100  22.522  1.00  0.00    -0.336 N 
ATOM      9  C   UNL A   1      33.146  26.393  22.249  1.00  0.00     0.252 C 
ATOM     10  O   UNL A   1      33.512  26.649  21.104  1.00  0.00    -0.269 OA
ATOM     11  H   UNL A   1      32.545  24.582  21.714  1.00  0.00     0.165 HD
BRANCH   9  12
ATOM     12  C   UNL A   1      33.045  27.486  23.257  1.00  0.00     0.051 A 
ATOM     13  C   UNL A   1      34.615  28.292  26.559  1.00  0.00     0.067 C 
ATOM     14  C   UNL A   1      33.778  28.395  25.321  1.00  0.00     0.039 A 
ATOM     15  C   UNL A   1      34.029  27.591  24.232  1.00  0.00     0.038 A 
ATOM     16  N   UNL A   1      32.718  29.227  25.372  1.00  0.00    -0.253 NA
ATOM     17  C   UNL A   1      31.824  29.251  24.365  1.00  0.00     0.074 A 
ATOM     18  C   UNL A   1      31.916  28.359  23.276  1.00  0.00     0.013 A 
ATOM     19  C   UNL A   1      30.751  30.161  24.441  1.00  0.00    -0.022 A 
ATOM     20  C   UNL A   1      30.873  28.376  22.317  1.00  0.00     0.011 A 
ATOM     21  C   UNL A   1      29.720  30.159  23.477  1.00  0.00    -0.046 A 
ATOM     22  C   UNL A   1      30.728  31.123  25.609  1.00  0.00     0.047 C 
ATOM     23  C   UNL A   1      29.796  29.256  22.417  1.00  0.00     0.004 A 
ATOM     24  C   UNL A   1      28.550  31.103  23.547  1.00  0.00     0.044 C 
ENDBRANCH   9  12
ENDBRANCH   7   8
BRANCH   7  25
ATOM     25  C   UNL A   1      31.693  24.884  24.800  1.00  0.00     0.027 A 
ATOM     26  C   UNL A   1      31.987  24.902  26.205  1.00  0.00     0.065 A 
ATOM     27  C   UNL A   1      30.411  25.421  24.729  1.00  0.00     0.038 A 
ATOM     28  C   UNL A   1      33.181  24.356  26.908  1.00  0.00     0.069 C 
ATOM     29  N   UNL A   1      31.000  25.444  26.917  1.00  0.00    -0.180 NA
ATOM     30  N   UNL A   1      30.090  25.800  26.005  1.00  0.00    -0.282 N 
ATOM     31  C   UNL A   1      29.428  25.614  23.636  1.00  0.00     0.066 C 
ATOM     32  H   UNL A   1      29.265  26.288  26.228  1.00  0.00     0.190 HD
ENDBRANCH   7  25
ENDBRANCH   4   7
ENDBRANCH   2   3
ENDBRANCH   1   2
BRANCH   1  33
ATOM     33  C   UNL A   1      36.222  23.703  24.591  1.00  0.00     0.023 C 
BRANCH  33  34
ATOM     34  C   UNL A   1      36.701  23.416  26.015  1.00  0.00     0.116 C 
BRANCH  34  35
ATOM     35  N   UNL A   1      37.855  22.535  26.070  1.00  0.00    -0.352 N 
ATOM     36  C   UNL A   1      39.162  22.813  26.399  1.00  0.00     0.251 C 
ATOM     37  H   UNL A   1      37.675  21.596  25.836  1.00  0.00     0.163 HD
ATOM     38  O   UNL A   1      40.038  21.975  26.239  1.00  0.00    -0.269 OA
BRANCH  36  39
ATOM     39  C   UNL A   1      39.517  24.148  26.928  1.00  0.00     0.039 A 
ATOM     40  C   UNL A   1      39.264  24.435  28.272  1.00  0.00     0.014 A 
ATOM     41  C   UNL A   1      40.069  25.122  26.094  1.00  0.00     0.014 A 
ATOM     42  C   UNL A   1      39.635  25.675  28.798  1.00  0.00     0.010 A 
ATOM     43  C   UNL A   1      40.500  26.332  26.631  1.00  0.00     0.010 A 
ATOM     44  C   UNL A   1      40.282  26.620  27.988  1.00  0.00    -0.014 A 
BRANCH  44  45
ATOM     45  C   UNL A   1      40.697  27.943  28.519  1.00  0.00     0.031 A 
ATOM     46  C   UNL A   1      42.139  28.185  28.860  1.00  0.00     0.074 A 
ATOM     47  C   UNL A   1      39.776  28.898  28.746  1.00  0.00     0.049 A 
ATOM     48  N   UNL A   1      42.694  29.230  29.420  1.00  0.00    -0.248 NA
ATOM     49  C   UNL A   1      43.081  27.099  28.547  1.00  0.00     0.031 C 
ATOM     50  C   UNL A   1      38.345  28.776  28.469  1.00  0.00     0.029 A 
ATOM     51  N   UNL A   1      39.908  30.158  29.275  1.00  0.00    -0.354 N 
ATOM     52  C   UNL A   1      44.044  28.926  29.524  1.00  0.00     0.074 A 
ATOM     53  C   UNL A   1      44.217  27.579  29.025  1.00  0.00     0.031 C 
ATOM     54  C   UNL A   1      37.733  29.921  28.817  1.00  0.00     0.029 A 
ATOM     55  C   UNL A   1      38.722  30.841  29.375  1.00  0.00     0.049 A 
ATOM     56  H   UNL A   1      40.773  30.536  29.556  1.00  0.00     0.167 HD
ATOM     57  C   UNL A   1      45.053  29.711  29.970  1.00  0.00     0.037 A 
ATOM     58  C   UNL A   1      38.462  32.067  29.870  1.00  0.00     0.037 A 
ATOM     59  C   UNL A   1      44.881  31.053  30.458  1.00  0.00     0.049 A 
ATOM     60  C   UNL A   1      39.594  32.898  30.413  1.00  0.00     0.074 A 
ATOM     61  C   UNL A   1      45.846  31.939  30.905  1.00  0.00     0.029 A 
ATOM     62  N   UNL A   1      43.661  31.704  30.562  1.00  0.00    -0.354 N 
ATOM     63  N   UNL A   1      40.874  32.617  30.473  1.00  0.00    -0.248 NA
ATOM     64  C   UNL A   1      39.246  34.218  30.957  1.00  0.00     0.031 C 
ATOM     65  C   UNL A   1      45.205  33.109  31.323  1.00  0.00     0.029 A 
ATOM     66  C   UNL A   1      43.846  32.973  31.089  1.00  0.00     0.049 A 
ATOM     67  H   UNL A   1      42.792  31.322  30.300  1.00  0.00     0.167 HD
ATOM     68  C   UNL A   1      41.484  33.729  31.038  1.00  0.00     0.074 A 
ATOM     69  C   UNL A   1      40.437  34.699  31.284  1.00  0.00     0.031 C 
ATOM     70  C   UNL A   1      42.793  33.927  31.331  1.00  0.00     0.037 A 
BRANCH  57  71
ATOM     71  C   UNL A   1      46.441  29.139  29.941  1.00  0.00     0.064 A 
ATOM     72  C   UNL A   1      46.969  28.449  31.044  1.00  0.00     0.173 A 
ATOM     73  C   UNL A   1      47.232  29.237  28.788  1.00  0.00     0.173 A 
ATOM     74  F   UNL A   1      46.257  28.341  32.175  1.00  0.00    -0.203 F 
ATOM     75  C   UNL A   1      48.245  27.896  30.997  1.00  0.00     0.198 A 
ATOM     76  C   UNL A   1      48.496  28.657  28.735  1.00  0.00     0.198 A 
ATOM     77  F   UNL A   1      46.773  29.884  27.705  1.00  0.00    -0.203 F 
ATOM     78  F   UNL A   1      48.744  27.277  32.077  1.00  0.00    -0.200 F 
ATOM     79  C   UNL A   1      49.004  27.992  29.841  1.00  0.00     0.200 A 
ATOM     80  F   UNL A   1      49.224  28.740  27.613  1.00  0.00    -0.200 F 
ATOM     81  F   UNL A   1      50.227  27.447  29.794  1.00  0.00    -0.200 F 
ENDBRANCH  57  71
BRANCH  58  82
ATOM     82  C   UNL A   1      37.073  32.595  29.853  1.00  0.00     0.064 A 
ATOM     83  C   UNL A   1      36.590  33.301  28.741  1.00  0.00     0.173 A 
ATOM     84  C   UNL A   1      36.202  32.409  30.936  1.00  0.00     0.173 A 
ATOM     85  F   UNL A   1      37.393  33.526  27.691  1.00  0.00    -0.203 F 
ATOM     86  C   UNL A   1      35.293  33.811  28.719  1.00  0.00     0.198 A 
ATOM     87  C   UNL A   1      34.896  32.896  30.902  1.00  0.00     0.198 A 
ATOM     88  F   UNL A   1      36.615  31.741  32.023  1.00  0.00    -0.203 F 
ATOM     89  F   UNL A   1      34.871  34.515  27.661  1.00  0.00    -0.200 F 
ATOM     90  C   UNL A   1      34.445  33.601  29.796  1.00  0.00     0.200 A 
ATOM     91  F   UNL A   1      34.076  32.681  31.939  1.00  0.00    -0.200 F 
ATOM     92  F   UNL A   1      33.195  34.085  29.771  1.00  0.00    -0.200 F 
ENDBRANCH  58  82
BRANCH  70  93
ATOM     93  C   UNL A   1      43.174  35.246  31.939  1.00  0.00     0.064 A 
ATOM     94  C   UNL A   1      43.674  36.297  31.156  1.00  0.00     0.173 A 
ATOM     95  C   UNL A   1      42.987  35.481  33.311  1.00  0.00     0.173 A 
ATOM     96  F   UNL A   1      43.883  36.120  29.843  1.00  0.00    -0.203 F 
ATOM     97  C   UNL A   1      43.994  37.526  31.727  1.00  0.00     0.198 A 
ATOM     98  C   UNL A   1      43.277  36.721  33.872  1.00  0.00     0.198 A 
ATOM     99  F   UNL A   1      42.503  34.512  34.102  1.00  0.00    -0.203 F 
ATOM    100  F   UNL A   1      44.512  38.501  30.967  1.00  0.00    -0.200 F 
ATOM    101  C   UNL A   1      43.787  37.740  33.082  1.00  0.00     0.200 A 
ATOM    102  F   UNL A   1      43.060  36.931  35.178  1.00  0.00    -0.200 F 
ATOM    103  F   UNL A   1      44.083  38.927  33.627  1.00  0.00    -0.200 F 
ENDBRANCH  70  93
ENDBRANCH  44  45
ENDBRANCH  36  39
ENDBRANCH  34  35
ENDBRANCH  33  34
ENDBRANCH   1  33
TORSDOF 14
ENDMDL
MODEL 3
REMARK VINA RESULT:     -12.8      4.739      8.922
REMARK SMILES Cc1cc(C(=O)N[C@H](C(=O)NCCCCNC(=O)c2ccc(-c3c4nc(c(-c5c(F)c(F)c(F)c(F)c5F)c5ccc([nH]5)c(-c5c(F)c(F)c(F)c(F)c5F)c5nc(c(-c6c(F)c(F)c(F)c(F)c6F)c6ccc3[nH]6)C=C5)C=C4)cc2)c2c(C)n[nH]c2C)c2ccc(C)c(C)c2n1
REMARK SMILES IDX 13 1 12 2 11 3 9 4 10 5 8 7 7 8 5 9 6 10 4 12 1 13 2 14 3 15
REMARK SMILES IDX 97 16 96 17 89 18 94 19 90 20 92 21 95 22 91 23 93 24 82 25
REMARK SMILES IDX 83 26 87 27 84 28 85 29 86 30 88 31 14 33 15 34 16 35 17 36
REMARK SMILES IDX 18 38 19 39 20 40 81 41 21 42 80 43 22 44 23 45 24 46 74 47
REMARK SMILES IDX 25 48 79 49 73 50 75 51 26 52 78 53 72 54 71 55 27 57 59 58
REMARK SMILES IDX 39 59 58 60 40 61 43 62 57 63 76 64 41 65 42 66 56 68 77 69
REMARK SMILES IDX 44 70 28 71 29 72 37 73 30 74 31 75 35 76 38 77 32 78 33 79
REMARK SMILES IDX 36 80 34 81 60 82 61 83 69 84 62 85 63 86 67 87 70 88 64 89
REMARK SMILES IDX 65 90 68 91 66 92 45 93 46 94 54 95 47 96 48 97 52 98 55 99
REMARK SMILES IDX 49 100 50 101 53 102 51 103
REMARK H PARENT 11 6 7 11 86 32 16 37 75 56 43 67
REMARK Flexibility Score: inf
ROOT
ATOM      1  C   UNL A   1      34.018  29.400  27.174  1.00  0.00     0.023 C 
ENDROOT
BRANCH   1   2
ATOM      2  C   UNL A   1      33.680  28.099  26.460  1.00  0.00     0.116 C 
BRANCH   2   3
ATOM      3  N   UNL A   1      32.402  28.101  25.780  1.00  0.00    -0.354 N 
ATOM      4  C   UNL A   1      31.792  27.077  25.113  1.00  0.00     0.247 C 
ATOM      5  O   UNL A   1      30.723  27.350  24.550  1.00  0.00    -0.272 OA
ATOM      6  H   UNL A   1      31.909  28.952  25.799  1.00  0.00     0.163 HD
BRANCH   4   7
ATOM      7  C   UNL A   1      32.442  25.675  24.902  1.00  0.00     0.206 C 
BRANCH   7   8
ATOM      8  N   UNL A   1      31.785  24.711  25.790  1.00  0.00    -0.336 N 
ATOM      9  C   UNL A   1      32.245  23.694  26.592  1.00  0.00     0.252 C 
ATOM     10  O   UNL A   1      31.500  23.292  27.484  1.00  0.00    -0.269 OA
ATOM     11  H   UNL A   1      30.805  24.814  25.817  1.00  0.00     0.165 HD
BRANCH   9  12
ATOM     12  C   UNL A   1      33.554  23.022  26.361  1.00  0.00     0.051 A 
ATOM     13  C   UNL A   1      37.134  24.078  26.055  1.00  0.00     0.067 C 
ATOM     14  C   UNL A   1      35.906  23.222  26.126  1.00  0.00     0.039 A 
ATOM     15  C   UNL A   1      34.724  23.727  26.619  1.00  0.00     0.038 A 
ATOM     16  N   UNL A   1      35.993  21.988  25.590  1.00  0.00    -0.253 NA
ATOM     17  C   UNL A   1      34.893  21.223  25.463  1.00  0.00     0.074 A 
ATOM     18  C   UNL A   1      33.614  21.709  25.804  1.00  0.00     0.013 A 
ATOM     19  C   UNL A   1      35.034  19.925  24.932  1.00  0.00    -0.022 A 
ATOM     20  C   UNL A   1      32.497  20.878  25.537  1.00  0.00     0.011 A 
ATOM     21  C   UNL A   1      33.908  19.115  24.669  1.00  0.00    -0.046 A 
ATOM     22  C   UNL A   1      36.435  19.442  24.626  1.00  0.00     0.047 C 
ATOM     23  C   UNL A   1      32.642  19.610  24.978  1.00  0.00     0.004 A 
ATOM     24  C   UNL A   1      34.029  17.737  24.079  1.00  0.00     0.044 C 
ENDBRANCH   9  12
ENDBRANCH   7   8
BRANCH   7  25
ATOM     25  C   UNL A   1      32.612  25.269  23.468  1.00  0.00     0.027 A 
ATOM     26  C   UNL A   1      33.261  26.084  22.479  1.00  0.00     0.065 A 
ATOM     27  C   UNL A   1      32.191  24.155  22.748  1.00  0.00     0.038 A 
ATOM     28  C   UNL A   1      33.826  27.452  22.633  1.00  0.00     0.069 C 
ATOM     29  N   UNL A   1      33.278  25.498  21.281  1.00  0.00    -0.180 NA
ATOM     30  N   UNL A   1      32.682  24.319  21.480  1.00  0.00    -0.282 N 
ATOM     31  C   UNL A   1      31.374  22.961  23.071  1.00  0.00     0.066 C 
ATOM     32  H   UNL A   1      32.601  23.631  20.780  1.00  0.00     0.190 HD
ENDBRANCH   7  25
ENDBRANCH   4   7
ENDBRANCH   2   3
ENDBRANCH   1   2
BRANCH   1  33
ATOM     33  C   UNL A   1      33.482  30.669  26.503  1.00  0.00     0.023 C 
BRANCH  33  34
ATOM     34  C   UNL A   1      32.397  31.428  27.268  1.00  0.00     0.116 C 
BRANCH  34  35
ATOM     35  N   UNL A   1      32.578  32.870  27.250  1.00  0.00    -0.352 N 
ATOM     36  C   UNL A   1      33.521  33.649  27.879  1.00  0.00     0.251 C 
ATOM     37  H   UNL A   1      31.924  33.366  26.705  1.00  0.00     0.163 HD
ATOM     38  O   UNL A   1      33.425  34.868  27.879  1.00  0.00    -0.269 OA
BRANCH  36  39
ATOM     39  C   UNL A   1      34.649  33.005  28.587  1.00  0.00     0.039 A 
ATOM     40  C   UNL A   1      34.403  32.328  29.784  1.00  0.00     0.014 A 
ATOM     41  C   UNL A   1      35.950  33.095  28.087  1.00  0.00     0.014 A 
ATOM     42  C   UNL A   1      35.450  31.677  30.441  1.00  0.00     0.010 A 
ATOM     43  C   UNL A   1      36.980  32.392  28.703  1.00  0.00     0.010 A 
ATOM     44  C   UNL A   1      36.740  31.680  29.888  1.00  0.00    -0.014 A 
BRANCH  44  45
ATOM     45  C   UNL A   1      37.871  30.989  30.557  1.00  0.00     0.031 A 
ATOM     46  C   UNL A   1      38.210  31.329  31.980  1.00  0.00     0.074 A 
ATOM     47  C   UNL A   1      38.622  30.106  29.873  1.00  0.00     0.049 A 
ATOM     48  N   UNL A   1      39.210  30.914  32.716  1.00  0.00    -0.248 NA
ATOM     49  C   UNL A   1      37.315  32.279  32.660  1.00  0.00     0.031 C 
ATOM     50  C   UNL A   1      38.401  29.704  28.484  1.00  0.00     0.029 A 
ATOM     51  N   UNL A   1      39.733  29.395  30.254  1.00  0.00    -0.354 N 
ATOM     52  C   UNL A   1      39.062  31.550  33.940  1.00  0.00     0.074 A 
ATOM     53  C   UNL A   1      37.913  32.422  33.832  1.00  0.00     0.031 C 
ATOM     54  C   UNL A   1      39.338  28.808  28.133  1.00  0.00     0.029 A 
ATOM     55  C   UNL A   1      40.247  28.600  29.259  1.00  0.00     0.049 A 
ATOM     56  H   UNL A   1      40.126  29.450  31.155  1.00  0.00     0.167 HD
ATOM     57  C   UNL A   1      39.802  31.398  35.064  1.00  0.00     0.037 A 
ATOM     58  C   UNL A   1      41.332  27.802  29.255  1.00  0.00     0.037 A 
ATOM     59  C   UNL A   1      40.939  30.523  35.173  1.00  0.00     0.049 A 
ATOM     60  C   UNL A   1      42.172  27.695  30.500  1.00  0.00     0.074 A 
ATOM     61  C   UNL A   1      41.737  30.279  36.277  1.00  0.00     0.029 A 
ATOM     62  N   UNL A   1      41.441  29.747  34.138  1.00  0.00    -0.354 N 
ATOM     63  N   UNL A   1      42.003  28.270  31.666  1.00  0.00    -0.248 NA
ATOM     64  C   UNL A   1      43.353  26.824  30.429  1.00  0.00     0.031 C 
ATOM     65  C   UNL A   1      42.748  29.391  35.898  1.00  0.00     0.029 A 
ATOM     66  C   UNL A   1      42.552  29.042  34.573  1.00  0.00     0.049 A 
ATOM     67  H   UNL A   1      41.063  29.704  33.230  1.00  0.00     0.167 HD
ATOM     68  C   UNL A   1      43.040  27.818  32.471  1.00  0.00     0.074 A 
ATOM     69  C   UNL A   1      43.822  26.901  31.667  1.00  0.00     0.031 C 
ATOM     70  C   UNL A   1      43.321  28.135  33.758  1.00  0.00     0.037 A 
BRANCH  57  71
ATOM     71  C   UNL A   1      39.398  32.190  36.273  1.00  0.00     0.064 A 
ATOM     72  C   UNL A   1      39.990  33.429  36.565  1.00  0.00     0.173 A 
ATOM     73  C   UNL A   1      38.378  31.733  37.120  1.00  0.00     0.173 A 
ATOM     74  F   UNL A   1      40.979  33.902  35.793  1.00  0.00    -0.203 F 
ATOM     75  C   UNL A   1      39.587  34.171  37.672  1.00  0.00     0.198 A 
ATOM     76  C   UNL A   1      37.958  32.492  38.209  1.00  0.00     0.198 A 
ATOM     77  F   UNL A   1      37.778  30.556  36.884  1.00  0.00    -0.203 F 
ATOM     78  F   UNL A   1      40.195  35.332  37.954  1.00  0.00    -0.200 F 
ATOM     79  C   UNL A   1      38.566  33.707  38.487  1.00  0.00     0.200 A 
ATOM     80  F   UNL A   1      36.963  32.049  38.989  1.00  0.00    -0.200 F 
ATOM     81  F   UNL A   1      38.171  34.430  39.544  1.00  0.00    -0.200 F 
ENDBRANCH  57  71
BRANCH  58  82
ATOM     82  C   UNL A   1      41.674  27.020  28.038  1.00  0.00     0.064 A 
ATOM     83  C   UNL A   1      42.548  27.544  27.075  1.00  0.00     0.173 A 
ATOM     84  C   UNL A   1      41.142  25.744  27.811  1.00  0.00     0.173 A 
ATOM     85  F   UNL A   1      43.063  28.772  27.235  1.00  0.00    -0.203 F 
ATOM     86  C   UNL A   1      42.867  26.825  25.924  1.00  0.00     0.198 A 
ATOM     87  C   UNL A   1      41.483  25.013  26.673  1.00  0.00     0.198 A 
ATOM     88  F   UNL A   1      40.302  25.197  28.702  1.00  0.00    -0.203 F 
ATOM     89  F   UNL A   1      43.673  27.365  25.002  1.00  0.00    -0.200 F 
ATOM     90  C   UNL A   1      42.340  25.557  25.728  1.00  0.00     0.200 A 
ATOM     91  F   UNL A   1      40.981  23.784  26.494  1.00  0.00    -0.200 F 
ATOM     92  F   UNL A   1      42.653  24.862  24.626  1.00  0.00    -0.200 F 
ENDBRANCH  58  82
BRANCH  70  93
ATOM     93  C   UNL A   1      44.518  27.480  34.388  1.00  0.00     0.064 A 
ATOM     94  C   UNL A   1      45.779  28.095  34.379  1.00  0.00     0.173 A 
ATOM     95  C   UNL A   1      44.391  26.251  35.054  1.00  0.00     0.173 A 
ATOM     96  F   UNL A   1      45.956  29.263  33.745  1.00  0.00    -0.203 F 
ATOM     97  C   UNL A   1      46.873  27.492  34.994  1.00  0.00     0.198 A 
ATOM     98  C   UNL A   1      45.480  25.668  35.696  1.00  0.00     0.198 A 
ATOM     99  F   UNL A   1      43.206  25.626  35.100  1.00  0.00    -0.203 F 
ATOM    100  F   UNL A   1      48.078  28.076  34.935  1.00  0.00    -0.200 F 
ATOM    101  C   UNL A   1      46.721  26.285  35.659  1.00  0.00     0.200 A 
ATOM    102  F   UNL A   1      45.327  24.509  36.353  1.00  0.00    -0.200 F 
ATOM    103  F   UNL A   1      47.773  25.713  36.261  1.00  0.00    -0.200 F 
ENDBRANCH  70  93
ENDBRANCH  44  45
ENDBRANCH  36  39
ENDBRANCH  34  35
ENDBRANCH  33  34
ENDBRANCH   1  33
TORSDOF 14
ENDMDL
