MODEL 1
REMARK VINA RESULT:     -13.1      0.000      0.000
REMARK SMILES Cc1cc(N2CCC[C@H]2C2CCCC2)cc(C(=O)NCCCCNC(=O)c2ccc(-c3c4nc(c(-c5c(F)c(F)c(F)c(F)c5F)c5ccc([nH]5)c(-c5c(F)c(F)c(F)c(F)c5F)c5nc(c(-c6c(F)c(F)c(F)c(F)c6F)c6ccc3[nH]6)C=C5)C=C4)cc2)c1N
REMARK SMILES IDX 21 1 20 2 19 3 17 4 18 5 16 7 1 8 2 9 3 10 90 11 4 12 15 13
REMARK SMILES IDX 91 14 5 17 6 18 9 19 7 20 8 21 10 22 11 23 14 24 12 25 13 26
REMARK SMILES IDX 22 27 23 28 24 29 25 30 26 32 27 33 28 34 89 35 29 36 88 37
REMARK SMILES IDX 30 38 31 39 32 40 82 41 33 42 87 43 81 44 83 45 34 46 86 47
REMARK SMILES IDX 80 48 79 49 35 51 67 52 47 53 66 54 48 55 51 56 65 57 84 58
REMARK SMILES IDX 49 59 50 60 64 62 85 63 52 64 36 65 37 66 45 67 38 68 39 69
REMARK SMILES IDX 43 70 46 71 40 72 41 73 44 74 42 75 68 76 69 77 77 78 70 79
REMARK SMILES IDX 71 80 75 81 78 82 72 83 73 84 76 85 74 86 53 87 54 88 62 89
REMARK SMILES IDX 55 90 56 91 60 92 63 93 57 94 58 95 61 96 59 97
REMARK H PARENT 19 6 91 15 91 16 24 31 83 50 51 61
REMARK Flexibility Score: inf
ROOT
ATOM      1  C   UNL A   1      32.279  29.979  27.085  1.00  0.00     0.023 C 
ENDROOT
BRANCH   1   2
ATOM      2  C   UNL A   1      33.659  29.561  26.562  1.00  0.00     0.116 C 
BRANCH   2   3
ATOM      3  N   UNL A   1      33.701  29.658  25.117  1.00  0.00    -0.352 N 
ATOM      4  C   UNL A   1      33.200  28.886  24.099  1.00  0.00     0.253 C 
ATOM      5  O   UNL A   1      33.411  29.316  22.959  1.00  0.00    -0.269 OA
ATOM      6  H   UNL A   1      34.196  30.445  24.796  1.00  0.00     0.163 HD
BRANCH   4   7
ATOM      7  C   UNL A   1      32.413  27.618  24.278  1.00  0.00     0.065 A 
ATOM      8  C   UNL A   1      28.765  26.465  23.940  1.00  0.00     0.046 C 
ATOM      9  C   UNL A   1      30.248  26.484  24.201  1.00  0.00    -0.025 A 
ATOM     10  C   UNL A   1      30.889  25.284  24.548  1.00  0.00     0.031 A 
ATOM     11  C   UNL A   1      31.005  27.666  24.073  1.00  0.00     0.047 A 
ATOM     12  C   UNL A   1      32.276  25.207  24.723  1.00  0.00     0.038 A 
ATOM     13  C   UNL A   1      33.027  26.378  24.533  1.00  0.00     0.042 A 
BRANCH  11  14
ATOM     14  N   UNL A   1      30.334  28.885  23.897  1.00  0.00    -0.398 N 
ATOM     15  H   UNL A   1      30.763  29.728  24.169  1.00  0.00     0.156 HD
ATOM     16  H   UNL A   1      29.432  28.898  23.501  1.00  0.00     0.156 HD
ENDBRANCH  11  14
BRANCH  12  17
ATOM     17  N   UNL A   1      32.919  24.004  25.049  1.00  0.00    -0.368 N 
ATOM     18  C   UNL A   1      32.026  22.922  25.505  1.00  0.00     0.117 C 
ATOM     19  C   UNL A   1      34.092  24.090  25.967  1.00  0.00     0.085 C 
ATOM     20  C   UNL A   1      32.360  22.740  26.981  1.00  0.00     0.024 C 
ATOM     21  C   UNL A   1      33.854  22.981  27.016  1.00  0.00     0.027 C 
BRANCH  19  22
ATOM     22  C   UNL A   1      35.450  23.878  25.274  1.00  0.00     0.011 C 
ATOM     23  C   UNL A   1      36.354  22.793  25.873  1.00  0.00     0.006 C 
ATOM     24  C   UNL A   1      35.370  23.532  23.786  1.00  0.00     0.006 C 
ATOM     25  C   UNL A   1      37.364  22.527  24.772  1.00  0.00     0.000 C 
ATOM     26  C   UNL A   1      36.536  22.592  23.501  1.00  0.00     0.000 C 
ENDBRANCH  19  22
ENDBRANCH  12  17
ENDBRANCH   4   7
ENDBRANCH   2   3
ENDBRANCH   1   2
BRANCH   1  27
ATOM     27  C   UNL A   1      31.961  31.463  26.886  1.00  0.00     0.023 C 
BRANCH  27  28
ATOM     28  C   UNL A   1      33.000  32.443  27.426  1.00  0.00     0.116 C 
BRANCH  28  29
ATOM     29  N   UNL A   1      32.480  33.772  27.710  1.00  0.00    -0.352 N 
ATOM     30  C   UNL A   1      33.013  34.774  28.489  1.00  0.00     0.251 C 
ATOM     31  H   UNL A   1      31.619  33.985  27.281  1.00  0.00     0.163 HD
ATOM     32  O   UNL A   1      32.449  35.863  28.573  1.00  0.00    -0.269 OA
BRANCH  30  33
ATOM     33  C   UNL A   1      34.207  34.500  29.317  1.00  0.00     0.039 A 
ATOM     34  C   UNL A   1      34.001  34.005  30.608  1.00  0.00     0.014 A 
ATOM     35  C   UNL A   1      35.498  34.601  28.797  1.00  0.00     0.014 A 
ATOM     36  C   UNL A   1      35.075  33.478  31.323  1.00  0.00     0.010 A 
ATOM     37  C   UNL A   1      36.556  34.008  29.480  1.00  0.00     0.010 A 
ATOM     38  C   UNL A   1      36.346  33.402  30.730  1.00  0.00    -0.014 A 
BRANCH  38  39
ATOM     39  C   UNL A   1      37.432  32.609  31.356  1.00  0.00     0.031 A 
ATOM     40  C   UNL A   1      37.938  32.950  32.724  1.00  0.00     0.074 A 
ATOM     41  C   UNL A   1      38.025  31.632  30.640  1.00  0.00     0.049 A 
ATOM     42  N   UNL A   1      38.932  32.423  33.393  1.00  0.00    -0.248 NA
ATOM     43  C   UNL A   1      37.257  34.051  33.423  1.00  0.00     0.031 C 
ATOM     44  C   UNL A   1      37.669  31.250  29.271  1.00  0.00     0.029 A 
ATOM     45  N   UNL A   1      39.062  30.789  30.957  1.00  0.00    -0.354 N 
ATOM     46  C   UNL A   1      39.009  33.138  34.579  1.00  0.00     0.074 A 
ATOM     47  C   UNL A   1      37.989  34.164  34.522  1.00  0.00     0.031 C 
ATOM     48  C   UNL A   1      38.454  30.235  28.878  1.00  0.00     0.029 A 
ATOM     49  C   UNL A   1      39.391  29.916  29.950  1.00  0.00     0.049 A 
ATOM     50  H   UNL A   1      39.526  30.809  31.826  1.00  0.00     0.167 HD
ATOM     51  C   UNL A   1      39.844  32.944  35.627  1.00  0.00     0.037 A 
ATOM     52  C   UNL A   1      40.344  28.967  29.893  1.00  0.00     0.037 A 
ATOM     53  C   UNL A   1      40.836  31.904  35.696  1.00  0.00     0.049 A 
ATOM     54  C   UNL A   1      41.235  28.751  31.084  1.00  0.00     0.074 A 
ATOM     55  C   UNL A   1      41.684  31.585  36.741  1.00  0.00     0.029 A 
ATOM     56  N   UNL A   1      41.112  31.010  34.671  1.00  0.00    -0.354 N 
ATOM     57  N   UNL A   1      41.252  29.389  32.227  1.00  0.00    -0.248 NA
ATOM     58  C   UNL A   1      42.235  27.678  30.978  1.00  0.00     0.031 C 
ATOM     59  C   UNL A   1      42.493  30.517  36.339  1.00  0.00     0.029 A 
ATOM     60  C   UNL A   1      42.125  30.147  35.055  1.00  0.00     0.049 A 
ATOM     61  H   UNL A   1      40.654  30.991  33.799  1.00  0.00     0.167 HD
ATOM     62  C   UNL A   1      42.244  28.784  32.986  1.00  0.00     0.074 A 
ATOM     63  C   UNL A   1      42.800  27.719  32.176  1.00  0.00     0.031 C 
ATOM     64  C   UNL A   1      42.658  29.086  34.241  1.00  0.00     0.037 A 
BRANCH  51  65
ATOM     65  C   UNL A   1      39.712  33.879  36.792  1.00  0.00     0.064 A 
ATOM     66  C   UNL A   1      38.922  33.554  37.906  1.00  0.00     0.173 A 
ATOM     67  C   UNL A   1      40.396  35.102  36.805  1.00  0.00     0.173 A 
ATOM     68  F   UNL A   1      38.237  32.402  37.935  1.00  0.00    -0.203 F 
ATOM     69  C   UNL A   1      38.798  34.436  38.977  1.00  0.00     0.198 A 
ATOM     70  C   UNL A   1      40.290  35.971  37.889  1.00  0.00     0.198 A 
ATOM     71  F   UNL A   1      41.167  35.458  35.767  1.00  0.00    -0.203 F 
ATOM     72  F   UNL A   1      37.998  34.127  40.006  1.00  0.00    -0.200 F 
ATOM     73  C   UNL A   1      39.485  35.640  38.970  1.00  0.00     0.200 A 
ATOM     74  F   UNL A   1      40.962  37.131  37.886  1.00  0.00    -0.200 F 
ATOM     75  F   UNL A   1      39.365  36.488  40.000  1.00  0.00    -0.200 F 
ENDBRANCH  51  65
BRANCH  52  76
ATOM     76  C   UNL A   1      40.479  28.125  28.678  1.00  0.00     0.064 A 
ATOM     77  C   UNL A   1      39.809  26.897  28.580  1.00  0.00     0.173 A 
ATOM     78  C   UNL A   1      41.268  28.527  27.592  1.00  0.00     0.173 A 
ATOM     79  F   UNL A   1      39.058  26.461  29.603  1.00  0.00    -0.203 F 
ATOM     80  C   UNL A   1      39.935  26.096  27.447  1.00  0.00     0.198 A 
ATOM     81  C   UNL A   1      41.376  27.736  26.450  1.00  0.00     0.198 A 
ATOM     82  F   UNL A   1      41.925  29.696  27.636  1.00  0.00    -0.203 F 
ATOM     83  F   UNL A   1      39.313  24.911  27.394  1.00  0.00    -0.200 F 
ATOM     84  C   UNL A   1      40.715  26.519  26.380  1.00  0.00     0.200 A 
ATOM     85  F   UNL A   1      42.121  28.153  25.416  1.00  0.00    -0.200 F 
ATOM     86  F   UNL A   1      40.833  25.752  25.289  1.00  0.00    -0.200 F 
ENDBRANCH  52  76
BRANCH  64  87
ATOM     87  C   UNL A   1      43.743  28.234  34.827  1.00  0.00     0.064 A 
ATOM     88  C   UNL A   1      45.094  28.595  34.726  1.00  0.00     0.173 A 
ATOM     89  C   UNL A   1      43.422  27.066  35.534  1.00  0.00     0.173 A 
ATOM     90  F   UNL A   1      45.449  29.695  34.044  1.00  0.00    -0.203 F 
ATOM     91  C   UNL A   1      46.087  27.806  35.297  1.00  0.00     0.198 A 
ATOM     92  C   UNL A   1      44.417  26.292  36.124  1.00  0.00     0.198 A 
ATOM     93  F   UNL A   1      42.143  26.681  35.660  1.00  0.00    -0.203 F 
ATOM     94  F   UNL A   1      47.375  28.149  35.157  1.00  0.00    -0.200 F 
ATOM     95  C   UNL A   1      45.748  26.660  36.001  1.00  0.00     0.200 A 
ATOM     96  F   UNL A   1      44.088  25.190  36.811  1.00  0.00    -0.200 F 
ATOM     97  F   UNL A   1      46.707  25.906  36.556  1.00  0.00    -0.200 F 
ENDBRANCH  64  87
ENDBRANCH  38  39
ENDBRANCH  30  33
ENDBRANCH  28  29
ENDBRANCH  27  28
ENDBRANCH   1  27
TORSDOF 14
ENDMDL
MODEL 2
REMARK VINA RESULT:     -13.0      5.488      9.885
REMARK SMILES Cc1cc(N2CCC[C@H]2C2CCCC2)cc(C(=O)NCCCCNC(=O)c2ccc(-c3c4nc(c(-c5c(F)c(F)c(F)c(F)c5F)c5ccc([nH]5)c(-c5c(F)c(F)c(F)c(F)c5F)c5nc(c(-c6c(F)c(F)c(F)c(F)c6F)c6ccc3[nH]6)C=C5)C=C4)cc2)c1N
REMARK SMILES IDX 21 1 20 2 19 3 17 4 18 5 16 7 1 8 2 9 3 10 90 11 4 12 15 13
REMARK SMILES IDX 91 14 5 17 6 18 9 19 7 20 8 21 10 22 11 23 14 24 12 25 13 26
REMARK SMILES IDX 22 27 23 28 24 29 25 30 26 32 27 33 28 34 89 35 29 36 88 37
REMARK SMILES IDX 30 38 31 39 32 40 82 41 33 42 87 43 81 44 83 45 34 46 86 47
REMARK SMILES IDX 80 48 79 49 35 51 67 52 47 53 66 54 48 55 51 56 65 57 84 58
REMARK SMILES IDX 49 59 50 60 64 62 85 63 52 64 36 65 37 66 45 67 38 68 39 69
REMARK SMILES IDX 43 70 46 71 40 72 41 73 44 74 42 75 68 76 69 77 77 78 70 79
REMARK SMILES IDX 71 80 75 81 78 82 72 83 73 84 76 85 74 86 53 87 54 88 62 89
REMARK SMILES IDX 55 90 56 91 60 92 63 93 57 94 58 95 61 96 59 97
REMARK H PARENT 19 6 91 15 91 16 24 31 83 50 51 61
REMARK Flexibility Score: inf
ROOT
ATOM      1  C   UNL A   1      37.343  22.490  24.605  1.00  0.00     0.023 C 
ENDROOT
BRANCH   1   2
ATOM      2  C   UNL A   1      37.106  23.478  25.754  1.00  0.00     0.116 C 
BRANCH   2   3
ATOM      3  N   UNL A   1      36.075  22.981  26.643  1.00  0.00    -0.352 N 
ATOM      4  C   UNL A   1      34.719  22.811  26.522  1.00  0.00     0.253 C 
ATOM      5  O   UNL A   1      34.161  22.311  27.505  1.00  0.00    -0.269 OA
ATOM      6  H   UNL A   1      36.421  22.707  27.522  1.00  0.00     0.163 HD
BRANCH   4   7
ATOM      7  C   UNL A   1      33.907  23.150  25.303  1.00  0.00     0.065 A 
ATOM      8  C   UNL A   1      32.120  21.277  22.466  1.00  0.00     0.046 C 
ATOM      9  C   UNL A   1      32.668  22.370  23.344  1.00  0.00    -0.025 A 
ATOM     10  C   UNL A   1      32.350  23.704  23.042  1.00  0.00     0.031 A 
ATOM     11  C   UNL A   1      33.460  22.082  24.474  1.00  0.00     0.047 A 
ATOM     12  C   UNL A   1      32.752  24.766  23.860  1.00  0.00     0.038 A 
ATOM     13  C   UNL A   1      33.488  24.462  25.016  1.00  0.00     0.042 A 
BRANCH  11  14
ATOM     14  N   UNL A   1      33.913  20.769  24.668  1.00  0.00    -0.398 N 
ATOM     15  H   UNL A   1      33.423  20.014  24.268  1.00  0.00     0.156 HD
ATOM     16  H   UNL A   1      34.722  20.601  25.203  1.00  0.00     0.156 HD
ENDBRANCH  11  14
BRANCH  12  17
ATOM     17  N   UNL A   1      32.417  26.097  23.569  1.00  0.00    -0.368 N 
ATOM     18  C   UNL A   1      32.528  26.473  22.146  1.00  0.00     0.117 C 
ATOM     19  C   UNL A   1      33.055  27.155  24.406  1.00  0.00     0.085 C 
ATOM     20  C   UNL A   1      33.701  27.444  22.094  1.00  0.00     0.024 C 
ATOM     21  C   UNL A   1      33.562  28.206  23.394  1.00  0.00     0.027 C 
BRANCH  19  22
ATOM     22  C   UNL A   1      32.101  27.815  25.420  1.00  0.00     0.011 C 
ATOM     23  C   UNL A   1      32.236  27.351  26.875  1.00  0.00     0.006 C 
ATOM     24  C   UNL A   1      32.190  29.340  25.492  1.00  0.00     0.006 C 
ATOM     25  C   UNL A   1      31.520  28.437  27.658  1.00  0.00     0.000 C 
ATOM     26  C   UNL A   1      31.916  29.717  26.944  1.00  0.00     0.000 C 
ENDBRANCH  19  22
ENDBRANCH  12  17
ENDBRANCH   4   7
ENDBRANCH   2   3
ENDBRANCH   1   2
BRANCH   1  27
ATOM     27  C   UNL A   1      37.810  21.106  25.061  1.00  0.00     0.023 C 
BRANCH  27  28
ATOM     28  C   UNL A   1      39.112  21.074  25.859  1.00  0.00     0.116 C 
BRANCH  28  29
ATOM     29  N   UNL A   1      39.855  19.828  25.743  1.00  0.00    -0.352 N 
ATOM     30  C   UNL A   1      41.169  19.559  26.058  1.00  0.00     0.251 C 
ATOM     31  H   UNL A   1      39.343  19.067  25.387  1.00  0.00     0.163 HD
ATOM     32  O   UNL A   1      41.615  18.419  25.938  1.00  0.00    -0.269 OA
BRANCH  30  33
ATOM     33  C   UNL A   1      42.073  20.666  26.432  1.00  0.00     0.039 A 
ATOM     34  C   UNL A   1      42.638  21.419  25.399  1.00  0.00     0.014 A 
ATOM     35  C   UNL A   1      42.261  21.041  27.763  1.00  0.00     0.014 A 
ATOM     36  C   UNL A   1      43.270  22.627  25.692  1.00  0.00     0.010 A 
ATOM     37  C   UNL A   1      42.825  22.281  28.049  1.00  0.00     0.010 A 
ATOM     38  C   UNL A   1      43.296  23.104  27.012  1.00  0.00    -0.014 A 
BRANCH  38  39
ATOM     39  C   UNL A   1      43.715  24.497  27.310  1.00  0.00     0.031 A 
ATOM     40  C   UNL A   1      42.725  25.504  27.809  1.00  0.00     0.074 A 
ATOM     41  C   UNL A   1      44.982  24.871  27.038  1.00  0.00     0.049 A 
ATOM     42  N   UNL A   1      42.891  26.781  28.042  1.00  0.00    -0.248 NA
ATOM     43  C   UNL A   1      41.357  25.020  28.048  1.00  0.00     0.031 C 
ATOM     44  C   UNL A   1      46.023  24.000  26.485  1.00  0.00     0.029 A 
ATOM     45  N   UNL A   1      45.609  26.085  27.176  1.00  0.00    -0.354 N 
ATOM     46  C   UNL A   1      41.649  27.257  28.435  1.00  0.00     0.074 A 
ATOM     47  C   UNL A   1      40.728  26.142  28.369  1.00  0.00     0.031 C 
ATOM     48  C   UNL A   1      47.161  24.699  26.357  1.00  0.00     0.029 A 
ATOM     49  C   UNL A   1      46.925  26.074  26.783  1.00  0.00     0.049 A 
ATOM     50  H   UNL A   1      45.157  26.888  27.524  1.00  0.00     0.167 HD
ATOM     51  C   UNL A   1      41.313  28.508  28.831  1.00  0.00     0.037 A 
ATOM     52  C   UNL A   1      47.839  27.062  26.764  1.00  0.00     0.037 A 
ATOM     53  C   UNL A   1      42.236  29.607  28.926  1.00  0.00     0.049 A 
ATOM     54  C   UNL A   1      47.447  28.432  27.242  1.00  0.00     0.074 A 
ATOM     55  C   UNL A   1      42.006  30.893  29.380  1.00  0.00     0.029 A 
ATOM     56  N   UNL A   1      43.573  29.547  28.560  1.00  0.00    -0.354 N 
ATOM     57  N   UNL A   1      46.286  28.853  27.677  1.00  0.00    -0.248 NA
ATOM     58  C   UNL A   1      48.495  29.463  27.231  1.00  0.00     0.031 C 
ATOM     59  C   UNL A   1      43.195  31.620  29.261  1.00  0.00     0.029 A 
ATOM     60  C   UNL A   1      44.177  30.777  28.766  1.00  0.00     0.049 A 
ATOM     61  H   UNL A   1      44.026  28.747  28.205  1.00  0.00     0.167 HD
ATOM     62  C   UNL A   1      46.466  30.187  28.013  1.00  0.00     0.074 A 
ATOM     63  C   UNL A   1      47.853  30.504  27.742  1.00  0.00     0.031 C 
ATOM     64  C   UNL A   1      45.561  31.071  28.501  1.00  0.00     0.037 A 
BRANCH  51  65
ATOM     65  C   UNL A   1      39.879  28.749  29.199  1.00  0.00     0.064 A 
ATOM     66  C   UNL A   1      39.415  28.545  30.508  1.00  0.00     0.173 A 
ATOM     67  C   UNL A   1      38.964  29.206  28.240  1.00  0.00     0.173 A 
ATOM     68  F   UNL A   1      40.249  28.096  31.457  1.00  0.00    -0.203 F 
ATOM     69  C   UNL A   1      38.079  28.761  30.835  1.00  0.00     0.198 A 
ATOM     70  C   UNL A   1      37.634  29.445  28.577  1.00  0.00     0.198 A 
ATOM     71  F   UNL A   1      39.358  29.419  26.976  1.00  0.00    -0.203 F 
ATOM     72  F   UNL A   1      37.647  28.512  32.079  1.00  0.00    -0.200 F 
ATOM     73  C   UNL A   1      37.191  29.215  29.871  1.00  0.00     0.200 A 
ATOM     74  F   UNL A   1      36.779  29.892  27.647  1.00  0.00    -0.200 F 
ATOM     75  F   UNL A   1      35.906  29.422  30.187  1.00  0.00    -0.200 F 
ENDBRANCH  51  65
BRANCH  52  76
ATOM     76  C   UNL A   1      49.224  26.780  26.312  1.00  0.00     0.064 A 
ATOM     77  C   UNL A   1      49.601  27.003  24.979  1.00  0.00     0.173 A 
ATOM     78  C   UNL A   1      50.199  26.294  27.194  1.00  0.00     0.173 A 
ATOM     79  F   UNL A   1      48.697  27.448  24.095  1.00  0.00    -0.203 F 
ATOM     80  C   UNL A   1      50.897  26.734  24.544  1.00  0.00     0.198 A 
ATOM     81  C   UNL A   1      51.500  26.048  26.762  1.00  0.00     0.198 A 
ATOM     82  F   UNL A   1      49.888  26.070  28.480  1.00  0.00    -0.203 F 
ATOM     83  F   UNL A   1      51.221  26.921  23.257  1.00  0.00    -0.200 F 
ATOM     84  C   UNL A   1      51.847  26.262  25.437  1.00  0.00     0.200 A 
ATOM     85  F   UNL A   1      52.419  25.601  27.631  1.00  0.00    -0.200 F 
ATOM     86  F   UNL A   1      53.094  26.008  25.019  1.00  0.00    -0.200 F 
ENDBRANCH  52  76
BRANCH  64  87
ATOM     87  C   UNL A   1      46.050  32.455  28.804  1.00  0.00     0.064 A 
ATOM     88  C   UNL A   1      45.992  33.478  27.847  1.00  0.00     0.173 A 
ATOM     89  C   UNL A   1      46.544  32.768  30.078  1.00  0.00     0.173 A 
ATOM     90  F   UNL A   1      45.543  33.220  26.609  1.00  0.00    -0.203 F 
ATOM     91  C   UNL A   1      46.427  34.764  28.151  1.00  0.00     0.198 A 
ATOM     92  C   UNL A   1      46.957  34.061  30.386  1.00  0.00     0.198 A 
ATOM     93  F   UNL A   1      46.617  31.823  31.027  1.00  0.00    -0.203 F 
ATOM     94  F   UNL A   1      46.397  35.719  27.212  1.00  0.00    -0.200 F 
ATOM     95  C   UNL A   1      46.903  35.056  29.421  1.00  0.00     0.200 A 
ATOM     96  F   UNL A   1      47.408  34.345  31.615  1.00  0.00    -0.200 F 
ATOM     97  F   UNL A   1      47.315  36.297  29.714  1.00  0.00    -0.200 F 
ENDBRANCH  64  87
ENDBRANCH  38  39
ENDBRANCH  30  33
ENDBRANCH  28  29
ENDBRANCH  27  28
ENDBRANCH   1  27
TORSDOF 14
ENDMDL
MODEL 3
REMARK VINA RESULT:     -13.0      0.542      7.242
REMARK SMILES Cc1cc(N2CCC[C@H]2C2CCCC2)cc(C(=O)NCCCCNC(=O)c2ccc(-c3c4nc(c(-c5c(F)c(F)c(F)c(F)c5F)c5ccc([nH]5)c(-c5c(F)c(F)c(F)c(F)c5F)c5nc(c(-c6c(F)c(F)c(F)c(F)c6F)c6ccc3[nH]6)C=C5)C=C4)cc2)c1N
REMARK SMILES IDX 21 1 20 2 19 3 17 4 18 5 16 7 1 8 2 9 3 10 90 11 4 12 15 13
REMARK SMILES IDX 91 14 5 17 6 18 9 19 7 20 8 21 10 22 11 23 14 24 12 25 13 26
REMARK SMILES IDX 22 27 23 28 24 29 25 30 26 32 27 33 28 34 89 35 29 36 88 37
REMARK SMILES IDX 30 38 31 39 32 40 82 41 33 42 87 43 81 44 83 45 34 46 86 47
REMARK SMILES IDX 80 48 79 49 35 51 67 52 47 53 66 54 48 55 51 56 65 57 84 58
REMARK SMILES IDX 49 59 50 60 64 62 85 63 52 64 36 65 37 66 45 67 38 68 39 69
REMARK SMILES IDX 43 70 46 71 40 72 41 73 44 74 42 75 68 76 69 77 77 78 70 79
REMARK SMILES IDX 71 80 75 81 78 82 72 83 73 84 76 85 74 86 53 87 54 88 62 89
REMARK SMILES IDX 55 90 56 91 60 92 63 93 57 94 58 95 61 96 59 97
REMARK H PARENT 19 6 91 15 91 16 24 31 83 50 51 61
REMARK Flexibility Score: inf
ROOT
ATOM      1  C   UNL A   1      32.660  29.587  27.181  1.00  0.00     0.023 C 
ENDROOT
BRANCH   1   2
ATOM      2  C   UNL A   1      34.025  29.215  26.589  1.00  0.00     0.116 C 
BRANCH   2   3
ATOM      3  N   UNL A   1      34.007  29.357  25.147  1.00  0.00    -0.352 N 
ATOM      4  C   UNL A   1      33.392  28.667  24.134  1.00  0.00     0.253 C 
ATOM      5  O   UNL A   1      33.585  29.116  22.998  1.00  0.00    -0.269 OA
ATOM      6  H   UNL A   1      34.552  30.110  24.826  1.00  0.00     0.163 HD
BRANCH   4   7
ATOM      7  C   UNL A   1      32.507  27.465  24.314  1.00  0.00     0.065 A 
ATOM      8  C   UNL A   1      28.796  26.577  23.886  1.00  0.00     0.046 C 
ATOM      9  C   UNL A   1      30.267  26.493  24.193  1.00  0.00    -0.025 A 
ATOM     10  C   UNL A   1      30.806  25.256  24.584  1.00  0.00     0.031 A 
ATOM     11  C   UNL A   1      31.114  27.612  24.065  1.00  0.00     0.047 A 
ATOM     12  C   UNL A   1      32.178  25.081  24.802  1.00  0.00     0.038 A 
ATOM     13  C   UNL A   1      33.019  26.188  24.612  1.00  0.00     0.042 A 
BRANCH  11  14
ATOM     14  N   UNL A   1      30.541  28.873  23.844  1.00  0.00    -0.398 N 
ATOM     15  H   UNL A   1      30.712  29.610  24.474  1.00  0.00     0.156 HD
ATOM     16  H   UNL A   1      29.967  29.023  23.058  1.00  0.00     0.156 HD
ENDBRANCH  11  14
BRANCH  12  17
ATOM     17  N   UNL A   1      32.720  23.841  25.172  1.00  0.00    -0.368 N 
ATOM     18  C   UNL A   1      31.769  22.908  25.807  1.00  0.00     0.117 C 
ATOM     19  C   UNL A   1      33.985  23.863  25.962  1.00  0.00     0.085 C 
ATOM     20  C   UNL A   1      32.235  22.806  27.254  1.00  0.00     0.024 C 
ATOM     21  C   UNL A   1      33.742  22.875  27.124  1.00  0.00     0.027 C 
BRANCH  19  22
ATOM     22  C   UNL A   1      35.232  23.441  25.163  1.00  0.00     0.011 C 
ATOM     23  C   UNL A   1      36.587  23.797  25.788  1.00  0.00     0.006 C 
ATOM     24  C   UNL A   1      35.330  21.946  24.858  1.00  0.00     0.006 C 
ATOM     25  C   UNL A   1      37.564  22.911  25.036  1.00  0.00     0.000 C 
ATOM     26  C   UNL A   1      36.815  21.600  24.879  1.00  0.00     0.000 C 
ENDBRANCH  19  22
ENDBRANCH  12  17
ENDBRANCH   4   7
ENDBRANCH   2   3
ENDBRANCH   1   2
BRANCH   1  27
ATOM     27  C   UNL A   1      32.249  31.041  26.932  1.00  0.00     0.023 C 
BRANCH  27  28
ATOM     28  C   UNL A   1      33.209  32.103  27.466  1.00  0.00     0.116 C 
BRANCH  28  29
ATOM     29  N   UNL A   1      32.599  33.405  27.684  1.00  0.00    -0.352 N 
ATOM     30  C   UNL A   1      33.051  34.471  28.430  1.00  0.00     0.251 C 
ATOM     31  H   UNL A   1      31.736  33.545  27.231  1.00  0.00     0.163 HD
ATOM     32  O   UNL A   1      32.417  35.524  28.458  1.00  0.00    -0.269 OA
BRANCH  30  33
ATOM     33  C   UNL A   1      34.242  34.308  29.290  1.00  0.00     0.039 A 
ATOM     34  C   UNL A   1      34.047  33.810  30.581  1.00  0.00     0.014 A 
ATOM     35  C   UNL A   1      35.533  34.515  28.802  1.00  0.00     0.014 A 
ATOM     36  C   UNL A   1      35.143  33.383  31.329  1.00  0.00     0.010 A 
ATOM     37  C   UNL A   1      36.620  34.021  29.518  1.00  0.00     0.010 A 
ATOM     38  C   UNL A   1      36.430  33.412  30.769  1.00  0.00    -0.014 A 
BRANCH  38  39
ATOM     39  C   UNL A   1      37.564  32.721  31.431  1.00  0.00     0.031 A 
ATOM     40  C   UNL A   1      38.226  31.542  30.784  1.00  0.00     0.074 A 
ATOM     41  C   UNL A   1      37.933  33.107  32.669  1.00  0.00     0.049 A 
ATOM     42  N   UNL A   1      39.171  30.767  31.249  1.00  0.00    -0.248 NA
ATOM     43  C   UNL A   1      37.739  31.167  29.447  1.00  0.00     0.031 C 
ATOM     44  C   UNL A   1      37.321  34.196  33.435  1.00  0.00     0.029 A 
ATOM     45  N   UNL A   1      38.904  32.621  33.510  1.00  0.00    -0.354 N 
ATOM     46  C   UNL A   1      39.379  29.801  30.275  1.00  0.00     0.074 A 
ATOM     47  C   UNL A   1      38.433  30.063  29.210  1.00  0.00     0.031 C 
ATOM     48  C   UNL A   1      37.946  34.311  34.616  1.00  0.00     0.029 A 
ATOM     49  C   UNL A   1      38.979  33.284  34.710  1.00  0.00     0.049 A 
ATOM     50  H   UNL A   1      39.492  31.867  33.274  1.00  0.00     0.167 HD
ATOM     51  C   UNL A   1      40.289  28.798  30.263  1.00  0.00     0.037 A 
ATOM     52  C   UNL A   1      39.786  33.087  35.769  1.00  0.00     0.037 A 
ATOM     53  C   UNL A   1      41.249  28.559  31.308  1.00  0.00     0.049 A 
ATOM     54  C   UNL A   1      40.809  31.987  35.715  1.00  0.00     0.074 A 
ATOM     55  C   UNL A   1      42.254  27.610  31.357  1.00  0.00     0.029 A 
ATOM     56  N   UNL A   1      41.322  29.280  32.491  1.00  0.00    -0.354 N 
ATOM     57  N   UNL A   1      41.043  31.124  34.759  1.00  0.00    -0.248 NA
ATOM     58  C   UNL A   1      41.686  31.839  36.886  1.00  0.00     0.031 C 
ATOM     59  C   UNL A   1      42.918  27.737  32.583  1.00  0.00     0.029 A 
ATOM     60  C   UNL A   1      42.348  28.789  33.282  1.00  0.00     0.049 A 
ATOM     61  H   UNL A   1      40.732  30.030  32.733  1.00  0.00     0.167 HD
ATOM     62  C   UNL A   1      42.104  30.346  35.198  1.00  0.00     0.074 A 
ATOM     63  C   UNL A   1      42.477  30.847  36.505  1.00  0.00     0.031 C 
ATOM     64  C   UNL A   1      42.713  29.307  34.575  1.00  0.00     0.037 A 
BRANCH  51  65
ATOM     65  C   UNL A   1      40.290  27.886  29.073  1.00  0.00     0.064 A 
ATOM     66  C   UNL A   1      41.035  28.185  27.922  1.00  0.00     0.173 A 
ATOM     67  C   UNL A   1      39.555  26.692  29.090  1.00  0.00     0.173 A 
ATOM     68  F   UNL A   1      41.743  29.321  27.853  1.00  0.00    -0.203 F 
ATOM     69  C   UNL A   1      41.019  27.336  26.819  1.00  0.00     0.198 A 
ATOM     70  C   UNL A   1      39.561  25.832  27.994  1.00  0.00     0.198 A 
ATOM     71  F   UNL A   1      38.829  26.358  30.168  1.00  0.00    -0.203 F 
ATOM     72  F   UNL A   1      41.697  27.666  25.712  1.00  0.00    -0.200 F 
ATOM     73  C   UNL A   1      40.286  26.159  26.857  1.00  0.00     0.200 A 
ATOM     74  F   UNL A   1      38.861  24.690  28.035  1.00  0.00    -0.200 F 
ATOM     75  F   UNL A   1      40.271  25.343  25.795  1.00  0.00    -0.200 F 
ENDBRANCH  51  65
BRANCH  52  76
ATOM     76  C   UNL A   1      39.682  33.974  36.954  1.00  0.00     0.064 A 
ATOM     77  C   UNL A   1      38.902  33.605  38.059  1.00  0.00     0.173 A 
ATOM     78  C   UNL A   1      40.362  35.198  37.014  1.00  0.00     0.173 A 
ATOM     79  F   UNL A   1      38.217  32.451  38.038  1.00  0.00    -0.203 F 
ATOM     80  C   UNL A   1      38.792  34.434  39.173  1.00  0.00     0.198 A 
ATOM     81  C   UNL A   1      40.271  36.016  38.138  1.00  0.00     0.198 A 
ATOM     82  F   UNL A   1      41.126  35.594  35.985  1.00  0.00    -0.203 F 
ATOM     83  F   UNL A   1      38.011  34.074  40.200  1.00  0.00    -0.200 F 
ATOM     84  C   UNL A   1      39.482  35.637  39.214  1.00  0.00     0.200 A 
ATOM     85  F   UNL A   1      40.946  37.174  38.179  1.00  0.00    -0.200 F 
ATOM     86  F   UNL A   1      39.380  36.433  40.287  1.00  0.00    -0.200 F 
ENDBRANCH  52  76
BRANCH  64  87
ATOM     87  C   UNL A   1      43.866  28.665  35.284  1.00  0.00     0.064 A 
ATOM     88  C   UNL A   1      45.185  29.093  35.075  1.00  0.00     0.173 A 
ATOM     89  C   UNL A   1      43.643  27.638  36.214  1.00  0.00     0.173 A 
ATOM     90  F   UNL A   1      45.448  30.059  34.183  1.00  0.00    -0.203 F 
ATOM     91  C   UNL A   1      46.243  28.502  35.760  1.00  0.00     0.198 A 
ATOM     92  C   UNL A   1      44.702  27.066  36.913  1.00  0.00     0.198 A 
ATOM     93  F   UNL A   1      42.399  27.198  36.449  1.00  0.00    -0.203 F 
ATOM     94  F   UNL A   1      47.500  28.900  35.519  1.00  0.00    -0.200 F 
ATOM     95  C   UNL A   1      46.000  27.495  36.683  1.00  0.00     0.200 A 
ATOM     96  F   UNL A   1      44.465  26.100  37.811  1.00  0.00    -0.200 F 
ATOM     97  F   UNL A   1      47.020  26.933  37.346  1.00  0.00    -0.200 F 
ENDBRANCH  64  87
ENDBRANCH  38  39
ENDBRANCH  30  33
ENDBRANCH  28  29
ENDBRANCH  27  28
ENDBRANCH   1  27
TORSDOF 14
ENDMDL
