MODEL 1
REMARK VINA RESULT:     -13.7      0.000      0.000
REMARK SMILES O=C(NCCCCNC(=O)[C@H]1CC2(CCN(C(=O)C3CC3)CC2)CN1C(=O)CCn1cccn1)c1ccc(-c2c3nc(c(-c4c(F)c(F)c(F)c(F)c4F)c4ccc([nH]4)c(-c4c(F)c(F)c(F)c(F)c4F)c4nc(c(-c5c(F)c(F)c(F)c(F)c5F)c5ccc2[nH]5)C=C4)C=C3)cc1
REMARK SMILES IDX 6 1 5 2 4 3 3 4 1 5 2 6 35 8 36 9 97 10 37 11 96 12 38 13
REMARK SMILES IDX 39 14 40 15 90 16 41 17 95 18 89 19 91 20 42 21 94 22 88 23
REMARK SMILES IDX 87 24 43 26 75 27 55 28 74 29 56 30 59 31 73 32 92 33 57 34
REMARK SMILES IDX 58 35 72 37 93 38 60 39 44 40 45 41 53 42 46 43 47 44 51 45
REMARK SMILES IDX 54 46 48 47 49 48 52 49 50 50 76 51 77 52 85 53 78 54 79 55
REMARK SMILES IDX 83 56 86 57 80 58 81 59 84 60 82 61 61 62 62 63 70 64 63 65
REMARK SMILES IDX 64 66 68 67 71 68 65 69 66 70 69 71 67 72 7 73 8 74 9 75
REMARK SMILES IDX 10 77 11 78 12 79 25 80 13 81 24 82 14 83 23 84 15 85 22 86
REMARK SMILES IDX 16 87 17 88 18 89 26 90 27 91 28 92 29 93 30 94 31 95 34 96
REMARK SMILES IDX 32 97 33 98 19 99 20 100 21 101
REMARK H PARENT 3 7 91 25 59 36 8 76
REMARK Flexibility Score: inf
ROOT
ATOM      1  C   UNL A   1      39.007  22.830  26.578  1.00  0.00     0.023 C 
ENDROOT
BRANCH   1   2
ATOM      2  C   UNL A   1      39.503  21.522  25.946  1.00  0.00     0.023 C 
BRANCH   2   3
ATOM      3  C   UNL A   1      40.911  21.094  26.347  1.00  0.00     0.116 C 
BRANCH   3   4
ATOM      4  N   UNL A   1      41.962  21.646  25.518  1.00  0.00    -0.352 N 
ATOM      5  O   UNL A   1      43.513  22.901  24.584  1.00  0.00    -0.269 OA
ATOM      6  C   UNL A   1      42.651  22.824  25.464  1.00  0.00     0.251 C 
ATOM      7  H   UNL A   1      42.253  21.016  24.820  1.00  0.00     0.163 HD
BRANCH   6   8
ATOM      8  C   UNL A   1      42.416  24.014  26.328  1.00  0.00     0.039 A 
ATOM      9  C   UNL A   1      42.829  24.163  27.652  1.00  0.00     0.014 A 
ATOM     10  C   UNL A   1      41.742  25.089  25.712  1.00  0.00     0.014 A 
ATOM     11  C   UNL A   1      42.523  25.331  28.357  1.00  0.00     0.010 A 
ATOM     12  C   UNL A   1      41.446  26.258  26.404  1.00  0.00     0.010 A 
ATOM     13  C   UNL A   1      41.819  26.372  27.738  1.00  0.00    -0.014 A 
BRANCH  13  14
ATOM     14  C   UNL A   1      41.683  27.650  28.442  1.00  0.00     0.031 A 
ATOM     15  C   UNL A   1      42.781  28.622  28.153  1.00  0.00     0.074 A 
ATOM     16  C   UNL A   1      40.599  28.027  29.150  1.00  0.00     0.049 A 
ATOM     17  N   UNL A   1      43.632  29.134  28.983  1.00  0.00    -0.248 NA
ATOM     18  C   UNL A   1      43.027  28.989  26.748  1.00  0.00     0.031 C 
ATOM     19  C   UNL A   1      39.315  27.333  29.270  1.00  0.00     0.029 A 
ATOM     20  N   UNL A   1      40.384  29.182  29.851  1.00  0.00    -0.354 N 
ATOM     21  C   UNL A   1      44.422  30.010  28.239  1.00  0.00     0.074 A 
ATOM     22  C   UNL A   1      44.099  29.776  26.856  1.00  0.00     0.031 C 
ATOM     23  C   UNL A   1      38.400  28.171  29.810  1.00  0.00     0.029 A 
ATOM     24  C   UNL A   1      39.055  29.411  30.193  1.00  0.00     0.049 A 
ATOM     25  H   UNL A   1      41.110  29.800  30.093  1.00  0.00     0.167 HD
ATOM     26  C   UNL A   1      45.132  31.008  28.834  1.00  0.00     0.037 A 
ATOM     27  C   UNL A   1      38.526  30.555  30.702  1.00  0.00     0.037 A 
ATOM     28  C   UNL A   1      45.273  30.778  30.246  1.00  0.00     0.049 A 
ATOM     29  C   UNL A   1      39.640  31.353  31.268  1.00  0.00     0.074 A 
ATOM     30  C   UNL A   1      45.865  29.805  31.025  1.00  0.00     0.029 A 
ATOM     31  N   UNL A   1      44.445  31.477  31.088  1.00  0.00    -0.354 N 
ATOM     32  N   UNL A   1      40.308  31.020  32.336  1.00  0.00    -0.248 NA
ATOM     33  C   UNL A   1      40.291  32.319  30.398  1.00  0.00     0.031 C 
ATOM     34  C   UNL A   1      45.006  29.663  32.154  1.00  0.00     0.029 A 
ATOM     35  C   UNL A   1      43.978  30.597  32.025  1.00  0.00     0.049 A 
ATOM     36  H   UNL A   1      44.228  32.435  31.029  1.00  0.00     0.167 HD
ATOM     37  C   UNL A   1      41.616  31.368  32.046  1.00  0.00     0.074 A 
ATOM     38  C   UNL A   1      41.531  32.253  30.888  1.00  0.00     0.031 C 
ATOM     39  C   UNL A   1      42.656  30.678  32.597  1.00  0.00     0.037 A 
BRANCH  26  40
ATOM     40  C   UNL A   1      45.378  32.372  28.231  1.00  0.00     0.064 A 
ATOM     41  C   UNL A   1      44.275  33.205  27.944  1.00  0.00     0.173 A 
ATOM     42  C   UNL A   1      46.596  32.752  27.629  1.00  0.00     0.173 A 
ATOM     43  F   UNL A   1      43.063  32.934  28.452  1.00  0.00    -0.203 F 
ATOM     44  C   UNL A   1      44.367  34.273  27.048  1.00  0.00     0.198 A 
ATOM     45  C   UNL A   1      46.696  33.850  26.777  1.00  0.00     0.198 A 
ATOM     46  F   UNL A   1      47.706  32.013  27.741  1.00  0.00    -0.203 F 
ATOM     47  F   UNL A   1      43.264  34.947  26.699  1.00  0.00    -0.200 F 
ATOM     48  C   UNL A   1      45.576  34.590  26.458  1.00  0.00     0.200 A 
ATOM     49  F   UNL A   1      47.873  34.130  26.199  1.00  0.00    -0.200 F 
ATOM     50  F   UNL A   1      45.655  35.567  25.545  1.00  0.00    -0.200 F 
ENDBRANCH  26  40
BRANCH  27  51
ATOM     51  C   UNL A   1      37.183  31.152  30.489  1.00  0.00     0.064 A 
ATOM     52  C   UNL A   1      36.318  31.407  31.569  1.00  0.00     0.173 A 
ATOM     53  C   UNL A   1      36.844  31.758  29.264  1.00  0.00     0.173 A 
ATOM     54  F   UNL A   1      36.588  30.908  32.784  1.00  0.00    -0.203 F 
ATOM     55  C   UNL A   1      35.202  32.243  31.438  1.00  0.00     0.198 A 
ATOM     56  C   UNL A   1      35.728  32.587  29.133  1.00  0.00     0.198 A 
ATOM     57  F   UNL A   1      37.646  31.642  28.197  1.00  0.00    -0.203 F 
ATOM     58  F   UNL A   1      34.441  32.517  32.507  1.00  0.00    -0.200 F 
ATOM     59  C   UNL A   1      34.916  32.842  30.223  1.00  0.00     0.200 A 
ATOM     60  F   UNL A   1      35.484  33.191  27.962  1.00  0.00    -0.200 F 
ATOM     61  F   UNL A   1      33.888  33.695  30.112  1.00  0.00    -0.200 F 
ENDBRANCH  27  51
BRANCH  39  62
ATOM     62  C   UNL A   1      42.356  29.755  33.742  1.00  0.00     0.064 A 
ATOM     63  C   UNL A   1      41.955  28.415  33.597  1.00  0.00     0.173 A 
ATOM     64  C   UNL A   1      42.617  30.213  35.040  1.00  0.00     0.173 A 
ATOM     65  F   UNL A   1      41.783  27.871  32.385  1.00  0.00    -0.203 F 
ATOM     66  C   UNL A   1      41.782  27.591  34.707  1.00  0.00     0.198 A 
ATOM     67  C   UNL A   1      42.483  29.377  36.143  1.00  0.00     0.198 A 
ATOM     68  F   UNL A   1      43.055  31.467  35.234  1.00  0.00    -0.203 F 
ATOM     69  F   UNL A   1      41.387  26.319  34.545  1.00  0.00    -0.200 F 
ATOM     70  C   UNL A   1      42.053  28.070  35.977  1.00  0.00     0.200 A 
ATOM     71  F   UNL A   1      42.799  29.830  37.364  1.00  0.00    -0.200 F 
ATOM     72  F   UNL A   1      41.931  27.264  37.042  1.00  0.00    -0.200 F 
ENDBRANCH  39  62
ENDBRANCH  13  14
ENDBRANCH   6   8
ENDBRANCH   3   4
ENDBRANCH   2   3
ENDBRANCH   1   2
BRANCH   1  73
ATOM     73  C   UNL A   1      37.876  23.587  25.862  1.00  0.00     0.116 C 
BRANCH  73  74
ATOM     74  N   UNL A   1      37.467  23.040  24.578  1.00  0.00    -0.354 N 
ATOM     75  C   UNL A   1      36.260  23.099  23.932  1.00  0.00     0.242 C 
ATOM     76  H   UNL A   1      38.170  22.548  24.095  1.00  0.00     0.163 HD
ATOM     77  O   UNL A   1      36.318  23.030  22.699  1.00  0.00    -0.273 OA
BRANCH  75  78
ATOM     78  C   UNL A   1      34.932  23.465  24.651  1.00  0.00     0.175 C 
ATOM     79  C   UNL A   1      34.382  24.864  24.291  1.00  0.00     0.044 C 
ATOM     80  N   UNL A   1      33.696  22.689  24.809  1.00  0.00    -0.330 N 
ATOM     81  C   UNL A   1      32.960  24.948  24.931  1.00  0.00    -0.006 C 
ATOM     82  C   UNL A   1      32.804  23.554  25.596  1.00  0.00     0.127 C 
ATOM     83  C   UNL A   1      31.815  25.134  23.905  1.00  0.00     0.030 C 
ATOM     84  C   UNL A   1      32.897  26.134  25.912  1.00  0.00     0.030 C 
ATOM     85  C   UNL A   1      31.765  26.506  23.239  1.00  0.00     0.120 C 
ATOM     86  C   UNL A   1      32.932  27.478  25.163  1.00  0.00     0.120 C 
ATOM     87  N   UNL A   1      31.826  27.592  24.210  1.00  0.00    -0.342 N 
ATOM     88  C   UNL A   1      31.082  28.781  24.235  1.00  0.00     0.225 C 
ATOM     89  O   UNL A   1      31.365  29.672  25.024  1.00  0.00    -0.275 OA
BRANCH  80  90
ATOM     90  C   UNL A   1      33.094  21.906  23.816  1.00  0.00     0.225 C 
ATOM     91  O   UNL A   1      32.989  22.285  22.647  1.00  0.00    -0.275 OA
BRANCH  90  92
ATOM     92  C   UNL A   1      32.359  20.652  24.232  1.00  0.00     0.124 C 
BRANCH  92  93
ATOM     93  C   UNL A   1      32.984  19.813  25.332  1.00  0.00     0.154 C 
BRANCH  93  94
ATOM     94  N   UNL A   1      33.225  18.432  24.962  1.00  0.00    -0.272 N 
ATOM     95  C   UNL A   1      34.277  17.937  24.243  1.00  0.00     0.108 A 
ATOM     96  N   UNL A   1      32.370  17.480  25.364  1.00  0.00    -0.182 NA
ATOM     97  C   UNL A   1      34.051  16.585  24.116  1.00  0.00     0.042 A 
ATOM     98  C   UNL A   1      32.856  16.362  24.814  1.00  0.00     0.135 A 
ENDBRANCH  93  94
ENDBRANCH  92  93
ENDBRANCH  90  92
ENDBRANCH  80  90
BRANCH  88  99
ATOM     99  C   UNL A   1      29.886  29.065  23.378  1.00  0.00     0.079 C 
ATOM    100  C   UNL A   1      29.171  30.345  23.068  1.00  0.00     0.014 C 
ATOM    101  C   UNL A   1      30.020  29.688  22.011  1.00  0.00     0.014 C 
ENDBRANCH  88  99
ENDBRANCH  75  78
ENDBRANCH  73  74
ENDBRANCH   1  73
TORSDOF 16
ENDMDL
MODEL 2
REMARK VINA RESULT:     -12.7      2.669      8.788
REMARK SMILES O=C(NCCCCNC(=O)[C@H]1CC2(CCN(C(=O)C3CC3)CC2)CN1C(=O)CCn1cccn1)c1ccc(-c2c3nc(c(-c4c(F)c(F)c(F)c(F)c4F)c4ccc([nH]4)c(-c4c(F)c(F)c(F)c(F)c4F)c4nc(c(-c5c(F)c(F)c(F)c(F)c5F)c5ccc2[nH]5)C=C4)C=C3)cc1
REMARK SMILES IDX 6 1 5 2 4 3 3 4 1 5 2 6 35 8 36 9 97 10 37 11 96 12 38 13
REMARK SMILES IDX 39 14 40 15 90 16 41 17 95 18 89 19 91 20 42 21 94 22 88 23
REMARK SMILES IDX 87 24 43 26 75 27 55 28 74 29 56 30 59 31 73 32 92 33 57 34
REMARK SMILES IDX 58 35 72 37 93 38 60 39 44 40 45 41 53 42 46 43 47 44 51 45
REMARK SMILES IDX 54 46 48 47 49 48 52 49 50 50 76 51 77 52 85 53 78 54 79 55
REMARK SMILES IDX 83 56 86 57 80 58 81 59 84 60 82 61 61 62 62 63 70 64 63 65
REMARK SMILES IDX 64 66 68 67 71 68 65 69 66 70 69 71 67 72 7 73 8 74 9 75
REMARK SMILES IDX 10 77 11 78 12 79 25 80 13 81 24 82 14 83 23 84 15 85 22 86
REMARK SMILES IDX 16 87 17 88 18 89 26 90 27 91 28 92 29 93 30 94 31 95 34 96
REMARK SMILES IDX 32 97 33 98 19 99 20 100 21 101
REMARK H PARENT 3 7 91 25 59 36 8 76
REMARK Flexibility Score: inf
ROOT
ATOM      1  C   UNL A   1      32.525  27.107  26.799  1.00  0.00     0.023 C 
ENDROOT
BRANCH   1   2
ATOM      2  C   UNL A   1      32.341  28.619  26.609  1.00  0.00     0.023 C 
BRANCH   2   3
ATOM      3  C   UNL A   1      33.599  29.386  26.216  1.00  0.00     0.116 C 
BRANCH   3   4
ATOM      4  N   UNL A   1      33.743  30.671  26.867  1.00  0.00    -0.352 N 
ATOM      5  O   UNL A   1      34.446  32.442  27.973  1.00  0.00    -0.269 OA
ATOM      6  C   UNL A   1      34.716  31.300  27.591  1.00  0.00     0.251 C 
ATOM      7  H   UNL A   1      32.941  31.232  26.764  1.00  0.00     0.163 HD
BRANCH   6   8
ATOM      8  C   UNL A   1      36.026  30.714  27.988  1.00  0.00     0.039 A 
ATOM      9  C   UNL A   1      36.420  29.387  27.813  1.00  0.00     0.014 A 
ATOM     10  C   UNL A   1      36.946  31.616  28.562  1.00  0.00     0.014 A 
ATOM     11  C   UNL A   1      37.678  28.963  28.254  1.00  0.00     0.010 A 
ATOM     12  C   UNL A   1      38.203  31.203  28.990  1.00  0.00     0.010 A 
ATOM     13  C   UNL A   1      38.563  29.867  28.855  1.00  0.00    -0.014 A 
BRANCH  13  14
ATOM     14  C   UNL A   1      39.937  29.435  29.130  1.00  0.00     0.031 A 
ATOM     15  C   UNL A   1      40.193  29.108  30.565  1.00  0.00     0.074 A 
ATOM     16  C   UNL A   1      40.863  29.170  28.185  1.00  0.00     0.049 A 
ATOM     17  N   UNL A   1      41.028  29.676  31.375  1.00  0.00    -0.248 NA
ATOM     18  C   UNL A   1      39.342  28.092  31.206  1.00  0.00     0.031 C 
ATOM     19  C   UNL A   1      40.684  29.131  26.733  1.00  0.00     0.029 A 
ATOM     20  N   UNL A   1      42.165  28.780  28.340  1.00  0.00    -0.354 N 
ATOM     21  C   UNL A   1      40.925  28.988  32.584  1.00  0.00     0.074 A 
ATOM     22  C   UNL A   1      39.782  28.123  32.465  1.00  0.00     0.031 C 
ATOM     23  C   UNL A   1      41.758  28.536  26.164  1.00  0.00     0.029 A 
ATOM     24  C   UNL A   1      42.755  28.271  27.188  1.00  0.00     0.049 A 
ATOM     25  H   UNL A   1      42.644  28.853  29.196  1.00  0.00     0.167 HD
ATOM     26  C   UNL A   1      41.918  29.035  33.516  1.00  0.00     0.037 A 
ATOM     27  C   UNL A   1      43.950  27.629  27.096  1.00  0.00     0.037 A 
ATOM     28  C   UNL A   1      42.809  30.137  33.275  1.00  0.00     0.049 A 
ATOM     29  C   UNL A   1      44.735  27.962  28.308  1.00  0.00     0.074 A 
ATOM     30  C   UNL A   1      42.682  31.511  33.247  1.00  0.00     0.029 A 
ATOM     31  N   UNL A   1      44.008  29.861  32.667  1.00  0.00    -0.354 N 
ATOM     32  N   UNL A   1      45.228  29.141  28.559  1.00  0.00    -0.248 NA
ATOM     33  C   UNL A   1      44.615  27.076  29.456  1.00  0.00     0.031 C 
ATOM     34  C   UNL A   1      43.558  31.942  32.208  1.00  0.00     0.029 A 
ATOM     35  C   UNL A   1      44.208  30.815  31.706  1.00  0.00     0.049 A 
ATOM     36  H   UNL A   1      44.613  29.117  32.884  1.00  0.00     0.167 HD
ATOM     37  C   UNL A   1      45.052  29.305  29.923  1.00  0.00     0.074 A 
ATOM     38  C   UNL A   1      44.767  27.969  30.436  1.00  0.00     0.031 C 
ATOM     39  C   UNL A   1      44.874  30.549  30.455  1.00  0.00     0.037 A 
BRANCH  26  40
ATOM     40  C   UNL A   1      42.312  27.887  34.417  1.00  0.00     0.064 A 
ATOM     41  C   UNL A   1      42.935  26.754  33.851  1.00  0.00     0.173 A 
ATOM     42  C   UNL A   1      41.815  27.716  35.726  1.00  0.00     0.173 A 
ATOM     43  F   UNL A   1      43.434  26.797  32.606  1.00  0.00    -0.203 F 
ATOM     44  C   UNL A   1      42.967  25.521  34.510  1.00  0.00     0.198 A 
ATOM     45  C   UNL A   1      41.897  26.499  36.400  1.00  0.00     0.198 A 
ATOM     46  F   UNL A   1      41.128  28.674  36.358  1.00  0.00    -0.203 F 
ATOM     47  F   UNL A   1      43.442  24.441  33.877  1.00  0.00    -0.200 F 
ATOM     48  C   UNL A   1      42.440  25.393  35.781  1.00  0.00     0.200 A 
ATOM     49  F   UNL A   1      41.363  26.389  37.625  1.00  0.00    -0.200 F 
ATOM     50  F   UNL A   1      42.404  24.199  36.387  1.00  0.00    -0.200 F 
ENDBRANCH  26  40
BRANCH  27  51
ATOM     51  C   UNL A   1      44.364  26.527  26.190  1.00  0.00     0.064 A 
ATOM     52  C   UNL A   1      45.630  26.523  25.576  1.00  0.00     0.173 A 
ATOM     53  C   UNL A   1      43.649  25.316  26.147  1.00  0.00     0.173 A 
ATOM     54  F   UNL A   1      46.401  27.620  25.607  1.00  0.00    -0.203 F 
ATOM     55  C   UNL A   1      46.159  25.369  24.986  1.00  0.00     0.198 A 
ATOM     56  C   UNL A   1      44.175  24.166  25.554  1.00  0.00     0.198 A 
ATOM     57  F   UNL A   1      42.470  25.194  26.772  1.00  0.00    -0.203 F 
ATOM     58  F   UNL A   1      47.397  25.385  24.472  1.00  0.00    -0.200 F 
ATOM     59  C   UNL A   1      45.435  24.188  24.987  1.00  0.00     0.200 A 
ATOM     60  F   UNL A   1      43.481  23.021  25.595  1.00  0.00    -0.200 F 
ATOM     61  F   UNL A   1      45.967  23.065  24.482  1.00  0.00    -0.200 F 
ENDBRANCH  27  51
BRANCH  39  62
ATOM     62  C   UNL A   1      45.179  31.733  29.584  1.00  0.00     0.064 A 
ATOM     63  C   UNL A   1      46.455  32.306  29.442  1.00  0.00     0.173 A 
ATOM     64  C   UNL A   1      44.158  32.220  28.758  1.00  0.00     0.173 A 
ATOM     65  F   UNL A   1      47.507  31.830  30.122  1.00  0.00    -0.203 F 
ATOM     66  C   UNL A   1      46.682  33.348  28.546  1.00  0.00     0.198 A 
ATOM     67  C   UNL A   1      44.396  33.233  27.835  1.00  0.00     0.198 A 
ATOM     68  F   UNL A   1      42.933  31.674  28.811  1.00  0.00    -0.203 F 
ATOM     69  F   UNL A   1      47.905  33.888  28.437  1.00  0.00    -0.200 F 
ATOM     70  C   UNL A   1      45.654  33.805  27.738  1.00  0.00     0.200 A 
ATOM     71  F   UNL A   1      43.412  33.633  27.018  1.00  0.00    -0.200 F 
ATOM     72  F   UNL A   1      45.882  34.777  26.842  1.00  0.00    -0.200 F 
ENDBRANCH  39  62
ENDBRANCH  13  14
ENDBRANCH   6   8
ENDBRANCH   3   4
ENDBRANCH   2   3
ENDBRANCH   1   2
BRANCH   1  73
ATOM     73  C   UNL A   1      31.528  26.171  26.096  1.00  0.00     0.116 C 
BRANCH  73  74
ATOM     74  N   UNL A   1      31.492  24.803  26.590  1.00  0.00    -0.354 N 
ATOM     75  C   UNL A   1      32.441  23.817  26.541  1.00  0.00     0.242 C 
ATOM     76  H   UNL A   1      30.650  24.545  27.029  1.00  0.00     0.163 HD
ATOM     77  O   UNL A   1      32.377  22.978  27.447  1.00  0.00    -0.273 OA
BRANCH  75  78
ATOM     78  C   UNL A   1      33.659  23.860  25.576  1.00  0.00     0.175 C 
ATOM     79  C   UNL A   1      34.970  23.316  26.187  1.00  0.00     0.044 C 
ATOM     80  N   UNL A   1      33.776  23.426  24.179  1.00  0.00    -0.330 N 
ATOM     81  C   UNL A   1      35.996  23.242  25.013  1.00  0.00    -0.006 C 
ATOM     82  C   UNL A   1      35.163  23.737  23.801  1.00  0.00     0.127 C 
ATOM     83  C   UNL A   1      36.504  21.810  24.707  1.00  0.00     0.030 C 
ATOM     84  C   UNL A   1      37.228  24.108  25.338  1.00  0.00     0.030 C 
ATOM     85  C   UNL A   1      37.435  21.219  25.763  1.00  0.00     0.120 C 
ATOM     86  C   UNL A   1      38.067  23.481  26.466  1.00  0.00     0.120 C 
ATOM     87  N   UNL A   1      38.516  22.132  26.116  1.00  0.00    -0.342 N 
ATOM     88  C   UNL A   1      39.873  21.838  26.321  1.00  0.00     0.225 C 
ATOM     89  O   UNL A   1      40.628  22.686  26.776  1.00  0.00    -0.275 OA
BRANCH  80  90
ATOM     90  C   UNL A   1      33.228  22.254  23.643  1.00  0.00     0.225 C 
ATOM     91  O   UNL A   1      32.677  22.224  22.540  1.00  0.00    -0.275 OA
BRANCH  90  92
ATOM     92  C   UNL A   1      33.117  21.036  24.532  1.00  0.00     0.124 C 
BRANCH  92  93
ATOM     93  C   UNL A   1      32.436  19.811  23.952  1.00  0.00     0.154 C 
BRANCH  93  94
ATOM     94  N   UNL A   1      33.265  18.622  23.934  1.00  0.00    -0.272 N 
ATOM     95  C   UNL A   1      32.989  17.426  23.332  1.00  0.00     0.108 A 
ATOM     96  N   UNL A   1      34.465  18.642  24.535  1.00  0.00    -0.182 NA
ATOM     97  C   UNL A   1      34.050  16.599  23.620  1.00  0.00     0.042 A 
ATOM     98  C   UNL A   1      34.923  17.396  24.375  1.00  0.00     0.135 A 
ENDBRANCH  93  94
ENDBRANCH  92  93
ENDBRANCH  90  92
ENDBRANCH  80  90
BRANCH  88  99
ATOM     99  C   UNL A   1      40.531  20.536  25.978  1.00  0.00     0.079 C 
ATOM    100  C   UNL A   1      41.970  20.116  26.007  1.00  0.00     0.014 C 
ATOM    101  C   UNL A   1      41.014  19.587  27.046  1.00  0.00     0.014 C 
ENDBRANCH  88  99
ENDBRANCH  75  78
ENDBRANCH  73  74
ENDBRANCH   1  73
TORSDOF 16
ENDMDL
MODEL 3
REMARK VINA RESULT:     -12.7      2.268      4.764
REMARK SMILES O=C(NCCCCNC(=O)[C@H]1CC2(CCN(C(=O)C3CC3)CC2)CN1C(=O)CCn1cccn1)c1ccc(-c2c3nc(c(-c4c(F)c(F)c(F)c(F)c4F)c4ccc([nH]4)c(-c4c(F)c(F)c(F)c(F)c4F)c4nc(c(-c5c(F)c(F)c(F)c(F)c5F)c5ccc2[nH]5)C=C4)C=C3)cc1
REMARK SMILES IDX 6 1 5 2 4 3 3 4 1 5 2 6 35 8 36 9 97 10 37 11 96 12 38 13
REMARK SMILES IDX 39 14 40 15 90 16 41 17 95 18 89 19 91 20 42 21 94 22 88 23
REMARK SMILES IDX 87 24 43 26 75 27 55 28 74 29 56 30 59 31 73 32 92 33 57 34
REMARK SMILES IDX 58 35 72 37 93 38 60 39 44 40 45 41 53 42 46 43 47 44 51 45
REMARK SMILES IDX 54 46 48 47 49 48 52 49 50 50 76 51 77 52 85 53 78 54 79 55
REMARK SMILES IDX 83 56 86 57 80 58 81 59 84 60 82 61 61 62 62 63 70 64 63 65
REMARK SMILES IDX 64 66 68 67 71 68 65 69 66 70 69 71 67 72 7 73 8 74 9 75
REMARK SMILES IDX 10 77 11 78 12 79 25 80 13 81 24 82 14 83 23 84 15 85 22 86
REMARK SMILES IDX 16 87 17 88 18 89 26 90 27 91 28 92 29 93 30 94 31 95 34 96
REMARK SMILES IDX 32 97 33 98 19 99 20 100 21 101
REMARK H PARENT 3 7 91 25 59 36 8 76
REMARK Flexibility Score: inf
ROOT
ATOM      1  C   UNL A   1      35.036  22.291  25.611  1.00  0.00     0.023 C 
ENDROOT
BRANCH   1   2
ATOM      2  C   UNL A   1      36.395  22.018  24.952  1.00  0.00     0.023 C 
BRANCH   2   3
ATOM      3  C   UNL A   1      37.514  22.977  25.340  1.00  0.00     0.116 C 
BRANCH   3   4
ATOM      4  N   UNL A   1      38.710  22.331  25.841  1.00  0.00    -0.352 N 
ATOM      5  O   UNL A   1      40.584  21.801  26.870  1.00  0.00    -0.269 OA
ATOM      6  C   UNL A   1      39.730  22.672  26.682  1.00  0.00     0.251 C 
ATOM      7  H   UNL A   1      38.813  21.418  25.488  1.00  0.00     0.163 HD
BRANCH   6   8
ATOM      8  C   UNL A   1      39.917  23.997  27.335  1.00  0.00     0.039 A 
ATOM      9  C   UNL A   1      38.983  25.033  27.377  1.00  0.00     0.014 A 
ATOM     10  C   UNL A   1      41.150  24.180  27.996  1.00  0.00     0.014 A 
ATOM     11  C   UNL A   1      39.299  26.239  28.011  1.00  0.00     0.010 A 
ATOM     12  C   UNL A   1      41.464  25.373  28.638  1.00  0.00     0.010 A 
ATOM     13  C   UNL A   1      40.544  26.414  28.629  1.00  0.00    -0.014 A 
BRANCH  13  14
ATOM     14  C   UNL A   1      40.767  27.612  29.442  1.00  0.00     0.031 A 
ATOM     15  C   UNL A   1      41.822  28.523  28.903  1.00  0.00     0.074 A 
ATOM     16  C   UNL A   1      39.997  27.989  30.484  1.00  0.00     0.049 A 
ATOM     17  N   UNL A   1      42.935  28.873  29.462  1.00  0.00    -0.248 NA
ATOM     18  C   UNL A   1      41.665  29.024  27.527  1.00  0.00     0.031 C 
ATOM     19  C   UNL A   1      38.745  27.386  30.944  1.00  0.00     0.029 A 
ATOM     20  N   UNL A   1      40.132  29.072  31.309  1.00  0.00    -0.354 N 
ATOM     21  C   UNL A   1      43.549  29.764  28.583  1.00  0.00     0.074 A 
ATOM     22  C   UNL A   1      42.796  29.711  27.357  1.00  0.00     0.031 C 
ATOM     23  C   UNL A   1      38.133  28.227  31.811  1.00  0.00     0.029 A 
ATOM     24  C   UNL A   1      39.003  29.362  32.068  1.00  0.00     0.049 A 
ATOM     25  H   UNL A   1      40.959  29.603  31.360  1.00  0.00     0.167 HD
ATOM     26  C   UNL A   1      44.509  30.633  29.004  1.00  0.00     0.037 A 
ATOM     27  C   UNL A   1      38.781  30.480  32.810  1.00  0.00     0.037 A 
ATOM     28  C   UNL A   1      45.050  30.237  30.277  1.00  0.00     0.049 A 
ATOM     29  C   UNL A   1      40.093  31.122  33.061  1.00  0.00     0.074 A 
ATOM     30  C   UNL A   1      45.743  29.141  30.748  1.00  0.00     0.029 A 
ATOM     31  N   UNL A   1      44.598  30.899  31.390  1.00  0.00    -0.354 N 
ATOM     32  N   UNL A   1      41.015  30.623  33.834  1.00  0.00    -0.248 NA
ATOM     33  C   UNL A   1      40.547  32.127  32.112  1.00  0.00     0.031 C 
ATOM     34  C   UNL A   1      45.260  28.940  32.073  1.00  0.00     0.029 A 
ATOM     35  C   UNL A   1      44.347  29.958  32.352  1.00  0.00     0.049 A 
ATOM     36  H   UNL A   1      44.478  31.871  31.481  1.00  0.00     0.167 HD
ATOM     37  C   UNL A   1      42.202  30.900  33.177  1.00  0.00     0.074 A 
ATOM     38  C   UNL A   1      41.862  31.912  32.181  1.00  0.00     0.031 C 
ATOM     39  C   UNL A   1      43.280  30.076  33.315  1.00  0.00     0.037 A 
BRANCH  26  40
ATOM     40  C   UNL A   1      44.704  32.033  28.468  1.00  0.00     0.064 A 
ATOM     41  C   UNL A   1      43.660  32.972  28.606  1.00  0.00     0.173 A 
ATOM     42  C   UNL A   1      45.718  32.384  27.552  1.00  0.00     0.173 A 
ATOM     43  F   UNL A   1      42.634  32.737  29.439  1.00  0.00    -0.203 F 
ATOM     44  C   UNL A   1      43.590  34.122  27.815  1.00  0.00     0.198 A 
ATOM     45  C   UNL A   1      45.673  33.559  26.805  1.00  0.00     0.198 A 
ATOM     46  F   UNL A   1      46.728  31.557  27.256  1.00  0.00    -0.203 F 
ATOM     47  F   UNL A   1      42.509  34.910  27.881  1.00  0.00    -0.200 F 
ATOM     48  C   UNL A   1      44.592  34.410  26.908  1.00  0.00     0.200 A 
ATOM     49  F   UNL A   1      46.644  33.812  25.916  1.00  0.00    -0.200 F 
ATOM     50  F   UNL A   1      44.495  35.473  26.099  1.00  0.00    -0.200 F 
ENDBRANCH  26  40
BRANCH  27  51
ATOM     51  C   UNL A   1      37.509  31.197  33.079  1.00  0.00     0.064 A 
ATOM     52  C   UNL A   1      37.350  31.998  34.227  1.00  0.00     0.173 A 
ATOM     53  C   UNL A   1      36.537  31.355  32.073  1.00  0.00     0.173 A 
ATOM     54  F   UNL A   1      38.254  31.947  35.216  1.00  0.00    -0.203 F 
ATOM     55  C   UNL A   1      36.303  32.919  34.344  1.00  0.00     0.198 A 
ATOM     56  C   UNL A   1      35.490  32.271  32.193  1.00  0.00     0.198 A 
ATOM     57  F   UNL A   1      36.643  30.699  30.910  1.00  0.00    -0.203 F 
ATOM     58  F   UNL A   1      36.225  33.713  35.421  1.00  0.00    -0.200 F 
ATOM     59  C   UNL A   1      35.381  33.064  33.320  1.00  0.00     0.200 A 
ATOM     60  F   UNL A   1      34.626  32.428  31.180  1.00  0.00    -0.200 F 
ATOM     61  F   UNL A   1      34.417  33.993  33.401  1.00  0.00    -0.200 F 
ENDBRANCH  27  51
BRANCH  39  62
ATOM     62  C   UNL A   1      43.246  29.057  34.416  1.00  0.00     0.064 A 
ATOM     63  C   UNL A   1      42.670  27.780  34.298  1.00  0.00     0.173 A 
ATOM     64  C   UNL A   1      43.949  29.341  35.594  1.00  0.00     0.173 A 
ATOM     65  F   UNL A   1      42.069  27.393  33.165  1.00  0.00    -0.203 F 
ATOM     66  C   UNL A   1      42.757  26.852  35.334  1.00  0.00     0.198 A 
ATOM     67  C   UNL A   1      44.069  28.399  36.611  1.00  0.00     0.198 A 
ATOM     68  F   UNL A   1      44.566  30.525  35.740  1.00  0.00    -0.203 F 
ATOM     69  F   UNL A   1      42.188  25.644  35.204  1.00  0.00    -0.200 F 
ATOM     70  C   UNL A   1      43.462  27.160  36.485  1.00  0.00     0.200 A 
ATOM     71  F   UNL A   1      44.797  28.683  37.699  1.00  0.00    -0.200 F 
ATOM     72  F   UNL A   1      43.585  26.251  37.464  1.00  0.00    -0.200 F 
ENDBRANCH  39  62
ENDBRANCH  13  14
ENDBRANCH   6   8
ENDBRANCH   3   4
ENDBRANCH   2   3
ENDBRANCH   1   2
BRANCH   1  73
ATOM     73  C   UNL A   1      34.322  23.607  25.257  1.00  0.00     0.116 C 
BRANCH  73  74
ATOM     74  N   UNL A   1      33.394  24.109  26.259  1.00  0.00    -0.354 N 
ATOM     75  C   UNL A   1      32.617  25.237  26.262  1.00  0.00     0.242 C 
ATOM     76  H   UNL A   1      33.312  23.548  27.064  1.00  0.00     0.163 HD
ATOM     77  O   UNL A   1      31.583  25.163  26.938  1.00  0.00    -0.273 OA
BRANCH  75  78
ATOM     78  C   UNL A   1      32.867  26.441  25.312  1.00  0.00     0.175 C 
ATOM     79  C   UNL A   1      31.578  27.062  24.725  1.00  0.00     0.044 C 
ATOM     80  N   UNL A   1      33.717  27.624  25.486  1.00  0.00    -0.330 N 
ATOM     81  C   UNL A   1      32.023  28.366  23.991  1.00  0.00    -0.006 C 
ATOM     82  C   UNL A   1      33.554  28.394  24.244  1.00  0.00     0.127 C 
ATOM     83  C   UNL A   1      31.405  29.662  24.574  1.00  0.00     0.030 C 
ATOM     84  C   UNL A   1      31.621  28.293  22.505  1.00  0.00     0.030 C 
ATOM     85  C   UNL A   1      29.912  29.837  24.310  1.00  0.00     0.120 C 
ATOM     86  C   UNL A   1      30.096  28.397  22.335  1.00  0.00     0.120 C 
ATOM     87  N   UNL A   1      29.574  29.641  22.905  1.00  0.00    -0.342 N 
ATOM     88  C   UNL A   1      28.697  30.391  22.107  1.00  0.00     0.225 C 
ATOM     89  O   UNL A   1      28.391  30.001  20.988  1.00  0.00    -0.275 OA
BRANCH  80  90
ATOM     90  C   UNL A   1      33.852  28.363  26.668  1.00  0.00     0.225 C 
ATOM     91  O   UNL A   1      32.919  28.523  27.459  1.00  0.00    -0.275 OA
BRANCH  90  92
ATOM     92  C   UNL A   1      35.115  29.167  26.877  1.00  0.00     0.124 C 
BRANCH  92  93
ATOM     93  C   UNL A   1      35.261  29.901  28.197  1.00  0.00     0.154 C 
BRANCH  93  94
ATOM     94  N   UNL A   1      35.036  31.331  28.111  1.00  0.00    -0.272 N 
ATOM     95  C   UNL A   1      35.979  32.321  28.100  1.00  0.00     0.108 A 
ATOM     96  N   UNL A   1      33.783  31.798  27.999  1.00  0.00    -0.182 NA
ATOM     97  C   UNL A   1      35.286  33.508  28.043  1.00  0.00     0.042 A 
ATOM     98  C   UNL A   1      33.937  33.126  27.997  1.00  0.00     0.135 A 
ENDBRANCH  93  94
ENDBRANCH  92  93
ENDBRANCH  90  92
ENDBRANCH  80  90
BRANCH  88  99
ATOM     99  C   UNL A   1      28.101  31.711  22.491  1.00  0.00     0.079 C 
ATOM    100  C   UNL A   1      28.740  33.019  22.848  1.00  0.00     0.014 C 
ATOM    101  C   UNL A   1      28.040  32.865  21.522  1.00  0.00     0.014 C 
ENDBRANCH  88  99
ENDBRANCH  75  78
ENDBRANCH  73  74
ENDBRANCH   1  73
TORSDOF 16
ENDMDL
