MODEL 1
REMARK VINA RESULT:     -12.3      0.000      0.000
REMARK SMILES CC(C)(O)CC[C@@H](C(=O)NCCCCNC(=O)c1ccc(-c2c3nc(c(-c4c(F)c(F)c(F)c(F)c4F)c4ccc([nH]4)c(-c4c(F)c(F)c(F)c(F)c4F)c4nc(c(-c5c(F)c(F)c(F)c(F)c5F)c5ccc2[nH]5)C=C4)C=C3)cc1)[C@@H]1CCS(=O)(=O)C1
REMARK SMILES IDX 11 1 10 2 8 3 9 4 7 6 6 7 5 8 2 9 1 10 3 11 4 12 81 14 82 15
REMARK SMILES IDX 87 16 83 17 84 18 85 19 86 20 12 21 13 22 14 23 15 24 16 25
REMARK SMILES IDX 17 27 18 28 19 29 80 30 20 31 79 32 21 33 22 34 23 35 73 36
REMARK SMILES IDX 24 37 78 38 72 39 74 40 25 41 77 42 71 43 70 44 26 46 58 47
REMARK SMILES IDX 38 48 57 49 39 50 42 51 56 52 75 53 40 54 41 55 55 57 76 58
REMARK SMILES IDX 43 59 27 60 28 61 36 62 29 63 30 64 34 65 37 66 31 67 32 68
REMARK SMILES IDX 35 69 33 70 59 71 60 72 68 73 61 74 62 75 66 76 69 77 63 78
REMARK SMILES IDX 64 79 67 80 65 81 44 82 45 83 53 84 46 85 47 86 51 87 54 88
REMARK SMILES IDX 48 89 49 90 52 91 50 92
REMARK H PARENT 10 5 4 13 15 26 74 45 42 56
REMARK Flexibility Score: inf
ROOT
ATOM      1  C   UNL A   1      31.762  29.474  25.826  1.00  0.00     0.116 C 
ENDROOT
BRANCH   1   2
ATOM      2  N   UNL A   1      32.497  29.720  24.612  1.00  0.00    -0.356 N 
ATOM      3  C   UNL A   1      32.703  28.858  23.575  1.00  0.00     0.223 C 
ATOM      4  O   UNL A   1      33.783  28.959  22.995  1.00  0.00    -0.275 OA
ATOM      5  H   UNL A   1      32.897  30.614  24.519  1.00  0.00     0.163 HD
BRANCH   3   6
ATOM      6  C   UNL A   1      31.591  27.885  23.127  1.00  0.00     0.082 C 
BRANCH   6   7
ATOM      7  C   UNL A   1      30.149  28.464  23.238  1.00  0.00     0.017 C 
BRANCH   7   8
ATOM      8  C   UNL A   1      29.641  29.525  22.251  1.00  0.00     0.035 C 
BRANCH   8   9
ATOM      9  C   UNL A   1      28.165  30.012  22.302  1.00  0.00     0.059 C 
ATOM     10  C   UNL A   1      27.880  31.365  22.953  1.00  0.00     0.042 C 
ATOM     11  C   UNL A   1      27.298  28.931  22.971  1.00  0.00     0.042 C 
BRANCH   9  12
ATOM     12  O   UNL A   1      27.731  30.130  20.939  1.00  0.00    -0.390 OA
ATOM     13  H   UNL A   1      27.160  29.378  20.716  1.00  0.00     0.211 HD
ENDBRANCH   9  12
ENDBRANCH   8   9
ENDBRANCH   7   8
ENDBRANCH   6   7
BRANCH   6  14
ATOM     14  C   UNL A   1      31.591  26.514  23.933  1.00  0.00     0.017 C 
ATOM     15  C   UNL A   1      32.796  26.104  24.809  1.00  0.00     0.021 C 
ATOM     16  C   UNL A   1      31.466  25.321  22.967  1.00  0.00     0.141 C 
ATOM     17  C   UNL A   1      33.937  25.662  23.901  1.00  0.00     0.137 C 
ATOM     18  S   UNL A   1      33.141  24.940  22.474  1.00  0.00     0.150 S 
ATOM     19  O   UNL A   1      33.461  25.743  21.309  1.00  0.00    -0.229 OA
ATOM     20  O   UNL A   1      33.319  23.506  22.497  1.00  0.00    -0.229 OA
ENDBRANCH   6  14
ENDBRANCH   3   6
ENDBRANCH   1   2
BRANCH   1  21
ATOM     21  C   UNL A   1      32.358  30.315  26.962  1.00  0.00     0.023 C 
BRANCH  21  22
ATOM     22  C   UNL A   1      31.931  31.772  26.932  1.00  0.00     0.023 C 
BRANCH  22  23
ATOM     23  C   UNL A   1      33.004  32.727  27.423  1.00  0.00     0.116 C 
BRANCH  23  24
ATOM     24  N   UNL A   1      32.518  34.076  27.697  1.00  0.00    -0.352 N 
ATOM     25  C   UNL A   1      33.007  34.969  28.623  1.00  0.00     0.251 C 
ATOM     26  H   UNL A   1      31.754  34.382  27.157  1.00  0.00     0.163 HD
ATOM     27  O   UNL A   1      32.463  36.047  28.822  1.00  0.00    -0.269 OA
BRANCH  25  28
ATOM     28  C   UNL A   1      34.183  34.556  29.409  1.00  0.00     0.039 A 
ATOM     29  C   UNL A   1      33.987  33.915  30.631  1.00  0.00     0.014 A 
ATOM     30  C   UNL A   1      35.455  34.651  28.839  1.00  0.00     0.014 A 
ATOM     31  C   UNL A   1      35.068  33.286  31.247  1.00  0.00     0.010 A 
ATOM     32  C   UNL A   1      36.499  33.929  29.396  1.00  0.00     0.010 A 
ATOM     33  C   UNL A   1      36.319  33.243  30.607  1.00  0.00    -0.014 A 
BRANCH  33  34
ATOM     34  C   UNL A   1      37.458  32.491  31.190  1.00  0.00     0.031 A 
ATOM     35  C   UNL A   1      37.957  32.847  32.563  1.00  0.00     0.074 A 
ATOM     36  C   UNL A   1      38.077  31.537  30.467  1.00  0.00     0.049 A 
ATOM     37  N   UNL A   1      38.968  32.351  33.229  1.00  0.00    -0.248 NA
ATOM     38  C   UNL A   1      37.248  33.927  33.267  1.00  0.00     0.031 C 
ATOM     39  C   UNL A   1      37.720  31.139  29.103  1.00  0.00     0.029 A 
ATOM     40  N   UNL A   1      39.142  30.728  30.777  1.00  0.00    -0.354 N 
ATOM     41  C   UNL A   1      39.023  33.071  34.416  1.00  0.00     0.074 A 
ATOM     42  C   UNL A   1      37.991  34.080  34.352  1.00  0.00     0.031 C 
ATOM     43  C   UNL A   1      38.517  30.130  28.716  1.00  0.00     0.029 A 
ATOM     44  C   UNL A   1      39.472  29.842  29.781  1.00  0.00     0.049 A 
ATOM     45  H   UNL A   1      39.624  30.778  31.634  1.00  0.00     0.167 HD
ATOM     46  C   UNL A   1      39.842  32.886  35.477  1.00  0.00     0.037 A 
ATOM     47  C   UNL A   1      40.435  28.901  29.736  1.00  0.00     0.037 A 
ATOM     48  C   UNL A   1      40.844  31.857  35.549  1.00  0.00     0.049 A 
ATOM     49  C   UNL A   1      41.339  28.726  30.927  1.00  0.00     0.074 A 
ATOM     50  C   UNL A   1      41.677  31.541  36.606  1.00  0.00     0.029 A 
ATOM     51  N   UNL A   1      41.150  30.980  34.519  1.00  0.00    -0.354 N 
ATOM     52  N   UNL A   1      41.335  29.362  32.073  1.00  0.00    -0.248 NA
ATOM     53  C   UNL A   1      42.383  27.696  30.817  1.00  0.00     0.031 C 
ATOM     54  C   UNL A   1      42.531  30.513  36.195  1.00  0.00     0.029 A 
ATOM     55  C   UNL A   1      42.182  30.141  34.906  1.00  0.00     0.049 A 
ATOM     56  H   UNL A   1      40.700  30.956  33.643  1.00  0.00     0.167 HD
ATOM     57  C   UNL A   1      42.345  28.788  32.833  1.00  0.00     0.074 A 
ATOM     58  C   UNL A   1      42.934  27.742  32.022  1.00  0.00     0.031 C 
ATOM     59  C   UNL A   1      42.749  29.097  34.089  1.00  0.00     0.037 A 
BRANCH  46  60
ATOM     60  C   UNL A   1      39.687  33.814  36.647  1.00  0.00     0.064 A 
ATOM     61  C   UNL A   1      40.325  35.063  36.689  1.00  0.00     0.173 A 
ATOM     62  C   UNL A   1      38.857  33.466  37.723  1.00  0.00     0.173 A 
ATOM     63  F   UNL A   1      41.143  35.440  35.694  1.00  0.00    -0.203 F 
ATOM     64  C   UNL A   1      40.156  35.919  37.775  1.00  0.00     0.198 A 
ATOM     65  C   UNL A   1      38.663  34.338  38.790  1.00  0.00     0.198 A 
ATOM     66  F   UNL A   1      38.222  32.284  37.733  1.00  0.00    -0.203 F 
ATOM     67  F   UNL A   1      40.816  37.084  37.816  1.00  0.00    -0.200 F 
ATOM     68  C   UNL A   1      39.317  35.560  38.819  1.00  0.00     0.200 A 
ATOM     69  F   UNL A   1      37.841  33.995  39.792  1.00  0.00    -0.200 F 
ATOM     70  F   UNL A   1      39.146  36.390  39.857  1.00  0.00    -0.200 F 
ENDBRANCH  46  60
BRANCH  47  71
ATOM     71  C   UNL A   1      40.570  28.024  28.542  1.00  0.00     0.064 A 
ATOM     72  C   UNL A   1      41.337  28.427  27.440  1.00  0.00     0.173 A 
ATOM     73  C   UNL A   1      39.934  26.775  28.469  1.00  0.00     0.173 A 
ATOM     74  F   UNL A   1      41.948  29.621  27.451  1.00  0.00    -0.203 F 
ATOM     75  C   UNL A   1      41.445  27.628  26.303  1.00  0.00     0.198 A 
ATOM     76  C   UNL A   1      40.067  25.964  27.345  1.00  0.00     0.198 A 
ATOM     77  F   UNL A   1      39.192  26.339  29.497  1.00  0.00    -0.203 F 
ATOM     78  F   UNL A   1      42.143  28.062  25.245  1.00  0.00    -0.200 F 
ATOM     79  C   UNL A   1      40.814  26.394  26.258  1.00  0.00     0.200 A 
ATOM     80  F   UNL A   1      39.470  24.765  27.312  1.00  0.00    -0.200 F 
ATOM     81  F   UNL A   1      40.921  25.624  25.168  1.00  0.00    -0.200 F 
ENDBRANCH  47  71
BRANCH  59  82
ATOM     82  C   UNL A   1      43.849  28.269  34.689  1.00  0.00     0.064 A 
ATOM     83  C   UNL A   1      43.586  27.080  35.385  1.00  0.00     0.173 A 
ATOM     84  C   UNL A   1      45.190  28.648  34.521  1.00  0.00     0.173 A 
ATOM     85  F   UNL A   1      42.321  26.678  35.582  1.00  0.00    -0.203 F 
ATOM     86  C   UNL A   1      44.623  26.317  35.914  1.00  0.00     0.198 A 
ATOM     87  C   UNL A   1      46.225  27.864  35.020  1.00  0.00     0.198 A 
ATOM     88  F   UNL A   1      45.497  29.772  33.856  1.00  0.00    -0.203 F 
ATOM     89  F   UNL A   1      44.346  25.212  36.619  1.00  0.00    -0.200 F 
ATOM     90  C   UNL A   1      45.941  26.704  35.723  1.00  0.00     0.200 A 
ATOM     91  F   UNL A   1      47.498  28.230  34.817  1.00  0.00    -0.200 F 
ATOM     92  F   UNL A   1      46.938  25.961  36.224  1.00  0.00    -0.200 F 
ENDBRANCH  59  82
ENDBRANCH  33  34
ENDBRANCH  25  28
ENDBRANCH  23  24
ENDBRANCH  22  23
ENDBRANCH  21  22
ENDBRANCH   1  21
TORSDOF 16
ENDMDL
MODEL 2
REMARK VINA RESULT:     -12.2      6.031     11.562
REMARK SMILES CC(C)(O)CC[C@@H](C(=O)NCCCCNC(=O)c1ccc(-c2c3nc(c(-c4c(F)c(F)c(F)c(F)c4F)c4ccc([nH]4)c(-c4c(F)c(F)c(F)c(F)c4F)c4nc(c(-c5c(F)c(F)c(F)c(F)c5F)c5ccc2[nH]5)C=C4)C=C3)cc1)[C@@H]1CCS(=O)(=O)C1
REMARK SMILES IDX 11 1 10 2 8 3 9 4 7 6 6 7 5 8 2 9 1 10 3 11 4 12 81 14 82 15
REMARK SMILES IDX 87 16 83 17 84 18 85 19 86 20 12 21 13 22 14 23 15 24 16 25
REMARK SMILES IDX 17 27 18 28 19 29 80 30 20 31 79 32 21 33 22 34 23 35 73 36
REMARK SMILES IDX 24 37 78 38 72 39 74 40 25 41 77 42 71 43 70 44 26 46 58 47
REMARK SMILES IDX 38 48 57 49 39 50 42 51 56 52 75 53 40 54 41 55 55 57 76 58
REMARK SMILES IDX 43 59 27 60 28 61 36 62 29 63 30 64 34 65 37 66 31 67 32 68
REMARK SMILES IDX 35 69 33 70 59 71 60 72 68 73 61 74 62 75 66 76 69 77 63 78
REMARK SMILES IDX 64 79 67 80 65 81 44 82 45 83 53 84 46 85 47 86 51 87 54 88
REMARK SMILES IDX 48 89 49 90 52 91 50 92
REMARK H PARENT 10 5 4 13 15 26 74 45 42 56
REMARK Flexibility Score: inf
ROOT
ATOM      1  C   UNL A   1      35.806  21.331  24.771  1.00  0.00     0.116 C 
ENDROOT
BRANCH   1   2
ATOM      2  N   UNL A   1      35.262  20.998  26.063  1.00  0.00    -0.356 N 
ATOM      3  C   UNL A   1      34.030  21.315  26.554  1.00  0.00     0.223 C 
ATOM      4  O   UNL A   1      33.969  21.532  27.763  1.00  0.00    -0.275 OA
ATOM      5  H   UNL A   1      35.848  20.481  26.661  1.00  0.00     0.163 HD
BRANCH   3   6
ATOM      6  C   UNL A   1      32.790  21.308  25.634  1.00  0.00     0.082 C 
BRANCH   6   7
ATOM      7  C   UNL A   1      32.763  20.141  24.602  1.00  0.00     0.017 C 
BRANCH   7   8
ATOM      8  C   UNL A   1      32.596  18.683  25.057  1.00  0.00     0.035 C 
BRANCH   8   9
ATOM      9  C   UNL A   1      33.624  17.597  24.630  1.00  0.00     0.059 C 
ATOM     10  C   UNL A   1      33.670  17.197  23.156  1.00  0.00     0.042 C 
ATOM     11  C   UNL A   1      33.422  16.341  25.495  1.00  0.00     0.042 C 
BRANCH   9  12
ATOM     12  O   UNL A   1      34.922  18.127  24.937  1.00  0.00    -0.390 OA
ATOM     13  H   UNL A   1      35.604  17.516  24.619  1.00  0.00     0.211 HD
ENDBRANCH   9  12
ENDBRANCH   8   9
ENDBRANCH   7   8
ENDBRANCH   6   7
BRANCH   6  14
ATOM     14  C   UNL A   1      32.617  22.652  24.800  1.00  0.00     0.017 C 
ATOM     15  C   UNL A   1      33.348  23.948  25.215  1.00  0.00     0.021 C 
ATOM     16  C   UNL A   1      31.142  23.094  24.794  1.00  0.00     0.141 C 
ATOM     17  C   UNL A   1      32.660  24.528  26.446  1.00  0.00     0.137 C 
ATOM     18  S   UNL A   1      30.941  24.079  26.271  1.00  0.00     0.150 S 
ATOM     19  O   UNL A   1      30.581  23.188  27.360  1.00  0.00    -0.229 OA
ATOM     20  O   UNL A   1      30.165  25.254  25.947  1.00  0.00    -0.229 OA
ENDBRANCH   6  14
ENDBRANCH   3   6
ENDBRANCH   1   2
BRANCH   1  21
ATOM     21  C   UNL A   1      37.313  21.580  24.902  1.00  0.00     0.023 C 
BRANCH  21  22
ATOM     22  C   UNL A   1      38.133  20.308  25.034  1.00  0.00     0.023 C 
BRANCH  22  23
ATOM     23  C   UNL A   1      39.424  20.499  25.810  1.00  0.00     0.116 C 
BRANCH  23  24
ATOM     24  N   UNL A   1      40.262  19.305  25.871  1.00  0.00    -0.352 N 
ATOM     25  C   UNL A   1      41.613  19.243  26.127  1.00  0.00     0.251 C 
ATOM     26  H   UNL A   1      39.809  18.446  25.711  1.00  0.00     0.163 HD
ATOM     27  O   UNL A   1      42.228  18.186  26.070  1.00  0.00    -0.269 OA
BRANCH  25  28
ATOM     28  C   UNL A   1      42.307  20.510  26.419  1.00  0.00     0.039 A 
ATOM     29  C   UNL A   1      42.722  21.313  25.359  1.00  0.00     0.014 A 
ATOM     30  C   UNL A   1      42.373  20.965  27.738  1.00  0.00     0.014 A 
ATOM     31  C   UNL A   1      43.130  22.621  25.619  1.00  0.00     0.010 A 
ATOM     32  C   UNL A   1      42.670  22.298  27.979  1.00  0.00     0.010 A 
ATOM     33  C   UNL A   1      43.055  23.138  26.923  1.00  0.00    -0.014 A 
BRANCH  33  34
ATOM     34  C   UNL A   1      43.382  24.558  27.210  1.00  0.00     0.031 A 
ATOM     35  C   UNL A   1      44.771  25.068  26.942  1.00  0.00     0.074 A 
ATOM     36  C   UNL A   1      42.456  25.364  27.764  1.00  0.00     0.049 A 
ATOM     37  N   UNL A   1      45.274  26.253  27.170  1.00  0.00    -0.248 NA
ATOM     38  C   UNL A   1      45.731  24.109  26.372  1.00  0.00     0.031 C 
ATOM     39  C   UNL A   1      41.090  24.971  28.121  1.00  0.00     0.029 A 
ATOM     40  N   UNL A   1      42.522  26.686  28.127  1.00  0.00    -0.354 N 
ATOM     41  C   UNL A   1      46.608  26.173  26.791  1.00  0.00     0.074 A 
ATOM     42  C   UNL A   1      46.855  24.809  26.382  1.00  0.00     0.031 C 
ATOM     43  C   UNL A   1      40.436  26.040  28.603  1.00  0.00     0.029 A 
ATOM     44  C   UNL A   1      41.346  27.180  28.637  1.00  0.00     0.049 A 
ATOM     45  H   UNL A   1      43.337  27.231  28.032  1.00  0.00     0.167 HD
ATOM     46  C   UNL A   1      47.536  27.157  26.758  1.00  0.00     0.037 A 
ATOM     47  C   UNL A   1      41.038  28.415  29.078  1.00  0.00     0.037 A 
ATOM     48  C   UNL A   1      47.276  28.520  27.133  1.00  0.00     0.049 A 
ATOM     49  C   UNL A   1      42.094  29.487  29.040  1.00  0.00     0.074 A 
ATOM     50  C   UNL A   1      48.127  29.607  27.069  1.00  0.00     0.029 A 
ATOM     51  N   UNL A   1      46.072  28.981  27.646  1.00  0.00    -0.354 N 
ATOM     52  N   UNL A   1      43.331  29.420  28.611  1.00  0.00    -0.248 NA
ATOM     53  C   UNL A   1      41.709  30.812  29.548  1.00  0.00     0.031 C 
ATOM     54  C   UNL A   1      47.461  30.714  27.602  1.00  0.00     0.029 A 
ATOM     55  C   UNL A   1      46.170  30.333  27.932  1.00  0.00     0.049 A 
ATOM     56  H   UNL A   1      45.268  28.430  27.786  1.00  0.00     0.167 HD
ATOM     57  C   UNL A   1      43.859  30.695  28.760  1.00  0.00     0.074 A 
ATOM     58  C   UNL A   1      42.803  31.520  29.309  1.00  0.00     0.031 C 
ATOM     59  C   UNL A   1      45.104  31.143  28.468  1.00  0.00     0.037 A 
BRANCH  46  60
ATOM     60  C   UNL A   1      48.919  26.795  26.298  1.00  0.00     0.064 A 
ATOM     61  C   UNL A   1      49.861  26.225  27.168  1.00  0.00     0.173 A 
ATOM     62  C   UNL A   1      49.293  26.984  24.960  1.00  0.00     0.173 A 
ATOM     63  F   UNL A   1      49.562  26.037  28.462  1.00  0.00    -0.203 F 
ATOM     64  C   UNL A   1      51.134  25.880  26.720  1.00  0.00     0.198 A 
ATOM     65  C   UNL A   1      50.554  26.607  24.507  1.00  0.00     0.198 A 
ATOM     66  F   UNL A   1      48.431  27.525  24.086  1.00  0.00    -0.203 F 
ATOM     67  F   UNL A   1      52.034  25.385  27.581  1.00  0.00    -0.200 F 
ATOM     68  C   UNL A   1      51.476  26.061  25.388  1.00  0.00     0.200 A 
ATOM     69  F   UNL A   1      50.878  26.770  23.217  1.00  0.00    -0.200 F 
ATOM     70  F   UNL A   1      52.697  25.717  24.955  1.00  0.00    -0.200 F 
ENDBRANCH  46  60
BRANCH  47  71
ATOM     71  C   UNL A   1      39.662  28.720  29.553  1.00  0.00     0.064 A 
ATOM     72  C   UNL A   1      39.294  28.482  30.885  1.00  0.00     0.173 A 
ATOM     73  C   UNL A   1      38.684  29.242  28.692  1.00  0.00     0.173 A 
ATOM     74  F   UNL A   1      40.187  27.964  31.742  1.00  0.00    -0.203 F 
ATOM     75  C   UNL A   1      37.999  28.733  31.333  1.00  0.00     0.198 A 
ATOM     76  C   UNL A   1      37.398  29.521  29.149  1.00  0.00     0.198 A 
ATOM     77  F   UNL A   1      38.983  29.492  27.410  1.00  0.00    -0.203 F 
ATOM     78  F   UNL A   1      37.664  28.448  32.599  1.00  0.00    -0.200 F 
ATOM     79  C   UNL A   1      37.053  29.257  30.466  1.00  0.00     0.200 A 
ATOM     80  F   UNL A   1      36.491  30.043  28.313  1.00  0.00    -0.200 F 
ATOM     81  F   UNL A   1      35.809  29.503  30.899  1.00  0.00    -0.200 F 
ENDBRANCH  47  71
BRANCH  59  82
ATOM     82  C   UNL A   1      45.387  32.601  28.691  1.00  0.00     0.064 A 
ATOM     83  C   UNL A   1      45.959  33.071  29.883  1.00  0.00     0.173 A 
ATOM     84  C   UNL A   1      45.126  33.535  27.676  1.00  0.00     0.173 A 
ATOM     85  F   UNL A   1      46.219  32.222  30.889  1.00  0.00    -0.203 F 
ATOM     86  C   UNL A   1      46.232  34.424  30.059  1.00  0.00     0.198 A 
ATOM     87  C   UNL A   1      45.434  34.881  27.843  1.00  0.00     0.198 A 
ATOM     88  F   UNL A   1      44.588  33.136  26.513  1.00  0.00    -0.203 F 
ATOM     89  F   UNL A   1      46.730  34.858  31.226  1.00  0.00    -0.200 F 
ATOM     90  C   UNL A   1      45.979  35.326  29.037  1.00  0.00     0.200 A 
ATOM     91  F   UNL A   1      45.206  35.747  26.846  1.00  0.00    -0.200 F 
ATOM     92  F   UNL A   1      46.252  36.627  29.206  1.00  0.00    -0.200 F 
ENDBRANCH  59  82
ENDBRANCH  33  34
ENDBRANCH  25  28
ENDBRANCH  23  24
ENDBRANCH  22  23
ENDBRANCH  21  22
ENDBRANCH   1  21
TORSDOF 16
ENDMDL
MODEL 3
REMARK VINA RESULT:     -12.2      0.919      7.552
REMARK SMILES CC(C)(O)CC[C@@H](C(=O)NCCCCNC(=O)c1ccc(-c2c3nc(c(-c4c(F)c(F)c(F)c(F)c4F)c4ccc([nH]4)c(-c4c(F)c(F)c(F)c(F)c4F)c4nc(c(-c5c(F)c(F)c(F)c(F)c5F)c5ccc2[nH]5)C=C4)C=C3)cc1)[C@@H]1CCS(=O)(=O)C1
REMARK SMILES IDX 11 1 10 2 8 3 9 4 7 6 6 7 5 8 2 9 1 10 3 11 4 12 81 14 82 15
REMARK SMILES IDX 87 16 83 17 84 18 85 19 86 20 12 21 13 22 14 23 15 24 16 25
REMARK SMILES IDX 17 27 18 28 19 29 80 30 20 31 79 32 21 33 22 34 23 35 73 36
REMARK SMILES IDX 24 37 78 38 72 39 74 40 25 41 77 42 71 43 70 44 26 46 58 47
REMARK SMILES IDX 38 48 57 49 39 50 42 51 56 52 75 53 40 54 41 55 55 57 76 58
REMARK SMILES IDX 43 59 27 60 28 61 36 62 29 63 30 64 34 65 37 66 31 67 32 68
REMARK SMILES IDX 35 69 33 70 59 71 60 72 68 73 61 74 62 75 66 76 69 77 63 78
REMARK SMILES IDX 64 79 67 80 65 81 44 82 45 83 53 84 46 85 47 86 51 87 54 88
REMARK SMILES IDX 48 89 49 90 52 91 50 92
REMARK H PARENT 10 5 4 13 15 26 74 45 42 56
REMARK Flexibility Score: inf
ROOT
ATOM      1  C   UNL A   1      33.397  29.449  26.263  1.00  0.00     0.116 C 
ENDROOT
BRANCH   1   2
ATOM      2  N   UNL A   1      33.231  29.775  24.870  1.00  0.00    -0.356 N 
ATOM      3  C   UNL A   1      33.065  28.911  23.828  1.00  0.00     0.223 C 
ATOM      4  O   UNL A   1      33.561  29.255  22.756  1.00  0.00    -0.275 OA
ATOM      5  H   UNL A   1      33.238  30.732  24.643  1.00  0.00     0.163 HD
BRANCH   3   6
ATOM      6  C   UNL A   1      32.224  27.627  23.995  1.00  0.00     0.082 C 
BRANCH   6   7
ATOM      7  C   UNL A   1      30.705  27.882  24.233  1.00  0.00     0.017 C 
BRANCH   7   8
ATOM      8  C   UNL A   1      29.771  28.252  23.072  1.00  0.00     0.035 C 
BRANCH   8   9
ATOM      9  C   UNL A   1      29.567  29.739  22.663  1.00  0.00     0.059 C 
ATOM     10  C   UNL A   1      29.633  30.798  23.762  1.00  0.00     0.042 C 
ATOM     11  C   UNL A   1      28.238  29.877  21.899  1.00  0.00     0.042 C 
BRANCH   9  12
ATOM     12  O   UNL A   1      30.625  30.054  21.746  1.00  0.00    -0.390 OA
ATOM     13  H   UNL A   1      30.457  29.617  20.896  1.00  0.00     0.211 HD
ENDBRANCH   9  12
ENDBRANCH   8   9
ENDBRANCH   7   8
ENDBRANCH   6   7
BRANCH   6  14
ATOM     14  C   UNL A   1      32.719  26.701  25.190  1.00  0.00     0.017 C 
ATOM     15  C   UNL A   1      34.014  25.867  25.068  1.00  0.00     0.021 C 
ATOM     16  C   UNL A   1      31.664  25.626  25.510  1.00  0.00     0.141 C 
ATOM     17  C   UNL A   1      33.749  24.679  24.151  1.00  0.00     0.137 C 
ATOM     18  S   UNL A   1      32.031  24.266  24.410  1.00  0.00     0.150 S 
ATOM     19  O   UNL A   1      31.310  24.485  23.170  1.00  0.00    -0.229 OA
ATOM     20  O   UNL A   1      31.938  23.028  25.150  1.00  0.00    -0.229 OA
ENDBRANCH   6  14
ENDBRANCH   3   6
ENDBRANCH   1   2
BRANCH   1  21
ATOM     21  C   UNL A   1      32.314  30.159  27.084  1.00  0.00     0.023 C 
BRANCH  21  22
ATOM     22  C   UNL A   1      32.148  31.629  26.738  1.00  0.00     0.023 C 
BRANCH  22  23
ATOM     23  C   UNL A   1      33.055  32.545  27.540  1.00  0.00     0.116 C 
BRANCH  23  24
ATOM     24  N   UNL A   1      32.551  33.908  27.675  1.00  0.00    -0.352 N 
ATOM     25  C   UNL A   1      32.996  34.882  28.540  1.00  0.00     0.251 C 
ATOM     26  H   UNL A   1      31.808  34.160  27.080  1.00  0.00     0.163 HD
ATOM     27  O   UNL A   1      32.438  35.968  28.623  1.00  0.00    -0.269 OA
BRANCH  25  28
ATOM     28  C   UNL A   1      34.141  34.549  29.406  1.00  0.00     0.039 A 
ATOM     29  C   UNL A   1      33.899  33.984  30.657  1.00  0.00     0.014 A 
ATOM     30  C   UNL A   1      35.436  34.636  28.891  1.00  0.00     0.014 A 
ATOM     31  C   UNL A   1      34.961  33.423  31.364  1.00  0.00     0.010 A 
ATOM     32  C   UNL A   1      36.467  33.977  29.543  1.00  0.00     0.010 A 
ATOM     33  C   UNL A   1      36.242  33.367  30.787  1.00  0.00    -0.014 A 
BRANCH  33  34
ATOM     34  C   UNL A   1      37.367  32.681  31.472  1.00  0.00     0.031 A 
ATOM     35  C   UNL A   1      38.060  31.534  30.792  1.00  0.00     0.074 A 
ATOM     36  C   UNL A   1      37.722  33.049  32.718  1.00  0.00     0.049 A 
ATOM     37  N   UNL A   1      39.025  30.770  31.236  1.00  0.00    -0.248 NA
ATOM     38  C   UNL A   1      37.583  31.173  29.446  1.00  0.00     0.031 C 
ATOM     39  C   UNL A   1      37.090  34.112  33.504  1.00  0.00     0.029 A 
ATOM     40  N   UNL A   1      38.703  32.567  33.549  1.00  0.00    -0.354 N 
ATOM     41  C   UNL A   1      39.253  29.834  30.236  1.00  0.00     0.074 A 
ATOM     42  C   UNL A   1      38.284  30.080  29.192  1.00  0.00     0.031 C 
ATOM     43  C   UNL A   1      37.730  34.233  34.678  1.00  0.00     0.029 A 
ATOM     44  C   UNL A   1      38.786  33.227  34.750  1.00  0.00     0.049 A 
ATOM     45  H   UNL A   1      39.293  31.816  33.306  1.00  0.00     0.167 HD
ATOM     46  C   UNL A   1      40.206  28.875  30.179  1.00  0.00     0.037 A 
ATOM     47  C   UNL A   1      39.622  33.043  35.790  1.00  0.00     0.037 A 
ATOM     48  C   UNL A   1      41.189  28.658  31.206  1.00  0.00     0.049 A 
ATOM     49  C   UNL A   1      40.664  31.959  35.705  1.00  0.00     0.074 A 
ATOM     50  C   UNL A   1      42.240  27.760  31.213  1.00  0.00     0.029 A 
ATOM     51  N   UNL A   1      41.239  29.346  32.409  1.00  0.00    -0.354 N 
ATOM     52  N   UNL A   1      40.919  31.129  34.724  1.00  0.00    -0.248 NA
ATOM     53  C   UNL A   1      41.539  31.792  36.874  1.00  0.00     0.031 C 
ATOM     54  C   UNL A   1      42.889  27.860  32.447  1.00  0.00     0.029 A 
ATOM     55  C   UNL A   1      42.287  28.870  33.180  1.00  0.00     0.049 A 
ATOM     56  H   UNL A   1      40.623  30.067  32.675  1.00  0.00     0.167 HD
ATOM     57  C   UNL A   1      42.003  30.367  35.138  1.00  0.00     0.074 A 
ATOM     58  C   UNL A   1      42.365  30.843  36.458  1.00  0.00     0.031 C 
ATOM     59  C   UNL A   1      42.641  29.364  34.487  1.00  0.00     0.037 A 
BRANCH  46  60
ATOM     60  C   UNL A   1      40.232  27.989  28.967  1.00  0.00     0.064 A 
ATOM     61  C   UNL A   1      40.989  28.313  27.831  1.00  0.00     0.173 A 
ATOM     62  C   UNL A   1      39.524  26.778  28.959  1.00  0.00     0.173 A 
ATOM     63  F   UNL A   1      41.673  29.467  27.780  1.00  0.00    -0.203 F 
ATOM     64  C   UNL A   1      41.016  27.471  26.723  1.00  0.00     0.198 A 
ATOM     65  C   UNL A   1      39.580  25.922  27.863  1.00  0.00     0.198 A 
ATOM     66  F   UNL A   1      38.785  26.419  30.020  1.00  0.00    -0.203 F 
ATOM     67  F   UNL A   1      41.705  27.826  25.629  1.00  0.00    -0.200 F 
ATOM     68  C   UNL A   1      40.320  26.271  26.744  1.00  0.00     0.200 A 
ATOM     69  F   UNL A   1      38.919  24.757  27.891  1.00  0.00    -0.200 F 
ATOM     70  F   UNL A   1      40.358  25.455  25.681  1.00  0.00    -0.200 F 
ENDBRANCH  46  60
BRANCH  47  71
ATOM     71  C   UNL A   1      39.539  33.926  36.984  1.00  0.00     0.064 A 
ATOM     72  C   UNL A   1      38.779  33.552  38.101  1.00  0.00     0.173 A 
ATOM     73  C   UNL A   1      40.203  35.161  37.034  1.00  0.00     0.173 A 
ATOM     74  F   UNL A   1      38.108  32.390  38.095  1.00  0.00    -0.203 F 
ATOM     75  C   UNL A   1      38.667  34.385  39.212  1.00  0.00     0.198 A 
ATOM     76  C   UNL A   1      40.115  35.980  38.157  1.00  0.00     0.198 A 
ATOM     77  F   UNL A   1      40.947  35.566  35.995  1.00  0.00    -0.203 F 
ATOM     78  F   UNL A   1      37.893  34.023  40.244  1.00  0.00    -0.200 F 
ATOM     79  C   UNL A   1      39.340  35.597  39.242  1.00  0.00     0.200 A 
ATOM     80  F   UNL A   1      40.781  37.143  38.189  1.00  0.00    -0.200 F 
ATOM     81  F   UNL A   1      39.237  36.397  40.312  1.00  0.00    -0.200 F 
ENDBRANCH  47  71
BRANCH  59  82
ATOM     82  C   UNL A   1      43.827  28.740  35.165  1.00  0.00     0.064 A 
ATOM     83  C   UNL A   1      45.127  29.235  34.987  1.00  0.00     0.173 A 
ATOM     84  C   UNL A   1      43.652  27.661  36.045  1.00  0.00     0.173 A 
ATOM     85  F   UNL A   1      45.351  30.259  34.148  1.00  0.00    -0.203 F 
ATOM     86  C   UNL A   1      46.210  28.655  35.641  1.00  0.00     0.198 A 
ATOM     87  C   UNL A   1      44.731  27.107  36.726  1.00  0.00     0.198 A 
ATOM     88  F   UNL A   1      42.428  27.155  36.259  1.00  0.00    -0.203 F 
ATOM     89  F   UNL A   1      47.449  29.111  35.415  1.00  0.00    -0.200 F 
ATOM     90  C   UNL A   1      46.010  27.598  36.517  1.00  0.00     0.200 A 
ATOM     91  F   UNL A   1      44.533  26.099  37.586  1.00  0.00    -0.200 F 
ATOM     92  F   UNL A   1      47.053  27.049  37.155  1.00  0.00    -0.200 F 
ENDBRANCH  59  82
ENDBRANCH  33  34
ENDBRANCH  25  28
ENDBRANCH  23  24
ENDBRANCH  22  23
ENDBRANCH  21  22
ENDBRANCH   1  21
TORSDOF 16
ENDMDL
