MODEL 1
REMARK VINA RESULT:     -11.7      0.000      0.000
REMARK SMILES COC(=O)[C@@H]1CN(C(=O)N(CC(=O)NCCCCNC(=O)c2ccc(-c3c4nc(c(-c5c(F)c(F)c(F)c(F)c5F)c5ccc([nH]5)c(-c5c(F)c(F)c(F)c(F)c5F)c5nc(c(-c6c(F)c(F)c(F)c(F)c6F)c6ccc3[nH]6)C=C5)C=C4)cc2)C(C)(C)C)C[C@H]1C
REMARK SMILES IDX 15 1 14 2 12 3 13 4 11 6 10 7 8 8 9 9 7 10 5 11 6 12 90 13
REMARK SMILES IDX 89 14 91 15 3 16 4 17 2 18 1 19 85 20 86 21 87 22 88 23
REMARK SMILES IDX 16 24 17 25 18 26 19 27 20 28 21 30 22 31 23 32 84 33 24 34
REMARK SMILES IDX 83 35 25 36 26 37 27 38 77 39 28 40 82 41 76 42 78 43 29 44
REMARK SMILES IDX 81 45 75 46 74 47 30 49 62 50 42 51 61 52 43 53 46 54 60 55
REMARK SMILES IDX 79 56 44 57 45 58 59 60 80 61 47 62 31 63 32 64 40 65 33 66
REMARK SMILES IDX 34 67 38 68 41 69 35 70 36 71 39 72 37 73 63 74 64 75 72 76
REMARK SMILES IDX 65 77 66 78 70 79 73 80 67 81 68 82 71 83 69 84 48 85 49 86
REMARK SMILES IDX 57 87 50 88 51 89 55 90 58 91 52 92 53 93 56 94 54 95
REMARK H PARENT 14 5 19 29 78 48 46 59
REMARK Flexibility Score: inf
ROOT
ATOM      1  C   UNL A   1      31.806  29.790  25.305  1.00  0.00     0.116 C 
ENDROOT
BRANCH   1   2
ATOM      2  N   UNL A   1      33.035  29.589  24.574  1.00  0.00    -0.355 N 
ATOM      3  C   UNL A   1      33.341  28.728  23.563  1.00  0.00     0.239 C 
ATOM      4  O   UNL A   1      34.307  29.049  22.858  1.00  0.00    -0.273 OA
ATOM      5  H   UNL A   1      33.778  30.173  24.853  1.00  0.00     0.163 HD
BRANCH   3   6
ATOM      6  C   UNL A   1      32.495  27.495  23.162  1.00  0.00     0.221 C 
BRANCH   6   7
ATOM      7  N   UNL A   1      32.202  26.473  24.168  1.00  0.00    -0.311 N 
BRANCH   7   8
ATOM      8  C   UNL A   1      33.124  25.922  25.066  1.00  0.00     0.320 C 
ATOM      9  O   UNL A   1      33.496  26.582  26.043  1.00  0.00    -0.248 OA
BRANCH   8  10
ATOM     10  N   UNL A   1      33.607  24.630  24.952  1.00  0.00    -0.323 N 
ATOM     11  C   UNL A   1      34.595  22.504  25.504  1.00  0.00     0.123 C 
ATOM     12  C   UNL A   1      33.351  23.380  25.649  1.00  0.00     0.137 C 
ATOM     13  C   UNL A   1      35.486  23.253  24.483  1.00  0.00     0.021 C 
ATOM     14  C   UNL A   1      34.582  24.345  23.905  1.00  0.00     0.125 C 
ATOM     15  C   UNL A   1      36.728  23.853  25.152  1.00  0.00     0.010 C 
BRANCH  11  16
ATOM     16  C   UNL A   1      34.271  21.080  25.089  1.00  0.00     0.310 C 
ATOM     17  O   UNL A   1      35.134  20.210  25.004  1.00  0.00    -0.252 OA
BRANCH  16  18
ATOM     18  O   UNL A   1      32.969  20.742  24.913  1.00  0.00    -0.469 OA
ATOM     19  C   UNL A   1      32.479  19.911  23.851  1.00  0.00     0.282 C 
ENDBRANCH  16  18
ENDBRANCH  11  16
ENDBRANCH   8  10
ENDBRANCH   7   8
BRANCH   7  20
ATOM     20  C   UNL A   1      30.739  26.013  24.254  1.00  0.00     0.037 C 
ATOM     21  C   UNL A   1      30.299  25.758  25.709  1.00  0.00     0.034 C 
ATOM     22  C   UNL A   1      29.797  27.052  23.603  1.00  0.00     0.034 C 
ATOM     23  C   UNL A   1      30.439  24.672  23.517  1.00  0.00     0.034 C 
ENDBRANCH   7  20
ENDBRANCH   6   7
ENDBRANCH   3   6
ENDBRANCH   1   2
BRANCH   1  24
ATOM     24  C   UNL A   1      31.956  30.430  26.676  1.00  0.00     0.023 C 
BRANCH  24  25
ATOM     25  C   UNL A   1      31.710  31.928  26.717  1.00  0.00     0.023 C 
BRANCH  25  26
ATOM     26  C   UNL A   1      32.842  32.731  27.335  1.00  0.00     0.116 C 
BRANCH  26  27
ATOM     27  N   UNL A   1      32.472  34.108  27.635  1.00  0.00    -0.352 N 
ATOM     28  C   UNL A   1      32.992  34.954  28.586  1.00  0.00     0.251 C 
ATOM     29  H   UNL A   1      31.751  34.484  27.080  1.00  0.00     0.163 HD
ATOM     30  O   UNL A   1      32.484  36.046  28.796  1.00  0.00    -0.269 OA
BRANCH  28  31
ATOM     31  C   UNL A   1      34.155  34.507  29.379  1.00  0.00     0.039 A 
ATOM     32  C   UNL A   1      33.938  33.917  30.625  1.00  0.00     0.014 A 
ATOM     33  C   UNL A   1      35.446  34.615  28.859  1.00  0.00     0.014 A 
ATOM     34  C   UNL A   1      35.015  33.364  31.318  1.00  0.00     0.010 A 
ATOM     35  C   UNL A   1      36.499  33.980  29.502  1.00  0.00     0.010 A 
ATOM     36  C   UNL A   1      36.296  33.354  30.741  1.00  0.00    -0.014 A 
BRANCH  36  37
ATOM     37  C   UNL A   1      37.444  32.703  31.418  1.00  0.00     0.031 A 
ATOM     38  C   UNL A   1      38.139  31.545  30.762  1.00  0.00     0.074 A 
ATOM     39  C   UNL A   1      37.803  33.100  32.654  1.00  0.00     0.049 A 
ATOM     40  N   UNL A   1      39.107  30.792  31.221  1.00  0.00    -0.248 NA
ATOM     41  C   UNL A   1      37.658  31.155  29.428  1.00  0.00     0.031 C 
ATOM     42  C   UNL A   1      37.159  34.168  33.421  1.00  0.00     0.029 A 
ATOM     43  N   UNL A   1      38.791  32.641  33.489  1.00  0.00    -0.354 N 
ATOM     44  C   UNL A   1      39.331  29.831  30.243  1.00  0.00     0.074 A 
ATOM     45  C   UNL A   1      38.360  30.056  29.195  1.00  0.00     0.031 C 
ATOM     46  C   UNL A   1      37.782  34.297  34.603  1.00  0.00     0.029 A 
ATOM     47  C   UNL A   1      38.844  33.300  34.692  1.00  0.00     0.049 A 
ATOM     48  H   UNL A   1      39.402  31.908  33.248  1.00  0.00     0.167 HD
ATOM     49  C   UNL A   1      40.278  28.864  30.210  1.00  0.00     0.037 A 
ATOM     50  C   UNL A   1      39.658  33.116  35.750  1.00  0.00     0.037 A 
ATOM     51  C   UNL A   1      41.264  28.670  31.240  1.00  0.00     0.049 A 
ATOM     52  C   UNL A   1      40.719  32.053  35.680  1.00  0.00     0.074 A 
ATOM     53  C   UNL A   1      42.319  27.777  31.265  1.00  0.00     0.029 A 
ATOM     54  N   UNL A   1      41.312  29.382  32.430  1.00  0.00    -0.354 N 
ATOM     55  N   UNL A   1      40.979  31.205  34.714  1.00  0.00    -0.248 NA
ATOM     56  C   UNL A   1      41.609  31.927  36.843  1.00  0.00     0.031 C 
ATOM     57  C   UNL A   1      42.977  27.913  32.493  1.00  0.00     0.029 A 
ATOM     58  C   UNL A   1      42.365  28.930  33.209  1.00  0.00     0.049 A 
ATOM     59  H   UNL A   1      40.691  30.103  32.683  1.00  0.00     0.167 HD
ATOM     60  C   UNL A   1      42.071  30.462  35.139  1.00  0.00     0.074 A 
ATOM     61  C   UNL A   1      42.437  30.972  36.445  1.00  0.00     0.031 C 
ATOM     62  C   UNL A   1      42.714  29.450  34.507  1.00  0.00     0.037 A 
BRANCH  49  63
ATOM     63  C   UNL A   1      40.290  27.948  29.021  1.00  0.00     0.064 A 
ATOM     64  C   UNL A   1      41.019  28.252  27.860  1.00  0.00     0.173 A 
ATOM     65  C   UNL A   1      39.579  26.739  29.049  1.00  0.00     0.173 A 
ATOM     66  F   UNL A   1      41.706  29.402  27.776  1.00  0.00    -0.203 F 
ATOM     67  C   UNL A   1      41.002  27.401  26.759  1.00  0.00     0.198 A 
ATOM     68  C   UNL A   1      39.592  25.873  27.958  1.00  0.00     0.198 A 
ATOM     69  F   UNL A   1      38.869  26.396  30.135  1.00  0.00    -0.203 F 
ATOM     70  F   UNL A   1      41.656  27.743  25.640  1.00  0.00    -0.200 F 
ATOM     71  C   UNL A   1      40.295  26.209  26.811  1.00  0.00     0.200 A 
ATOM     72  F   UNL A   1      38.919  24.716  28.014  1.00  0.00    -0.200 F 
ATOM     73  F   UNL A   1      40.283  25.390  25.752  1.00  0.00    -0.200 F 
ENDBRANCH  49  63
BRANCH  50  74
ATOM     74  C   UNL A   1      39.517  33.982  36.949  1.00  0.00     0.064 A 
ATOM     75  C   UNL A   1      38.762  33.564  38.055  1.00  0.00     0.173 A 
ATOM     76  C   UNL A   1      40.142  35.235  37.022  1.00  0.00     0.173 A 
ATOM     77  F   UNL A   1      38.131  32.382  38.023  1.00  0.00    -0.203 F 
ATOM     78  C   UNL A   1      38.625  34.373  39.180  1.00  0.00     0.198 A 
ATOM     79  C   UNL A   1      40.027  36.032  38.160  1.00  0.00     0.198 A 
ATOM     80  F   UNL A   1      40.881  35.677  35.994  1.00  0.00    -0.203 F 
ATOM     81  F   UNL A   1      37.866  33.966  40.206  1.00  0.00    -0.200 F 
ATOM     82  C   UNL A   1      39.263  35.603  39.235  1.00  0.00     0.200 A 
ATOM     83  F   UNL A   1      40.657  37.213  38.215  1.00  0.00    -0.200 F 
ATOM     84  F   UNL A   1      39.138  36.377  40.322  1.00  0.00    -0.200 F 
ENDBRANCH  50  74
BRANCH  62  85
ATOM     85  C   UNL A   1      43.897  28.844  35.205  1.00  0.00     0.064 A 
ATOM     86  C   UNL A   1      43.755  27.764  36.089  1.00  0.00     0.173 A 
ATOM     87  C   UNL A   1      45.191  29.325  34.955  1.00  0.00     0.173 A 
ATOM     88  F   UNL A   1      42.537  27.278  36.372  1.00  0.00    -0.203 F 
ATOM     89  C   UNL A   1      44.865  27.204  36.716  1.00  0.00     0.198 A 
ATOM     90  C   UNL A   1      46.300  28.742  35.560  1.00  0.00     0.198 A 
ATOM     91  F   UNL A   1      45.380  30.352  34.112  1.00  0.00    -0.203 F 
ATOM     92  F   UNL A   1      44.702  26.204  37.593  1.00  0.00    -0.200 F 
ATOM     93  C   UNL A   1      46.137  27.688  36.446  1.00  0.00     0.200 A 
ATOM     94  F   UNL A   1      47.529  29.202  35.286  1.00  0.00    -0.200 F 
ATOM     95  F   UNL A   1      47.204  27.142  37.044  1.00  0.00    -0.200 F 
ENDBRANCH  62  85
ENDBRANCH  36  37
ENDBRANCH  28  31
ENDBRANCH  26  27
ENDBRANCH  25  26
ENDBRANCH  24  25
ENDBRANCH   1  24
TORSDOF 17
ENDMDL
MODEL 2
REMARK VINA RESULT:     -11.5      1.442      3.433
REMARK SMILES COC(=O)[C@@H]1CN(C(=O)N(CC(=O)NCCCCNC(=O)c2ccc(-c3c4nc(c(-c5c(F)c(F)c(F)c(F)c5F)c5ccc([nH]5)c(-c5c(F)c(F)c(F)c(F)c5F)c5nc(c(-c6c(F)c(F)c(F)c(F)c6F)c6ccc3[nH]6)C=C5)C=C4)cc2)C(C)(C)C)C[C@H]1C
REMARK SMILES IDX 15 1 14 2 12 3 13 4 11 6 10 7 8 8 9 9 7 10 5 11 6 12 90 13
REMARK SMILES IDX 89 14 91 15 3 16 4 17 2 18 1 19 85 20 86 21 87 22 88 23
REMARK SMILES IDX 16 24 17 25 18 26 19 27 20 28 21 30 22 31 23 32 84 33 24 34
REMARK SMILES IDX 83 35 25 36 26 37 27 38 77 39 28 40 82 41 76 42 78 43 29 44
REMARK SMILES IDX 81 45 75 46 74 47 30 49 62 50 42 51 61 52 43 53 46 54 60 55
REMARK SMILES IDX 79 56 44 57 45 58 59 60 80 61 47 62 31 63 32 64 40 65 33 66
REMARK SMILES IDX 34 67 38 68 41 69 35 70 36 71 39 72 37 73 63 74 64 75 72 76
REMARK SMILES IDX 65 77 66 78 70 79 73 80 67 81 68 82 71 83 69 84 48 85 49 86
REMARK SMILES IDX 57 87 50 88 51 89 55 90 58 91 52 92 53 93 56 94 54 95
REMARK H PARENT 14 5 19 29 78 48 46 59
REMARK Flexibility Score: inf
ROOT
ATOM      1  C   UNL A   1      33.324  29.997  27.003  1.00  0.00     0.116 C 
ENDROOT
BRANCH   1   2
ATOM      2  N   UNL A   1      33.909  29.674  25.723  1.00  0.00    -0.355 N 
ATOM      3  C   UNL A   1      34.031  28.481  25.073  1.00  0.00     0.239 C 
ATOM      4  O   UNL A   1      34.187  28.552  23.847  1.00  0.00    -0.273 OA
ATOM      5  H   UNL A   1      34.282  30.445  25.236  1.00  0.00     0.163 HD
BRANCH   3   6
ATOM      6  C   UNL A   1      33.845  27.092  25.728  1.00  0.00     0.221 C 
BRANCH   6   7
ATOM      7  N   UNL A   1      32.652  26.305  25.405  1.00  0.00    -0.311 N 
BRANCH   7   8
ATOM      8  C   UNL A   1      31.328  26.740  25.530  1.00  0.00     0.320 C 
ATOM      9  O   UNL A   1      30.692  26.478  26.558  1.00  0.00    -0.248 OA
BRANCH   8  10
ATOM     10  N   UNL A   1      30.696  27.516  24.574  1.00  0.00    -0.323 N 
ATOM     11  C   UNL A   1      29.271  29.162  23.546  1.00  0.00     0.123 C 
ATOM     12  C   UNL A   1      30.550  28.945  24.353  1.00  0.00     0.137 C 
ATOM     13  C   UNL A   1      28.823  27.740  23.128  1.00  0.00     0.021 C 
ATOM     14  C   UNL A   1      30.012  26.840  23.477  1.00  0.00     0.125 C 
ATOM     15  C   UNL A   1      27.558  27.305  23.875  1.00  0.00     0.010 C 
BRANCH  11  16
ATOM     16  C   UNL A   1      29.465  30.102  22.369  1.00  0.00     0.310 C 
ATOM     17  O   UNL A   1      29.791  29.698  21.255  1.00  0.00    -0.252 OA
BRANCH  16  18
ATOM     18  O   UNL A   1      29.162  31.414  22.537  1.00  0.00    -0.469 OA
ATOM     19  C   UNL A   1      27.957  31.900  23.142  1.00  0.00     0.282 C 
ENDBRANCH  16  18
ENDBRANCH  11  16
ENDBRANCH   8  10
ENDBRANCH   7   8
BRANCH   7  20
ATOM     20  C   UNL A   1      32.907  24.900  24.841  1.00  0.00     0.037 C 
ATOM     21  C   UNL A   1      33.286  24.938  23.347  1.00  0.00     0.034 C 
ATOM     22  C   UNL A   1      34.018  24.179  25.638  1.00  0.00     0.034 C 
ATOM     23  C   UNL A   1      31.675  23.946  24.903  1.00  0.00     0.034 C 
ENDBRANCH   7  20
ENDBRANCH   6   7
ENDBRANCH   3   6
ENDBRANCH   1   2
BRANCH   1  24
ATOM     24  C   UNL A   1      31.880  30.469  26.964  1.00  0.00     0.023 C 
BRANCH  24  25
ATOM     25  C   UNL A   1      31.697  31.972  26.858  1.00  0.00     0.023 C 
BRANCH  25  26
ATOM     26  C   UNL A   1      32.868  32.784  27.387  1.00  0.00     0.116 C 
BRANCH  26  27
ATOM     27  N   UNL A   1      32.521  34.169  27.681  1.00  0.00    -0.352 N 
ATOM     28  C   UNL A   1      33.059  35.011  28.626  1.00  0.00     0.251 C 
ATOM     29  H   UNL A   1      31.805  34.553  27.126  1.00  0.00     0.163 HD
ATOM     30  O   UNL A   1      32.569  36.112  28.831  1.00  0.00    -0.269 OA
BRANCH  28  31
ATOM     31  C   UNL A   1      34.216  34.549  29.417  1.00  0.00     0.039 A 
ATOM     32  C   UNL A   1      34.000  34.030  30.694  1.00  0.00     0.014 A 
ATOM     33  C   UNL A   1      35.500  34.574  28.868  1.00  0.00     0.014 A 
ATOM     34  C   UNL A   1      35.066  33.462  31.392  1.00  0.00     0.010 A 
ATOM     35  C   UNL A   1      36.537  33.923  29.521  1.00  0.00     0.010 A 
ATOM     36  C   UNL A   1      36.333  33.367  30.792  1.00  0.00    -0.014 A 
BRANCH  36  37
ATOM     37  C   UNL A   1      37.464  32.697  31.478  1.00  0.00     0.031 A 
ATOM     38  C   UNL A   1      38.165  31.545  30.815  1.00  0.00     0.074 A 
ATOM     39  C   UNL A   1      37.803  33.070  32.727  1.00  0.00     0.049 A 
ATOM     40  N   UNL A   1      39.120  30.779  31.277  1.00  0.00    -0.248 NA
ATOM     41  C   UNL A   1      37.705  31.182  29.465  1.00  0.00     0.031 C 
ATOM     42  C   UNL A   1      37.152  34.128  33.501  1.00  0.00     0.029 A 
ATOM     43  N   UNL A   1      38.773  32.590  33.571  1.00  0.00    -0.354 N 
ATOM     44  C   UNL A   1      39.355  29.834  30.287  1.00  0.00     0.074 A 
ATOM     45  C   UNL A   1      38.404  30.084  29.225  1.00  0.00     0.031 C 
ATOM     46  C   UNL A   1      37.754  34.232  34.696  1.00  0.00     0.029 A 
ATOM     47  C   UNL A   1      38.809  33.227  34.787  1.00  0.00     0.049 A 
ATOM     48  H   UNL A   1      39.385  31.857  33.328  1.00  0.00     0.167 HD
ATOM     49  C   UNL A   1      40.297  28.862  30.253  1.00  0.00     0.037 A 
ATOM     50  C   UNL A   1      39.602  33.020  35.855  1.00  0.00     0.037 A 
ATOM     51  C   UNL A   1      41.263  28.644  31.297  1.00  0.00     0.049 A 
ATOM     52  C   UNL A   1      40.658  31.952  35.785  1.00  0.00     0.074 A 
ATOM     53  C   UNL A   1      42.313  27.744  31.326  1.00  0.00     0.029 A 
ATOM     54  N   UNL A   1      41.294  29.335  32.500  1.00  0.00    -0.354 N 
ATOM     55  N   UNL A   1      40.930  31.119  34.810  1.00  0.00    -0.248 NA
ATOM     56  C   UNL A   1      41.526  31.800  36.962  1.00  0.00     0.031 C 
ATOM     57  C   UNL A   1      42.949  27.854  32.567  1.00  0.00     0.029 A 
ATOM     58  C   UNL A   1      42.330  28.863  33.290  1.00  0.00     0.049 A 
ATOM     59  H   UNL A   1      40.672  30.054  32.754  1.00  0.00     0.167 HD
ATOM     60  C   UNL A   1      42.010  30.363  35.241  1.00  0.00     0.074 A 
ATOM     61  C   UNL A   1      42.356  30.848  36.562  1.00  0.00     0.031 C 
ATOM     62  C   UNL A   1      42.659  29.358  34.603  1.00  0.00     0.037 A 
BRANCH  49  63
ATOM     63  C   UNL A   1      40.325  27.967  29.049  1.00  0.00     0.064 A 
ATOM     64  C   UNL A   1      41.070  28.290  27.904  1.00  0.00     0.173 A 
ATOM     65  C   UNL A   1      39.613  26.758  29.046  1.00  0.00     0.173 A 
ATOM     66  F   UNL A   1      41.758  29.441  27.849  1.00  0.00    -0.203 F 
ATOM     67  C   UNL A   1      41.068  27.459  26.788  1.00  0.00     0.198 A 
ATOM     68  C   UNL A   1      39.641  25.911  27.940  1.00  0.00     0.198 A 
ATOM     69  F   UNL A   1      38.889  26.396  30.116  1.00  0.00    -0.203 F 
ATOM     70  F   UNL A   1      41.737  27.820  25.684  1.00  0.00    -0.200 F 
ATOM     71  C   UNL A   1      40.360  26.267  26.809  1.00  0.00     0.200 A 
ATOM     72  F   UNL A   1      38.966  24.754  27.967  1.00  0.00    -0.200 F 
ATOM     73  F   UNL A   1      40.362  25.466  25.736  1.00  0.00    -0.200 F 
ENDBRANCH  49  63
BRANCH  50  74
ATOM     74  C   UNL A   1      39.445  33.866  37.066  1.00  0.00     0.064 A 
ATOM     75  C   UNL A   1      40.048  35.130  37.146  1.00  0.00     0.173 A 
ATOM     76  C   UNL A   1      38.679  33.439  38.161  1.00  0.00     0.173 A 
ATOM     77  F   UNL A   1      40.805  35.573  36.132  1.00  0.00    -0.203 F 
ATOM     78  C   UNL A   1      39.906  35.925  38.280  1.00  0.00     0.198 A 
ATOM     79  C   UNL A   1      38.514  34.248  39.284  1.00  0.00     0.198 A 
ATOM     80  F   UNL A   1      38.075  32.242  38.131  1.00  0.00    -0.203 F 
ATOM     81  F   UNL A   1      40.526  37.111  38.346  1.00  0.00    -0.200 F 
ATOM     82  C   UNL A   1      39.133  35.487  39.345  1.00  0.00     0.200 A 
ATOM     83  F   UNL A   1      37.754  33.827  40.304  1.00  0.00    -0.200 F 
ATOM     84  F   UNL A   1      38.989  36.257  40.433  1.00  0.00    -0.200 F 
ENDBRANCH  50  74
BRANCH  62  85
ATOM     85  C   UNL A   1      43.825  28.732  35.312  1.00  0.00     0.064 A 
ATOM     86  C   UNL A   1      43.662  27.637  36.172  1.00  0.00     0.173 A 
ATOM     87  C   UNL A   1      45.126  29.211  35.095  1.00  0.00     0.173 A 
ATOM     88  F   UNL A   1      42.437  27.151  36.423  1.00  0.00    -0.203 F 
ATOM     89  C   UNL A   1      44.756  27.059  36.809  1.00  0.00     0.198 A 
ATOM     90  C   UNL A   1      46.221  28.611  35.709  1.00  0.00     0.198 A 
ATOM     91  F   UNL A   1      45.337  30.252  34.275  1.00  0.00    -0.203 F 
ATOM     92  F   UNL A   1      44.572  26.043  37.663  1.00  0.00    -0.200 F 
ATOM     93  C   UNL A   1      46.036  27.541  36.571  1.00  0.00     0.200 A 
ATOM     94  F   UNL A   1      47.457  29.069  35.466  1.00  0.00    -0.200 F 
ATOM     95  F   UNL A   1      47.089  26.978  37.178  1.00  0.00    -0.200 F 
ENDBRANCH  62  85
ENDBRANCH  36  37
ENDBRANCH  28  31
ENDBRANCH  26  27
ENDBRANCH  25  26
ENDBRANCH  24  25
ENDBRANCH   1  24
TORSDOF 17
ENDMDL
MODEL 3
REMARK VINA RESULT:     -11.5      5.774     11.039
REMARK SMILES COC(=O)[C@@H]1CN(C(=O)N(CC(=O)NCCCCNC(=O)c2ccc(-c3c4nc(c(-c5c(F)c(F)c(F)c(F)c5F)c5ccc([nH]5)c(-c5c(F)c(F)c(F)c(F)c5F)c5nc(c(-c6c(F)c(F)c(F)c(F)c6F)c6ccc3[nH]6)C=C5)C=C4)cc2)C(C)(C)C)C[C@H]1C
REMARK SMILES IDX 15 1 14 2 12 3 13 4 11 6 10 7 8 8 9 9 7 10 5 11 6 12 90 13
REMARK SMILES IDX 89 14 91 15 3 16 4 17 2 18 1 19 85 20 86 21 87 22 88 23
REMARK SMILES IDX 16 24 17 25 18 26 19 27 20 28 21 30 22 31 23 32 84 33 24 34
REMARK SMILES IDX 83 35 25 36 26 37 27 38 77 39 28 40 82 41 76 42 78 43 29 44
REMARK SMILES IDX 81 45 75 46 74 47 30 49 62 50 42 51 61 52 43 53 46 54 60 55
REMARK SMILES IDX 79 56 44 57 45 58 59 60 80 61 47 62 31 63 32 64 40 65 33 66
REMARK SMILES IDX 34 67 38 68 41 69 35 70 36 71 39 72 37 73 63 74 64 75 72 76
REMARK SMILES IDX 65 77 66 78 70 79 73 80 67 81 68 82 71 83 69 84 48 85 49 86
REMARK SMILES IDX 57 87 50 88 51 89 55 90 58 91 52 92 53 93 56 94 54 95
REMARK H PARENT 14 5 19 29 78 48 46 59
REMARK Flexibility Score: inf
ROOT
ATOM      1  C   UNL A   1      37.272  22.202  24.592  1.00  0.00     0.116 C 
ENDROOT
BRANCH   1   2
ATOM      2  N   UNL A   1      36.248  22.665  23.685  1.00  0.00    -0.355 N 
ATOM      3  C   UNL A   1      35.354  23.689  23.797  1.00  0.00     0.239 C 
ATOM      4  O   UNL A   1      34.892  24.115  22.731  1.00  0.00    -0.273 OA
ATOM      5  H   UNL A   1      36.184  22.155  22.845  1.00  0.00     0.163 HD
BRANCH   3   6
ATOM      6  C   UNL A   1      35.009  24.425  25.114  1.00  0.00     0.221 C 
BRANCH   6   7
ATOM      7  N   UNL A   1      33.708  24.188  25.743  1.00  0.00    -0.311 N 
BRANCH   7   8
ATOM      8  C   UNL A   1      33.338  23.038  26.447  1.00  0.00     0.320 C 
ATOM      9  O   UNL A   1      33.223  23.083  27.678  1.00  0.00    -0.248 OA
BRANCH   8  10
ATOM     10  N   UNL A   1      33.028  21.840  25.825  1.00  0.00    -0.323 N 
ATOM     11  C   UNL A   1      33.192  19.874  24.446  1.00  0.00     0.123 C 
ATOM     12  C   UNL A   1      33.674  20.541  25.733  1.00  0.00     0.137 C 
ATOM     13  C   UNL A   1      32.053  20.788  23.931  1.00  0.00     0.021 C 
ATOM     14  C   UNL A   1      31.771  21.748  25.090  1.00  0.00     0.125 C 
ATOM     15  C   UNL A   1      32.466  21.547  22.666  1.00  0.00     0.010 C 
BRANCH  11  16
ATOM     16  C   UNL A   1      32.761  18.432  24.651  1.00  0.00     0.310 C 
ATOM     17  O   UNL A   1      32.259  18.043  25.702  1.00  0.00    -0.252 OA
BRANCH  16  18
ATOM     18  O   UNL A   1      32.838  17.582  23.597  1.00  0.00    -0.469 OA
ATOM     19  C   UNL A   1      34.028  16.891  23.193  1.00  0.00     0.282 C 
ENDBRANCH  16  18
ENDBRANCH  11  16
ENDBRANCH   8  10
ENDBRANCH   7   8
BRANCH   7  20
ATOM     20  C   UNL A   1      32.694  25.338  25.642  1.00  0.00     0.037 C 
ATOM     21  C   UNL A   1      33.291  26.676  26.124  1.00  0.00     0.034 C 
ATOM     22  C   UNL A   1      32.179  25.493  24.193  1.00  0.00     0.034 C 
ATOM     23  C   UNL A   1      31.414  25.149  26.513  1.00  0.00     0.034 C 
ENDBRANCH   7  20
ENDBRANCH   6   7
ENDBRANCH   3   6
ENDBRANCH   1   2
BRANCH   1  24
ATOM     24  C   UNL A   1      37.041  20.826  25.194  1.00  0.00     0.023 C 
BRANCH  24  25
ATOM     25  C   UNL A   1      38.173  19.835  24.987  1.00  0.00     0.023 C 
BRANCH  25  26
ATOM     26  C   UNL A   1      39.456  20.188  25.722  1.00  0.00     0.116 C 
BRANCH  26  27
ATOM     27  N   UNL A   1      40.377  19.065  25.841  1.00  0.00    -0.352 N 
ATOM     28  C   UNL A   1      41.728  19.081  26.097  1.00  0.00     0.251 C 
ATOM     29  H   UNL A   1      39.977  18.174  25.721  1.00  0.00     0.163 HD
ATOM     30  O   UNL A   1      42.387  18.052  26.041  1.00  0.00    -0.269 OA
BRANCH  28  31
ATOM     31  C   UNL A   1      42.381  20.369  26.405  1.00  0.00     0.039 A 
ATOM     32  C   UNL A   1      43.031  21.060  25.383  1.00  0.00     0.014 A 
ATOM     33  C   UNL A   1      42.292  20.914  27.688  1.00  0.00     0.014 A 
ATOM     34  C   UNL A   1      43.527  22.341  25.630  1.00  0.00     0.010 A 
ATOM     35  C   UNL A   1      42.697  22.223  27.905  1.00  0.00     0.010 A 
ATOM     36  C   UNL A   1      43.325  22.948  26.881  1.00  0.00    -0.014 A 
BRANCH  36  37
ATOM     37  C   UNL A   1      43.770  24.337  27.146  1.00  0.00     0.031 A 
ATOM     38  C   UNL A   1      42.786  25.354  27.649  1.00  0.00     0.074 A 
ATOM     39  C   UNL A   1      45.034  24.701  26.856  1.00  0.00     0.049 A 
ATOM     40  N   UNL A   1      42.954  26.634  27.868  1.00  0.00    -0.248 NA
ATOM     41  C   UNL A   1      41.417  24.878  27.905  1.00  0.00     0.031 C 
ATOM     42  C   UNL A   1      46.061  23.820  26.298  1.00  0.00     0.029 A 
ATOM     43  N   UNL A   1      45.665  25.913  26.977  1.00  0.00    -0.354 N 
ATOM     44  C   UNL A   1      41.713  27.114  28.262  1.00  0.00     0.074 A 
ATOM     45  C   UNL A   1      40.786  26.006  28.196  1.00  0.00     0.031 C 
ATOM     46  C   UNL A   1      47.201  24.514  26.147  1.00  0.00     0.029 A 
ATOM     47  C   UNL A   1      46.975  25.895  26.562  1.00  0.00     0.049 A 
ATOM     48  H   UNL A   1      45.222  26.719  27.327  1.00  0.00     0.167 HD
ATOM     49  C   UNL A   1      41.381  28.362  28.670  1.00  0.00     0.037 A 
ATOM     50  C   UNL A   1      47.888  26.884  26.519  1.00  0.00     0.037 A 
ATOM     51  C   UNL A   1      42.316  29.450  28.769  1.00  0.00     0.049 A 
ATOM     52  C   UNL A   1      47.503  28.256  27.001  1.00  0.00     0.074 A 
ATOM     53  C   UNL A   1      42.103  30.729  29.250  1.00  0.00     0.029 A 
ATOM     54  N   UNL A   1      43.646  29.386  28.377  1.00  0.00    -0.354 N 
ATOM     55  N   UNL A   1      46.348  28.680  27.454  1.00  0.00    -0.248 NA
ATOM     56  C   UNL A   1      48.551  29.285  26.976  1.00  0.00     0.031 C 
ATOM     57  C   UNL A   1      43.290  31.455  29.102  1.00  0.00     0.029 A 
ATOM     58  C   UNL A   1      44.259  30.611  28.580  1.00  0.00     0.049 A 
ATOM     59  H   UNL A   1      44.088  28.587  28.008  1.00  0.00     0.167 HD
ATOM     60  C   UNL A   1      46.534  30.014  27.789  1.00  0.00     0.074 A 
ATOM     61  C   UNL A   1      47.920  30.324  27.502  1.00  0.00     0.031 C 
ATOM     62  C   UNL A   1      45.640  30.902  28.289  1.00  0.00     0.037 A 
BRANCH  49  63
ATOM     63  C   UNL A   1      39.947  28.611  29.039  1.00  0.00     0.064 A 
ATOM     64  C   UNL A   1      39.468  28.383  30.339  1.00  0.00     0.173 A 
ATOM     65  C   UNL A   1      39.043  29.101  28.085  1.00  0.00     0.173 A 
ATOM     66  F   UNL A   1      40.287  27.901  31.286  1.00  0.00    -0.203 F 
ATOM     67  C   UNL A   1      38.130  28.599  30.659  1.00  0.00     0.198 A 
ATOM     68  C   UNL A   1      37.713  29.350  28.418  1.00  0.00     0.198 A 
ATOM     69  F   UNL A   1      39.448  29.342  26.829  1.00  0.00    -0.203 F 
ATOM     70  F   UNL A   1      37.683  28.315  31.890  1.00  0.00    -0.200 F 
ATOM     71  C   UNL A   1      37.256  29.089  29.700  1.00  0.00     0.200 A 
ATOM     72  F   UNL A   1      36.872  29.834  27.494  1.00  0.00    -0.200 F 
ATOM     73  F   UNL A   1      35.970  29.299  30.010  1.00  0.00    -0.200 F 
ENDBRANCH  49  63
BRANCH  50  74
ATOM     74  C   UNL A   1      49.261  26.600  26.030  1.00  0.00     0.064 A 
ATOM     75  C   UNL A   1      49.639  26.918  24.718  1.00  0.00     0.173 A 
ATOM     76  C   UNL A   1      50.228  26.020  26.865  1.00  0.00     0.173 A 
ATOM     77  F   UNL A   1      48.744  27.457  23.878  1.00  0.00    -0.203 F 
ATOM     78  C   UNL A   1      50.925  26.651  24.254  1.00  0.00     0.198 A 
ATOM     79  C   UNL A   1      51.522  25.778  26.408  1.00  0.00     0.198 A 
ATOM     80  F   UNL A   1      49.919  25.703  28.130  1.00  0.00    -0.203 F 
ATOM     81  F   UNL A   1      51.248  26.929  22.984  1.00  0.00    -0.200 F 
ATOM     82  C   UNL A   1      51.868  26.089  25.101  1.00  0.00     0.200 A 
ATOM     83  F   UNL A   1      52.434  25.249  27.234  1.00  0.00    -0.200 F 
ATOM     84  F   UNL A   1      53.108  25.840  24.657  1.00  0.00    -0.200 F 
ENDBRANCH  50  74
BRANCH  62  85
ATOM     85  C   UNL A   1      46.138  32.287  28.584  1.00  0.00     0.064 A 
ATOM     86  C   UNL A   1      46.078  33.310  27.626  1.00  0.00     0.173 A 
ATOM     87  C   UNL A   1      46.644  32.603  29.854  1.00  0.00     0.173 A 
ATOM     88  F   UNL A   1      45.615  33.055  26.393  1.00  0.00    -0.203 F 
ATOM     89  C   UNL A   1      46.530  34.593  27.922  1.00  0.00     0.198 A 
ATOM     90  C   UNL A   1      47.066  33.894  30.156  1.00  0.00     0.198 A 
ATOM     91  F   UNL A   1      46.716  31.661  30.807  1.00  0.00    -0.203 F 
ATOM     92  F   UNL A   1      46.507  35.544  26.978  1.00  0.00    -0.200 F 
ATOM     93  C   UNL A   1      47.016  34.887  29.188  1.00  0.00     0.200 A 
ATOM     94  F   UNL A   1      47.522  34.179  31.384  1.00  0.00    -0.200 F 
ATOM     95  F   UNL A   1      47.443  36.124  29.474  1.00  0.00    -0.200 F 
ENDBRANCH  62  85
ENDBRANCH  36  37
ENDBRANCH  28  31
ENDBRANCH  26  27
ENDBRANCH  25  26
ENDBRANCH  24  25
ENDBRANCH   1  24
TORSDOF 17
ENDMDL
