MODEL 1
REMARK VINA RESULT:     -14.3      0.000      0.000
REMARK SMILES Cc1cccc(-n2c(C)cc(/C=N\c3ccc(O)c(C(=O)NCCCCNC(=O)c4ccc(-c5c6nc(c(-c7c(F)c(F)c(F)c(F)c7F)c7ccc([nH]7)c(-c7c(F)c(F)c(F)c(F)c7F)c7nc(c(-c8c(F)c(F)c(F)c(F)c8F)c8ccc5[nH]8)C=C7)C=C6)cc4)c3)c2C)c1
REMARK SMILES IDX 24 1 23 2 22 3 20 4 21 5 19 7 14 8 15 9 93 10 16 11 17 12
REMARK SMILES IDX 13 13 12 14 11 15 7 16 8 17 94 18 9 19 10 20 95 21 6 22 1 23
REMARK SMILES IDX 2 24 3 25 96 26 4 27 5 28 18 29 25 31 26 32 27 33 28 34
REMARK SMILES IDX 29 36 30 37 31 38 92 39 32 40 91 41 33 42 34 43 35 44 85 45
REMARK SMILES IDX 36 46 90 47 84 48 86 49 37 50 89 51 83 52 82 53 38 55 70 56
REMARK SMILES IDX 50 57 69 58 51 59 54 60 68 61 87 62 52 63 53 64 67 66 88 67
REMARK SMILES IDX 55 68 39 69 40 70 48 71 41 72 42 73 46 74 49 75 43 76 44 77
REMARK SMILES IDX 47 78 45 79 71 80 72 81 80 82 73 83 74 84 78 85 81 86 75 87
REMARK SMILES IDX 76 88 79 89 77 90 56 91 57 92 65 93 58 94 59 95 63 96 66 97
REMARK SMILES IDX 60 98 61 99 64 100 62 101
REMARK H PARENT 22 6 18 30 27 35 86 54 54 65
REMARK Flexibility Score: inf
ROOT
ATOM      1  C   UNL A   1      36.460  21.084  25.037  1.00  0.00     0.023 C 
ENDROOT
BRANCH   1   2
ATOM      2  C   UNL A   1      35.331  21.279  26.043  1.00  0.00     0.116 C 
BRANCH   2   3
ATOM      3  N   UNL A   1      34.332  20.223  26.118  1.00  0.00    -0.352 N 
ATOM      4  C   UNL A   1      33.064  20.120  25.581  1.00  0.00     0.255 C 
ATOM      5  O   UNL A   1      32.466  19.056  25.750  1.00  0.00    -0.269 OA
ATOM      6  H   UNL A   1      34.611  19.441  26.649  1.00  0.00     0.163 HD
BRANCH   4   7
ATOM      7  C   UNL A   1      32.384  21.222  24.836  1.00  0.00     0.083 A 
ATOM      8  C   UNL A   1      32.265  22.537  22.780  1.00  0.00     0.064 A 
ATOM      9  C   UNL A   1      31.129  23.188  23.257  1.00  0.00     0.032 A 
ATOM     10  C   UNL A   1      32.798  21.464  23.515  1.00  0.00     0.046 A 
ATOM     11  C   UNL A   1      30.736  22.993  24.575  1.00  0.00     0.049 A 
ATOM     12  C   UNL A   1      31.461  22.117  25.381  1.00  0.00     0.128 A 
BRANCH   8  13
ATOM     13  N   UNL A   1      32.912  22.956  21.616  1.00  0.00    -0.256 NA
ATOM     14  C   UNL A   1      33.255  24.198  21.404  1.00  0.00     0.121 C 
BRANCH  14  15
ATOM     15  C   UNL A   1      33.091  25.402  22.230  1.00  0.00     0.014 A 
ATOM     16  N   UNL A   1      32.998  26.947  23.887  1.00  0.00    -0.318 N 
ATOM     17  C   UNL A   1      32.445  27.531  22.759  1.00  0.00     0.021 A 
ATOM     18  C   UNL A   1      33.561  25.722  23.506  1.00  0.00     0.029 A 
ATOM     19  C   UNL A   1      32.014  28.957  22.694  1.00  0.00     0.065 C 
ATOM     20  C   UNL A   1      32.459  26.588  21.751  1.00  0.00     0.033 A 
ATOM     21  C   UNL A   1      34.434  24.946  24.426  1.00  0.00     0.065 C 
BRANCH  16  22
ATOM     22  C   UNL A   1      32.927  27.468  25.215  1.00  0.00     0.046 A 
ATOM     23  C   UNL A   1      34.949  29.816  27.445  1.00  0.00     0.044 C 
ATOM     24  C   UNL A   1      33.861  28.919  26.931  1.00  0.00    -0.049 A 
ATOM     25  C   UNL A   1      32.684  28.772  27.676  1.00  0.00     0.003 A 
ATOM     26  C   UNL A   1      33.982  28.258  25.698  1.00  0.00     0.030 A 
ATOM     27  C   UNL A   1      31.658  27.947  27.219  1.00  0.00     0.002 A 
ATOM     28  C   UNL A   1      31.785  27.287  25.998  1.00  0.00     0.026 A 
ENDBRANCH  16  22
ENDBRANCH  14  15
ENDBRANCH   8  13
BRANCH  12  29
ATOM     29  O   UNL A   1      31.340  22.348  26.727  1.00  0.00    -0.507 OA
ATOM     30  H   UNL A   1      31.991  22.022  27.318  1.00  0.00     0.293 HD
ENDBRANCH  12  29
ENDBRANCH   4   7
ENDBRANCH   2   3
ENDBRANCH   1   2
BRANCH   1  31
ATOM     31  C   UNL A   1      37.295  22.296  24.664  1.00  0.00     0.023 C 
BRANCH  31  32
ATOM     32  C   UNL A   1      37.832  23.127  25.816  1.00  0.00     0.116 C 
BRANCH  32  33
ATOM     33  N   UNL A   1      39.160  22.782  26.299  1.00  0.00    -0.352 N 
ATOM     34  C   UNL A   1      40.131  23.590  26.867  1.00  0.00     0.251 C 
ATOM     35  H   UNL A   1      39.405  21.832  26.210  1.00  0.00     0.163 HD
ATOM     36  O   UNL A   1      41.234  23.105  27.126  1.00  0.00    -0.269 OA
BRANCH  34  37
ATOM     37  C   UNL A   1      39.838  24.993  27.284  1.00  0.00     0.039 A 
ATOM     38  C   UNL A   1      40.283  26.049  26.471  1.00  0.00     0.014 A 
ATOM     39  C   UNL A   1      39.268  25.293  28.514  1.00  0.00     0.014 A 
ATOM     40  C   UNL A   1      40.359  27.346  26.987  1.00  0.00     0.010 A 
ATOM     41  C   UNL A   1      39.455  26.537  29.073  1.00  0.00     0.010 A 
ATOM     42  C   UNL A   1      40.045  27.555  28.328  1.00  0.00    -0.014 A 
BRANCH  42  43
ATOM     43  C   UNL A   1      40.402  28.738  29.094  1.00  0.00     0.031 A 
ATOM     44  C   UNL A   1      39.391  29.744  29.476  1.00  0.00     0.074 A 
ATOM     45  C   UNL A   1      41.634  28.788  29.648  1.00  0.00     0.049 A 
ATOM     46  N   UNL A   1      39.682  30.961  29.797  1.00  0.00    -0.248 NA
ATOM     47  C   UNL A   1      37.961  29.457  29.540  1.00  0.00     0.031 C 
ATOM     48  C   UNL A   1      42.090  29.666  30.722  1.00  0.00     0.029 A 
ATOM     49  N   UNL A   1      42.801  28.138  29.214  1.00  0.00    -0.354 N 
ATOM     50  C   UNL A   1      38.566  31.507  30.385  1.00  0.00     0.074 A 
ATOM     51  C   UNL A   1      37.501  30.561  30.141  1.00  0.00     0.031 C 
ATOM     52  C   UNL A   1      43.428  29.750  30.673  1.00  0.00     0.029 A 
ATOM     53  C   UNL A   1      43.854  29.042  29.480  1.00  0.00     0.049 A 
ATOM     54  H   UNL A   1      42.870  27.242  28.810  1.00  0.00     0.167 HD
ATOM     55  C   UNL A   1      38.686  32.628  31.150  1.00  0.00     0.037 A 
ATOM     56  C   UNL A   1      44.582  29.589  28.464  1.00  0.00     0.037 A 
ATOM     57  C   UNL A   1      40.069  33.090  31.219  1.00  0.00     0.049 A 
ATOM     58  C   UNL A   1      44.517  31.097  28.405  1.00  0.00     0.074 A 
ATOM     59  C   UNL A   1      41.058  32.947  32.179  1.00  0.00     0.029 A 
ATOM     60  N   UNL A   1      40.709  33.519  30.062  1.00  0.00    -0.354 N 
ATOM     61  N   UNL A   1      43.593  31.810  28.988  1.00  0.00    -0.248 NA
ATOM     62  C   UNL A   1      45.474  31.921  27.675  1.00  0.00     0.031 C 
ATOM     63  C   UNL A   1      42.301  33.279  31.591  1.00  0.00     0.029 A 
ATOM     64  C   UNL A   1      42.069  33.630  30.273  1.00  0.00     0.049 A 
ATOM     65  H   UNL A   1      40.256  33.718  29.210  1.00  0.00     0.167 HD
ATOM     66  C   UNL A   1      43.803  33.142  28.732  1.00  0.00     0.074 A 
ATOM     67  C   UNL A   1      45.006  33.158  27.921  1.00  0.00     0.031 C 
ATOM     68  C   UNL A   1      42.959  34.102  29.223  1.00  0.00     0.037 A 
BRANCH  55  69
ATOM     69  C   UNL A   1      37.583  33.100  32.065  1.00  0.00     0.064 A 
ATOM     70  C   UNL A   1      36.499  33.864  31.585  1.00  0.00     0.173 A 
ATOM     71  C   UNL A   1      37.575  32.858  33.449  1.00  0.00     0.173 A 
ATOM     72  F   UNL A   1      36.324  34.095  30.278  1.00  0.00    -0.203 F 
ATOM     73  C   UNL A   1      35.553  34.438  32.437  1.00  0.00     0.198 A 
ATOM     74  C   UNL A   1      36.659  33.474  34.310  1.00  0.00     0.198 A 
ATOM     75  F   UNL A   1      38.447  32.001  34.002  1.00  0.00    -0.203 F 
ATOM     76  F   UNL A   1      34.554  35.170  31.925  1.00  0.00    -0.200 F 
ATOM     77  C   UNL A   1      35.655  34.276  33.803  1.00  0.00     0.200 A 
ATOM     78  F   UNL A   1      36.765  33.294  35.634  1.00  0.00    -0.200 F 
ATOM     79  F   UNL A   1      34.782  34.873  34.624  1.00  0.00    -0.200 F 
ENDBRANCH  55  69
BRANCH  56  80
ATOM     80  C   UNL A   1      44.719  28.677  27.298  1.00  0.00     0.064 A 
ATOM     81  C   UNL A   1      45.596  27.581  27.421  1.00  0.00     0.173 A 
ATOM     82  C   UNL A   1      43.749  28.619  26.292  1.00  0.00     0.173 A 
ATOM     83  F   UNL A   1      46.539  27.585  28.377  1.00  0.00    -0.203 F 
ATOM     84  C   UNL A   1      45.431  26.429  26.655  1.00  0.00     0.198 A 
ATOM     85  C   UNL A   1      43.596  27.467  25.514  1.00  0.00     0.198 A 
ATOM     86  F   UNL A   1      42.869  29.619  26.139  1.00  0.00    -0.203 F 
ATOM     87  F   UNL A   1      46.207  25.359  26.881  1.00  0.00    -0.200 F 
ATOM     88  C   UNL A   1      44.412  26.362  25.722  1.00  0.00     0.200 A 
ATOM     89  F   UNL A   1      42.593  27.390  24.628  1.00  0.00    -0.200 F 
ATOM     90  F   UNL A   1      44.188  25.224  25.051  1.00  0.00    -0.200 F 
ENDBRANCH  56  80
BRANCH  68  91
ATOM     91  C   UNL A   1      42.926  35.580  28.880  1.00  0.00     0.064 A 
ATOM     92  C   UNL A   1      42.225  36.136  27.799  1.00  0.00     0.173 A 
ATOM     93  C   UNL A   1      43.522  36.529  29.755  1.00  0.00     0.173 A 
ATOM     94  F   UNL A   1      41.515  35.376  26.958  1.00  0.00    -0.203 F 
ATOM     95  C   UNL A   1      42.176  37.518  27.576  1.00  0.00     0.198 A 
ATOM     96  C   UNL A   1      43.417  37.906  29.565  1.00  0.00     0.198 A 
ATOM     97  F   UNL A   1      44.209  36.156  30.846  1.00  0.00    -0.203 F 
ATOM     98  F   UNL A   1      41.529  37.991  26.501  1.00  0.00    -0.200 F 
ATOM     99  C   UNL A   1      42.757  38.402  28.464  1.00  0.00     0.200 A 
ATOM    100  F   UNL A   1      43.945  38.745  30.469  1.00  0.00    -0.200 F 
ATOM    101  F   UNL A   1      42.662  39.724  28.272  1.00  0.00    -0.200 F 
ENDBRANCH  68  91
ENDBRANCH  42  43
ENDBRANCH  34  37
ENDBRANCH  32  33
ENDBRANCH  31  32
ENDBRANCH   1  31
TORSDOF 15
ENDMDL
MODEL 2
REMARK VINA RESULT:     -14.3      3.971     10.002
REMARK SMILES Cc1cccc(-n2c(C)cc(/C=N\c3ccc(O)c(C(=O)NCCCCNC(=O)c4ccc(-c5c6nc(c(-c7c(F)c(F)c(F)c(F)c7F)c7ccc([nH]7)c(-c7c(F)c(F)c(F)c(F)c7F)c7nc(c(-c8c(F)c(F)c(F)c(F)c8F)c8ccc5[nH]8)C=C7)C=C6)cc4)c3)c2C)c1
REMARK SMILES IDX 24 1 23 2 22 3 20 4 21 5 19 7 14 8 15 9 93 10 16 11 17 12
REMARK SMILES IDX 13 13 12 14 11 15 7 16 8 17 94 18 9 19 10 20 95 21 6 22 1 23
REMARK SMILES IDX 2 24 3 25 96 26 4 27 5 28 18 29 25 31 26 32 27 33 28 34
REMARK SMILES IDX 29 36 30 37 31 38 92 39 32 40 91 41 33 42 34 43 35 44 85 45
REMARK SMILES IDX 36 46 90 47 84 48 86 49 37 50 89 51 83 52 82 53 38 55 70 56
REMARK SMILES IDX 50 57 69 58 51 59 54 60 68 61 87 62 52 63 53 64 67 66 88 67
REMARK SMILES IDX 55 68 39 69 40 70 48 71 41 72 42 73 46 74 49 75 43 76 44 77
REMARK SMILES IDX 47 78 45 79 71 80 72 81 80 82 73 83 74 84 78 85 81 86 75 87
REMARK SMILES IDX 76 88 79 89 77 90 56 91 57 92 65 93 58 94 59 95 63 96 66 97
REMARK SMILES IDX 60 98 61 99 64 100 62 101
REMARK H PARENT 22 6 18 30 27 35 86 54 54 65
REMARK Flexibility Score: inf
ROOT
ATOM      1  C   UNL A   1      31.985  29.996  25.912  1.00  0.00     0.023 C 
ENDROOT
BRANCH   1   2
ATOM      2  C   UNL A   1      32.581  29.468  24.612  1.00  0.00     0.116 C 
BRANCH   2   3
ATOM      3  N   UNL A   1      31.811  29.700  23.398  1.00  0.00    -0.352 N 
ATOM      4  C   UNL A   1      30.995  28.869  22.657  1.00  0.00     0.255 C 
ATOM      5  O   UNL A   1      30.401  29.370  21.701  1.00  0.00    -0.269 OA
ATOM      6  H   UNL A   1      31.887  30.615  23.042  1.00  0.00     0.163 HD
BRANCH   4   7
ATOM      7  C   UNL A   1      30.816  27.412  22.937  1.00  0.00     0.083 A 
ATOM      8  C   UNL A   1      29.925  25.710  24.447  1.00  0.00     0.064 A 
ATOM      9  C   UNL A   1      30.291  24.713  23.546  1.00  0.00     0.032 A 
ATOM     10  C   UNL A   1      30.066  27.057  24.072  1.00  0.00     0.046 A 
ATOM     11  C   UNL A   1      31.072  25.043  22.446  1.00  0.00     0.049 A 
ATOM     12  C   UNL A   1      31.438  26.372  22.242  1.00  0.00     0.128 A 
BRANCH   8  13
ATOM     13  N   UNL A   1      29.468  25.403  25.730  1.00  0.00    -0.256 NA
ATOM     14  C   UNL A   1      30.138  24.650  26.559  1.00  0.00     0.121 C 
BRANCH  14  15
ATOM     15  C   UNL A   1      31.434  23.972  26.421  1.00  0.00     0.014 A 
ATOM     16  N   UNL A   1      33.574  23.371  25.975  1.00  0.00    -0.318 N 
ATOM     17  C   UNL A   1      32.934  22.246  26.470  1.00  0.00     0.021 A 
ATOM     18  C   UNL A   1      32.709  24.461  26.128  1.00  0.00     0.029 A 
ATOM     19  C   UNL A   1      33.628  20.957  26.751  1.00  0.00     0.065 C 
ATOM     20  C   UNL A   1      31.618  22.588  26.710  1.00  0.00     0.033 A 
ATOM     21  C   UNL A   1      33.171  25.858  25.909  1.00  0.00     0.065 C 
BRANCH  16  22
ATOM     22  C   UNL A   1      34.856  23.389  25.344  1.00  0.00     0.046 A 
ATOM     23  C   UNL A   1      38.520  23.646  26.386  1.00  0.00     0.044 C 
ATOM     24  C   UNL A   1      37.278  23.470  25.561  1.00  0.00    -0.049 A 
ATOM     25  C   UNL A   1      37.398  23.111  24.212  1.00  0.00     0.003 A 
ATOM     26  C   UNL A   1      36.001  23.614  26.126  1.00  0.00     0.030 A 
ATOM     27  C   UNL A   1      36.260  22.938  23.425  1.00  0.00     0.002 A 
ATOM     28  C   UNL A   1      34.993  23.090  23.986  1.00  0.00     0.026 A 
ENDBRANCH  16  22
ENDBRANCH  14  15
ENDBRANCH   8  13
BRANCH  12  29
ATOM     29  O   UNL A   1      32.562  26.544  21.478  1.00  0.00    -0.507 OA
ATOM     30  H   UNL A   1      32.483  26.794  20.578  1.00  0.00     0.293 HD
ENDBRANCH  12  29
ENDBRANCH   4   7
ENDBRANCH   2   3
ENDBRANCH   1   2
BRANCH   1  31
ATOM     31  C   UNL A   1      32.677  29.622  27.212  1.00  0.00     0.023 C 
BRANCH  31  32
ATOM     32  C   UNL A   1      34.185  29.790  27.246  1.00  0.00     0.116 C 
BRANCH  32  33
ATOM     33  N   UNL A   1      34.696  30.906  28.026  1.00  0.00    -0.352 N 
ATOM     34  C   UNL A   1      35.862  31.006  28.767  1.00  0.00     0.251 C 
ATOM     35  H   UNL A   1      34.128  31.711  28.027  1.00  0.00     0.163 HD
ATOM     36  O   UNL A   1      36.060  32.024  29.433  1.00  0.00    -0.269 OA
BRANCH  34  37
ATOM     37  C   UNL A   1      36.935  29.973  28.683  1.00  0.00     0.039 A 
ATOM     38  C   UNL A   1      37.030  29.009  29.700  1.00  0.00     0.014 A 
ATOM     39  C   UNL A   1      37.927  30.017  27.711  1.00  0.00     0.014 A 
ATOM     40  C   UNL A   1      38.208  28.271  29.859  1.00  0.00     0.010 A 
ATOM     41  C   UNL A   1      39.133  29.390  27.931  1.00  0.00     0.010 A 
ATOM     42  C   UNL A   1      39.293  28.553  29.032  1.00  0.00    -0.014 A 
BRANCH  42  43
ATOM     43  C   UNL A   1      40.665  28.143  29.288  1.00  0.00     0.031 A 
ATOM     44  C   UNL A   1      41.242  26.943  28.651  1.00  0.00     0.074 A 
ATOM     45  C   UNL A   1      41.475  29.006  29.940  1.00  0.00     0.049 A 
ATOM     46  N   UNL A   1      42.274  26.317  29.112  1.00  0.00    -0.248 NA
ATOM     47  C   UNL A   1      40.709  26.351  27.428  1.00  0.00     0.031 C 
ATOM     48  C   UNL A   1      42.934  28.985  29.997  1.00  0.00     0.029 A 
ATOM     49  N   UNL A   1      41.108  30.016  30.846  1.00  0.00    -0.354 N 
ATOM     50  C   UNL A   1      42.713  25.468  28.125  1.00  0.00     0.074 A 
ATOM     51  C   UNL A   1      41.670  25.471  27.124  1.00  0.00     0.031 C 
ATOM     52  C   UNL A   1      43.335  29.679  31.072  1.00  0.00     0.029 A 
ATOM     53  C   UNL A   1      42.140  30.044  31.811  1.00  0.00     0.049 A 
ATOM     54  H   UNL A   1      40.303  30.582  30.814  1.00  0.00     0.167 HD
ATOM     55  C   UNL A   1      43.979  24.966  28.179  1.00  0.00     0.037 A 
ATOM     56  C   UNL A   1      41.893  29.713  33.111  1.00  0.00     0.037 A 
ATOM     57  C   UNL A   1      44.700  25.447  29.353  1.00  0.00     0.049 A 
ATOM     58  C   UNL A   1      42.700  28.537  33.609  1.00  0.00     0.074 A 
ATOM     59  C   UNL A   1      45.638  26.451  29.530  1.00  0.00     0.029 A 
ATOM     60  N   UNL A   1      44.252  25.104  30.624  1.00  0.00    -0.354 N 
ATOM     61  N   UNL A   1      43.287  27.673  32.828  1.00  0.00    -0.248 NA
ATOM     62  C   UNL A   1      42.897  28.231  35.021  1.00  0.00     0.031 C 
ATOM     63  C   UNL A   1      45.743  26.723  30.915  1.00  0.00     0.029 A 
ATOM     64  C   UNL A   1      44.874  25.880  31.582  1.00  0.00     0.049 A 
ATOM     65  H   UNL A   1      43.585  24.405  30.815  1.00  0.00     0.167 HD
ATOM     66  C   UNL A   1      43.922  26.720  33.584  1.00  0.00     0.074 A 
ATOM     67  C   UNL A   1      43.663  27.127  34.952  1.00  0.00     0.031 C 
ATOM     68  C   UNL A   1      44.604  25.687  32.999  1.00  0.00     0.037 A 
BRANCH  55  69
ATOM     69  C   UNL A   1      44.627  24.290  26.997  1.00  0.00     0.064 A 
ATOM     70  C   UNL A   1      44.374  22.938  26.686  1.00  0.00     0.173 A 
ATOM     71  C   UNL A   1      45.553  24.932  26.156  1.00  0.00     0.173 A 
ATOM     72  F   UNL A   1      43.448  22.226  27.340  1.00  0.00    -0.203 F 
ATOM     73  C   UNL A   1      45.079  22.254  25.693  1.00  0.00     0.198 A 
ATOM     74  C   UNL A   1      46.297  24.236  25.196  1.00  0.00     0.198 A 
ATOM     75  F   UNL A   1      45.748  26.257  26.233  1.00  0.00    -0.203 F 
ATOM     76  F   UNL A   1      44.807  20.963  25.454  1.00  0.00    -0.200 F 
ATOM     77  C   UNL A   1      46.068  22.892  24.974  1.00  0.00     0.200 A 
ATOM     78  F   UNL A   1      47.245  24.876  24.497  1.00  0.00    -0.200 F 
ATOM     79  F   UNL A   1      46.783  22.222  24.062  1.00  0.00    -0.200 F 
ENDBRANCH  55  69
BRANCH  56  80
ATOM     80  C   UNL A   1      40.518  30.072  33.545  1.00  0.00     0.064 A 
ATOM     81  C   UNL A   1      40.256  31.423  33.850  1.00  0.00     0.173 A 
ATOM     82  C   UNL A   1      39.421  29.248  33.270  1.00  0.00     0.173 A 
ATOM     83  F   UNL A   1      41.275  32.257  34.113  1.00  0.00    -0.203 F 
ATOM     84  C   UNL A   1      38.970  31.951  33.762  1.00  0.00     0.198 A 
ATOM     85  C   UNL A   1      38.129  29.778  33.198  1.00  0.00     0.198 A 
ATOM     86  F   UNL A   1      39.605  27.959  32.949  1.00  0.00    -0.203 F 
ATOM     87  F   UNL A   1      38.774  33.265  33.941  1.00  0.00    -0.200 F 
ATOM     88  C   UNL A   1      37.912  31.134  33.407  1.00  0.00     0.200 A 
ATOM     89  F   UNL A   1      37.107  28.994  32.829  1.00  0.00    -0.200 F 
ATOM     90  F   UNL A   1      36.690  31.656  33.229  1.00  0.00    -0.200 F 
ENDBRANCH  56  80
BRANCH  68  91
ATOM     91  C   UNL A   1      45.187  24.455  33.668  1.00  0.00     0.064 A 
ATOM     92  C   UNL A   1      44.478  23.271  33.920  1.00  0.00     0.173 A 
ATOM     93  C   UNL A   1      46.576  24.392  33.963  1.00  0.00     0.173 A 
ATOM     94  F   UNL A   1      43.190  23.138  33.584  1.00  0.00    -0.203 F 
ATOM     95  C   UNL A   1      45.091  22.141  34.477  1.00  0.00     0.198 A 
ATOM     96  C   UNL A   1      47.195  23.246  34.458  1.00  0.00     0.198 A 
ATOM     97  F   UNL A   1      47.393  25.437  33.756  1.00  0.00    -0.203 F 
ATOM     98  F   UNL A   1      44.355  21.051  34.738  1.00  0.00    -0.200 F 
ATOM     99  C   UNL A   1      46.449  22.123  34.731  1.00  0.00     0.200 A 
ATOM    100  F   UNL A   1      48.523  23.235  34.647  1.00  0.00    -0.200 F 
ATOM    101  F   UNL A   1      47.037  21.022  35.217  1.00  0.00    -0.200 F 
ENDBRANCH  68  91
ENDBRANCH  42  43
ENDBRANCH  34  37
ENDBRANCH  32  33
ENDBRANCH  31  32
ENDBRANCH   1  31
TORSDOF 15
ENDMDL
MODEL 3
REMARK VINA RESULT:     -13.9      1.438      1.929
REMARK SMILES Cc1cccc(-n2c(C)cc(/C=N\c3ccc(O)c(C(=O)NCCCCNC(=O)c4ccc(-c5c6nc(c(-c7c(F)c(F)c(F)c(F)c7F)c7ccc([nH]7)c(-c7c(F)c(F)c(F)c(F)c7F)c7nc(c(-c8c(F)c(F)c(F)c(F)c8F)c8ccc5[nH]8)C=C7)C=C6)cc4)c3)c2C)c1
REMARK SMILES IDX 24 1 23 2 22 3 20 4 21 5 19 7 14 8 15 9 93 10 16 11 17 12
REMARK SMILES IDX 13 13 12 14 11 15 7 16 8 17 94 18 9 19 10 20 95 21 6 22 1 23
REMARK SMILES IDX 2 24 3 25 96 26 4 27 5 28 18 29 25 31 26 32 27 33 28 34
REMARK SMILES IDX 29 36 30 37 31 38 92 39 32 40 91 41 33 42 34 43 35 44 85 45
REMARK SMILES IDX 36 46 90 47 84 48 86 49 37 50 89 51 83 52 82 53 38 55 70 56
REMARK SMILES IDX 50 57 69 58 51 59 54 60 68 61 87 62 52 63 53 64 67 66 88 67
REMARK SMILES IDX 55 68 39 69 40 70 48 71 41 72 42 73 46 74 49 75 43 76 44 77
REMARK SMILES IDX 47 78 45 79 71 80 72 81 80 82 73 83 74 84 78 85 81 86 75 87
REMARK SMILES IDX 76 88 79 89 77 90 56 91 57 92 65 93 58 94 59 95 63 96 66 97
REMARK SMILES IDX 60 98 61 99 64 100 62 101
REMARK H PARENT 22 6 18 30 27 35 86 54 54 65
REMARK Flexibility Score: inf
ROOT
ATOM      1  C   UNL A   1      37.694  21.398  24.938  1.00  0.00     0.023 C 
ENDROOT
BRANCH   1   2
ATOM      2  C   UNL A   1      36.372  21.041  25.609  1.00  0.00     0.116 C 
BRANCH   2   3
ATOM      3  N   UNL A   1      35.641  22.132  26.236  1.00  0.00    -0.352 N 
ATOM      4  C   UNL A   1      34.434  22.727  25.924  1.00  0.00     0.255 C 
ATOM      5  O   UNL A   1      34.019  23.595  26.694  1.00  0.00    -0.269 OA
ATOM      6  H   UNL A   1      36.087  22.515  27.026  1.00  0.00     0.163 HD
BRANCH   4   7
ATOM      7  C   UNL A   1      33.631  22.391  24.710  1.00  0.00     0.083 A 
ATOM      8  C   UNL A   1      33.169  22.877  22.360  1.00  0.00     0.064 A 
ATOM      9  C   UNL A   1      32.288  21.799  22.306  1.00  0.00     0.032 A 
ATOM     10  C   UNL A   1      33.935  23.077  23.521  1.00  0.00     0.046 A 
ATOM     11  C   UNL A   1      31.942  21.143  23.481  1.00  0.00     0.049 A 
ATOM     12  C   UNL A   1      32.518  21.548  24.683  1.00  0.00     0.128 A 
BRANCH   8  13
ATOM     13  N   UNL A   1      33.272  23.789  21.308  1.00  0.00    -0.256 NA
ATOM     14  C   UNL A   1      33.005  25.059  21.442  1.00  0.00     0.121 C 
BRANCH  14  15
ATOM     15  C   UNL A   1      32.568  25.839  22.609  1.00  0.00     0.014 A 
ATOM     16  N   UNL A   1      32.323  27.318  24.310  1.00  0.00    -0.318 N 
ATOM     17  C   UNL A   1      31.344  26.351  24.471  1.00  0.00     0.021 A 
ATOM     18  C   UNL A   1      32.940  27.104  23.070  1.00  0.00     0.029 A 
ATOM     19  C   UNL A   1      30.284  26.416  25.518  1.00  0.00     0.065 C 
ATOM     20  C   UNL A   1      31.506  25.421  23.464  1.00  0.00     0.033 A 
ATOM     21  C   UNL A   1      33.877  28.098  22.484  1.00  0.00     0.065 C 
BRANCH  16  22
ATOM     22  C   UNL A   1      32.691  28.302  25.278  1.00  0.00     0.046 A 
ATOM     23  C   UNL A   1      31.409  31.682  26.504  1.00  0.00     0.044 C 
ATOM     24  C   UNL A   1      32.202  30.414  26.383  1.00  0.00    -0.049 A 
ATOM     25  C   UNL A   1      33.160  30.109  27.359  1.00  0.00     0.003 A 
ATOM     26  C   UNL A   1      31.972  29.506  25.337  1.00  0.00     0.030 A 
ATOM     27  C   UNL A   1      33.908  28.937  27.271  1.00  0.00     0.002 A 
ATOM     28  C   UNL A   1      33.683  28.041  26.227  1.00  0.00     0.026 A 
ENDBRANCH  16  22
ENDBRANCH  14  15
ENDBRANCH   8  13
BRANCH  12  29
ATOM     29  O   UNL A   1      31.794  21.223  25.801  1.00  0.00    -0.507 OA
ATOM     30  H   UNL A   1      31.009  20.716  25.720  1.00  0.00     0.293 HD
ENDBRANCH  12  29
ENDBRANCH   4   7
ENDBRANCH   2   3
ENDBRANCH   1   2
BRANCH   1  31
ATOM     31  C   UNL A   1      38.960  21.301  25.771  1.00  0.00     0.023 C 
BRANCH  31  32
ATOM     32  C   UNL A   1      39.420  22.578  26.453  1.00  0.00     0.116 C 
BRANCH  32  33
ATOM     33  N   UNL A   1      40.846  22.856  26.414  1.00  0.00    -0.352 N 
ATOM     34  C   UNL A   1      41.516  24.060  26.563  1.00  0.00     0.251 C 
ATOM     35  H   UNL A   1      41.422  22.072  26.258  1.00  0.00     0.163 HD
ATOM     36  O   UNL A   1      42.738  24.086  26.402  1.00  0.00    -0.269 OA
BRANCH  34  37
ATOM     37  C   UNL A   1      40.818  25.292  27.032  1.00  0.00     0.039 A 
ATOM     38  C   UNL A   1      40.811  26.425  26.201  1.00  0.00     0.014 A 
ATOM     39  C   UNL A   1      40.300  25.403  28.316  1.00  0.00     0.014 A 
ATOM     40  C   UNL A   1      40.504  27.681  26.733  1.00  0.00     0.010 A 
ATOM     41  C   UNL A   1      40.118  26.646  28.879  1.00  0.00     0.010 A 
ATOM     42  C   UNL A   1      40.267  27.792  28.101  1.00  0.00    -0.014 A 
BRANCH  42  43
ATOM     43  C   UNL A   1      40.285  29.037  28.853  1.00  0.00     0.031 A 
ATOM     44  C   UNL A   1      39.195  30.026  28.733  1.00  0.00     0.074 A 
ATOM     45  C   UNL A   1      41.201  29.172  29.837  1.00  0.00     0.049 A 
ATOM     46  N   UNL A   1      39.326  31.272  29.046  1.00  0.00    -0.248 NA
ATOM     47  C   UNL A   1      37.857  29.690  28.256  1.00  0.00     0.031 C 
ATOM     48  C   UNL A   1      41.192  30.137  30.934  1.00  0.00     0.029 A 
ATOM     49  N   UNL A   1      42.451  28.539  29.943  1.00  0.00    -0.354 N 
ATOM     50  C   UNL A   1      38.064  31.813  29.110  1.00  0.00     0.074 A 
ATOM     51  C   UNL A   1      37.188  30.812  28.543  1.00  0.00     0.031 C 
ATOM     52  C   UNL A   1      42.441  30.268  31.403  1.00  0.00     0.029 A 
ATOM     53  C   UNL A   1      43.307  29.499  30.529  1.00  0.00     0.049 A 
ATOM     54  H   UNL A   1      42.681  27.622  29.668  1.00  0.00     0.167 HD
ATOM     55  C   UNL A   1      37.864  32.986  29.773  1.00  0.00     0.037 A 
ATOM     56  C   UNL A   1      44.369  30.005  29.838  1.00  0.00     0.037 A 
ATOM     57  C   UNL A   1      39.105  33.505  30.339  1.00  0.00     0.049 A 
ATOM     58  C   UNL A   1      44.318  31.502  29.643  1.00  0.00     0.074 A 
ATOM     59  C   UNL A   1      39.641  33.465  31.617  1.00  0.00     0.029 A 
ATOM     60  N   UNL A   1      40.143  33.881  29.494  1.00  0.00    -0.354 N 
ATOM     61  N   UNL A   1      43.233  32.216  29.763  1.00  0.00    -0.248 NA
ATOM     62  C   UNL A   1      45.477  32.311  29.283  1.00  0.00     0.031 C 
ATOM     63  C   UNL A   1      41.012  33.804  31.536  1.00  0.00     0.029 A 
ATOM     64  C   UNL A   1      41.311  34.057  30.209  1.00  0.00     0.049 A 
ATOM     65  H   UNL A   1      40.058  34.004  28.521  1.00  0.00     0.167 HD
ATOM     66  C   UNL A   1      43.514  33.535  29.508  1.00  0.00     0.074 A 
ATOM     67  C   UNL A   1      44.938  33.543  29.231  1.00  0.00     0.031 C 
ATOM     68  C   UNL A   1      42.536  34.492  29.556  1.00  0.00     0.037 A 
BRANCH  55  69
ATOM     69  C   UNL A   1      36.487  33.476  30.146  1.00  0.00     0.064 A 
ATOM     70  C   UNL A   1      35.593  33.981  29.179  1.00  0.00     0.173 A 
ATOM     71  C   UNL A   1      36.014  33.508  31.470  1.00  0.00     0.173 A 
ATOM     72  F   UNL A   1      35.867  33.929  27.871  1.00  0.00    -0.203 F 
ATOM     73  C   UNL A   1      34.378  34.578  29.523  1.00  0.00     0.198 A 
ATOM     74  C   UNL A   1      34.822  34.151  31.822  1.00  0.00     0.198 A 
ATOM     75  F   UNL A   1      36.690  32.898  32.456  1.00  0.00    -0.203 F 
ATOM     76  F   UNL A   1      33.576  35.057  28.562  1.00  0.00    -0.200 F 
ATOM     77  C   UNL A   1      34.010  34.699  30.848  1.00  0.00     0.200 A 
ATOM     78  F   UNL A   1      34.474  34.247  33.113  1.00  0.00    -0.200 F 
ATOM     79  F   UNL A   1      32.873  35.322  31.181  1.00  0.00    -0.200 F 
ENDBRANCH  55  69
BRANCH  56  80
ATOM     80  C   UNL A   1      44.960  29.023  28.892  1.00  0.00     0.064 A 
ATOM     81  C   UNL A   1      45.843  28.056  29.414  1.00  0.00     0.173 A 
ATOM     82  C   UNL A   1      44.381  28.763  27.644  1.00  0.00     0.173 A 
ATOM     83  F   UNL A   1      46.418  28.255  30.611  1.00  0.00    -0.203 F 
ATOM     84  C   UNL A   1      46.040  26.833  28.776  1.00  0.00     0.198 A 
ATOM     85  C   UNL A   1      44.594  27.541  27.000  1.00  0.00     0.198 A 
ATOM     86  F   UNL A   1      43.515  29.632  27.105  1.00  0.00    -0.203 F 
ATOM     87  F   UNL A   1      46.791  25.889  29.360  1.00  0.00    -0.200 F 
ATOM     88  C   UNL A   1      45.392  26.565  27.584  1.00  0.00     0.200 A 
ATOM     89  F   UNL A   1      43.947  27.268  25.858  1.00  0.00    -0.200 F 
ATOM     90  F   UNL A   1      45.502  25.356  27.016  1.00  0.00    -0.200 F 
ENDBRANCH  56  80
BRANCH  68  91
ATOM     91  C   UNL A   1      42.627  35.942  29.115  1.00  0.00     0.064 A 
ATOM     92  C   UNL A   1      41.976  36.480  27.994  1.00  0.00     0.173 A 
ATOM     93  C   UNL A   1      43.297  36.895  29.930  1.00  0.00     0.173 A 
ATOM     94  F   UNL A   1      41.207  35.726  27.201  1.00  0.00    -0.203 F 
ATOM     95  C   UNL A   1      42.042  37.843  27.679  1.00  0.00     0.198 A 
ATOM     96  C   UNL A   1      43.307  38.260  29.648  1.00  0.00     0.198 A 
ATOM     97  F   UNL A   1      43.948  36.540  31.048  1.00  0.00    -0.203 F 
ATOM     98  F   UNL A   1      41.438  38.295  26.571  1.00  0.00    -0.200 F 
ATOM     99  C   UNL A   1      42.692  38.734  28.512  1.00  0.00     0.200 A 
ATOM    100  F   UNL A   1      43.900  39.111  30.498  1.00  0.00    -0.200 F 
ATOM    101  F   UNL A   1      42.707  40.043  28.231  1.00  0.00    -0.200 F 
ENDBRANCH  68  91
ENDBRANCH  42  43
ENDBRANCH  34  37
ENDBRANCH  32  33
ENDBRANCH  31  32
ENDBRANCH   1  31
TORSDOF 15
ENDMDL
