MODEL 1
REMARK VINA RESULT:     -12.6      0.000      0.000
REMARK SMILES C[C@@H]1CCCN(C(=O)N[C@]2(C(=O)NCCCCNC(=O)c3ccc(-c4c5nc(c(-c6c(F)c(F)c(F)c(F)c6F)c6ccc([nH]6)c(-c6c(F)c(F)c(F)c(F)c6F)c6nc(c(-c7c(F)c(F)c(F)c(F)c7F)c7ccc4[nH]7)C=C6)C=C5)cc3)CCCC[C@@H]2C)C1
REMARK SMILES IDX 15 1 14 2 13 3 11 4 12 5 10 7 84 8 88 9 85 10 87 11 89 12
REMARK SMILES IDX 86 13 9 14 7 15 8 16 6 18 1 19 2 20 3 21 90 22 4 23 5 24
REMARK SMILES IDX 16 25 17 26 18 27 19 28 20 30 21 31 22 32 83 33 23 34 82 35
REMARK SMILES IDX 24 36 25 37 26 38 76 39 27 40 81 41 75 42 77 43 28 44 80 45
REMARK SMILES IDX 74 46 73 47 29 49 61 50 41 51 60 52 42 53 45 54 59 55 78 56
REMARK SMILES IDX 43 57 44 58 58 60 79 61 46 62 30 63 31 64 39 65 32 66 33 67
REMARK SMILES IDX 37 68 40 69 34 70 35 71 38 72 36 73 62 74 63 75 71 76 64 77
REMARK SMILES IDX 65 78 69 79 72 80 66 81 67 82 70 83 68 84 47 85 48 86 56 87
REMARK SMILES IDX 49 88 50 89 54 90 57 91 51 92 52 93 55 94 53 95
REMARK H PARENT 13 6 9 17 18 29 77 48 45 59
REMARK Flexibility Score: inf
ROOT
ATOM      1  C   UNL A   1      33.236  29.219  24.120  1.00  0.00     0.023 C 
ENDROOT
BRANCH   1   2
ATOM      2  C   UNL A   1      33.502  27.748  23.779  1.00  0.00     0.116 C 
BRANCH   2   3
ATOM      3  N   UNL A   1      33.869  26.828  24.867  1.00  0.00    -0.354 N 
ATOM      4  C   UNL A   1      33.378  25.538  25.151  1.00  0.00     0.246 C 
ATOM      5  O   UNL A   1      33.867  24.957  26.126  1.00  0.00    -0.272 OA
ATOM      6  H   UNL A   1      34.557  27.162  25.486  1.00  0.00     0.163 HD
BRANCH   4   7
ATOM      7  C   UNL A   1      32.059  24.976  24.427  1.00  0.00     0.123 C 
ATOM      8  C   UNL A   1      31.253  23.667  24.694  1.00  0.00     0.039 C 
ATOM      9  C   UNL A   1      31.058  26.164  24.763  1.00  0.00     0.021 C 
ATOM     10  C   UNL A   1      30.653  23.472  26.064  1.00  0.00     0.003 C 
ATOM     11  C   UNL A   1      30.418  25.952  26.181  1.00  0.00     0.006 C 
ATOM     12  C   UNL A   1      29.974  26.451  23.731  1.00  0.00     0.011 C 
ATOM     13  C   UNL A   1      29.704  24.614  26.358  1.00  0.00     0.000 C 
BRANCH   7  14
ATOM     14  N   UNL A   1      32.515  24.732  23.058  1.00  0.00    -0.323 N 
ATOM     15  C   UNL A   1      33.232  23.663  22.571  1.00  0.00     0.318 C 
ATOM     16  O   UNL A   1      33.420  23.658  21.351  1.00  0.00    -0.249 OA
ATOM     17  H   UNL A   1      32.277  25.423  22.399  1.00  0.00     0.166 HD
BRANCH  15  18
ATOM     18  N   UNL A   1      33.907  22.791  23.425  1.00  0.00    -0.325 N 
ATOM     19  C   UNL A   1      37.388  22.862  25.033  1.00  0.00     0.009 C 
ATOM     20  C   UNL A   1      35.891  22.632  24.902  1.00  0.00     0.005 C 
ATOM     21  C   UNL A   1      35.564  21.184  25.261  1.00  0.00     0.007 C 
ATOM     22  C   UNL A   1      35.362  22.953  23.491  1.00  0.00     0.124 C 
ATOM     23  C   UNL A   1      34.066  20.991  25.209  1.00  0.00     0.022 C 
ATOM     24  C   UNL A   1      33.466  21.459  23.884  1.00  0.00     0.121 C 
ENDBRANCH  15  18
ENDBRANCH   7  14
ENDBRANCH   4   7
ENDBRANCH   2   3
ENDBRANCH   1   2
BRANCH   1  25
ATOM     25  C   UNL A   1      32.068  29.543  25.065  1.00  0.00     0.023 C 
BRANCH  25  26
ATOM     26  C   UNL A   1      32.368  29.916  26.522  1.00  0.00     0.116 C 
BRANCH  26  27
ATOM     27  N   UNL A   1      32.313  31.332  26.855  1.00  0.00    -0.352 N 
ATOM     28  C   UNL A   1      33.277  32.146  27.434  1.00  0.00     0.251 C 
ATOM     29  H   UNL A   1      31.463  31.780  26.639  1.00  0.00     0.163 HD
ATOM     30  O   UNL A   1      33.061  33.328  27.626  1.00  0.00    -0.269 OA
BRANCH  28  31
ATOM     31  C   UNL A   1      34.571  31.564  27.874  1.00  0.00     0.039 A 
ATOM     32  C   UNL A   1      35.663  32.409  28.079  1.00  0.00     0.014 A 
ATOM     33  C   UNL A   1      34.703  30.197  28.110  1.00  0.00     0.014 A 
ATOM     34  C   UNL A   1      36.837  31.902  28.649  1.00  0.00     0.010 A 
ATOM     35  C   UNL A   1      35.841  29.705  28.752  1.00  0.00     0.010 A 
ATOM     36  C   UNL A   1      36.912  30.559  29.056  1.00  0.00    -0.014 A 
BRANCH  36  37
ATOM     37  C   UNL A   1      38.071  30.058  29.848  1.00  0.00     0.031 A 
ATOM     38  C   UNL A   1      38.305  30.520  31.259  1.00  0.00     0.074 A 
ATOM     39  C   UNL A   1      38.967  29.236  29.262  1.00  0.00     0.049 A 
ATOM     40  N   UNL A   1      39.289  30.227  32.075  1.00  0.00    -0.248 NA
ATOM     41  C   UNL A   1      37.319  31.455  31.818  1.00  0.00     0.031 C 
ATOM     42  C   UNL A   1      38.900  28.761  27.880  1.00  0.00     0.029 A 
ATOM     43  N   UNL A   1      40.116  28.663  29.752  1.00  0.00    -0.354 N 
ATOM     44  C   UNL A   1      39.047  30.950  33.236  1.00  0.00     0.074 A 
ATOM     45  C   UNL A   1      37.853  31.735  32.999  1.00  0.00     0.031 C 
ATOM     46  C   UNL A   1      39.944  27.950  27.640  1.00  0.00     0.029 A 
ATOM     47  C   UNL A   1      40.773  27.873  28.839  1.00  0.00     0.049 A 
ATOM     48  H   UNL A   1      40.439  28.804  30.672  1.00  0.00     0.167 HD
ATOM     49  C   UNL A   1      39.740  30.945  34.400  1.00  0.00     0.037 A 
ATOM     50  C   UNL A   1      41.915  27.166  28.950  1.00  0.00     0.037 A 
ATOM     51  C   UNL A   1      40.914  30.147  34.646  1.00  0.00     0.049 A 
ATOM     52  C   UNL A   1      42.660  27.165  30.257  1.00  0.00     0.074 A 
ATOM     53  C   UNL A   1      41.645  30.025  35.816  1.00  0.00     0.029 A 
ATOM     54  N   UNL A   1      41.532  29.337  33.705  1.00  0.00    -0.354 N 
ATOM     55  N   UNL A   1      42.375  27.791  31.372  1.00  0.00    -0.248 NA
ATOM     56  C   UNL A   1      43.883  26.350  30.322  1.00  0.00     0.031 C 
ATOM     57  C   UNL A   1      42.728  29.173  35.570  1.00  0.00     0.029 A 
ATOM     58  C   UNL A   1      42.646  28.728  34.261  1.00  0.00     0.049 A 
ATOM     59  H   UNL A   1      41.224  29.214  32.778  1.00  0.00     0.167 HD
ATOM     60  C   UNL A   1      43.364  27.428  32.277  1.00  0.00     0.074 A 
ATOM     61  C   UNL A   1      44.250  26.516  31.586  1.00  0.00     0.031 C 
ATOM     62  C   UNL A   1      43.518  27.816  33.567  1.00  0.00     0.037 A 
BRANCH  49  63
ATOM     63  C   UNL A   1      39.241  31.831  35.504  1.00  0.00     0.064 A 
ATOM     64  C   UNL A   1      38.373  31.349  36.496  1.00  0.00     0.173 A 
ATOM     65  C   UNL A   1      39.648  33.171  35.584  1.00  0.00     0.173 A 
ATOM     66  F   UNL A   1      37.946  30.078  36.460  1.00  0.00    -0.203 F 
ATOM     67  C   UNL A   1      37.901  32.186  37.505  1.00  0.00     0.198 A 
ATOM     68  C   UNL A   1      39.199  33.997  36.613  1.00  0.00     0.198 A 
ATOM     69  F   UNL A   1      40.485  33.680  34.668  1.00  0.00    -0.203 F 
ATOM     70  F   UNL A   1      37.028  31.718  38.407  1.00  0.00    -0.200 F 
ATOM     71  C   UNL A   1      38.318  33.507  37.565  1.00  0.00     0.200 A 
ATOM     72  F   UNL A   1      39.614  35.269  36.678  1.00  0.00    -0.200 F 
ATOM     73  F   UNL A   1      37.864  34.310  38.536  1.00  0.00    -0.200 F 
ENDBRANCH  49  63
BRANCH  50  74
ATOM     74  C   UNL A   1      42.406  26.368  27.797  1.00  0.00     0.064 A 
ATOM     75  C   UNL A   1      41.907  25.081  27.550  1.00  0.00     0.173 A 
ATOM     76  C   UNL A   1      43.374  26.873  26.917  1.00  0.00     0.173 A 
ATOM     77  F   UNL A   1      40.995  24.548  28.376  1.00  0.00    -0.203 F 
ATOM     78  C   UNL A   1      42.369  24.324  26.475  1.00  0.00     0.198 A 
ATOM     79  C   UNL A   1      43.817  26.124  25.828  1.00  0.00     0.198 A 
ATOM     80  F   UNL A   1      43.880  28.100  27.107  1.00  0.00    -0.203 F 
ATOM     81  F   UNL A   1      41.904  23.082  26.286  1.00  0.00    -0.200 F 
ATOM     82  C   UNL A   1      43.318  24.848  25.612  1.00  0.00     0.200 A 
ATOM     83  F   UNL A   1      44.725  26.639  24.988  1.00  0.00    -0.200 F 
ATOM     84  F   UNL A   1      43.759  24.122  24.576  1.00  0.00    -0.200 F 
ENDBRANCH  50  74
BRANCH  62  85
ATOM     85  C   UNL A   1      44.672  27.232  34.329  1.00  0.00     0.064 A 
ATOM     86  C   UNL A   1      45.912  27.883  34.402  1.00  0.00     0.173 A 
ATOM     87  C   UNL A   1      44.520  26.028  35.035  1.00  0.00     0.173 A 
ATOM     88  F   UNL A   1      46.114  29.028  33.732  1.00  0.00    -0.203 F 
ATOM     89  C   UNL A   1      46.963  27.340  35.137  1.00  0.00     0.198 A 
ATOM     90  C   UNL A   1      45.564  25.503  35.790  1.00  0.00     0.198 A 
ATOM     91  F   UNL A   1      43.352  25.369  35.002  1.00  0.00    -0.203 F 
ATOM     92  F   UNL A   1      48.153  27.958  35.158  1.00  0.00    -0.200 F 
ATOM     93  C   UNL A   1      46.786  26.156  35.836  1.00  0.00     0.200 A 
ATOM     94  F   UNL A   1      45.388  24.365  36.475  1.00  0.00    -0.200 F 
ATOM     95  F   UNL A   1      47.796  25.640  36.549  1.00  0.00    -0.200 F 
ENDBRANCH  62  85
ENDBRANCH  36  37
ENDBRANCH  28  31
ENDBRANCH  26  27
ENDBRANCH  25  26
ENDBRANCH   1  25
TORSDOF 13
ENDMDL
MODEL 2
REMARK VINA RESULT:     -12.6      3.016      4.850
REMARK SMILES C[C@@H]1CCCN(C(=O)N[C@]2(C(=O)NCCCCNC(=O)c3ccc(-c4c5nc(c(-c6c(F)c(F)c(F)c(F)c6F)c6ccc([nH]6)c(-c6c(F)c(F)c(F)c(F)c6F)c6nc(c(-c7c(F)c(F)c(F)c(F)c7F)c7ccc4[nH]7)C=C6)C=C5)cc3)CCCC[C@@H]2C)C1
REMARK SMILES IDX 15 1 14 2 13 3 11 4 12 5 10 7 84 8 88 9 85 10 87 11 89 12
REMARK SMILES IDX 86 13 9 14 7 15 8 16 6 18 1 19 2 20 3 21 90 22 4 23 5 24
REMARK SMILES IDX 16 25 17 26 18 27 19 28 20 30 21 31 22 32 83 33 23 34 82 35
REMARK SMILES IDX 24 36 25 37 26 38 76 39 27 40 81 41 75 42 77 43 28 44 80 45
REMARK SMILES IDX 74 46 73 47 29 49 61 50 41 51 60 52 42 53 45 54 59 55 78 56
REMARK SMILES IDX 43 57 44 58 58 60 79 61 46 62 30 63 31 64 39 65 32 66 33 67
REMARK SMILES IDX 37 68 40 69 34 70 35 71 38 72 36 73 62 74 63 75 71 76 64 77
REMARK SMILES IDX 65 78 69 79 72 80 66 81 67 82 70 83 68 84 47 85 48 86 56 87
REMARK SMILES IDX 49 88 50 89 54 90 57 91 51 92 52 93 55 94 53 95
REMARK H PARENT 13 6 9 17 18 29 77 48 45 59
REMARK Flexibility Score: inf
ROOT
ATOM      1  C   UNL A   1      31.387  27.366  26.560  1.00  0.00     0.023 C 
ENDROOT
BRANCH   1   2
ATOM      2  C   UNL A   1      31.691  25.913  26.177  1.00  0.00     0.116 C 
BRANCH   2   3
ATOM      3  N   UNL A   1      30.879  25.276  25.128  1.00  0.00    -0.354 N 
ATOM      4  C   UNL A   1      31.266  24.360  24.129  1.00  0.00     0.246 C 
ATOM      5  O   UNL A   1      30.380  23.955  23.370  1.00  0.00    -0.272 OA
ATOM      6  H   UNL A   1      29.927  25.525  25.124  1.00  0.00     0.163 HD
BRANCH   4   7
ATOM      7  C   UNL A   1      32.817  24.085  23.814  1.00  0.00     0.123 C 
ATOM      8  C   UNL A   1      34.081  24.901  24.227  1.00  0.00     0.039 C 
ATOM      9  C   UNL A   1      32.975  22.673  24.529  1.00  0.00     0.021 C 
ATOM     10  C   UNL A   1      34.354  25.089  25.698  1.00  0.00     0.003 C 
ATOM     11  C   UNL A   1      33.278  22.868  26.057  1.00  0.00     0.006 C 
ATOM     12  C   UNL A   1      33.977  21.707  23.909  1.00  0.00     0.011 C 
ATOM     13  C   UNL A   1      34.501  23.732  26.353  1.00  0.00     0.000 C 
BRANCH   7  14
ATOM     14  N   UNL A   1      32.884  24.210  22.358  1.00  0.00    -0.323 N 
ATOM     15  C   UNL A   1      32.939  25.355  21.598  1.00  0.00     0.318 C 
ATOM     16  O   UNL A   1      33.073  25.183  20.383  1.00  0.00    -0.249 OA
ATOM     17  H   UNL A   1      32.890  23.363  21.857  1.00  0.00     0.166 HD
BRANCH  15  18
ATOM     18  N   UNL A   1      32.613  26.600  22.135  1.00  0.00    -0.325 N 
ATOM     19  C   UNL A   1      29.282  28.306  22.976  1.00  0.00     0.009 C 
ATOM     20  C   UNL A   1      30.735  27.884  23.121  1.00  0.00     0.005 C 
ATOM     21  C   UNL A   1      31.612  29.121  23.292  1.00  0.00     0.007 C 
ATOM     22  C   UNL A   1      31.234  27.051  21.925  1.00  0.00     0.124 C 
ATOM     23  C   UNL A   1      33.040  28.685  23.520  1.00  0.00     0.022 C 
ATOM     24  C   UNL A   1      33.530  27.715  22.446  1.00  0.00     0.121 C 
ENDBRANCH  15  18
ENDBRANCH   7  14
ENDBRANCH   4   7
ENDBRANCH   2   3
ENDBRANCH   1   2
BRANCH   1  25
ATOM     25  C   UNL A   1      32.253  28.025  27.644  1.00  0.00     0.023 C 
BRANCH  25  26
ATOM     26  C   UNL A   1      33.476  28.850  27.223  1.00  0.00     0.116 C 
BRANCH  26  27
ATOM     27  N   UNL A   1      33.548  30.212  27.732  1.00  0.00    -0.352 N 
ATOM     28  C   UNL A   1      34.624  30.899  28.278  1.00  0.00     0.251 C 
ATOM     29  H   UNL A   1      32.708  30.723  27.682  1.00  0.00     0.163 HD
ATOM     30  O   UNL A   1      34.505  32.055  28.639  1.00  0.00    -0.269 OA
BRANCH  28  31
ATOM     31  C   UNL A   1      35.922  30.206  28.476  1.00  0.00     0.039 A 
ATOM     32  C   UNL A   1      36.873  30.235  27.453  1.00  0.00     0.014 A 
ATOM     33  C   UNL A   1      36.216  29.553  29.671  1.00  0.00     0.014 A 
ATOM     34  C   UNL A   1      38.158  29.731  27.684  1.00  0.00     0.010 A 
ATOM     35  C   UNL A   1      37.518  29.123  29.932  1.00  0.00     0.010 A 
ATOM     36  C   UNL A   1      38.515  29.234  28.949  1.00  0.00    -0.014 A 
BRANCH  36  37
ATOM     37  C   UNL A   1      39.928  28.887  29.270  1.00  0.00     0.031 A 
ATOM     38  C   UNL A   1      40.802  29.833  30.046  1.00  0.00     0.074 A 
ATOM     39  C   UNL A   1      40.454  27.741  28.791  1.00  0.00     0.049 A 
ATOM     40  N   UNL A   1      42.067  29.716  30.370  1.00  0.00    -0.248 NA
ATOM     41  C   UNL A   1      40.181  31.087  30.494  1.00  0.00     0.031 C 
ATOM     42  C   UNL A   1      39.741  26.763  27.969  1.00  0.00     0.029 A 
ATOM     43  N   UNL A   1      41.715  27.208  28.917  1.00  0.00    -0.354 N 
ATOM     44  C   UNL A   1      42.396  30.884  31.046  1.00  0.00     0.074 A 
ATOM     45  C   UNL A   1      41.212  31.718  31.040  1.00  0.00     0.031 C 
ATOM     46  C   UNL A   1      40.562  25.739  27.687  1.00  0.00     0.029 A 
ATOM     47  C   UNL A   1      41.871  26.002  28.277  1.00  0.00     0.049 A 
ATOM     48  H   UNL A   1      42.439  27.649  29.418  1.00  0.00     0.167 HD
ATOM     49  C   UNL A   1      43.567  31.222  31.637  1.00  0.00     0.037 A 
ATOM     50  C   UNL A   1      42.946  25.195  28.174  1.00  0.00     0.037 A 
ATOM     51  C   UNL A   1      44.738  30.385  31.666  1.00  0.00     0.049 A 
ATOM     52  C   UNL A   1      44.232  25.586  28.850  1.00  0.00     0.074 A 
ATOM     53  C   UNL A   1      45.949  30.614  32.298  1.00  0.00     0.029 A 
ATOM     54  N   UNL A   1      44.848  29.157  31.031  1.00  0.00    -0.354 N 
ATOM     55  N   UNL A   1      44.504  26.657  29.554  1.00  0.00    -0.248 NA
ATOM     56  C   UNL A   1      45.359  24.650  28.724  1.00  0.00     0.031 C 
ATOM     57  C   UNL A   1      46.804  29.544  32.011  1.00  0.00     0.029 A 
ATOM     58  C   UNL A   1      46.112  28.626  31.239  1.00  0.00     0.049 A 
ATOM     59  H   UNL A   1      44.133  28.726  30.508  1.00  0.00     0.167 HD
ATOM     60  C   UNL A   1      45.819  26.513  29.976  1.00  0.00     0.074 A 
ATOM     61  C   UNL A   1      46.288  25.245  29.461  1.00  0.00     0.031 C 
ATOM     62  C   UNL A   1      46.566  27.358  30.727  1.00  0.00     0.037 A 
BRANCH  49  63
ATOM     63  C   UNL A   1      43.637  32.562  32.311  1.00  0.00     0.064 A 
ATOM     64  C   UNL A   1      44.053  33.711  31.620  1.00  0.00     0.173 A 
ATOM     65  C   UNL A   1      43.265  32.706  33.656  1.00  0.00     0.173 A 
ATOM     66  F   UNL A   1      44.428  33.626  30.335  1.00  0.00    -0.203 F 
ATOM     67  C   UNL A   1      44.132  34.945  32.262  1.00  0.00     0.198 A 
ATOM     68  C   UNL A   1      43.315  33.948  34.286  1.00  0.00     0.198 A 
ATOM     69  F   UNL A   1      42.849  31.643  34.361  1.00  0.00    -0.203 F 
ATOM     70  F   UNL A   1      44.588  36.015  31.596  1.00  0.00    -0.200 F 
ATOM     71  C   UNL A   1      43.759  35.063  33.591  1.00  0.00     0.200 A 
ATOM     72  F   UNL A   1      42.940  34.063  35.567  1.00  0.00    -0.200 F 
ATOM     73  F   UNL A   1      43.834  36.251  34.206  1.00  0.00    -0.200 F 
ENDBRANCH  49  63
BRANCH  50  74
ATOM     74  C   UNL A   1      42.842  23.915  27.426  1.00  0.00     0.064 A 
ATOM     75  C   UNL A   1      43.193  23.846  26.070  1.00  0.00     0.173 A 
ATOM     76  C   UNL A   1      42.397  22.739  28.047  1.00  0.00     0.173 A 
ATOM     77  F   UNL A   1      43.603  24.950  25.428  1.00  0.00    -0.203 F 
ATOM     78  C   UNL A   1      43.089  22.652  25.360  1.00  0.00     0.198 A 
ATOM     79  C   UNL A   1      42.317  21.540  27.342  1.00  0.00     0.198 A 
ATOM     80  F   UNL A   1      42.053  22.752  29.343  1.00  0.00    -0.203 F 
ATOM     81  F   UNL A   1      43.392  22.623  24.056  1.00  0.00    -0.200 F 
ATOM     82  C   UNL A   1      42.657  21.499  25.997  1.00  0.00     0.200 A 
ATOM     83  F   UNL A   1      41.912  20.425  27.964  1.00  0.00    -0.200 F 
ATOM     84  F   UNL A   1      42.562  20.349  25.316  1.00  0.00    -0.200 F 
ENDBRANCH  50  74
BRANCH  62  85
ATOM     85  C   UNL A   1      47.964  26.928  31.065  1.00  0.00     0.064 A 
ATOM     86  C   UNL A   1      48.232  26.077  32.148  1.00  0.00     0.173 A 
ATOM     87  C   UNL A   1      49.045  27.335  30.267  1.00  0.00     0.173 A 
ATOM     88  F   UNL A   1      47.236  25.673  32.951  1.00  0.00    -0.203 F 
ATOM     89  C   UNL A   1      49.532  25.666  32.431  1.00  0.00     0.198 A 
ATOM     90  C   UNL A   1      50.339  26.901  30.537  1.00  0.00     0.198 A 
ATOM     91  F   UNL A   1      48.842  28.145  29.218  1.00  0.00    -0.203 F 
ATOM     92  F   UNL A   1      49.770  24.887  33.495  1.00  0.00    -0.200 F 
ATOM     93  C   UNL A   1      50.582  26.071  31.621  1.00  0.00     0.200 A 
ATOM     94  F   UNL A   1      51.351  27.283  29.747  1.00  0.00    -0.200 F 
ATOM     95  F   UNL A   1      51.832  25.668  31.889  1.00  0.00    -0.200 F 
ENDBRANCH  62  85
ENDBRANCH  36  37
ENDBRANCH  28  31
ENDBRANCH  26  27
ENDBRANCH  25  26
ENDBRANCH   1  25
TORSDOF 13
ENDMDL
MODEL 3
REMARK VINA RESULT:     -12.6      0.465      7.355
REMARK SMILES C[C@@H]1CCCN(C(=O)N[C@]2(C(=O)NCCCCNC(=O)c3ccc(-c4c5nc(c(-c6c(F)c(F)c(F)c(F)c6F)c6ccc([nH]6)c(-c6c(F)c(F)c(F)c(F)c6F)c6nc(c(-c7c(F)c(F)c(F)c(F)c7F)c7ccc4[nH]7)C=C6)C=C5)cc3)CCCC[C@@H]2C)C1
REMARK SMILES IDX 15 1 14 2 13 3 11 4 12 5 10 7 84 8 88 9 85 10 87 11 89 12
REMARK SMILES IDX 86 13 9 14 7 15 8 16 6 18 1 19 2 20 3 21 90 22 4 23 5 24
REMARK SMILES IDX 16 25 17 26 18 27 19 28 20 30 21 31 22 32 83 33 23 34 82 35
REMARK SMILES IDX 24 36 25 37 26 38 76 39 27 40 81 41 75 42 77 43 28 44 80 45
REMARK SMILES IDX 74 46 73 47 29 49 61 50 41 51 60 52 42 53 45 54 59 55 78 56
REMARK SMILES IDX 43 57 44 58 58 60 79 61 46 62 30 63 31 64 39 65 32 66 33 67
REMARK SMILES IDX 37 68 40 69 34 70 35 71 38 72 36 73 62 74 63 75 71 76 64 77
REMARK SMILES IDX 65 78 69 79 72 80 66 81 67 82 70 83 68 84 47 85 48 86 56 87
REMARK SMILES IDX 49 88 50 89 54 90 57 91 51 92 52 93 55 94 53 95
REMARK H PARENT 13 6 9 17 18 29 77 48 45 59
REMARK Flexibility Score: inf
ROOT
ATOM      1  C   UNL A   1      33.141  28.958  23.747  1.00  0.00     0.023 C 
ENDROOT
BRANCH   1   2
ATOM      2  C   UNL A   1      33.531  27.482  23.604  1.00  0.00     0.116 C 
BRANCH   2   3
ATOM      3  N   UNL A   1      33.838  26.714  24.821  1.00  0.00    -0.354 N 
ATOM      4  C   UNL A   1      33.337  25.466  25.241  1.00  0.00     0.246 C 
ATOM      5  O   UNL A   1      33.771  25.021  26.309  1.00  0.00    -0.272 OA
ATOM      6  H   UNL A   1      34.489  27.132  25.429  1.00  0.00     0.163 HD
BRANCH   4   7
ATOM      7  C   UNL A   1      32.064  24.800  24.522  1.00  0.00     0.123 C 
ATOM      8  C   UNL A   1      31.312  23.473  24.849  1.00  0.00     0.039 C 
ATOM      9  C   UNL A   1      31.001  25.958  24.764  1.00  0.00     0.021 C 
ATOM     10  C   UNL A   1      30.687  23.331  26.214  1.00  0.00     0.003 C 
ATOM     11  C   UNL A   1      30.336  25.799  26.178  1.00  0.00     0.006 C 
ATOM     12  C   UNL A   1      29.932  26.132  23.692  1.00  0.00     0.011 C 
ATOM     13  C   UNL A   1      29.680  24.442  26.418  1.00  0.00     0.000 C 
BRANCH   7  14
ATOM     14  N   UNL A   1      32.565  24.498  23.181  1.00  0.00    -0.323 N 
ATOM     15  C   UNL A   1      33.394  23.474  22.786  1.00  0.00     0.318 C 
ATOM     16  O   UNL A   1      33.602  23.393  21.573  1.00  0.00    -0.249 OA
ATOM     17  H   UNL A   1      32.270  25.109  22.467  1.00  0.00     0.166 HD
BRANCH  15  18
ATOM     18  N   UNL A   1      34.139  22.744  23.713  1.00  0.00    -0.325 N 
ATOM     19  C   UNL A   1      37.524  23.342  25.412  1.00  0.00     0.009 C 
ATOM     20  C   UNL A   1      36.073  22.920  25.253  1.00  0.00     0.005 C 
ATOM     21  C   UNL A   1      35.913  21.467  25.693  1.00  0.00     0.007 C 
ATOM     22  C   UNL A   1      35.560  23.090  23.810  1.00  0.00     0.124 C 
ATOM     23  C   UNL A   1      34.453  21.086  25.610  1.00  0.00     0.022 C 
ATOM     24  C   UNL A   1      33.848  21.396  24.242  1.00  0.00     0.121 C 
ENDBRANCH  15  18
ENDBRANCH   7  14
ENDBRANCH   4   7
ENDBRANCH   2   3
ENDBRANCH   1   2
BRANCH   1  25
ATOM     25  C   UNL A   1      32.084  29.328  24.799  1.00  0.00     0.023 C 
BRANCH  25  26
ATOM     26  C   UNL A   1      32.540  29.699  26.216  1.00  0.00     0.116 C 
BRANCH  26  27
ATOM     27  N   UNL A   1      32.330  31.079  26.627  1.00  0.00    -0.352 N 
ATOM     28  C   UNL A   1      33.188  31.948  27.288  1.00  0.00     0.251 C 
ATOM     29  H   UNL A   1      31.447  31.453  26.404  1.00  0.00     0.163 HD
ATOM     30  O   UNL A   1      32.847  33.089  27.538  1.00  0.00    -0.269 OA
BRANCH  28  31
ATOM     31  C   UNL A   1      34.519  31.472  27.744  1.00  0.00     0.039 A 
ATOM     32  C   UNL A   1      35.539  32.400  27.957  1.00  0.00     0.014 A 
ATOM     33  C   UNL A   1      34.756  30.120  27.988  1.00  0.00     0.014 A 
ATOM     34  C   UNL A   1      36.742  31.990  28.542  1.00  0.00     0.010 A 
ATOM     35  C   UNL A   1      35.922  29.721  28.643  1.00  0.00     0.010 A 
ATOM     36  C   UNL A   1      36.919  30.658  28.955  1.00  0.00    -0.014 A 
BRANCH  36  37
ATOM     37  C   UNL A   1      38.105  30.253  29.761  1.00  0.00     0.031 A 
ATOM     38  C   UNL A   1      39.110  29.273  29.224  1.00  0.00     0.074 A 
ATOM     39  C   UNL A   1      38.238  30.714  31.023  1.00  0.00     0.049 A 
ATOM     40  N   UNL A   1      40.171  28.770  29.807  1.00  0.00    -0.248 NA
ATOM     41  C   UNL A   1      38.877  28.770  27.864  1.00  0.00     0.031 C 
ATOM     42  C   UNL A   1      37.304  31.619  31.694  1.00  0.00     0.029 A 
ATOM     43  N   UNL A   1      39.207  30.479  31.969  1.00  0.00    -0.354 N 
ATOM     44  C   UNL A   1      40.724  27.884  28.891  1.00  0.00     0.074 A 
ATOM     45  C   UNL A   1      39.852  27.879  27.735  1.00  0.00     0.031 C 
ATOM     46  C   UNL A   1      37.756  31.882  32.931  1.00  0.00     0.029 A 
ATOM     47  C   UNL A   1      38.993  31.140  33.155  1.00  0.00     0.049 A 
ATOM     48  H   UNL A   1      39.981  29.891  31.813  1.00  0.00     0.167 HD
ATOM     49  C   UNL A   1      41.864  27.159  28.992  1.00  0.00     0.037 A 
ATOM     50  C   UNL A   1      39.709  31.150  34.296  1.00  0.00     0.037 A 
ATOM     51  C   UNL A   1      42.746  27.180  30.131  1.00  0.00     0.049 A 
ATOM     52  C   UNL A   1      40.978  30.347  34.380  1.00  0.00     0.074 A 
ATOM     53  C   UNL A   1      43.958  26.531  30.296  1.00  0.00     0.029 A 
ATOM     54  N   UNL A   1      42.510  27.885  31.301  1.00  0.00    -0.354 N 
ATOM     55  N   UNL A   1      41.531  29.576  33.476  1.00  0.00    -0.248 NA
ATOM     56  C   UNL A   1      41.729  30.422  35.643  1.00  0.00     0.031 C 
ATOM     57  C   UNL A   1      44.434  26.811  31.583  1.00  0.00     0.029 A 
ATOM     58  C   UNL A   1      43.543  27.672  32.201  1.00  0.00     0.049 A 
ATOM     59  H   UNL A   1      41.723  28.454  31.468  1.00  0.00     0.167 HD
ATOM     60  C   UNL A   1      42.703  29.097  34.046  1.00  0.00     0.074 A 
ATOM     61  C   UNL A   1      42.790  29.674  35.371  1.00  0.00     0.031 C 
ATOM     62  C   UNL A   1      43.623  28.256  33.515  1.00  0.00     0.037 A 
BRANCH  49  63
ATOM     63  C   UNL A   1      42.227  26.280  27.830  1.00  0.00     0.064 A 
ATOM     64  C   UNL A   1      43.152  26.691  26.859  1.00  0.00     0.173 A 
ATOM     65  C   UNL A   1      41.660  25.004  27.696  1.00  0.00     0.173 A 
ATOM     66  F   UNL A   1      43.717  27.905  26.937  1.00  0.00    -0.203 F 
ATOM     67  C   UNL A   1      43.466  25.874  25.776  1.00  0.00     0.198 A 
ATOM     68  C   UNL A   1      42.000  24.176  26.628  1.00  0.00     0.198 A 
ATOM     69  F   UNL A   1      40.778  24.556  28.601  1.00  0.00    -0.203 F 
ATOM     70  F   UNL A   1      44.309  26.313  24.831  1.00  0.00    -0.200 F 
ATOM     71  C   UNL A   1      42.894  24.616  25.664  1.00  0.00     0.200 A 
ATOM     72  F   UNL A   1      41.457  22.955  26.529  1.00  0.00    -0.200 F 
ATOM     73  F   UNL A   1      43.198  23.831  24.622  1.00  0.00    -0.200 F 
ENDBRANCH  49  63
BRANCH  50  74
ATOM     74  C   UNL A   1      39.259  31.979  35.445  1.00  0.00     0.064 A 
ATOM     75  C   UNL A   1      39.631  33.327  35.546  1.00  0.00     0.173 A 
ATOM     76  C   UNL A   1      38.447  31.447  36.457  1.00  0.00     0.173 A 
ATOM     77  F   UNL A   1      40.424  33.873  34.613  1.00  0.00    -0.203 F 
ATOM     78  C   UNL A   1      39.220  34.108  36.625  1.00  0.00     0.198 A 
ATOM     79  C   UNL A   1      38.016  32.236  37.522  1.00  0.00     0.198 A 
ATOM     80  F   UNL A   1      38.060  30.164  36.404  1.00  0.00    -0.203 F 
ATOM     81  F   UNL A   1      39.624  35.381  36.717  1.00  0.00    -0.200 F 
ATOM     82  C   UNL A   1      38.409  33.564  37.608  1.00  0.00     0.200 A 
ATOM     83  F   UNL A   1      37.221  31.711  38.464  1.00  0.00    -0.200 F 
ATOM     84  F   UNL A   1      38.010  34.316  38.642  1.00  0.00    -0.200 F 
ENDBRANCH  50  74
BRANCH  62  85
ATOM     85  C   UNL A   1      44.825  27.931  34.353  1.00  0.00     0.064 A 
ATOM     86  C   UNL A   1      45.976  28.732  34.336  1.00  0.00     0.173 A 
ATOM     87  C   UNL A   1      44.807  26.826  35.220  1.00  0.00     0.173 A 
ATOM     88  F   UNL A   1      46.049  29.789  33.513  1.00  0.00    -0.203 F 
ATOM     89  C   UNL A   1      47.071  28.430  35.141  1.00  0.00     0.198 A 
ATOM     90  C   UNL A   1      45.893  26.543  36.043  1.00  0.00     0.198 A 
ATOM     91  F   UNL A   1      43.729  26.030  35.278  1.00  0.00    -0.203 F 
ATOM     92  F   UNL A   1      48.176  29.186  35.078  1.00  0.00    -0.200 F 
ATOM     93  C   UNL A   1      47.026  27.341  35.999  1.00  0.00     0.200 A 
ATOM     94  F   UNL A   1      45.843  25.498  36.880  1.00  0.00    -0.200 F 
ATOM     95  F   UNL A   1      48.078  27.056  36.779  1.00  0.00    -0.200 F 
ENDBRANCH  62  85
ENDBRANCH  36  37
ENDBRANCH  28  31
ENDBRANCH  26  27
ENDBRANCH  25  26
ENDBRANCH   1  25
TORSDOF 13
ENDMDL
