MODEL 1
REMARK VINA RESULT:     -14.1      0.000      0.000
REMARK SMILES O=C(NCCCCNC(=O)[C@H]1[C@H]2CC[C@H](CC2)[C@@H]1C(=O)Nc1ccc(Cc2ccncc2)cc1)c1ccc(-c2c3nc(c(-c4c(F)c(F)c(F)c(F)c4F)c4ccc([nH]4)c(-c4c(F)c(F)c(F)c(F)c4F)c4nc(c(-c5c(F)c(F)c(F)c(F)c5F)c5ccc2[nH]5)C=C4)C=C3)cc1
REMARK SMILES IDX 6 1 5 2 4 3 3 4 1 5 2 6 35 8 36 9 97 10 37 11 96 12 38 13
REMARK SMILES IDX 39 14 40 15 90 16 41 17 95 18 89 19 91 20 42 21 94 22 88 23
REMARK SMILES IDX 87 24 43 26 75 27 55 28 74 29 56 30 59 31 73 32 92 33 57 34
REMARK SMILES IDX 58 35 72 37 93 38 60 39 44 40 45 41 53 42 46 43 47 44 51 45
REMARK SMILES IDX 54 46 48 47 49 48 52 49 50 50 76 51 77 52 85 53 78 54 79 55
REMARK SMILES IDX 83 56 86 57 80 58 81 59 84 60 82 61 61 62 62 63 70 64 63 65
REMARK SMILES IDX 64 66 68 67 71 68 65 69 66 70 69 71 67 72 7 73 8 74 9 75
REMARK SMILES IDX 10 77 11 78 12 79 18 80 13 81 17 82 15 83 14 84 16 85 19 86
REMARK SMILES IDX 20 87 21 88 22 90 23 91 34 92 24 93 33 94 25 95 26 96 27 97
REMARK SMILES IDX 28 98 32 99 29 100 31 101 30 102
REMARK H PARENT 3 7 91 25 59 36 8 76 21 89
REMARK Flexibility Score: inf
ROOT
ATOM      1  C   UNL A   1      32.049  30.439  26.901  1.00  0.00     0.023 C 
ENDROOT
BRANCH   1   2
ATOM      2  C   UNL A   1      31.779  31.941  26.840  1.00  0.00     0.023 C 
BRANCH   2   3
ATOM      3  C   UNL A   1      32.841  32.829  27.479  1.00  0.00     0.116 C 
BRANCH   3   4
ATOM      4  N   UNL A   1      32.416  34.199  27.734  1.00  0.00    -0.352 N 
ATOM      5  O   UNL A   1      32.521  36.225  28.751  1.00  0.00    -0.269 OA
ATOM      6  C   UNL A   1      32.990  35.108  28.598  1.00  0.00     0.251 C 
ATOM      7  H   UNL A   1      31.629  34.511  27.233  1.00  0.00     0.163 HD
BRANCH   6   8
ATOM      8  C   UNL A   1      34.164  34.671  29.376  1.00  0.00     0.039 A 
ATOM      9  C   UNL A   1      35.434  34.719  28.800  1.00  0.00     0.014 A 
ATOM     10  C   UNL A   1      33.970  34.106  30.640  1.00  0.00     0.014 A 
ATOM     11  C   UNL A   1      36.480  34.050  29.415  1.00  0.00     0.010 A 
ATOM     12  C   UNL A   1      35.050  33.510  31.297  1.00  0.00     0.010 A 
ATOM     13  C   UNL A   1      36.302  33.439  30.669  1.00  0.00    -0.014 A 
BRANCH  13  14
ATOM     14  C   UNL A   1      37.465  32.775  31.305  1.00  0.00     0.031 A 
ATOM     15  C   UNL A   1      37.887  33.105  32.709  1.00  0.00     0.074 A 
ATOM     16  C   UNL A   1      38.090  31.804  30.615  1.00  0.00     0.049 A 
ATOM     17  N   UNL A   1      38.834  32.560  33.431  1.00  0.00    -0.248 NA
ATOM     18  C   UNL A   1      37.163  34.187  33.392  1.00  0.00     0.031 C 
ATOM     19  C   UNL A   1      37.772  31.418  29.238  1.00  0.00     0.029 A 
ATOM     20  N   UNL A   1      39.089  30.942  30.980  1.00  0.00    -0.354 N 
ATOM     21  C   UNL A   1      38.833  33.241  34.641  1.00  0.00     0.074 A 
ATOM     22  C   UNL A   1      37.802  34.254  34.553  1.00  0.00     0.031 C 
ATOM     23  C   UNL A   1      38.512  30.354  28.899  1.00  0.00     0.029 A 
ATOM     24  C   UNL A   1      39.397  30.022  30.008  1.00  0.00     0.049 A 
ATOM     25  H   UNL A   1      39.543  30.977  31.852  1.00  0.00     0.167 HD
ATOM     26  C   UNL A   1      39.619  33.032  35.725  1.00  0.00     0.037 A 
ATOM     27  C   UNL A   1      40.296  29.022  30.008  1.00  0.00     0.037 A 
ATOM     28  C   UNL A   1      40.632  32.010  35.809  1.00  0.00     0.049 A 
ATOM     29  C   UNL A   1      41.129  28.798  31.234  1.00  0.00     0.074 A 
ATOM     30  C   UNL A   1      41.482  31.719  36.863  1.00  0.00     0.029 A 
ATOM     31  N   UNL A   1      40.928  31.108  34.798  1.00  0.00    -0.354 N 
ATOM     32  N   UNL A   1      41.117  29.450  32.370  1.00  0.00    -0.248 NA
ATOM     33  C   UNL A   1      42.107  27.704  31.176  1.00  0.00     0.031 C 
ATOM     34  C   UNL A   1      42.310  30.658  36.479  1.00  0.00     0.029 A 
ATOM     35  C   UNL A   1      41.953  30.264  35.200  1.00  0.00     0.049 A 
ATOM     36  H   UNL A   1      40.479  31.073  33.923  1.00  0.00     0.167 HD
ATOM     37  C   UNL A   1      42.087  28.855  33.161  1.00  0.00     0.074 A 
ATOM     38  C   UNL A   1      42.640  27.760  32.388  1.00  0.00     0.031 C 
ATOM     39  C   UNL A   1      42.497  29.193  34.407  1.00  0.00     0.037 A 
BRANCH  26  40
ATOM     40  C   UNL A   1      39.426  33.928  36.915  1.00  0.00     0.064 A 
ATOM     41  C   UNL A   1      38.663  33.525  38.020  1.00  0.00     0.173 A 
ATOM     42  C   UNL A   1      40.067  35.175  36.978  1.00  0.00     0.173 A 
ATOM     43  F   UNL A   1      38.020  32.348  38.005  1.00  0.00    -0.203 F 
ATOM     44  C   UNL A   1      38.542  34.342  39.142  1.00  0.00     0.198 A 
ATOM     45  C   UNL A   1      39.961  35.980  38.110  1.00  0.00     0.198 A 
ATOM     46  F   UNL A   1      40.811  35.605  35.948  1.00  0.00    -0.203 F 
ATOM     47  F   UNL A   1      37.785  33.949  40.177  1.00  0.00    -0.200 F 
ATOM     48  C   UNL A   1      39.196  35.563  39.190  1.00  0.00     0.200 A 
ATOM     49  F   UNL A   1      40.602  37.155  38.157  1.00  0.00    -0.200 F 
ATOM     50  F   UNL A   1      39.088  36.343  40.275  1.00  0.00    -0.200 F 
ENDBRANCH  26  40
BRANCH  27  51
ATOM     51  C   UNL A   1      40.443  28.170  28.801  1.00  0.00     0.064 A 
ATOM     52  C   UNL A   1      39.731  26.971  28.670  1.00  0.00     0.173 A 
ATOM     53  C   UNL A   1      41.277  28.557  27.741  1.00  0.00     0.173 A 
ATOM     54  F   UNL A   1      38.934  26.553  29.664  1.00  0.00    -0.203 F 
ATOM     55  C   UNL A   1      39.855  26.186  27.527  1.00  0.00     0.198 A 
ATOM     56  C   UNL A   1      41.376  27.787  26.587  1.00  0.00     0.198 A 
ATOM     57  F   UNL A   1      41.971  29.702  27.818  1.00  0.00    -0.203 F 
ATOM     58  F   UNL A   1      39.191  25.026  27.438  1.00  0.00    -0.200 F 
ATOM     59  C   UNL A   1      40.671  26.598  26.482  1.00  0.00     0.200 A 
ATOM     60  F   UNL A   1      42.150  28.200  25.574  1.00  0.00    -0.200 F 
ATOM     61  F   UNL A   1      40.778  25.849  25.377  1.00  0.00    -0.200 F 
ENDBRANCH  27  51
BRANCH  39  62
ATOM     62  C   UNL A   1      43.603  28.370  34.994  1.00  0.00     0.064 A 
ATOM     63  C   UNL A   1      43.332  27.181  35.688  1.00  0.00     0.173 A 
ATOM     64  C   UNL A   1      44.939  28.770  34.864  1.00  0.00     0.173 A 
ATOM     65  F   UNL A   1      42.067  26.768  35.853  1.00  0.00    -0.203 F 
ATOM     66  C   UNL A   1      44.361  26.440  36.260  1.00  0.00     0.198 A 
ATOM     67  C   UNL A   1      45.968  28.013  35.416  1.00  0.00     0.198 A 
ATOM     68  F   UNL A   1      45.247  29.898  34.205  1.00  0.00    -0.203 F 
ATOM     69  F   UNL A   1      44.077  25.336  36.966  1.00  0.00    -0.200 F 
ATOM     70  C   UNL A   1      45.678  26.854  36.121  1.00  0.00     0.200 A 
ATOM     71  F   UNL A   1      47.240  28.410  35.277  1.00  0.00    -0.200 F 
ATOM     72  F   UNL A   1      46.667  26.143  36.680  1.00  0.00    -0.200 F 
ENDBRANCH  39  62
ENDBRANCH  13  14
ENDBRANCH   6   8
ENDBRANCH   3   4
ENDBRANCH   2   3
ENDBRANCH   1   2
BRANCH   1  73
ATOM     73  C   UNL A   1      33.432  30.016  26.431  1.00  0.00     0.116 C 
BRANCH  73  74
ATOM     74  N   UNL A   1      33.674  28.598  26.551  1.00  0.00    -0.356 N 
ATOM     75  C   UNL A   1      33.314  27.546  25.771  1.00  0.00     0.224 C 
ATOM     76  H   UNL A   1      34.198  28.347  27.346  1.00  0.00     0.163 HD
ATOM     77  O   UNL A   1      34.055  26.565  25.887  1.00  0.00    -0.275 OA
BRANCH  75  78
ATOM     78  C   UNL A   1      32.034  27.511  24.890  1.00  0.00     0.094 C 
ATOM     79  C   UNL A   1      31.991  28.559  23.745  1.00  0.00     0.002 C 
ATOM     80  C   UNL A   1      31.887  26.089  24.245  1.00  0.00     0.094 C 
ATOM     81  C   UNL A   1      33.281  28.435  22.914  1.00  0.00     0.005 C 
ATOM     82  C   UNL A   1      30.783  28.299  22.824  1.00  0.00     0.005 C 
ATOM     83  C   UNL A   1      32.123  26.206  22.694  1.00  0.00     0.002 C 
ATOM     84  C   UNL A   1      33.450  26.973  22.467  1.00  0.00     0.005 C 
ATOM     85  C   UNL A   1      31.029  27.039  22.001  1.00  0.00     0.005 C 
BRANCH  80  86
ATOM     86  C   UNL A   1      30.561  25.375  24.580  1.00  0.00     0.228 C 
ATOM     87  O   UNL A   1      29.524  25.988  24.843  1.00  0.00    -0.274 OA
ATOM     88  N   UNL A   1      30.456  24.018  24.447  1.00  0.00    -0.326 N 
ATOM     89  H   UNL A   1      29.543  23.692  24.277  1.00  0.00     0.169 HD
BRANCH  88  90
ATOM     90  C   UNL A   1      31.429  23.019  24.510  1.00  0.00     0.041 A 
ATOM     91  C   UNL A   1      32.008  22.738  25.746  1.00  0.00     0.026 A 
ATOM     92  C   UNL A   1      31.922  22.398  23.366  1.00  0.00     0.026 A 
ATOM     93  C   UNL A   1      32.990  21.750  25.852  1.00  0.00     0.006 A 
ATOM     94  C   UNL A   1      32.928  21.431  23.465  1.00  0.00     0.006 A 
ATOM     95  C   UNL A   1      33.449  21.074  24.713  1.00  0.00    -0.043 A 
BRANCH  95  96
ATOM     96  C   UNL A   1      34.494  19.988  24.828  1.00  0.00     0.071 C 
BRANCH  96  97
ATOM     97  C   UNL A   1      33.937  18.588  24.777  1.00  0.00    -0.041 A 
ATOM     98  C   UNL A   1      34.445  17.646  23.875  1.00  0.00     0.024 A 
ATOM     99  C   UNL A   1      32.903  18.194  25.630  1.00  0.00     0.024 A 
ATOM    100  C   UNL A   1      33.906  16.369  23.868  1.00  0.00     0.111 A 
ATOM    101  C   UNL A   1      32.434  16.890  25.550  1.00  0.00     0.111 A 
ATOM    102  N   UNL A   1      32.913  15.968  24.689  1.00  0.00    -0.265 NA
ENDBRANCH  96  97
ENDBRANCH  95  96
ENDBRANCH  88  90
ENDBRANCH  80  86
ENDBRANCH  75  78
ENDBRANCH  73  74
ENDBRANCH   1  73
TORSDOF 15
ENDMDL
MODEL 2
REMARK VINA RESULT:     -14.1      0.168      1.606
REMARK SMILES O=C(NCCCCNC(=O)[C@H]1[C@H]2CC[C@H](CC2)[C@@H]1C(=O)Nc1ccc(Cc2ccncc2)cc1)c1ccc(-c2c3nc(c(-c4c(F)c(F)c(F)c(F)c4F)c4ccc([nH]4)c(-c4c(F)c(F)c(F)c(F)c4F)c4nc(c(-c5c(F)c(F)c(F)c(F)c5F)c5ccc2[nH]5)C=C4)C=C3)cc1
REMARK SMILES IDX 6 1 5 2 4 3 3 4 1 5 2 6 35 8 36 9 97 10 37 11 96 12 38 13
REMARK SMILES IDX 39 14 40 15 90 16 41 17 95 18 89 19 91 20 42 21 94 22 88 23
REMARK SMILES IDX 87 24 43 26 75 27 55 28 74 29 56 30 59 31 73 32 92 33 57 34
REMARK SMILES IDX 58 35 72 37 93 38 60 39 44 40 45 41 53 42 46 43 47 44 51 45
REMARK SMILES IDX 54 46 48 47 49 48 52 49 50 50 76 51 77 52 85 53 78 54 79 55
REMARK SMILES IDX 83 56 86 57 80 58 81 59 84 60 82 61 61 62 62 63 70 64 63 65
REMARK SMILES IDX 64 66 68 67 71 68 65 69 66 70 69 71 67 72 7 73 8 74 9 75
REMARK SMILES IDX 10 77 11 78 12 79 18 80 13 81 17 82 15 83 14 84 16 85 19 86
REMARK SMILES IDX 20 87 21 88 22 90 23 91 34 92 24 93 33 94 25 95 26 96 27 97
REMARK SMILES IDX 28 98 32 99 29 100 31 101 30 102
REMARK H PARENT 3 7 91 25 59 36 8 76 21 89
REMARK Flexibility Score: inf
ROOT
ATOM      1  C   UNL A   1      32.067  30.404  26.940  1.00  0.00     0.023 C 
ENDROOT
BRANCH   1   2
ATOM      2  C   UNL A   1      31.763  31.899  26.868  1.00  0.00     0.023 C 
BRANCH   2   3
ATOM      3  C   UNL A   1      32.839  32.820  27.433  1.00  0.00     0.116 C 
BRANCH   3   4
ATOM      4  N   UNL A   1      32.391  34.176  27.719  1.00  0.00    -0.352 N 
ATOM      5  O   UNL A   1      32.462  36.179  28.784  1.00  0.00    -0.269 OA
ATOM      6  C   UNL A   1      32.950  35.075  28.604  1.00  0.00     0.251 C 
ATOM      7  H   UNL A   1      31.598  34.487  27.225  1.00  0.00     0.163 HD
BRANCH   6   8
ATOM      8  C   UNL A   1      34.131  34.639  29.373  1.00  0.00     0.039 A 
ATOM      9  C   UNL A   1      35.405  34.777  28.821  1.00  0.00     0.014 A 
ATOM     10  C   UNL A   1      33.945  33.989  30.595  1.00  0.00     0.014 A 
ATOM     11  C   UNL A   1      36.471  34.116  29.409  1.00  0.00     0.010 A 
ATOM     12  C   UNL A   1      35.041  33.399  31.232  1.00  0.00     0.010 A 
ATOM     13  C   UNL A   1      36.303  33.420  30.620  1.00  0.00    -0.014 A 
BRANCH  13  14
ATOM     14  C   UNL A   1      37.485  32.768  31.232  1.00  0.00     0.031 A 
ATOM     15  C   UNL A   1      37.940  33.110  32.622  1.00  0.00     0.074 A 
ATOM     16  C   UNL A   1      38.098  31.794  30.534  1.00  0.00     0.049 A 
ATOM     17  N   UNL A   1      38.908  32.577  33.325  1.00  0.00    -0.248 NA
ATOM     18  C   UNL A   1      37.227  34.194  33.315  1.00  0.00     0.031 C 
ATOM     19  C   UNL A   1      37.748  31.395  29.169  1.00  0.00     0.029 A 
ATOM     20  N   UNL A   1      39.111  30.940  30.881  1.00  0.00    -0.354 N 
ATOM     21  C   UNL A   1      38.933  33.267  34.529  1.00  0.00     0.074 A 
ATOM     22  C   UNL A   1      37.895  34.274  34.459  1.00  0.00     0.031 C 
ATOM     23  C   UNL A   1      38.485  30.332  28.819  1.00  0.00     0.029 A 
ATOM     24  C   UNL A   1      39.399  30.014  29.909  1.00  0.00     0.049 A 
ATOM     25  H   UNL A   1      39.586  30.985  31.741  1.00  0.00     0.167 HD
ATOM     26  C   UNL A   1      39.747  33.070  35.595  1.00  0.00     0.037 A 
ATOM     27  C   UNL A   1      40.303  29.019  29.894  1.00  0.00     0.037 A 
ATOM     28  C   UNL A   1      40.768  32.055  35.662  1.00  0.00     0.049 A 
ATOM     29  C   UNL A   1      41.168  28.809  31.100  1.00  0.00     0.074 A 
ATOM     30  C   UNL A   1      41.645  31.776  36.696  1.00  0.00     0.029 A 
ATOM     31  N   UNL A   1      41.044  31.146  34.650  1.00  0.00    -0.354 N 
ATOM     32  N   UNL A   1      41.180  29.470  32.232  1.00  0.00    -0.248 NA
ATOM     33  C   UNL A   1      42.149  27.720  31.026  1.00  0.00     0.031 C 
ATOM     34  C   UNL A   1      42.469  30.716  36.299  1.00  0.00     0.029 A 
ATOM     35  C   UNL A   1      42.082  30.311  35.033  1.00  0.00     0.049 A 
ATOM     36  H   UNL A   1      40.573  31.102  33.787  1.00  0.00     0.167 HD
ATOM     37  C   UNL A   1      42.173  28.886  33.002  1.00  0.00     0.074 A 
ATOM     38  C   UNL A   1      42.712  27.788  32.225  1.00  0.00     0.031 C 
ATOM     39  C   UNL A   1      42.613  29.237  34.235  1.00  0.00     0.037 A 
BRANCH  26  40
ATOM     40  C   UNL A   1      39.579  33.975  36.782  1.00  0.00     0.064 A 
ATOM     41  C   UNL A   1      38.813  33.593  37.892  1.00  0.00     0.173 A 
ATOM     42  C   UNL A   1      40.247  35.208  36.837  1.00  0.00     0.173 A 
ATOM     43  F   UNL A   1      38.145  32.430  37.884  1.00  0.00    -0.203 F 
ATOM     44  C   UNL A   1      38.715  34.417  39.012  1.00  0.00     0.198 A 
ATOM     45  C   UNL A   1      40.163  36.019  37.967  1.00  0.00     0.198 A 
ATOM     46  F   UNL A   1      40.996  35.618  35.802  1.00  0.00    -0.203 F 
ATOM     47  F   UNL A   1      37.954  34.043  40.051  1.00  0.00    -0.200 F 
ATOM     48  C   UNL A   1      39.396  35.624  39.051  1.00  0.00     0.200 A 
ATOM     49  F   UNL A   1      40.830  37.181  38.007  1.00  0.00    -0.200 F 
ATOM     50  F   UNL A   1      39.309  36.409  40.135  1.00  0.00    -0.200 F 
ENDBRANCH  26  40
BRANCH  27  51
ATOM     51  C   UNL A   1      40.425  28.158  28.691  1.00  0.00     0.064 A 
ATOM     52  C   UNL A   1      41.241  28.530  27.614  1.00  0.00     0.173 A 
ATOM     53  C   UNL A   1      39.750  26.930  28.610  1.00  0.00     0.173 A 
ATOM     54  F   UNL A   1      41.892  29.701  27.641  1.00  0.00    -0.203 F 
ATOM     55  C   UNL A   1      41.369  27.709  26.497  1.00  0.00     0.198 A 
ATOM     56  C   UNL A   1      39.905  26.098  27.505  1.00  0.00     0.198 A 
ATOM     57  F   UNL A   1      38.965  26.528  29.620  1.00  0.00    -0.203 F 
ATOM     58  F   UNL A   1      42.128  28.101  25.465  1.00  0.00    -0.200 F 
ATOM     59  C   UNL A   1      40.708  26.490  26.447  1.00  0.00     0.200 A 
ATOM     60  F   UNL A   1      39.279  24.913  27.472  1.00  0.00    -0.200 F 
ATOM     61  F   UNL A   1      40.844  25.695  25.377  1.00  0.00    -0.200 F 
ENDBRANCH  27  51
BRANCH  39  62
ATOM     62  C   UNL A   1      43.737  28.424  34.800  1.00  0.00     0.064 A 
ATOM     63  C   UNL A   1      45.075  28.800  34.604  1.00  0.00     0.173 A 
ATOM     64  C   UNL A   1      43.479  27.263  35.541  1.00  0.00     0.173 A 
ATOM     65  F   UNL A   1      45.370  29.894  33.887  1.00  0.00    -0.203 F 
ATOM     66  C   UNL A   1      46.114  28.022  35.102  1.00  0.00     0.198 A 
ATOM     67  C   UNL A   1      44.521  26.500  36.059  1.00  0.00     0.198 A 
ATOM     68  F   UNL A   1      42.216  26.865  35.758  1.00  0.00    -0.203 F 
ATOM     69  F   UNL A   1      47.386  28.369  34.858  1.00  0.00    -0.200 F 
ATOM     70  C   UNL A   1      45.838  26.875  35.832  1.00  0.00     0.200 A 
ATOM     71  F   UNL A   1      44.253  25.395  36.768  1.00  0.00    -0.200 F 
ATOM     72  F   UNL A   1      46.841  26.122  36.304  1.00  0.00    -0.200 F 
ENDBRANCH  39  62
ENDBRANCH  13  14
ENDBRANCH   6   8
ENDBRANCH   3   4
ENDBRANCH   2   3
ENDBRANCH   1   2
BRANCH   1  73
ATOM     73  C   UNL A   1      33.471  30.014  26.505  1.00  0.00     0.116 C 
BRANCH  73  74
ATOM     74  N   UNL A   1      33.733  28.597  26.600  1.00  0.00    -0.356 N 
ATOM     75  C   UNL A   1      33.370  27.552  25.811  1.00  0.00     0.224 C 
ATOM     76  H   UNL A   1      34.274  28.341  27.382  1.00  0.00     0.163 HD
ATOM     77  O   UNL A   1      34.126  26.579  25.899  1.00  0.00    -0.275 OA
BRANCH  75  78
ATOM     78  C   UNL A   1      32.075  27.516  24.952  1.00  0.00     0.094 C 
ATOM     79  C   UNL A   1      32.019  28.551  23.797  1.00  0.00     0.002 C 
ATOM     80  C   UNL A   1      31.910  26.087  24.325  1.00  0.00     0.094 C 
ATOM     81  C   UNL A   1      33.293  28.412  22.945  1.00  0.00     0.005 C 
ATOM     82  C   UNL A   1      30.793  28.288  22.900  1.00  0.00     0.005 C 
ATOM     83  C   UNL A   1      32.120  26.186  22.770  1.00  0.00     0.002 C 
ATOM     84  C   UNL A   1      33.447  26.944  22.511  1.00  0.00     0.005 C 
ATOM     85  C   UNL A   1      31.019  27.018  22.087  1.00  0.00     0.005 C 
BRANCH  80  86
ATOM     86  C   UNL A   1      30.586  25.385  24.690  1.00  0.00     0.228 C 
ATOM     87  O   UNL A   1      29.561  26.006  24.978  1.00  0.00    -0.274 OA
ATOM     88  N   UNL A   1      30.467  24.028  24.559  1.00  0.00    -0.326 N 
ATOM     89  H   UNL A   1      29.547  23.710  24.410  1.00  0.00     0.169 HD
BRANCH  88  90
ATOM     90  C   UNL A   1      31.433  23.021  24.599  1.00  0.00     0.041 A 
ATOM     91  C   UNL A   1      32.026  22.723  25.824  1.00  0.00     0.026 A 
ATOM     92  C   UNL A   1      31.906  22.408  23.442  1.00  0.00     0.026 A 
ATOM     93  C   UNL A   1      33.002  21.726  25.906  1.00  0.00     0.006 A 
ATOM     94  C   UNL A   1      32.905  21.432  23.517  1.00  0.00     0.006 A 
ATOM     95  C   UNL A   1      33.440  21.058  24.755  1.00  0.00    -0.043 A 
BRANCH  95  96
ATOM     96  C   UNL A   1      34.478  19.964  24.844  1.00  0.00     0.071 C 
BRANCH  96  97
ATOM     97  C   UNL A   1      33.911  18.568  24.770  1.00  0.00    -0.041 A 
ATOM     98  C   UNL A   1      32.867  18.172  25.614  1.00  0.00     0.024 A 
ATOM     99  C   UNL A   1      34.410  17.636  23.856  1.00  0.00     0.024 A 
ATOM    100  C   UNL A   1      32.373  16.881  25.507  1.00  0.00     0.111 A 
ATOM    101  C   UNL A   1      33.845  16.369  23.821  1.00  0.00     0.111 A 
ATOM    102  N   UNL A   1      32.837  15.971  24.625  1.00  0.00    -0.265 NA
ENDBRANCH  96  97
ENDBRANCH  95  96
ENDBRANCH  88  90
ENDBRANCH  80  86
ENDBRANCH  75  78
ENDBRANCH  73  74
ENDBRANCH   1  73
TORSDOF 15
ENDMDL
MODEL 3
REMARK VINA RESULT:     -14.0      0.386      6.969
REMARK SMILES O=C(NCCCCNC(=O)[C@H]1[C@H]2CC[C@H](CC2)[C@@H]1C(=O)Nc1ccc(Cc2ccncc2)cc1)c1ccc(-c2c3nc(c(-c4c(F)c(F)c(F)c(F)c4F)c4ccc([nH]4)c(-c4c(F)c(F)c(F)c(F)c4F)c4nc(c(-c5c(F)c(F)c(F)c(F)c5F)c5ccc2[nH]5)C=C4)C=C3)cc1
REMARK SMILES IDX 6 1 5 2 4 3 3 4 1 5 2 6 35 8 36 9 97 10 37 11 96 12 38 13
REMARK SMILES IDX 39 14 40 15 90 16 41 17 95 18 89 19 91 20 42 21 94 22 88 23
REMARK SMILES IDX 87 24 43 26 75 27 55 28 74 29 56 30 59 31 73 32 92 33 57 34
REMARK SMILES IDX 58 35 72 37 93 38 60 39 44 40 45 41 53 42 46 43 47 44 51 45
REMARK SMILES IDX 54 46 48 47 49 48 52 49 50 50 76 51 77 52 85 53 78 54 79 55
REMARK SMILES IDX 83 56 86 57 80 58 81 59 84 60 82 61 61 62 62 63 70 64 63 65
REMARK SMILES IDX 64 66 68 67 71 68 65 69 66 70 69 71 67 72 7 73 8 74 9 75
REMARK SMILES IDX 10 77 11 78 12 79 18 80 13 81 17 82 15 83 14 84 16 85 19 86
REMARK SMILES IDX 20 87 21 88 22 90 23 91 34 92 24 93 33 94 25 95 26 96 27 97
REMARK SMILES IDX 28 98 32 99 29 100 31 101 30 102
REMARK H PARENT 3 7 91 25 59 36 8 76 21 89
REMARK Flexibility Score: inf
ROOT
ATOM      1  C   UNL A   1      31.960  30.528  26.884  1.00  0.00     0.023 C 
ENDROOT
BRANCH   1   2
ATOM      2  C   UNL A   1      31.700  32.032  26.881  1.00  0.00     0.023 C 
BRANCH   2   3
ATOM      3  C   UNL A   1      32.832  32.900  27.418  1.00  0.00     0.116 C 
BRANCH   3   4
ATOM      4  N   UNL A   1      32.459  34.278  27.707  1.00  0.00    -0.352 N 
ATOM      5  O   UNL A   1      32.600  36.253  28.817  1.00  0.00    -0.269 OA
ATOM      6  C   UNL A   1      33.022  35.121  28.642  1.00  0.00     0.251 C 
ATOM      7  H   UNL A   1      31.719  34.650  27.175  1.00  0.00     0.163 HD
BRANCH   6   8
ATOM      8  C   UNL A   1      34.125  34.593  29.469  1.00  0.00     0.039 A 
ATOM      9  C   UNL A   1      35.429  34.612  28.976  1.00  0.00     0.014 A 
ATOM     10  C   UNL A   1      33.827  33.977  30.687  1.00  0.00     0.014 A 
ATOM     11  C   UNL A   1      36.406  33.867  29.618  1.00  0.00     0.010 A 
ATOM     12  C   UNL A   1      34.835  33.301  31.378  1.00  0.00     0.010 A 
ATOM     13  C   UNL A   1      36.121  33.204  30.826  1.00  0.00    -0.014 A 
BRANCH  13  14
ATOM     14  C   UNL A   1      37.212  32.458  31.498  1.00  0.00     0.031 A 
ATOM     15  C   UNL A   1      37.977  31.377  30.789  1.00  0.00     0.074 A 
ATOM     16  C   UNL A   1      37.555  32.832  32.745  1.00  0.00     0.049 A 
ATOM     17  N   UNL A   1      39.005  30.685  31.213  1.00  0.00    -0.248 NA
ATOM     18  C   UNL A   1      37.533  31.017  29.434  1.00  0.00     0.031 C 
ATOM     19  C   UNL A   1      36.865  33.857  33.531  1.00  0.00     0.029 A 
ATOM     20  N   UNL A   1      38.583  32.428  33.554  1.00  0.00    -0.354 N 
ATOM     21  C   UNL A   1      39.320  29.800  30.191  1.00  0.00     0.074 A 
ATOM     22  C   UNL A   1      38.362  30.027  29.129  1.00  0.00     0.031 C 
ATOM     23  C   UNL A   1      37.528  34.050  34.679  1.00  0.00     0.029 A 
ATOM     24  C   UNL A   1      38.651  33.122  34.737  1.00  0.00     0.049 A 
ATOM     25  H   UNL A   1      39.212  31.710  33.313  1.00  0.00     0.167 HD
ATOM     26  C   UNL A   1      40.320  28.887  30.146  1.00  0.00     0.037 A 
ATOM     27  C   UNL A   1      39.519  33.021  35.758  1.00  0.00     0.037 A 
ATOM     28  C   UNL A   1      41.278  28.679  31.202  1.00  0.00     0.049 A 
ATOM     29  C   UNL A   1      40.633  32.021  35.665  1.00  0.00     0.074 A 
ATOM     30  C   UNL A   1      42.328  27.779  31.253  1.00  0.00     0.029 A 
ATOM     31  N   UNL A   1      41.305  29.389  32.394  1.00  0.00    -0.354 N 
ATOM     32  N   UNL A   1      40.917  31.191  34.692  1.00  0.00    -0.248 NA
ATOM     33  C   UNL A   1      41.543  31.940  36.814  1.00  0.00     0.031 C 
ATOM     34  C   UNL A   1      42.974  27.925  32.487  1.00  0.00     0.029 A 
ATOM     35  C   UNL A   1      42.348  28.941  33.190  1.00  0.00     0.049 A 
ATOM     36  H   UNL A   1      40.675  30.104  32.640  1.00  0.00     0.167 HD
ATOM     37  C   UNL A   1      42.030  30.481  35.111  1.00  0.00     0.074 A 
ATOM     38  C   UNL A   1      42.397  31.010  36.410  1.00  0.00     0.031 C 
ATOM     39  C   UNL A   1      42.683  29.471  34.486  1.00  0.00     0.037 A 
BRANCH  26  40
ATOM     40  C   UNL A   1      40.433  28.031  28.917  1.00  0.00     0.064 A 
ATOM     41  C   UNL A   1      39.743  26.816  28.805  1.00  0.00     0.173 A 
ATOM     42  C   UNL A   1      41.186  28.464  27.815  1.00  0.00     0.173 A 
ATOM     43  F   UNL A   1      39.020  26.352  29.835  1.00  0.00    -0.203 F 
ATOM     44  C   UNL A   1      39.810  26.061  27.636  1.00  0.00     0.198 A 
ATOM     45  C   UNL A   1      41.233  27.717  26.640  1.00  0.00     0.198 A 
ATOM     46  F   UNL A   1      41.862  29.621  27.871  1.00  0.00    -0.203 F 
ATOM     47  F   UNL A   1      39.164  24.888  27.560  1.00  0.00    -0.200 F 
ATOM     48  C   UNL A   1      40.547  26.515  26.553  1.00  0.00     0.200 A 
ATOM     49  F   UNL A   1      41.938  28.162  25.591  1.00  0.00    -0.200 F 
ATOM     50  F   UNL A   1      40.599  25.792  25.425  1.00  0.00    -0.200 F 
ENDBRANCH  26  40
BRANCH  27  51
ATOM     51  C   UNL A   1      39.355  33.893  36.948  1.00  0.00     0.064 A 
ATOM     52  C   UNL A   1      38.672  33.444  38.086  1.00  0.00     0.173 A 
ATOM     53  C   UNL A   1      39.907  35.182  36.980  1.00  0.00     0.173 A 
ATOM     54  F   UNL A   1      38.114  32.225  38.095  1.00  0.00    -0.203 F 
ATOM     55  C   UNL A   1      38.539  34.258  39.208  1.00  0.00     0.198 A 
ATOM     56  C   UNL A   1      39.799  35.982  38.114  1.00  0.00     0.198 A 
ATOM     57  F   UNL A   1      40.577  35.651  35.917  1.00  0.00    -0.203 F 
ATOM     58  F   UNL A   1      37.852  33.820  40.272  1.00  0.00    -0.200 F 
ATOM     59  C   UNL A   1      39.110  35.523  39.224  1.00  0.00     0.200 A 
ATOM     60  F   UNL A   1      40.370  37.195  38.131  1.00  0.00    -0.200 F 
ATOM     61  F   UNL A   1      38.993  36.298  40.311  1.00  0.00    -0.200 F 
ENDBRANCH  27  51
BRANCH  39  62
ATOM     62  C   UNL A   1      43.847  28.874  35.215  1.00  0.00     0.064 A 
ATOM     63  C   UNL A   1      43.672  27.818  36.123  1.00  0.00     0.173 A 
ATOM     64  C   UNL A   1      45.145  29.360  35.009  1.00  0.00     0.173 A 
ATOM     65  F   UNL A   1      42.445  27.334  36.366  1.00  0.00    -0.203 F 
ATOM     66  C   UNL A   1      44.753  27.293  36.823  1.00  0.00     0.198 A 
ATOM     67  C   UNL A   1      46.228  28.815  35.692  1.00  0.00     0.198 A 
ATOM     68  F   UNL A   1      45.362  30.366  34.148  1.00  0.00    -0.203 F 
ATOM     69  F   UNL A   1      44.557  26.322  37.725  1.00  0.00    -0.200 F 
ATOM     70  C   UNL A   1      46.031  27.788  36.605  1.00  0.00     0.200 A 
ATOM     71  F   UNL A   1      47.463  29.290  35.478  1.00  0.00    -0.200 F 
ATOM     72  F   UNL A   1      47.070  27.287  37.286  1.00  0.00    -0.200 F 
ENDBRANCH  39  62
ENDBRANCH  13  14
ENDBRANCH   6   8
ENDBRANCH   3   4
ENDBRANCH   2   3
ENDBRANCH   1   2
BRANCH   1  73
ATOM     73  C   UNL A   1      33.381  30.122  26.526  1.00  0.00     0.116 C 
BRANCH  73  74
ATOM     74  N   UNL A   1      33.634  28.709  26.674  1.00  0.00    -0.356 N 
ATOM     75  C   UNL A   1      33.294  27.640  25.907  1.00  0.00     0.224 C 
ATOM     76  H   UNL A   1      34.147  28.475  27.481  1.00  0.00     0.163 HD
ATOM     77  O   UNL A   1      34.042  26.668  26.051  1.00  0.00    -0.275 OA
BRANCH  75  78
ATOM     78  C   UNL A   1      32.028  27.580  25.006  1.00  0.00     0.094 C 
ATOM     79  C   UNL A   1      31.992  28.613  23.848  1.00  0.00     0.002 C 
ATOM     80  C   UNL A   1      31.908  26.148  24.377  1.00  0.00     0.094 C 
ATOM     81  C   UNL A   1      33.295  28.494  23.038  1.00  0.00     0.005 C 
ATOM     82  C   UNL A   1      30.800  28.327  22.912  1.00  0.00     0.005 C 
ATOM     83  C   UNL A   1      32.167  26.248  22.829  1.00  0.00     0.002 C 
ATOM     84  C   UNL A   1      33.488  27.028  22.612  1.00  0.00     0.005 C 
ATOM     85  C   UNL A   1      31.074  27.060  22.109  1.00  0.00     0.005 C 
BRANCH  80  86
ATOM     86  C   UNL A   1      30.585  25.423  24.701  1.00  0.00     0.228 C 
ATOM     87  O   UNL A   1      29.543  26.027  24.962  1.00  0.00    -0.274 OA
ATOM     88  N   UNL A   1      30.490  24.066  24.559  1.00  0.00    -0.326 N 
ATOM     89  H   UNL A   1      29.580  23.734  24.383  1.00  0.00     0.169 HD
BRANCH  88  90
ATOM     90  C   UNL A   1      31.470  23.073  24.623  1.00  0.00     0.041 A 
ATOM     91  C   UNL A   1      31.756  22.352  23.466  1.00  0.00     0.026 A 
ATOM     92  C   UNL A   1      32.064  22.702  25.825  1.00  0.00     0.026 A 
ATOM     93  C   UNL A   1      32.724  21.345  23.489  1.00  0.00     0.006 A 
ATOM     94  C   UNL A   1      33.011  21.673  25.858  1.00  0.00     0.006 A 
ATOM     95  C   UNL A   1      33.375  21.006  24.683  1.00  0.00    -0.043 A 
BRANCH  95  96
ATOM     96  C   UNL A   1      34.440  19.934  24.706  1.00  0.00     0.071 C 
BRANCH  96  97
ATOM     97  C   UNL A   1      33.898  18.527  24.717  1.00  0.00    -0.041 A 
ATOM     98  C   UNL A   1      32.799  18.187  25.515  1.00  0.00     0.024 A 
ATOM     99  C   UNL A   1      34.476  17.527  23.930  1.00  0.00     0.024 A 
ATOM    100  C   UNL A   1      32.332  16.882  25.489  1.00  0.00     0.111 A 
ATOM    101  C   UNL A   1      33.932  16.251  23.970  1.00  0.00     0.111 A 
ATOM    102  N   UNL A   1      32.873  15.906  24.730  1.00  0.00    -0.265 NA
ENDBRANCH  96  97
ENDBRANCH  95  96
ENDBRANCH  88  90
ENDBRANCH  80  86
ENDBRANCH  75  78
ENDBRANCH  73  74
ENDBRANCH   1  73
TORSDOF 15
ENDMDL
