MODEL 1
REMARK VINA RESULT:     -13.2      0.000      0.000
REMARK SMILES O=C(Cn1nc(C(=O)NCCCCNC(=O)c2ccc(-c3c4nc(c(-c5c(F)c(F)c(F)c(F)c5F)c5ccc([nH]5)c(-c5c(F)c(F)c(F)c(F)c5F)c5nc(c(-c6c(F)c(F)c(F)c(F)c6F)c6ccc3[nH]6)C=C5)C=C4)cc2)c2ccccc2c1=O)NCc1ccc(F)cc1
REMARK SMILES IDX 10 1 9 2 7 3 8 4 6 6 4 7 5 8 86 9 85 10 87 11 80 12 84 13
REMARK SMILES IDX 81 14 83 15 82 16 3 17 2 18 1 19 88 20 89 22 90 23 91 24
REMARK SMILES IDX 96 25 92 26 95 27 93 28 94 29 11 30 12 31 13 32 14 33 15 34
REMARK SMILES IDX 16 36 17 37 18 38 79 39 19 40 78 41 20 42 21 43 22 44 72 45
REMARK SMILES IDX 23 46 77 47 71 48 73 49 24 50 76 51 70 52 69 53 25 55 57 56
REMARK SMILES IDX 37 57 56 58 38 59 41 60 55 61 74 62 39 63 40 64 54 66 75 67
REMARK SMILES IDX 42 68 26 69 27 70 35 71 28 72 29 73 33 74 36 75 30 76 31 77
REMARK SMILES IDX 34 78 32 79 58 80 59 81 67 82 60 83 61 84 65 85 68 86 62 87
REMARK SMILES IDX 63 88 66 89 64 90 43 91 44 92 52 93 45 94 46 95 50 96 53 97
REMARK SMILES IDX 47 98 48 99 51 100 49 101
REMARK H PARENT 9 5 88 21 14 35 73 54 41 65
REMARK Flexibility Score: inf
ROOT
ATOM      1  C   UNL A   1      33.344  28.623  23.125  1.00  0.00     0.116 C 
ENDROOT
BRANCH   1   2
ATOM      2  N   UNL A   1      33.702  27.492  22.283  1.00  0.00    -0.351 N 
ATOM      3  C   UNL A   1      33.443  26.142  22.387  1.00  0.00     0.272 C 
ATOM      4  O   UNL A   1      33.702  25.439  21.416  1.00  0.00    -0.267 OA
ATOM      5  H   UNL A   1      34.230  27.736  21.489  1.00  0.00     0.163 HD
BRANCH   3   6
ATOM      6  C   UNL A   1      32.858  25.516  23.670  1.00  0.00     0.156 A 
ATOM      7  N   UNL A   1      30.981  25.253  25.023  1.00  0.00    -0.219 N 
ATOM      8  N   UNL A   1      31.581  25.664  23.861  1.00  0.00    -0.163 NA
ATOM      9  C   UNL A   1      31.693  24.687  26.074  1.00  0.00     0.275 A 
ATOM     10  C   UNL A   1      33.088  24.313  25.793  1.00  0.00     0.051 A 
ATOM     11  O   UNL A   1      31.225  24.474  27.188  1.00  0.00    -0.267 OA
ATOM     12  C   UNL A   1      33.714  24.776  24.635  1.00  0.00     0.020 A 
ATOM     13  C   UNL A   1      33.778  23.519  26.722  1.00  0.00     0.014 A 
ATOM     14  C   UNL A   1      35.071  24.480  24.450  1.00  0.00     0.011 A 
ATOM     15  C   UNL A   1      35.115  23.199  26.506  1.00  0.00     0.001 A 
ATOM     16  C   UNL A   1      35.764  23.694  25.380  1.00  0.00     0.001 A 
BRANCH   7  17
ATOM     17  C   UNL A   1      29.676  25.873  25.284  1.00  0.00     0.248 C 
BRANCH  17  18
ATOM     18  C   UNL A   1      29.060  26.733  24.182  1.00  0.00     0.242 C 
ATOM     19  O   UNL A   1      27.889  26.566  23.837  1.00  0.00    -0.273 OA
ATOM     20  N   UNL A   1      29.826  27.770  23.710  1.00  0.00    -0.350 N 
ATOM     21  H   UNL A   1      30.614  28.066  24.222  1.00  0.00     0.163 HD
BRANCH  20  22
ATOM     22  C   UNL A   1      29.494  28.432  22.472  1.00  0.00     0.151 C 
BRANCH  22  23
ATOM     23  C   UNL A   1      29.201  29.898  22.647  1.00  0.00    -0.029 A 
ATOM     24  C   UNL A   1      29.511  30.544  23.855  1.00  0.00     0.008 A 
ATOM     25  C   UNL A   1      28.680  30.653  21.583  1.00  0.00     0.008 A 
ATOM     26  C   UNL A   1      29.303  31.917  23.993  1.00  0.00     0.039 A 
ATOM     27  C   UNL A   1      28.471  32.025  21.725  1.00  0.00     0.039 A 
ATOM     28  C   UNL A   1      28.786  32.644  22.929  1.00  0.00     0.123 A 
ATOM     29  F   UNL A   1      28.596  33.963  23.061  1.00  0.00    -0.207 F 
ENDBRANCH  22  23
ENDBRANCH  20  22
ENDBRANCH  17  18
ENDBRANCH   7  17
ENDBRANCH   3   6
ENDBRANCH   1   2
BRANCH   1  30
ATOM     30  C   UNL A   1      33.983  28.567  24.508  1.00  0.00     0.023 C 
BRANCH  30  31
ATOM     31  C   UNL A   1      33.004  28.632  25.679  1.00  0.00     0.023 C 
BRANCH  31  32
ATOM     32  C   UNL A   1      33.634  28.730  27.063  1.00  0.00     0.116 C 
BRANCH  32  33
ATOM     33  N   UNL A   1      33.640  30.077  27.619  1.00  0.00    -0.352 N 
ATOM     34  C   UNL A   1      34.666  30.742  28.253  1.00  0.00     0.251 C 
ATOM     35  H   UNL A   1      32.798  30.578  27.531  1.00  0.00     0.163 HD
ATOM     36  O   UNL A   1      34.492  31.856  28.734  1.00  0.00    -0.269 OA
BRANCH  34  37
ATOM     37  C   UNL A   1      35.972  30.068  28.399  1.00  0.00     0.039 A 
ATOM     38  C   UNL A   1      36.297  29.410  29.587  1.00  0.00     0.014 A 
ATOM     39  C   UNL A   1      36.911  30.181  27.371  1.00  0.00     0.014 A 
ATOM     40  C   UNL A   1      37.616  29.043  29.823  1.00  0.00     0.010 A 
ATOM     41  C   UNL A   1      38.217  29.733  27.579  1.00  0.00     0.010 A 
ATOM     42  C   UNL A   1      38.595  29.219  28.831  1.00  0.00    -0.014 A 
BRANCH  42  43
ATOM     43  C   UNL A   1      40.013  28.898  29.136  1.00  0.00     0.031 A 
ATOM     44  C   UNL A   1      40.828  29.794  30.032  1.00  0.00     0.074 A 
ATOM     45  C   UNL A   1      40.549  27.760  28.656  1.00  0.00     0.049 A 
ATOM     46  N   UNL A   1      42.078  29.674  30.406  1.00  0.00    -0.248 NA
ATOM     47  C   UNL A   1      40.154  30.981  30.581  1.00  0.00     0.031 C 
ATOM     48  C   UNL A   1      39.853  26.800  27.800  1.00  0.00     0.029 A 
ATOM     49  N   UNL A   1      41.791  27.207  28.839  1.00  0.00    -0.354 N 
ATOM     50  C   UNL A   1      42.343  30.773  31.211  1.00  0.00     0.074 A 
ATOM     51  C   UNL A   1      41.134  31.567  31.255  1.00  0.00     0.031 C 
ATOM     52  C   UNL A   1      40.657  25.752  27.574  1.00  0.00     0.029 A 
ATOM     53  C   UNL A   1      41.946  25.996  28.213  1.00  0.00     0.049 A 
ATOM     54  H   UNL A   1      42.502  27.637  29.367  1.00  0.00     0.167 HD
ATOM     55  C   UNL A   1      43.489  31.086  31.865  1.00  0.00     0.037 A 
ATOM     56  C   UNL A   1      43.014  25.178  28.145  1.00  0.00     0.037 A 
ATOM     57  C   UNL A   1      44.682  30.281  31.843  1.00  0.00     0.049 A 
ATOM     58  C   UNL A   1      44.285  25.571  28.841  1.00  0.00     0.074 A 
ATOM     59  C   UNL A   1      45.888  30.508  32.483  1.00  0.00     0.029 A 
ATOM     60  N   UNL A   1      44.819  29.089  31.145  1.00  0.00    -0.354 N 
ATOM     61  N   UNL A   1      44.527  26.621  29.587  1.00  0.00    -0.248 NA
ATOM     62  C   UNL A   1      45.434  24.673  28.675  1.00  0.00     0.031 C 
ATOM     63  C   UNL A   1      46.766  29.475  32.143  1.00  0.00     0.029 A 
ATOM     64  C   UNL A   1      46.095  28.580  31.327  1.00  0.00     0.049 A 
ATOM     65  H   UNL A   1      44.114  28.669  30.601  1.00  0.00     0.167 HD
ATOM     66  C   UNL A   1      45.850  26.506  29.987  1.00  0.00     0.074 A 
ATOM     67  C   UNL A   1      46.354  25.273  29.420  1.00  0.00     0.031 C 
ATOM     68  C   UNL A   1      46.583  27.352  30.752  1.00  0.00     0.037 A 
BRANCH  55  69
ATOM     69  C   UNL A   1      43.518  32.360  32.659  1.00  0.00     0.064 A 
ATOM     70  C   UNL A   1      43.839  33.589  32.065  1.00  0.00     0.173 A 
ATOM     71  C   UNL A   1      43.151  32.360  34.014  1.00  0.00     0.173 A 
ATOM     72  F   UNL A   1      44.208  33.641  30.776  1.00  0.00    -0.203 F 
ATOM     73  C   UNL A   1      43.805  34.771  32.802  1.00  0.00     0.198 A 
ATOM     74  C   UNL A   1      43.094  33.547  34.741  1.00  0.00     0.198 A 
ATOM     75  F   UNL A   1      42.829  31.212  34.628  1.00  0.00    -0.203 F 
ATOM     76  F   UNL A   1      44.145  35.930  32.222  1.00  0.00    -0.200 F 
ATOM     77  C   UNL A   1      43.423  34.750  34.135  1.00  0.00     0.200 A 
ATOM     78  F   UNL A   1      42.713  33.526  36.025  1.00  0.00    -0.200 F 
ATOM     79  F   UNL A   1      43.376  35.891  34.838  1.00  0.00    -0.200 F 
ENDBRANCH  55  69
BRANCH  56  80
ATOM     80  C   UNL A   1      42.910  23.905  27.388  1.00  0.00     0.064 A 
ATOM     81  C   UNL A   1      43.277  23.842  26.038  1.00  0.00     0.173 A 
ATOM     82  C   UNL A   1      42.482  22.722  28.007  1.00  0.00     0.173 A 
ATOM     83  F   UNL A   1      43.673  24.952  25.399  1.00  0.00    -0.203 F 
ATOM     84  C   UNL A   1      43.220  22.641  25.335  1.00  0.00     0.198 A 
ATOM     85  C   UNL A   1      42.451  21.517  27.311  1.00  0.00     0.198 A 
ATOM     86  F   UNL A   1      42.124  22.732  29.299  1.00  0.00    -0.203 F 
ATOM     87  F   UNL A   1      43.553  22.611  24.037  1.00  0.00    -0.200 F 
ATOM     88  C   UNL A   1      42.817  21.478  25.974  1.00  0.00     0.200 A 
ATOM     89  F   UNL A   1      42.078  20.393  27.937  1.00  0.00    -0.200 F 
ATOM     90  F   UNL A   1      42.780  20.320  25.302  1.00  0.00    -0.200 F 
ENDBRANCH  56  80
BRANCH  68  91
ATOM     91  C   UNL A   1      48.006  26.970  31.029  1.00  0.00     0.064 A 
ATOM     92  C   UNL A   1      49.061  27.464  30.248  1.00  0.00     0.173 A 
ATOM     93  C   UNL A   1      48.323  26.146  32.120  1.00  0.00     0.173 A 
ATOM     94  F   UNL A   1      48.806  28.243  29.187  1.00  0.00    -0.203 F 
ATOM     95  C   UNL A   1      50.381  27.132  30.540  1.00  0.00     0.198 A 
ATOM     96  C   UNL A   1      49.645  25.838  32.423  1.00  0.00     0.198 A 
ATOM     97  F   UNL A   1      47.348  25.655  32.902  1.00  0.00    -0.203 F 
ATOM     98  F   UNL A   1      51.371  27.584  29.758  1.00  0.00    -0.200 F 
ATOM     99  C   UNL A   1      50.673  26.327  31.631  1.00  0.00     0.200 A 
ATOM    100  F   UNL A   1      49.927  25.070  33.485  1.00  0.00    -0.200 F 
ATOM    101  F   UNL A   1      51.945  26.017  31.915  1.00  0.00    -0.200 F 
ENDBRANCH  68  91
ENDBRANCH  42  43
ENDBRANCH  34  37
ENDBRANCH  32  33
ENDBRANCH  31  32
ENDBRANCH  30  31
ENDBRANCH   1  30
TORSDOF 15
ENDMDL
MODEL 2
REMARK VINA RESULT:     -13.1      3.719      6.515
REMARK SMILES O=C(Cn1nc(C(=O)NCCCCNC(=O)c2ccc(-c3c4nc(c(-c5c(F)c(F)c(F)c(F)c5F)c5ccc([nH]5)c(-c5c(F)c(F)c(F)c(F)c5F)c5nc(c(-c6c(F)c(F)c(F)c(F)c6F)c6ccc3[nH]6)C=C5)C=C4)cc2)c2ccccc2c1=O)NCc1ccc(F)cc1
REMARK SMILES IDX 10 1 9 2 7 3 8 4 6 6 4 7 5 8 86 9 85 10 87 11 80 12 84 13
REMARK SMILES IDX 81 14 83 15 82 16 3 17 2 18 1 19 88 20 89 22 90 23 91 24
REMARK SMILES IDX 96 25 92 26 95 27 93 28 94 29 11 30 12 31 13 32 14 33 15 34
REMARK SMILES IDX 16 36 17 37 18 38 79 39 19 40 78 41 20 42 21 43 22 44 72 45
REMARK SMILES IDX 23 46 77 47 71 48 73 49 24 50 76 51 70 52 69 53 25 55 57 56
REMARK SMILES IDX 37 57 56 58 38 59 41 60 55 61 74 62 39 63 40 64 54 66 75 67
REMARK SMILES IDX 42 68 26 69 27 70 35 71 28 72 29 73 33 74 36 75 30 76 31 77
REMARK SMILES IDX 34 78 32 79 58 80 59 81 67 82 60 83 61 84 65 85 68 86 62 87
REMARK SMILES IDX 63 88 66 89 64 90 43 91 44 92 52 93 45 94 46 95 50 96 53 97
REMARK SMILES IDX 47 98 48 99 51 100 49 101
REMARK H PARENT 9 5 88 21 14 35 73 54 41 65
REMARK Flexibility Score: inf
ROOT
ATOM      1  C   UNL A   1      33.170  29.817  26.016  1.00  0.00     0.116 C 
ENDROOT
BRANCH   1   2
ATOM      2  N   UNL A   1      33.624  29.384  24.703  1.00  0.00    -0.351 N 
ATOM      3  C   UNL A   1      32.974  28.765  23.657  1.00  0.00     0.272 C 
ATOM      4  O   UNL A   1      33.564  28.698  22.583  1.00  0.00    -0.267 OA
ATOM      5  H   UNL A   1      34.575  29.568  24.529  1.00  0.00     0.163 HD
BRANCH   3   6
ATOM      6  C   UNL A   1      31.562  28.163  23.810  1.00  0.00     0.156 A 
ATOM      7  N   UNL A   1      30.274  26.419  24.661  1.00  0.00    -0.219 N 
ATOM      8  N   UNL A   1      31.458  27.102  24.554  1.00  0.00    -0.163 NA
ATOM      9  C   UNL A   1      29.130  26.791  23.965  1.00  0.00     0.275 A 
ATOM     10  C   UNL A   1      29.166  28.101  23.297  1.00  0.00     0.051 A 
ATOM     11  O   UNL A   1      28.114  26.107  23.895  1.00  0.00    -0.267 OA
ATOM     12  C   UNL A   1      30.380  28.771  23.143  1.00  0.00     0.020 A 
ATOM     13  C   UNL A   1      27.972  28.640  22.794  1.00  0.00     0.014 A 
ATOM     14  C   UNL A   1      30.390  29.970  22.418  1.00  0.00     0.011 A 
ATOM     15  C   UNL A   1      27.990  29.851  22.109  1.00  0.00     0.001 A 
ATOM     16  C   UNL A   1      29.201  30.505  21.907  1.00  0.00     0.001 A 
BRANCH   7  17
ATOM     17  C   UNL A   1      30.412  25.039  25.143  1.00  0.00     0.248 C 
BRANCH  17  18
ATOM     18  C   UNL A   1      31.634  24.697  25.993  1.00  0.00     0.242 C 
ATOM     19  O   UNL A   1      31.506  24.366  27.173  1.00  0.00    -0.273 OA
ATOM     20  N   UNL A   1      32.842  24.646  25.340  1.00  0.00    -0.350 N 
ATOM     21  H   UNL A   1      32.862  24.601  24.356  1.00  0.00     0.163 HD
BRANCH  20  22
ATOM     22  C   UNL A   1      34.082  24.657  26.077  1.00  0.00     0.151 C 
BRANCH  22  23
ATOM     23  C   UNL A   1      35.015  23.545  25.679  1.00  0.00    -0.029 A 
ATOM     24  C   UNL A   1      34.513  22.262  25.406  1.00  0.00     0.008 A 
ATOM     25  C   UNL A   1      36.387  23.792  25.508  1.00  0.00     0.008 A 
ATOM     26  C   UNL A   1      35.368  21.249  24.971  1.00  0.00     0.039 A 
ATOM     27  C   UNL A   1      37.240  22.776  25.076  1.00  0.00     0.039 A 
ATOM     28  C   UNL A   1      36.722  21.514  24.810  1.00  0.00     0.123 A 
ATOM     29  F   UNL A   1      37.539  20.542  24.383  1.00  0.00    -0.207 F 
ENDBRANCH  22  23
ENDBRANCH  20  22
ENDBRANCH  17  18
ENDBRANCH   7  17
ENDBRANCH   3   6
ENDBRANCH   1   2
BRANCH   1  30
ATOM     30  C   UNL A   1      31.962  30.745  25.955  1.00  0.00     0.023 C 
BRANCH  30  31
ATOM     31  C   UNL A   1      31.804  31.683  27.150  1.00  0.00     0.023 C 
BRANCH  31  32
ATOM     32  C   UNL A   1      32.918  32.707  27.338  1.00  0.00     0.116 C 
BRANCH  32  33
ATOM     33  N   UNL A   1      32.444  34.052  27.639  1.00  0.00    -0.352 N 
ATOM     34  C   UNL A   1      32.955  34.962  28.537  1.00  0.00     0.251 C 
ATOM     35  H   UNL A   1      31.654  34.348  27.133  1.00  0.00     0.163 HD
ATOM     36  O   UNL A   1      32.396  36.037  28.729  1.00  0.00    -0.269 OA
BRANCH  34  37
ATOM     37  C   UNL A   1      34.158  34.602  29.314  1.00  0.00     0.039 A 
ATOM     38  C   UNL A   1      35.419  34.633  28.715  1.00  0.00     0.014 A 
ATOM     39  C   UNL A   1      34.006  34.139  30.623  1.00  0.00     0.014 A 
ATOM     40  C   UNL A   1      36.490  34.017  29.350  1.00  0.00     0.010 A 
ATOM     41  C   UNL A   1      35.105  33.598  31.294  1.00  0.00     0.010 A 
ATOM     42  C   UNL A   1      36.341  33.474  30.638  1.00  0.00    -0.014 A 
BRANCH  42  43
ATOM     43  C   UNL A   1      37.476  32.747  31.261  1.00  0.00     0.031 A 
ATOM     44  C   UNL A   1      37.923  33.078  32.661  1.00  0.00     0.074 A 
ATOM     45  C   UNL A   1      38.065  31.742  30.587  1.00  0.00     0.049 A 
ATOM     46  N   UNL A   1      38.895  32.550  33.365  1.00  0.00    -0.248 NA
ATOM     47  C   UNL A   1      37.185  34.137  33.367  1.00  0.00     0.031 C 
ATOM     48  C   UNL A   1      37.703  31.313  29.236  1.00  0.00     0.029 A 
ATOM     49  N   UNL A   1      39.072  30.885  30.952  1.00  0.00    -0.354 N 
ATOM     50  C   UNL A   1      38.898  33.225  34.578  1.00  0.00     0.074 A 
ATOM     51  C   UNL A   1      37.848  34.218  34.512  1.00  0.00     0.031 C 
ATOM     52  C   UNL A   1      38.439  30.242  28.905  1.00  0.00     0.029 A 
ATOM     53  C   UNL A   1      39.368  29.951  29.992  1.00  0.00     0.049 A 
ATOM     54  H   UNL A   1      39.536  30.936  31.818  1.00  0.00     0.167 HD
ATOM     55  C   UNL A   1      39.696  33.025  35.655  1.00  0.00     0.037 A 
ATOM     56  C   UNL A   1      40.297  28.975  29.980  1.00  0.00     0.037 A 
ATOM     57  C   UNL A   1      40.722  32.017  35.730  1.00  0.00     0.049 A 
ATOM     58  C   UNL A   1      41.199  28.806  31.168  1.00  0.00     0.074 A 
ATOM     59  C   UNL A   1      41.573  31.729  36.782  1.00  0.00     0.029 A 
ATOM     60  N   UNL A   1      41.033  31.128  34.710  1.00  0.00    -0.354 N 
ATOM     61  N   UNL A   1      41.200  29.460  32.303  1.00  0.00    -0.248 NA
ATOM     62  C   UNL A   1      42.236  27.771  31.068  1.00  0.00     0.031 C 
ATOM     63  C   UNL A   1      42.425  30.692  36.387  1.00  0.00     0.029 A 
ATOM     64  C   UNL A   1      42.075  30.303  35.105  1.00  0.00     0.049 A 
ATOM     65  H   UNL A   1      40.581  31.090  33.837  1.00  0.00     0.167 HD
ATOM     66  C   UNL A   1      42.228  28.912  33.056  1.00  0.00     0.074 A 
ATOM     67  C   UNL A   1      42.815  27.856  32.258  1.00  0.00     0.031 C 
ATOM     68  C   UNL A   1      42.651  29.259  34.296  1.00  0.00     0.037 A 
BRANCH  55  69
ATOM     69  C   UNL A   1      39.504  33.917  36.847  1.00  0.00     0.064 A 
ATOM     70  C   UNL A   1      38.720  33.523  37.941  1.00  0.00     0.173 A 
ATOM     71  C   UNL A   1      40.171  35.150  36.926  1.00  0.00     0.173 A 
ATOM     72  F   UNL A   1      38.053  32.360  37.911  1.00  0.00    -0.203 F 
ATOM     73  C   UNL A   1      38.599  34.337  39.065  1.00  0.00     0.198 A 
ATOM     74  C   UNL A   1      40.067  35.950  38.062  1.00  0.00     0.198 A 
ATOM     75  F   UNL A   1      40.938  35.570  35.909  1.00  0.00    -0.203 F 
ATOM     76  F   UNL A   1      37.820  33.955  40.086  1.00  0.00    -0.200 F 
ATOM     77  C   UNL A   1      39.280  35.544  39.128  1.00  0.00     0.200 A 
ATOM     78  F   UNL A   1      40.736  37.109  38.126  1.00  0.00    -0.200 F 
ATOM     79  F   UNL A   1      39.175  36.318  40.218  1.00  0.00    -0.200 F 
ENDBRANCH  55  69
BRANCH  56  80
ATOM     80  C   UNL A   1      40.407  28.089  28.794  1.00  0.00     0.064 A 
ATOM     81  C   UNL A   1      39.725  26.866  28.746  1.00  0.00     0.173 A 
ATOM     82  C   UNL A   1      41.161  28.464  27.672  1.00  0.00     0.173 A 
ATOM     83  F   UNL A   1      39.009  26.457  29.803  1.00  0.00    -0.203 F 
ATOM     84  C   UNL A   1      39.794  26.051  27.619  1.00  0.00     0.198 A 
ATOM     85  C   UNL A   1      41.206  27.661  26.536  1.00  0.00     0.198 A 
ATOM     86  F   UNL A   1      41.828  29.628  27.670  1.00  0.00    -0.203 F 
ATOM     87  F   UNL A   1      39.153  24.874  27.606  1.00  0.00    -0.200 F 
ATOM     88  C   UNL A   1      40.525  26.454  26.511  1.00  0.00     0.200 A 
ATOM     89  F   UNL A   1      41.899  28.063  25.462  1.00  0.00    -0.200 F 
ATOM     90  F   UNL A   1      40.575  25.678  25.420  1.00  0.00    -0.200 F 
ENDBRANCH  56  80
BRANCH  68  91
ATOM     91  C   UNL A   1      43.798  28.484  34.874  1.00  0.00     0.064 A 
ATOM     92  C   UNL A   1      45.121  28.927  34.737  1.00  0.00     0.173 A 
ATOM     93  C   UNL A   1      43.566  27.317  35.617  1.00  0.00     0.173 A 
ATOM     94  F   UNL A   1      45.393  30.030  34.024  1.00  0.00    -0.203 F 
ATOM     95  C   UNL A   1      46.174  28.219  35.310  1.00  0.00     0.198 A 
ATOM     96  C   UNL A   1      44.619  26.627  36.210  1.00  0.00     0.198 A 
ATOM     97  F   UNL A   1      42.317  26.857  35.782  1.00  0.00    -0.203 F 
ATOM     98  F   UNL A   1      47.434  28.639  35.137  1.00  0.00    -0.200 F 
ATOM     99  C   UNL A   1      45.922  27.075  36.053  1.00  0.00     0.200 A 
ATOM    100  F   UNL A   1      44.373  25.528  36.937  1.00  0.00    -0.200 F 
ATOM    101  F   UNL A   1      46.936  26.401  36.611  1.00  0.00    -0.200 F 
ENDBRANCH  68  91
ENDBRANCH  42  43
ENDBRANCH  34  37
ENDBRANCH  32  33
ENDBRANCH  31  32
ENDBRANCH  30  31
ENDBRANCH   1  30
TORSDOF 15
ENDMDL
MODEL 3
REMARK VINA RESULT:     -13.0      2.510      3.578
REMARK SMILES O=C(Cn1nc(C(=O)NCCCCNC(=O)c2ccc(-c3c4nc(c(-c5c(F)c(F)c(F)c(F)c5F)c5ccc([nH]5)c(-c5c(F)c(F)c(F)c(F)c5F)c5nc(c(-c6c(F)c(F)c(F)c(F)c6F)c6ccc3[nH]6)C=C5)C=C4)cc2)c2ccccc2c1=O)NCc1ccc(F)cc1
REMARK SMILES IDX 10 1 9 2 7 3 8 4 6 6 4 7 5 8 86 9 85 10 87 11 80 12 84 13
REMARK SMILES IDX 81 14 83 15 82 16 3 17 2 18 1 19 88 20 89 22 90 23 91 24
REMARK SMILES IDX 96 25 92 26 95 27 93 28 94 29 11 30 12 31 13 32 14 33 15 34
REMARK SMILES IDX 16 36 17 37 18 38 79 39 19 40 78 41 20 42 21 43 22 44 72 45
REMARK SMILES IDX 23 46 77 47 71 48 73 49 24 50 76 51 70 52 69 53 25 55 57 56
REMARK SMILES IDX 37 57 56 58 38 59 41 60 55 61 74 62 39 63 40 64 54 66 75 67
REMARK SMILES IDX 42 68 26 69 27 70 35 71 28 72 29 73 33 74 36 75 30 76 31 77
REMARK SMILES IDX 34 78 32 79 58 80 59 81 67 82 60 83 61 84 65 85 68 86 62 87
REMARK SMILES IDX 63 88 66 89 64 90 43 91 44 92 52 93 45 94 46 95 50 96 53 97
REMARK SMILES IDX 47 98 48 99 51 100 49 101
REMARK H PARENT 9 5 88 21 14 35 73 54 41 65
REMARK Flexibility Score: inf
ROOT
ATOM      1  C   UNL A   1      34.059  28.403  23.325  1.00  0.00     0.116 C 
ENDROOT
BRANCH   1   2
ATOM      2  N   UNL A   1      33.979  27.342  22.332  1.00  0.00    -0.351 N 
ATOM      3  C   UNL A   1      33.378  26.102  22.351  1.00  0.00     0.272 C 
ATOM      4  O   UNL A   1      33.301  25.494  21.288  1.00  0.00    -0.267 OA
ATOM      5  H   UNL A   1      34.440  27.549  21.488  1.00  0.00     0.163 HD
BRANCH   3   6
ATOM      6  C   UNL A   1      32.825  25.478  23.649  1.00  0.00     0.156 A 
ATOM      7  N   UNL A   1      30.995  25.257  25.072  1.00  0.00    -0.219 N 
ATOM      8  N   UNL A   1      31.562  25.664  23.892  1.00  0.00    -0.163 NA
ATOM      9  C   UNL A   1      31.729  24.655  26.087  1.00  0.00     0.275 A 
ATOM     10  C   UNL A   1      33.100  24.241  25.747  1.00  0.00     0.051 A 
ATOM     11  O   UNL A   1      31.299  24.443  27.217  1.00  0.00    -0.267 OA
ATOM     12  C   UNL A   1      33.693  24.699  24.570  1.00  0.00     0.020 A 
ATOM     13  C   UNL A   1      33.800  23.414  26.638  1.00  0.00     0.014 A 
ATOM     14  C   UNL A   1      35.032  24.363  24.328  1.00  0.00     0.011 A 
ATOM     15  C   UNL A   1      35.116  23.055  26.366  1.00  0.00     0.001 A 
ATOM     16  C   UNL A   1      35.736  23.544  25.220  1.00  0.00     0.001 A 
BRANCH   7  17
ATOM     17  C   UNL A   1      29.722  25.915  25.393  1.00  0.00     0.248 C 
BRANCH  17  18
ATOM     18  C   UNL A   1      28.982  26.629  24.263  1.00  0.00     0.242 C 
ATOM     19  O   UNL A   1      27.886  26.223  23.875  1.00  0.00    -0.273 OA
ATOM     20  N   UNL A   1      29.534  27.804  23.814  1.00  0.00    -0.350 N 
ATOM     21  H   UNL A   1      30.223  28.256  24.354  1.00  0.00     0.163 HD
BRANCH  20  22
ATOM     22  C   UNL A   1      29.118  28.385  22.561  1.00  0.00     0.151 C 
BRANCH  22  23
ATOM     23  C   UNL A   1      28.926  29.876  22.636  1.00  0.00    -0.029 A 
ATOM     24  C   UNL A   1      29.206  30.568  23.826  1.00  0.00     0.008 A 
ATOM     25  C   UNL A   1      28.532  30.602  21.500  1.00  0.00     0.008 A 
ATOM     26  C   UNL A   1      29.094  31.958  23.876  1.00  0.00     0.039 A 
ATOM     27  C   UNL A   1      28.418  31.992  21.554  1.00  0.00     0.039 A 
ATOM     28  C   UNL A   1      28.702  32.657  22.741  1.00  0.00     0.123 A 
ATOM     29  F   UNL A   1      28.604  33.992  22.790  1.00  0.00    -0.207 F 
ENDBRANCH  22  23
ENDBRANCH  20  22
ENDBRANCH  17  18
ENDBRANCH   7  17
ENDBRANCH   3   6
ENDBRANCH   1   2
BRANCH   1  30
ATOM     30  C   UNL A   1      32.746  29.158  23.502  1.00  0.00     0.023 C 
BRANCH  30  31
ATOM     31  C   UNL A   1      32.156  29.112  24.910  1.00  0.00     0.023 C 
BRANCH  31  32
ATOM     32  C   UNL A   1      33.081  29.578  26.029  1.00  0.00     0.116 C 
BRANCH  32  33
ATOM     33  N   UNL A   1      32.771  30.905  26.543  1.00  0.00    -0.352 N 
ATOM     34  C   UNL A   1      33.537  31.717  27.349  1.00  0.00     0.251 C 
ATOM     35  H   UNL A   1      31.896  31.270  26.278  1.00  0.00     0.163 HD
ATOM     36  O   UNL A   1      33.103  32.788  27.758  1.00  0.00    -0.269 OA
BRANCH  34  37
ATOM     37  C   UNL A   1      34.876  31.252  27.765  1.00  0.00     0.039 A 
ATOM     38  C   UNL A   1      35.102  29.900  28.030  1.00  0.00     0.014 A 
ATOM     39  C   UNL A   1      35.883  32.196  27.982  1.00  0.00     0.014 A 
ATOM     40  C   UNL A   1      36.260  29.521  28.697  1.00  0.00     0.010 A 
ATOM     41  C   UNL A   1      37.083  31.797  28.575  1.00  0.00     0.010 A 
ATOM     42  C   UNL A   1      37.255  30.468  28.995  1.00  0.00    -0.014 A 
BRANCH  42  43
ATOM     43  C   UNL A   1      38.445  30.055  29.782  1.00  0.00     0.031 A 
ATOM     44  C   UNL A   1      38.628  30.527  31.201  1.00  0.00     0.074 A 
ATOM     45  C   UNL A   1      39.332  29.201  29.238  1.00  0.00     0.049 A 
ATOM     46  N   UNL A   1      39.604  30.271  32.038  1.00  0.00    -0.248 NA
ATOM     47  C   UNL A   1      37.581  31.398  31.757  1.00  0.00     0.031 C 
ATOM     48  C   UNL A   1      39.248  28.656  27.883  1.00  0.00     0.029 A 
ATOM     49  N   UNL A   1      40.460  28.624  29.762  1.00  0.00    -0.354 N 
ATOM     50  C   UNL A   1      39.300  30.963  33.202  1.00  0.00     0.074 A 
ATOM     51  C   UNL A   1      38.063  31.672  32.961  1.00  0.00     0.031 C 
ATOM     52  C   UNL A   1      40.250  27.784  27.699  1.00  0.00     0.029 A 
ATOM     53  C   UNL A   1      41.082  27.759  28.897  1.00  0.00     0.049 A 
ATOM     54  H   UNL A   1      40.791  28.811  30.670  1.00  0.00     0.167 HD
ATOM     55  C   UNL A   1      39.987  30.994  34.371  1.00  0.00     0.037 A 
ATOM     56  C   UNL A   1      42.209  27.036  29.046  1.00  0.00     0.037 A 
ATOM     57  C   UNL A   1      41.204  30.267  34.618  1.00  0.00     0.049 A 
ATOM     58  C   UNL A   1      42.974  27.125  30.334  1.00  0.00     0.074 A 
ATOM     59  C   UNL A   1      41.965  30.224  35.773  1.00  0.00     0.029 A 
ATOM     60  N   UNL A   1      41.837  29.448  33.693  1.00  0.00    -0.354 N 
ATOM     61  N   UNL A   1      42.683  27.795  31.422  1.00  0.00    -0.248 NA
ATOM     62  C   UNL A   1      44.230  26.368  30.411  1.00  0.00     0.031 C 
ATOM     63  C   UNL A   1      43.078  29.412  35.536  1.00  0.00     0.029 A 
ATOM     64  C   UNL A   1      42.988  28.911  34.249  1.00  0.00     0.049 A 
ATOM     65  H   UNL A   1      41.516  29.275  32.779  1.00  0.00     0.167 HD
ATOM     66  C   UNL A   1      43.712  27.535  32.315  1.00  0.00     0.074 A 
ATOM     67  C   UNL A   1      44.624  26.627  31.650  1.00  0.00     0.031 C 
ATOM     68  C   UNL A   1      43.887  28.012  33.572  1.00  0.00     0.037 A 
BRANCH  55  69
ATOM     69  C   UNL A   1      39.446  31.851  35.479  1.00  0.00     0.064 A 
ATOM     70  C   UNL A   1      38.565  31.337  36.442  1.00  0.00     0.173 A 
ATOM     71  C   UNL A   1      39.872  33.181  35.621  1.00  0.00     0.173 A 
ATOM     72  F   UNL A   1      38.119  30.076  36.345  1.00  0.00    -0.203 F 
ATOM     73  C   UNL A   1      38.118  32.127  37.498  1.00  0.00     0.198 A 
ATOM     74  C   UNL A   1      39.443  33.960  36.693  1.00  0.00     0.198 A 
ATOM     75  F   UNL A   1      40.720  33.718  34.732  1.00  0.00    -0.203 F 
ATOM     76  F   UNL A   1      37.253  31.626  38.389  1.00  0.00    -0.200 F 
ATOM     77  C   UNL A   1      38.565  33.434  37.628  1.00  0.00     0.200 A 
ATOM     78  F   UNL A   1      39.886  35.218  36.823  1.00  0.00    -0.200 F 
ATOM     79  F   UNL A   1      38.146  34.188  38.654  1.00  0.00    -0.200 F 
ENDBRANCH  55  69
BRANCH  56  80
ATOM     80  C   UNL A   1      42.668  26.166  27.934  1.00  0.00     0.064 A 
ATOM     81  C   UNL A   1      43.556  26.649  26.964  1.00  0.00     0.173 A 
ATOM     82  C   UNL A   1      42.262  24.827  27.841  1.00  0.00     0.173 A 
ATOM     83  F   UNL A   1      43.956  27.929  27.000  1.00  0.00    -0.203 F 
ATOM     84  C   UNL A   1      44.020  25.825  25.942  1.00  0.00     0.198 A 
ATOM     85  C   UNL A   1      42.748  23.997  26.836  1.00  0.00     0.198 A 
ATOM     86  F   UNL A   1      41.416  24.318  28.748  1.00  0.00    -0.203 F 
ATOM     87  F   UNL A   1      44.850  26.317  25.012  1.00  0.00    -0.200 F 
ATOM     88  C   UNL A   1      43.624  24.497  25.884  1.00  0.00     0.200 A 
ATOM     89  F   UNL A   1      42.377  22.710  26.795  1.00  0.00    -0.200 F 
ATOM     90  F   UNL A   1      44.087  23.699  24.913  1.00  0.00    -0.200 F 
ENDBRANCH  56  80
BRANCH  68  91
ATOM     91  C   UNL A   1      45.106  27.554  34.317  1.00  0.00     0.064 A 
ATOM     92  C   UNL A   1      45.084  26.398  35.112  1.00  0.00     0.173 A 
ATOM     93  C   UNL A   1      46.320  28.246  34.191  1.00  0.00     0.173 A 
ATOM     94  F   UNL A   1      43.943  25.712  35.273  1.00  0.00    -0.203 F 
ATOM     95  C   UNL A   1      46.232  25.962  35.768  1.00  0.00     0.198 A 
ATOM     96  C   UNL A   1      47.471  27.791  34.828  1.00  0.00     0.198 A 
ATOM     97  F   UNL A   1      46.392  29.352  33.436  1.00  0.00    -0.203 F 
ATOM     98  F   UNL A   1      46.181  24.877  36.553  1.00  0.00    -0.200 F 
ATOM     99  C   UNL A   1      47.425  26.653  35.619  1.00  0.00     0.200 A 
ATOM    100  F   UNL A   1      48.626  28.453  34.674  1.00  0.00    -0.200 F 
ATOM    101  F   UNL A   1      48.531  26.226  36.244  1.00  0.00    -0.200 F 
ENDBRANCH  68  91
ENDBRANCH  42  43
ENDBRANCH  34  37
ENDBRANCH  32  33
ENDBRANCH  31  32
ENDBRANCH  30  31
ENDBRANCH   1  30
TORSDOF 15
ENDMDL
