MODEL 1
REMARK VINA RESULT:     -12.2      0.000      0.000
REMARK SMILES O=C(C[C@@H]1[NH2+]CCc2c(Br)cccc21)NCCCCNC(=O)c1ccc(-c2c3nc(c(-c4c(F)c(F)c(F)c(F)c4F)c4ccc([nH]4)c(-c4c(F)c(F)c(F)c(F)c4F)c4nc(c(-c5c(F)c(F)c(F)c(F)c5F)c5ccc2[nH]5)C=C4)C=C3)cc1
REMARK SMILES IDX 18 1 17 2 16 3 15 4 1 5 2 6 3 8 4 9 5 10 14 11 6 12 8 15
REMARK SMILES IDX 13 16 7 17 9 18 12 19 10 20 11 21 19 22 20 23 21 24 22 26
REMARK SMILES IDX 23 27 24 28 85 29 25 30 84 31 26 32 27 33 28 34 78 35 29 36
REMARK SMILES IDX 83 37 77 38 79 39 30 40 82 41 76 42 75 43 31 45 63 46 43 47
REMARK SMILES IDX 62 48 44 49 47 50 61 51 80 52 45 53 46 54 60 56 81 57 48 58
REMARK SMILES IDX 32 59 33 60 41 61 34 62 35 63 39 64 42 65 36 66 37 67 40 68
REMARK SMILES IDX 38 69 64 70 65 71 73 72 66 73 67 74 71 75 74 76 68 77 69 78
REMARK SMILES IDX 72 79 70 80 49 81 50 82 58 83 51 84 52 85 56 86 59 87 53 88
REMARK SMILES IDX 54 89 57 90 55 91
REMARK H PARENT 15 7 5 13 5 14 20 25 79 44 47 55
REMARK Flexibility Score: inf
ROOT
ATOM      1  C   UNL A   1      31.372  32.239  26.534  1.00  0.00     0.023 C 
ENDROOT
BRANCH   1   2
ATOM      2  C   UNL A   1      31.487  30.758  26.151  1.00  0.00     0.023 C 
BRANCH   2   3
ATOM      3  C   UNL A   1      32.204  29.872  27.170  1.00  0.00     0.116 C 
BRANCH   3   4
ATOM      4  N   UNL A   1      32.775  28.691  26.561  1.00  0.00    -0.356 N 
ATOM      5  O   UNL A   1      31.195  27.215  27.352  1.00  0.00    -0.275 OA
ATOM      6  C   UNL A   1      32.188  27.448  26.671  1.00  0.00     0.226 C 
ATOM      7  H   UNL A   1      33.612  28.778  26.050  1.00  0.00     0.163 HD
BRANCH   6   8
ATOM      8  C   UNL A   1      32.893  26.375  25.872  1.00  0.00     0.170 C 
BRANCH   8   9
ATOM      9  C   UNL A   1      32.528  26.302  24.369  1.00  0.00     0.223 C 
ATOM     10  N   UNL A   1      33.620  26.850  23.535  1.00  0.00    -0.339 N 
ATOM     11  C   UNL A   1      31.172  26.862  23.962  1.00  0.00     0.014 A 
ATOM     12  C   UNL A   1      33.583  28.310  23.507  1.00  0.00     0.265 C 
ATOM     13  H   UNL A   1      33.520  26.497  22.583  1.00  0.00     0.346 HD
ATOM     14  H   UNL A   1      34.510  26.557  23.935  1.00  0.00     0.346 HD
ATOM     15  C   UNL A   1      31.054  28.081  23.260  1.00  0.00    -0.019 A 
ATOM     16  C   UNL A   1      30.009  26.141  24.292  1.00  0.00     0.010 A 
ATOM     17  C   UNL A   1      32.302  28.831  22.852  1.00  0.00     0.098 C 
ATOM     18  C   UNL A   1      29.773  28.528  22.888  1.00  0.00     0.021 A 
ATOM     19  C   UNL A   1      28.746  26.622  23.958  1.00  0.00     0.002 A 
ATOM     20  Br  UNL A   1      29.523  30.091  21.840  1.00  0.00    -0.051 Br
ATOM     21  C   UNL A   1      28.627  27.815  23.253  1.00  0.00     0.016 A 
ENDBRANCH   8   9
ENDBRANCH   6   8
ENDBRANCH   3   4
ENDBRANCH   2   3
ENDBRANCH   1   2
BRANCH   1  22
ATOM     22  C   UNL A   1      32.593  32.825  27.239  1.00  0.00     0.116 C 
BRANCH  22  23
ATOM     23  N   UNL A   1      32.392  34.210  27.636  1.00  0.00    -0.352 N 
ATOM     24  C   UNL A   1      33.006  34.933  28.630  1.00  0.00     0.251 C 
ATOM     25  H   UNL A   1      31.717  34.702  27.116  1.00  0.00     0.163 HD
ATOM     26  O   UNL A   1      32.596  36.051  28.928  1.00  0.00    -0.269 OA
BRANCH  24  27
ATOM     27  C   UNL A   1      34.155  34.360  29.362  1.00  0.00     0.039 A 
ATOM     28  C   UNL A   1      33.920  33.614  30.521  1.00  0.00     0.014 A 
ATOM     29  C   UNL A   1      35.462  34.578  28.922  1.00  0.00     0.014 A 
ATOM     30  C   UNL A   1      34.993  33.031  31.200  1.00  0.00     0.010 A 
ATOM     31  C   UNL A   1      36.526  33.950  29.568  1.00  0.00     0.010 A 
ATOM     32  C   UNL A   1      36.304  33.171  30.713  1.00  0.00    -0.014 A 
BRANCH  32  33
ATOM     33  C   UNL A   1      37.452  32.524  31.398  1.00  0.00     0.031 A 
ATOM     34  C   UNL A   1      38.184  31.391  30.735  1.00  0.00     0.074 A 
ATOM     35  C   UNL A   1      37.813  32.927  32.632  1.00  0.00     0.049 A 
ATOM     36  N   UNL A   1      39.193  30.685  31.181  1.00  0.00    -0.248 NA
ATOM     37  C   UNL A   1      37.712  30.987  29.403  1.00  0.00     0.031 C 
ATOM     38  C   UNL A   1      37.163  33.992  33.396  1.00  0.00     0.029 A 
ATOM     39  N   UNL A   1      38.813  32.484  33.462  1.00  0.00    -0.354 N 
ATOM     40  C   UNL A   1      39.477  29.761  30.186  1.00  0.00     0.074 A 
ATOM     41  C   UNL A   1      38.497  29.954  29.137  1.00  0.00     0.031 C 
ATOM     42  C   UNL A   1      37.797  34.138  34.572  1.00  0.00     0.029 A 
ATOM     43  C   UNL A   1      38.878  33.158  34.658  1.00  0.00     0.049 A 
ATOM     44  H   UNL A   1      39.428  31.753  33.222  1.00  0.00     0.167 HD
ATOM     45  C   UNL A   1      40.481  28.856  30.133  1.00  0.00     0.037 A 
ATOM     46  C   UNL A   1      39.715  33.005  35.702  1.00  0.00     0.037 A 
ATOM     47  C   UNL A   1      41.465  28.671  31.168  1.00  0.00     0.049 A 
ATOM     48  C   UNL A   1      40.797  31.961  35.637  1.00  0.00     0.074 A 
ATOM     49  C   UNL A   1      42.544  27.805  31.185  1.00  0.00     0.029 A 
ATOM     50  N   UNL A   1      41.484  29.361  32.370  1.00  0.00    -0.354 N 
ATOM     51  N   UNL A   1      41.093  31.136  34.663  1.00  0.00    -0.248 NA
ATOM     52  C   UNL A   1      41.665  31.829  36.817  1.00  0.00     0.031 C 
ATOM     53  C   UNL A   1      43.194  27.942  32.415  1.00  0.00     0.029 A 
ATOM     54  C   UNL A   1      42.546  28.924  33.146  1.00  0.00     0.049 A 
ATOM     55  H   UNL A   1      40.840  30.057  32.634  1.00  0.00     0.167 HD
ATOM     56  C   UNL A   1      42.193  30.408  35.099  1.00  0.00     0.074 A 
ATOM     57  C   UNL A   1      42.520  30.896  36.422  1.00  0.00     0.031 C 
ATOM     58  C   UNL A   1      42.868  29.423  34.458  1.00  0.00     0.037 A 
BRANCH  45  59
ATOM     59  C   UNL A   1      40.587  28.005  28.902  1.00  0.00     0.064 A 
ATOM     60  C   UNL A   1      39.875  26.802  28.786  1.00  0.00     0.173 A 
ATOM     61  C   UNL A   1      41.354  28.424  27.805  1.00  0.00     0.173 A 
ATOM     62  F   UNL A   1      39.135  26.355  29.812  1.00  0.00    -0.203 F 
ATOM     63  C   UNL A   1      39.941  26.040  27.624  1.00  0.00     0.198 A 
ATOM     64  C   UNL A   1      41.396  27.673  26.633  1.00  0.00     0.198 A 
ATOM     65  F   UNL A   1      42.048  29.571  27.862  1.00  0.00    -0.203 F 
ATOM     66  F   UNL A   1      39.280  24.877  27.549  1.00  0.00    -0.200 F 
ATOM     67  C   UNL A   1      40.693  26.481  26.545  1.00  0.00     0.200 A 
ATOM     68  F   UNL A   1      42.112  28.106  25.587  1.00  0.00    -0.200 F 
ATOM     69  F   UNL A   1      40.744  25.754  25.421  1.00  0.00    -0.200 F 
ENDBRANCH  45  59
BRANCH  46  70
ATOM     70  C   UNL A   1      39.589  33.893  36.887  1.00  0.00     0.064 A 
ATOM     71  C   UNL A   1      40.227  35.140  36.917  1.00  0.00     0.173 A 
ATOM     72  C   UNL A   1      38.830  33.520  38.005  1.00  0.00     0.173 A 
ATOM     73  F   UNL A   1      40.982  35.531  35.880  1.00  0.00    -0.203 F 
ATOM     74  C   UNL A   1      40.122  35.977  38.026  1.00  0.00     0.198 A 
ATOM     75  C   UNL A   1      38.704  34.368  39.104  1.00  0.00     0.198 A 
ATOM     76  F   UNL A   1      38.197  32.337  38.025  1.00  0.00    -0.203 F 
ATOM     77  F   UNL A   1      40.771  37.148  38.043  1.00  0.00    -0.200 F 
ATOM     78  C   UNL A   1      39.355  35.593  39.116  1.00  0.00     0.200 A 
ATOM     79  F   UNL A   1      37.953  33.999  40.151  1.00  0.00    -0.200 F 
ATOM     80  F   UNL A   1      39.246  36.401  40.180  1.00  0.00    -0.200 F 
ENDBRANCH  46  70
BRANCH  58  81
ATOM     81  C   UNL A   1      44.046  28.813  35.160  1.00  0.00     0.064 A 
ATOM     82  C   UNL A   1      45.330  29.366  35.051  1.00  0.00     0.173 A 
ATOM     83  C   UNL A   1      43.873  27.713  36.014  1.00  0.00     0.173 A 
ATOM     84  F   UNL A   1      45.548  30.410  34.237  1.00  0.00    -0.203 F 
ATOM     85  C   UNL A   1      46.400  28.835  35.766  1.00  0.00     0.198 A 
ATOM     86  C   UNL A   1      44.940  27.201  36.747  1.00  0.00     0.198 A 
ATOM     87  F   UNL A   1      42.663  27.151  36.158  1.00  0.00    -0.203 F 
ATOM     88  F   UNL A   1      47.624  29.362  35.626  1.00  0.00    -0.200 F 
ATOM     89  C   UNL A   1      46.202  27.760  36.621  1.00  0.00     0.200 A 
ATOM     90  F   UNL A   1      44.743  26.173  37.585  1.00  0.00    -0.200 F 
ATOM     91  F   UNL A   1      47.230  27.263  37.322  1.00  0.00    -0.200 F 
ENDBRANCH  58  81
ENDBRANCH  32  33
ENDBRANCH  24  27
ENDBRANCH  22  23
ENDBRANCH   1  22
TORSDOF 12
ENDMDL
MODEL 2
REMARK VINA RESULT:     -12.2      6.303     10.384
REMARK SMILES O=C(C[C@@H]1[NH2+]CCc2c(Br)cccc21)NCCCCNC(=O)c1ccc(-c2c3nc(c(-c4c(F)c(F)c(F)c(F)c4F)c4ccc([nH]4)c(-c4c(F)c(F)c(F)c(F)c4F)c4nc(c(-c5c(F)c(F)c(F)c(F)c5F)c5ccc2[nH]5)C=C4)C=C3)cc1
REMARK SMILES IDX 18 1 17 2 16 3 15 4 1 5 2 6 3 8 4 9 5 10 14 11 6 12 8 15
REMARK SMILES IDX 13 16 7 17 9 18 12 19 10 20 11 21 19 22 20 23 21 24 22 26
REMARK SMILES IDX 23 27 24 28 85 29 25 30 84 31 26 32 27 33 28 34 78 35 29 36
REMARK SMILES IDX 83 37 77 38 79 39 30 40 82 41 76 42 75 43 31 45 63 46 43 47
REMARK SMILES IDX 62 48 44 49 47 50 61 51 80 52 45 53 46 54 60 56 81 57 48 58
REMARK SMILES IDX 32 59 33 60 41 61 34 62 35 63 39 64 42 65 36 66 37 67 40 68
REMARK SMILES IDX 38 69 64 70 65 71 73 72 66 73 67 74 71 75 74 76 68 77 69 78
REMARK SMILES IDX 72 79 70 80 49 81 50 82 58 83 51 84 52 85 56 86 59 87 53 88
REMARK SMILES IDX 54 89 57 90 55 91
REMARK H PARENT 15 7 5 13 5 14 20 25 79 44 47 55
REMARK Flexibility Score: inf
ROOT
ATOM      1  C   UNL A   1      41.687  21.053  26.140  1.00  0.00     0.023 C 
ENDROOT
BRANCH   1   2
ATOM      2  C   UNL A   1      42.102  19.577  26.107  1.00  0.00     0.023 C 
BRANCH   2   3
ATOM      3  C   UNL A   1      43.404  19.280  25.363  1.00  0.00     0.116 C 
BRANCH   3   4
ATOM      4  N   UNL A   1      44.471  20.178  25.750  1.00  0.00    -0.356 N 
ATOM      5  O   UNL A   1      44.319  21.553  23.909  1.00  0.00    -0.275 OA
ATOM      6  C   UNL A   1      44.815  21.281  24.998  1.00  0.00     0.226 C 
ATOM      7  H   UNL A   1      44.968  19.995  26.580  1.00  0.00     0.163 HD
BRANCH   6   8
ATOM      8  C   UNL A   1      45.884  22.139  25.638  1.00  0.00     0.170 C 
BRANCH   8   9
ATOM      9  C   UNL A   1      45.447  23.565  26.051  1.00  0.00     0.223 C 
ATOM     10  N   UNL A   1      46.517  24.547  25.765  1.00  0.00    -0.339 N 
ATOM     11  C   UNL A   1      44.889  23.735  27.457  1.00  0.00     0.014 A 
ATOM     12  C   UNL A   1      47.546  24.526  26.801  1.00  0.00     0.265 C 
ATOM     13  H   UNL A   1      46.108  25.480  25.721  1.00  0.00     0.346 HD
ATOM     14  H   UNL A   1      46.950  24.302  24.875  1.00  0.00     0.346 HD
ATOM     15  C   UNL A   1      45.628  24.373  28.476  1.00  0.00    -0.019 A 
ATOM     16  C   UNL A   1      43.601  23.245  27.743  1.00  0.00     0.010 A 
ATOM     17  C   UNL A   1      46.988  24.953  28.161  1.00  0.00     0.098 C 
ATOM     18  C   UNL A   1      45.041  24.523  29.746  1.00  0.00     0.021 A 
ATOM     19  C   UNL A   1      43.054  23.359  29.019  1.00  0.00     0.002 A 
ATOM     20  Br  UNL A   1      45.908  25.472  31.144  1.00  0.00    -0.051 Br
ATOM     21  C   UNL A   1      43.774  24.001  30.021  1.00  0.00     0.016 A 
ENDBRANCH   8   9
ENDBRANCH   6   8
ENDBRANCH   3   4
ENDBRANCH   2   3
ENDBRANCH   1   2
BRANCH   1  22
ATOM     22  C   UNL A   1      40.533  21.381  27.085  1.00  0.00     0.116 C 
BRANCH  22  23
ATOM     23  N   UNL A   1      39.295  21.661  26.372  1.00  0.00    -0.352 N 
ATOM     24  C   UNL A   1      38.598  22.840  26.260  1.00  0.00     0.251 C 
ATOM     25  H   UNL A   1      38.900  20.893  25.899  1.00  0.00     0.163 HD
ATOM     26  O   UNL A   1      37.483  22.853  25.746  1.00  0.00    -0.269 OA
BRANCH  24  27
ATOM     27  C   UNL A   1      39.177  24.097  26.776  1.00  0.00     0.039 A 
ATOM     28  C   UNL A   1      39.931  24.901  25.917  1.00  0.00     0.014 A 
ATOM     29  C   UNL A   1      39.001  24.470  28.110  1.00  0.00     0.014 A 
ATOM     30  C   UNL A   1      40.450  26.114  26.378  1.00  0.00     0.010 A 
ATOM     31  C   UNL A   1      39.472  25.705  28.553  1.00  0.00     0.010 A 
ATOM     32  C   UNL A   1      40.202  26.539  27.693  1.00  0.00    -0.014 A 
BRANCH  32  33
ATOM     33  C   UNL A   1      40.710  27.844  28.189  1.00  0.00     0.031 A 
ATOM     34  C   UNL A   1      42.189  28.102  28.253  1.00  0.00     0.074 A 
ATOM     35  C   UNL A   1      39.845  28.783  28.621  1.00  0.00     0.049 A 
ATOM     36  N   UNL A   1      42.826  29.165  28.677  1.00  0.00    -0.248 NA
ATOM     37  C   UNL A   1      43.070  27.018  27.794  1.00  0.00     0.031 C 
ATOM     38  C   UNL A   1      38.389  28.643  28.642  1.00  0.00     0.029 A 
ATOM     39  N   UNL A   1      40.067  30.040  29.128  1.00  0.00    -0.354 N 
ATOM     40  C   UNL A   1      44.176  28.879  28.531  1.00  0.00     0.074 A 
ATOM     41  C   UNL A   1      44.271  27.522  28.038  1.00  0.00     0.031 C 
ATOM     42  C   UNL A   1      37.846  29.778  29.112  1.00  0.00     0.029 A 
ATOM     43  C   UNL A   1      38.915  30.715  29.454  1.00  0.00     0.049 A 
ATOM     44  H   UNL A   1      40.966  30.421  29.245  1.00  0.00     0.167 HD
ATOM     45  C   UNL A   1      45.240  29.684  28.757  1.00  0.00     0.037 A 
ATOM     46  C   UNL A   1      38.741  31.948  29.967  1.00  0.00     0.037 A 
ATOM     47  C   UNL A   1      45.148  31.039  29.236  1.00  0.00     0.049 A 
ATOM     48  C   UNL A   1      39.943  32.808  30.250  1.00  0.00     0.074 A 
ATOM     49  C   UNL A   1      46.170  31.945  29.456  1.00  0.00     0.029 A 
ATOM     50  N   UNL A   1      43.965  31.679  29.571  1.00  0.00    -0.354 N 
ATOM     51  N   UNL A   1      41.212  32.549  30.050  1.00  0.00    -0.248 NA
ATOM     52  C   UNL A   1      39.689  34.136  30.829  1.00  0.00     0.031 C 
ATOM     53  C   UNL A   1      45.609  33.121  29.963  1.00  0.00     0.029 A 
ATOM     54  C   UNL A   1      44.234  32.963  30.017  1.00  0.00     0.049 A 
ATOM     55  H   UNL A   1      43.067  31.281  29.503  1.00  0.00     0.167 HD
ATOM     56  C   UNL A   1      41.904  33.685  30.450  1.00  0.00     0.074 A 
ATOM     57  C   UNL A   1      40.914  34.642  30.896  1.00  0.00     0.031 C 
ATOM     58  C   UNL A   1      43.240  33.911  30.449  1.00  0.00     0.037 A 
BRANCH  45  59
ATOM     59  C   UNL A   1      46.604  29.132  28.467  1.00  0.00     0.064 A 
ATOM     60  C   UNL A   1      47.404  28.596  29.488  1.00  0.00     0.173 A 
ATOM     61  C   UNL A   1      47.091  29.078  27.153  1.00  0.00     0.173 A 
ATOM     62  F   UNL A   1      46.985  28.632  30.762  1.00  0.00    -0.203 F 
ATOM     63  C   UNL A   1      48.649  28.043  29.206  1.00  0.00     0.198 A 
ATOM     64  C   UNL A   1      48.326  28.500  26.871  1.00  0.00     0.198 A 
ATOM     65  F   UNL A   1      46.363  29.571  26.140  1.00  0.00    -0.203 F 
ATOM     66  F   UNL A   1      49.410  27.568  30.202  1.00  0.00    -0.200 F 
ATOM     67  C   UNL A   1      49.105  27.987  27.898  1.00  0.00     0.200 A 
ATOM     68  F   UNL A   1      48.760  28.434  25.605  1.00  0.00    -0.200 F 
ATOM     69  F   UNL A   1      50.298  27.440  27.626  1.00  0.00    -0.200 F 
ENDBRANCH  45  59
BRANCH  46  70
ATOM     70  C   UNL A   1      37.369  32.462  30.208  1.00  0.00     0.064 A 
ATOM     71  C   UNL A   1      36.691  33.186  29.217  1.00  0.00     0.173 A 
ATOM     72  C   UNL A   1      36.705  32.240  31.423  1.00  0.00     0.173 A 
ATOM     73  F   UNL A   1      37.293  33.442  28.046  1.00  0.00    -0.203 F 
ATOM     74  C   UNL A   1      35.406  33.678  29.436  1.00  0.00     0.198 A 
ATOM     75  C   UNL A   1      35.411  32.711  31.632  1.00  0.00     0.198 A 
ATOM     76  F   UNL A   1      37.309  31.551  32.403  1.00  0.00    -0.203 F 
ATOM     77  F   UNL A   1      34.796  34.397  28.485  1.00  0.00    -0.200 F 
ATOM     78  C   UNL A   1      34.765  33.435  30.642  1.00  0.00     0.200 A 
ATOM     79  F   UNL A   1      34.789  32.465  32.794  1.00  0.00    -0.200 F 
ATOM     80  F   UNL A   1      33.526  33.902  30.849  1.00  0.00    -0.200 F 
ENDBRANCH  46  70
BRANCH  58  81
ATOM     81  C   UNL A   1      43.722  35.251  30.922  1.00  0.00     0.064 A 
ATOM     82  C   UNL A   1      43.805  36.348  30.052  1.00  0.00     0.173 A 
ATOM     83  C   UNL A   1      44.025  35.460  32.276  1.00  0.00     0.173 A 
ATOM     84  F   UNL A   1      43.538  36.195  28.746  1.00  0.00    -0.203 F 
ATOM     85  C   UNL A   1      44.182  37.603  30.520  1.00  0.00     0.198 A 
ATOM     86  C   UNL A   1      44.377  36.723  32.745  1.00  0.00     0.198 A 
ATOM     87  F   UNL A   1      43.954  34.445  33.151  1.00  0.00    -0.203 F 
ATOM     88  F   UNL A   1      44.283  38.631  29.666  1.00  0.00    -0.200 F 
ATOM     89  C   UNL A   1      44.458  37.792  31.867  1.00  0.00     0.200 A 
ATOM     90  F   UNL A   1      44.627  36.907  34.049  1.00  0.00    -0.200 F 
ATOM     91  F   UNL A   1      44.803  39.006  32.317  1.00  0.00    -0.200 F 
ENDBRANCH  58  81
ENDBRANCH  32  33
ENDBRANCH  24  27
ENDBRANCH  22  23
ENDBRANCH   1  22
TORSDOF 12
ENDMDL
MODEL 3
REMARK VINA RESULT:     -12.2      3.686     10.069
REMARK SMILES O=C(C[C@@H]1[NH2+]CCc2c(Br)cccc21)NCCCCNC(=O)c1ccc(-c2c3nc(c(-c4c(F)c(F)c(F)c(F)c4F)c4ccc([nH]4)c(-c4c(F)c(F)c(F)c(F)c4F)c4nc(c(-c5c(F)c(F)c(F)c(F)c5F)c5ccc2[nH]5)C=C4)C=C3)cc1
REMARK SMILES IDX 18 1 17 2 16 3 15 4 1 5 2 6 3 8 4 9 5 10 14 11 6 12 8 15
REMARK SMILES IDX 13 16 7 17 9 18 12 19 10 20 11 21 19 22 20 23 21 24 22 26
REMARK SMILES IDX 23 27 24 28 85 29 25 30 84 31 26 32 27 33 28 34 78 35 29 36
REMARK SMILES IDX 83 37 77 38 79 39 30 40 82 41 76 42 75 43 31 45 63 46 43 47
REMARK SMILES IDX 62 48 44 49 47 50 61 51 80 52 45 53 46 54 60 56 81 57 48 58
REMARK SMILES IDX 32 59 33 60 41 61 34 62 35 63 39 64 42 65 36 66 37 67 40 68
REMARK SMILES IDX 38 69 64 70 65 71 73 72 66 73 67 74 71 75 74 76 68 77 69 78
REMARK SMILES IDX 72 79 70 80 49 81 50 82 58 83 51 84 52 85 56 86 59 87 53 88
REMARK SMILES IDX 54 89 57 90 55 91
REMARK H PARENT 15 7 5 13 5 14 20 25 79 44 47 55
REMARK Flexibility Score: inf
ROOT
ATOM      1  C   UNL A   1      34.012  33.546  29.249  1.00  0.00     0.023 C 
ENDROOT
BRANCH   1   2
ATOM      2  C   UNL A   1      33.518  34.991  29.098  1.00  0.00     0.023 C 
BRANCH   2   3
ATOM      3  C   UNL A   1      33.114  35.684  30.399  1.00  0.00     0.116 C 
BRANCH   3   4
ATOM      4  N   UNL A   1      34.201  35.730  31.354  1.00  0.00    -0.356 N 
ATOM      5  O   UNL A   1      33.361  34.115  32.763  1.00  0.00    -0.275 OA
ATOM      6  C   UNL A   1      34.252  34.897  32.451  1.00  0.00     0.226 C 
ATOM      7  H   UNL A   1      34.928  36.378  31.214  1.00  0.00     0.163 HD
BRANCH   6   8
ATOM      8  C   UNL A   1      35.524  35.041  33.258  1.00  0.00     0.170 C 
BRANCH   8   9
ATOM      9  C   UNL A   1      36.540  33.880  33.128  1.00  0.00     0.223 C 
ATOM     10  N   UNL A   1      37.206  33.616  34.423  1.00  0.00    -0.339 N 
ATOM     11  C   UNL A   1      37.543  33.966  31.986  1.00  0.00     0.014 A 
ATOM     12  C   UNL A   1      38.281  34.574  34.670  1.00  0.00     0.265 C 
ATOM     13  H   UNL A   1      37.596  32.674  34.409  1.00  0.00     0.346 HD
ATOM     14  H   UNL A   1      36.514  33.708  35.166  1.00  0.00     0.346 HD
ATOM     15  C   UNL A   1      38.904  34.263  32.216  1.00  0.00    -0.019 A 
ATOM     16  C   UNL A   1      37.099  33.741  30.670  1.00  0.00     0.010 A 
ATOM     17  C   UNL A   1      39.399  34.449  33.632  1.00  0.00     0.098 C 
ATOM     18  C   UNL A   1      39.784  34.299  31.119  1.00  0.00     0.021 A 
ATOM     19  C   UNL A   1      37.975  33.828  29.590  1.00  0.00     0.002 A 
ATOM     20  Br  UNL A   1      41.650  34.570  31.341  1.00  0.00    -0.051 Br
ATOM     21  C   UNL A   1      39.319  34.104  29.815  1.00  0.00     0.016 A 
ENDBRANCH   8   9
ENDBRANCH   6   8
ENDBRANCH   3   4
ENDBRANCH   2   3
ENDBRANCH   1   2
BRANCH   1  22
ATOM     22  C   UNL A   1      34.705  32.965  28.019  1.00  0.00     0.116 C 
BRANCH  22  23
ATOM     23  N   UNL A   1      34.022  31.788  27.502  1.00  0.00    -0.352 N 
ATOM     24  C   UNL A   1      34.470  30.494  27.395  1.00  0.00     0.251 C 
ATOM     25  H   UNL A   1      33.104  31.942  27.183  1.00  0.00     0.163 HD
ATOM     26  O   UNL A   1      33.809  29.658  26.786  1.00  0.00    -0.269 OA
BRANCH  24  27
ATOM     27  C   UNL A   1      35.761  30.104  27.998  1.00  0.00     0.039 A 
ATOM     28  C   UNL A   1      35.793  29.697  29.335  1.00  0.00     0.014 A 
ATOM     29  C   UNL A   1      36.942  30.162  27.256  1.00  0.00     0.014 A 
ATOM     30  C   UNL A   1      36.999  29.285  29.907  1.00  0.00     0.010 A 
ATOM     31  C   UNL A   1      38.135  29.698  27.811  1.00  0.00     0.010 A 
ATOM     32  C   UNL A   1      38.176  29.255  29.141  1.00  0.00    -0.014 A 
BRANCH  32  33
ATOM     33  C   UNL A   1      39.459  28.781  29.719  1.00  0.00     0.031 A 
ATOM     34  C   UNL A   1      40.054  29.480  30.909  1.00  0.00     0.074 A 
ATOM     35  C   UNL A   1      40.111  27.747  29.152  1.00  0.00     0.049 A 
ATOM     36  N   UNL A   1      41.174  29.230  31.541  1.00  0.00    -0.248 NA
ATOM     37  C   UNL A   1      39.300  30.619  31.453  1.00  0.00     0.031 C 
ATOM     38  C   UNL A   1      39.657  27.006  27.975  1.00  0.00     0.029 A 
ATOM     39  N   UNL A   1      41.298  27.144  29.488  1.00  0.00    -0.354 N 
ATOM     40  C   UNL A   1      41.255  30.174  32.554  1.00  0.00     0.074 A 
ATOM     41  C   UNL A   1      40.103  31.041  32.418  1.00  0.00     0.031 C 
ATOM     42  C   UNL A   1      40.541  26.032  27.702  1.00  0.00     0.029 A 
ATOM     43  C   UNL A   1      41.638  26.097  28.665  1.00  0.00     0.049 A 
ATOM     44  H   UNL A   1      41.853  27.434  30.248  1.00  0.00     0.167 HD
ATOM     45  C   UNL A   1      42.186  30.291  33.530  1.00  0.00     0.037 A 
ATOM     46  C   UNL A   1      42.710  25.282  28.687  1.00  0.00     0.037 A 
ATOM     47  C   UNL A   1      43.325  29.423  33.675  1.00  0.00     0.049 A 
ATOM     48  C   UNL A   1      43.754  25.460  29.756  1.00  0.00     0.074 A 
ATOM     49  C   UNL A   1      44.300  29.440  34.656  1.00  0.00     0.029 A 
ATOM     50  N   UNL A   1      43.642  28.387  32.811  1.00  0.00    -0.354 N 
ATOM     51  N   UNL A   1      43.787  26.318  30.746  1.00  0.00    -0.248 NA
ATOM     52  C   UNL A   1      44.911  24.553  29.713  1.00  0.00     0.031 C 
ATOM     53  C   UNL A   1      45.231  28.438  34.364  1.00  0.00     0.029 A 
ATOM     54  C   UNL A   1      44.812  27.770  33.226  1.00  0.00     0.049 A 
ATOM     55  H   UNL A   1      43.116  28.127  32.020  1.00  0.00     0.167 HD
ATOM     56  C   UNL A   1      44.947  26.039  31.457  1.00  0.00     0.074 A 
ATOM     57  C   UNL A   1      45.587  24.924  30.793  1.00  0.00     0.031 C 
ATOM     58  C   UNL A   1      45.435  26.654  32.561  1.00  0.00     0.037 A 
BRANCH  45  59
ATOM     59  C   UNL A   1      42.002  31.385  34.539  1.00  0.00     0.064 A 
ATOM     60  C   UNL A   1      42.721  32.588  34.446  1.00  0.00     0.173 A 
ATOM     61  C   UNL A   1      41.058  31.261  35.568  1.00  0.00     0.173 A 
ATOM     62  F   UNL A   1      43.641  32.751  33.484  1.00  0.00    -0.203 F 
ATOM     63  C   UNL A   1      42.513  33.618  35.358  1.00  0.00     0.198 A 
ATOM     64  C   UNL A   1      40.833  32.304  36.462  1.00  0.00     0.198 A 
ATOM     65  F   UNL A   1      40.340  30.135  35.696  1.00  0.00    -0.203 F 
ATOM     66  F   UNL A   1      43.235  34.743  35.271  1.00  0.00    -0.200 F 
ATOM     67  C   UNL A   1      41.563  33.479  36.360  1.00  0.00     0.200 A 
ATOM     68  F   UNL A   1      39.906  32.175  37.421  1.00  0.00    -0.200 F 
ATOM     69  F   UNL A   1      41.353  34.478  37.228  1.00  0.00    -0.200 F 
ENDBRANCH  45  59
BRANCH  46  70
ATOM     70  C   UNL A   1      42.831  24.193  27.684  1.00  0.00     0.064 A 
ATOM     71  C   UNL A   1      43.363  24.447  26.412  1.00  0.00     0.173 A 
ATOM     72  C   UNL A   1      42.425  22.882  27.972  1.00  0.00     0.173 A 
ATOM     73  F   UNL A   1      43.745  25.690  26.083  1.00  0.00    -0.203 F 
ATOM     74  C   UNL A   1      43.474  23.434  25.461  1.00  0.00     0.198 A 
ATOM     75  C   UNL A   1      42.560  21.865  27.029  1.00  0.00     0.198 A 
ATOM     76  F   UNL A   1      41.912  22.586  29.175  1.00  0.00    -0.203 F 
ATOM     77  F   UNL A   1      43.953  23.713  24.242  1.00  0.00    -0.200 F 
ATOM     78  C   UNL A   1      43.078  22.142  25.773  1.00  0.00     0.200 A 
ATOM     79  F   UNL A   1      42.187  20.614  27.337  1.00  0.00    -0.200 F 
ATOM     80  F   UNL A   1      43.192  21.166  24.862  1.00  0.00    -0.200 F 
ENDBRANCH  46  70
BRANCH  58  81
ATOM     81  C   UNL A   1      46.715  26.130  33.144  1.00  0.00     0.064 A 
ATOM     82  C   UNL A   1      46.722  25.060  34.050  1.00  0.00     0.173 A 
ATOM     83  C   UNL A   1      47.951  26.650  32.730  1.00  0.00     0.173 A 
ATOM     84  F   UNL A   1      45.566  24.537  34.487  1.00  0.00    -0.203 F 
ATOM     85  C   UNL A   1      47.920  24.535  34.526  1.00  0.00     0.198 A 
ATOM     86  C   UNL A   1      49.147  26.105  33.188  1.00  0.00     0.198 A 
ATOM     87  F   UNL A   1      47.998  27.670  31.859  1.00  0.00    -0.203 F 
ATOM     88  F   UNL A   1      47.904  23.531  35.414  1.00  0.00    -0.200 F 
ATOM     89  C   UNL A   1      49.131  25.051  34.087  1.00  0.00     0.200 A 
ATOM     90  F   UNL A   1      50.316  26.595  32.749  1.00  0.00    -0.200 F 
ATOM     91  F   UNL A   1      50.283  24.531  34.533  1.00  0.00    -0.200 F 
ENDBRANCH  58  81
ENDBRANCH  32  33
ENDBRANCH  24  27
ENDBRANCH  22  23
ENDBRANCH   1  22
TORSDOF 12
ENDMDL
