MODEL 1
REMARK VINA RESULT:     -13.3      0.000      0.000
REMARK SMILES O=C(NCCCCNC(=O)[C@@]1(CCc2ccccc2)CCC[N@@H+](Cc2cccnc2)C1)c1ccc(-c2c3nc(c(-c4c(F)c(F)c(F)c(F)c4F)c4ccc([nH]4)c(-c4c(F)c(F)c(F)c(F)c4F)c4nc(c(-c5c(F)c(F)c(F)c(F)c5F)c5ccc2[nH]5)C=C4)C=C3)cc1
REMARK SMILES IDX 6 1 5 2 4 3 3 4 1 5 2 6 32 8 33 9 94 10 34 11 93 12 35 13
REMARK SMILES IDX 36 14 37 15 87 16 38 17 92 18 86 19 88 20 39 21 91 22 85 23
REMARK SMILES IDX 84 24 40 26 72 27 52 28 71 29 53 30 56 31 70 32 89 33 54 34
REMARK SMILES IDX 55 35 69 37 90 38 57 39 41 40 42 41 50 42 43 43 44 44 48 45
REMARK SMILES IDX 51 46 45 47 46 48 49 49 47 50 73 51 74 52 82 53 75 54 76 55
REMARK SMILES IDX 80 56 83 57 77 58 78 59 81 60 79 61 58 62 59 63 67 64 60 65
REMARK SMILES IDX 61 66 65 67 68 68 62 69 63 70 66 71 64 72 7 73 8 74 9 75
REMARK SMILES IDX 10 77 11 78 20 79 31 80 21 81 23 82 22 83 12 85 13 86 14 87
REMARK SMILES IDX 15 88 19 89 16 90 18 91 17 92 24 93 25 94 26 95 30 96 27 97
REMARK SMILES IDX 29 98 28 99
REMARK H PARENT 3 7 88 25 56 36 8 76 23 84
REMARK Flexibility Score: inf
ROOT
ATOM      1  C   UNL A   1      32.269  27.097  26.477  1.00  0.00     0.023 C 
ENDROOT
BRANCH   1   2
ATOM      2  C   UNL A   1      31.919  28.560  26.727  1.00  0.00     0.023 C 
BRANCH   2   3
ATOM      3  C   UNL A   1      32.919  29.561  26.173  1.00  0.00     0.116 C 
BRANCH   3   4
ATOM      4  N   UNL A   1      32.609  30.943  26.507  1.00  0.00    -0.352 N 
ATOM      5  O   UNL A   1      32.904  32.932  27.546  1.00  0.00    -0.269 OA
ATOM      6  C   UNL A   1      33.342  31.820  27.273  1.00  0.00     0.251 C 
ATOM      7  H   UNL A   1      31.767  31.296  26.139  1.00  0.00     0.163 HD
BRANCH   6   8
ATOM      8  C   UNL A   1      34.648  31.381  27.802  1.00  0.00     0.039 A 
ATOM      9  C   UNL A   1      34.827  30.063  28.224  1.00  0.00     0.014 A 
ATOM     10  C   UNL A   1      35.679  32.315  27.940  1.00  0.00     0.014 A 
ATOM     11  C   UNL A   1      35.965  29.723  28.940  1.00  0.00     0.010 A 
ATOM     12  C   UNL A   1      36.865  31.942  28.576  1.00  0.00     0.010 A 
ATOM     13  C   UNL A   1      36.999  30.657  29.122  1.00  0.00    -0.014 A 
BRANCH  13  14
ATOM     14  C   UNL A   1      38.217  30.242  29.860  1.00  0.00     0.031 A 
ATOM     15  C   UNL A   1      38.452  30.670  31.281  1.00  0.00     0.074 A 
ATOM     16  C   UNL A   1      39.089  29.420  29.246  1.00  0.00     0.049 A 
ATOM     17  N   UNL A   1      39.436  30.354  32.085  1.00  0.00    -0.248 NA
ATOM     18  C   UNL A   1      37.462  31.579  31.879  1.00  0.00     0.031 C 
ATOM     19  C   UNL A   1      38.966  28.946  27.866  1.00  0.00     0.029 A 
ATOM     20  N   UNL A   1      40.227  28.811  29.705  1.00  0.00    -0.354 N 
ATOM     21  C   UNL A   1      39.202  31.045  33.266  1.00  0.00     0.074 A 
ATOM     22  C   UNL A   1      37.991  31.813  33.073  1.00  0.00     0.031 C 
ATOM     23  C   UNL A   1      39.948  28.071  27.612  1.00  0.00     0.029 A 
ATOM     24  C   UNL A   1      40.806  27.971  28.787  1.00  0.00     0.049 A 
ATOM     25  H   UNL A   1      40.595  28.963  30.606  1.00  0.00     0.167 HD
ATOM     26  C   UNL A   1      39.932  31.034  34.409  1.00  0.00     0.037 A 
ATOM     27  C   UNL A   1      41.910  27.209  28.877  1.00  0.00     0.037 A 
ATOM     28  C   UNL A   1      41.119  30.240  34.606  1.00  0.00     0.049 A 
ATOM     29  C   UNL A   1      42.696  27.216  30.155  1.00  0.00     0.074 A 
ATOM     30  C   UNL A   1      41.899  30.122  35.742  1.00  0.00     0.029 A 
ATOM     31  N   UNL A   1      41.695  29.428  33.640  1.00  0.00    -0.354 N 
ATOM     32  N   UNL A   1      42.446  27.850  31.275  1.00  0.00    -0.248 NA
ATOM     33  C   UNL A   1      43.920  26.406  30.179  1.00  0.00     0.031 C 
ATOM     34  C   UNL A   1      42.973  29.272  35.451  1.00  0.00     0.029 A 
ATOM     35  C   UNL A   1      42.835  28.824  34.146  1.00  0.00     0.049 A 
ATOM     36  H   UNL A   1      41.346  29.300  32.728  1.00  0.00     0.167 HD
ATOM     37  C   UNL A   1      43.471  27.504  32.142  1.00  0.00     0.074 A 
ATOM     38  C   UNL A   1      44.334  26.588  31.425  1.00  0.00     0.031 C 
ATOM     39  C   UNL A   1      43.681  27.913  33.418  1.00  0.00     0.037 A 
BRANCH  26  40
ATOM     40  C   UNL A   1      39.485  31.924  35.533  1.00  0.00     0.064 A 
ATOM     41  C   UNL A   1      38.546  31.502  36.485  1.00  0.00     0.173 A 
ATOM     42  C   UNL A   1      40.042  33.203  35.685  1.00  0.00     0.173 A 
ATOM     43  F   UNL A   1      37.974  30.293  36.380  1.00  0.00    -0.203 F 
ATOM     44  C   UNL A   1      38.163  32.336  37.534  1.00  0.00     0.198 A 
ATOM     45  C   UNL A   1      39.677  34.025  36.749  1.00  0.00     0.198 A 
ATOM     46  F   UNL A   1      40.950  33.654  34.805  1.00  0.00    -0.203 F 
ATOM     47  F   UNL A   1      37.233  31.929  38.408  1.00  0.00    -0.200 F 
ATOM     48  C   UNL A   1      38.734  33.593  37.668  1.00  0.00     0.200 A 
ATOM     49  F   UNL A   1      40.239  35.235  36.883  1.00  0.00    -0.200 F 
ATOM     50  F   UNL A   1      38.370  34.392  38.681  1.00  0.00    -0.200 F 
ENDBRANCH  26  40
BRANCH  27  51
ATOM     51  C   UNL A   1      42.321  26.370  27.724  1.00  0.00     0.064 A 
ATOM     52  C   UNL A   1      43.289  26.821  26.816  1.00  0.00     0.173 A 
ATOM     53  C   UNL A   1      41.776  25.095  27.519  1.00  0.00     0.173 A 
ATOM     54  F   UNL A   1      43.826  28.041  26.962  1.00  0.00    -0.203 F 
ATOM     55  C   UNL A   1      43.687  26.032  25.740  1.00  0.00     0.198 A 
ATOM     56  C   UNL A   1      42.197  24.294  26.460  1.00  0.00     0.198 A 
ATOM     57  F   UNL A   1      40.852  24.615  28.364  1.00  0.00    -0.203 F 
ATOM     58  F   UNL A   1      44.589  26.500  24.867  1.00  0.00    -0.200 F 
ATOM     59  C   UNL A   1      43.147  24.766  25.567  1.00  0.00     0.200 A 
ATOM     60  F   UNL A   1      41.686  23.065  26.308  1.00  0.00    -0.200 F 
ATOM     61  F   UNL A   1      43.540  24.002  24.540  1.00  0.00    -0.200 F 
ENDBRANCH  27  51
BRANCH  39  62
ATOM     62  C   UNL A   1      44.877  27.345  34.122  1.00  0.00     0.064 A 
ATOM     63  C   UNL A   1      46.118  27.996  34.103  1.00  0.00     0.173 A 
ATOM     64  C   UNL A   1      44.775  26.140  34.834  1.00  0.00     0.173 A 
ATOM     65  F   UNL A   1      46.270  29.141  33.420  1.00  0.00    -0.203 F 
ATOM     66  C   UNL A   1      47.224  27.447  34.746  1.00  0.00     0.198 A 
ATOM     67  C   UNL A   1      45.875  25.608  35.498  1.00  0.00     0.198 A 
ATOM     68  F   UNL A   1      43.608  25.482  34.885  1.00  0.00    -0.203 F 
ATOM     69  F   UNL A   1      48.415  28.058  34.668  1.00  0.00    -0.200 F 
ATOM     70  C   UNL A   1      47.100  26.256  35.446  1.00  0.00     0.200 A 
ATOM     71  F   UNL A   1      45.753  24.463  36.184  1.00  0.00    -0.200 F 
ATOM     72  F   UNL A   1      48.166  25.727  36.063  1.00  0.00    -0.200 F 
ENDBRANCH  39  62
ENDBRANCH  13  14
ENDBRANCH   6   8
ENDBRANCH   3   4
ENDBRANCH   2   3
ENDBRANCH   1   2
BRANCH   1  73
ATOM     73  C   UNL A   1      31.155  26.261  25.839  1.00  0.00     0.116 C 
BRANCH  73  74
ATOM     74  N   UNL A   1      30.785  25.124  26.661  1.00  0.00    -0.355 N 
ATOM     75  C   UNL A   1      30.958  23.781  26.522  1.00  0.00     0.231 C 
ATOM     76  H   UNL A   1      30.315  25.376  27.489  1.00  0.00     0.163 HD
ATOM     77  O   UNL A   1      30.455  23.096  27.418  1.00  0.00    -0.274 OA
BRANCH  75  78
ATOM     78  C   UNL A   1      31.748  23.133  25.354  1.00  0.00     0.098 C 
ATOM     79  C   UNL A   1      31.126  23.627  24.020  1.00  0.00     0.028 C 
ATOM     80  C   UNL A   1      33.191  23.711  25.352  1.00  0.00     0.279 C 
ATOM     81  C   UNL A   1      31.965  23.230  22.805  1.00  0.00     0.063 C 
ATOM     82  N   UNL A   1      34.032  23.472  24.169  1.00  0.00    -0.330 N 
ATOM     83  C   UNL A   1      33.363  23.819  22.910  1.00  0.00     0.262 C 
ATOM     84  H   UNL A   1      34.191  22.466  24.130  1.00  0.00     0.348 HD
BRANCH  78  85
ATOM     85  C   UNL A   1      31.734  21.574  25.465  1.00  0.00     0.027 C 
BRANCH  85  86
ATOM     86  C   UNL A   1      33.088  20.823  25.447  1.00  0.00     0.037 C 
BRANCH  86  87
ATOM     87  C   UNL A   1      33.270  19.585  24.598  1.00  0.00    -0.048 A 
ATOM     88  C   UNL A   1      32.402  19.234  23.558  1.00  0.00     0.004 A 
ATOM     89  C   UNL A   1      34.398  18.776  24.810  1.00  0.00     0.004 A 
ATOM     90  C   UNL A   1      32.573  18.043  22.847  1.00  0.00     0.000 A 
ATOM     91  C   UNL A   1      34.599  17.608  24.068  1.00  0.00     0.000 A 
ATOM     92  C   UNL A   1      33.669  17.226  23.105  1.00  0.00     0.000 A 
ENDBRANCH  86  87
ENDBRANCH  85  86
ENDBRANCH  78  85
BRANCH  82  93
ATOM     93  C   UNL A   1      35.358  24.133  24.297  1.00  0.00     0.300 C 
BRANCH  93  94
ATOM     94  C   UNL A   1      36.511  23.236  24.696  1.00  0.00     0.025 A 
ATOM     95  C   UNL A   1      36.598  21.895  24.305  1.00  0.00     0.013 A 
ATOM     96  C   UNL A   1      37.491  23.700  25.571  1.00  0.00     0.120 A 
ATOM     97  C   UNL A   1      37.576  21.072  24.856  1.00  0.00     0.021 A 
ATOM     98  N   UNL A   1      38.465  22.930  26.107  1.00  0.00    -0.264 NA
ATOM     99  C   UNL A   1      38.470  21.627  25.754  1.00  0.00     0.111 A 
ENDBRANCH  93  94
ENDBRANCH  82  93
ENDBRANCH  75  78
ENDBRANCH  73  74
ENDBRANCH   1  73
TORSDOF 16
ENDMDL
MODEL 2
REMARK VINA RESULT:     -13.1      4.409      9.641
REMARK SMILES O=C(NCCCCNC(=O)[C@@]1(CCc2ccccc2)CCC[N@@H+](Cc2cccnc2)C1)c1ccc(-c2c3nc(c(-c4c(F)c(F)c(F)c(F)c4F)c4ccc([nH]4)c(-c4c(F)c(F)c(F)c(F)c4F)c4nc(c(-c5c(F)c(F)c(F)c(F)c5F)c5ccc2[nH]5)C=C4)C=C3)cc1
REMARK SMILES IDX 6 1 5 2 4 3 3 4 1 5 2 6 32 8 33 9 94 10 34 11 93 12 35 13
REMARK SMILES IDX 36 14 37 15 87 16 38 17 92 18 86 19 88 20 39 21 91 22 85 23
REMARK SMILES IDX 84 24 40 26 72 27 52 28 71 29 53 30 56 31 70 32 89 33 54 34
REMARK SMILES IDX 55 35 69 37 90 38 57 39 41 40 42 41 50 42 43 43 44 44 48 45
REMARK SMILES IDX 51 46 45 47 46 48 49 49 47 50 73 51 74 52 82 53 75 54 76 55
REMARK SMILES IDX 80 56 83 57 77 58 78 59 81 60 79 61 58 62 59 63 67 64 60 65
REMARK SMILES IDX 61 66 65 67 68 68 62 69 63 70 66 71 64 72 7 73 8 74 9 75
REMARK SMILES IDX 10 77 11 78 20 79 31 80 21 81 23 82 22 83 12 85 13 86 14 87
REMARK SMILES IDX 15 88 19 89 16 90 18 91 17 92 24 93 25 94 26 95 30 96 27 97
REMARK SMILES IDX 29 98 28 99
REMARK H PARENT 3 7 88 25 56 36 8 76 23 84
REMARK Flexibility Score: inf
ROOT
ATOM      1  C   UNL A   1      36.961  21.431  24.449  1.00  0.00     0.023 C 
ENDROOT
BRANCH   1   2
ATOM      2  C   UNL A   1      37.721  20.230  25.001  1.00  0.00     0.023 C 
BRANCH   2   3
ATOM      3  C   UNL A   1      39.006  20.568  25.737  1.00  0.00     0.116 C 
BRANCH   3   4
ATOM      4  N   UNL A   1      39.930  19.449  25.846  1.00  0.00    -0.352 N 
ATOM      5  O   UNL A   1      41.948  18.454  26.092  1.00  0.00    -0.269 OA
ATOM      6  C   UNL A   1      41.277  19.480  26.126  1.00  0.00     0.251 C 
ATOM      7  H   UNL A   1      39.542  18.556  25.700  1.00  0.00     0.163 HD
BRANCH   6   8
ATOM      8  C   UNL A   1      41.911  20.779  26.423  1.00  0.00     0.039 A 
ATOM      9  C   UNL A   1      42.219  21.125  27.739  1.00  0.00     0.014 A 
ATOM     10  C   UNL A   1      42.136  21.684  25.381  1.00  0.00     0.014 A 
ATOM     11  C   UNL A   1      42.584  22.430  28.036  1.00  0.00     0.010 A 
ATOM     12  C   UNL A   1      42.597  22.970  25.674  1.00  0.00     0.010 A 
ATOM     13  C   UNL A   1      42.781  23.367  27.007  1.00  0.00    -0.014 A 
BRANCH  13  14
ATOM     14  C   UNL A   1      43.209  24.741  27.363  1.00  0.00     0.031 A 
ATOM     15  C   UNL A   1      44.591  25.237  27.042  1.00  0.00     0.074 A 
ATOM     16  C   UNL A   1      42.308  25.564  27.935  1.00  0.00     0.049 A 
ATOM     17  N   UNL A   1      45.107  26.424  27.238  1.00  0.00    -0.248 NA
ATOM     18  C   UNL A   1      45.521  24.275  26.431  1.00  0.00     0.031 C 
ATOM     19  C   UNL A   1      40.941  25.188  28.297  1.00  0.00     0.029 A 
ATOM     20  N   UNL A   1      42.392  26.887  28.279  1.00  0.00    -0.354 N 
ATOM     21  C   UNL A   1      46.424  26.345  26.806  1.00  0.00     0.074 A 
ATOM     22  C   UNL A   1      46.637  24.988  26.351  1.00  0.00     0.031 C 
ATOM     23  C   UNL A   1      40.293  26.270  28.751  1.00  0.00     0.029 A 
ATOM     24  C   UNL A   1      41.217  27.398  28.771  1.00  0.00     0.049 A 
ATOM     25  H   UNL A   1      43.214  27.420  28.183  1.00  0.00     0.167 HD
ATOM     26  C   UNL A   1      47.366  27.321  26.787  1.00  0.00     0.037 A 
ATOM     27  C   UNL A   1      40.916  28.637  29.200  1.00  0.00     0.037 A 
ATOM     28  C   UNL A   1      47.135  28.679  27.211  1.00  0.00     0.049 A 
ATOM     29  C   UNL A   1      41.979  29.695  29.166  1.00  0.00     0.074 A 
ATOM     30  C   UNL A   1      48.010  29.751  27.185  1.00  0.00     0.029 A 
ATOM     31  N   UNL A   1      45.942  29.151  27.738  1.00  0.00    -0.354 N 
ATOM     32  N   UNL A   1      43.211  29.615  28.725  1.00  0.00    -0.248 NA
ATOM     33  C   UNL A   1      41.611  31.015  29.693  1.00  0.00     0.031 C 
ATOM     34  C   UNL A   1      47.359  30.861  27.736  1.00  0.00     0.029 A 
ATOM     35  C   UNL A   1      46.064  30.493  28.063  1.00  0.00     0.049 A 
ATOM     36  H   UNL A   1      45.128  28.611  27.864  1.00  0.00     0.167 HD
ATOM     37  C   UNL A   1      43.761  30.874  28.907  1.00  0.00     0.074 A 
ATOM     38  C   UNL A   1      42.720  31.706  29.478  1.00  0.00     0.031 C 
ATOM     39  C   UNL A   1      45.017  31.304  28.629  1.00  0.00     0.037 A 
BRANCH  26  40
ATOM     40  C   UNL A   1      48.743  26.954  26.316  1.00  0.00     0.064 A 
ATOM     41  C   UNL A   1      49.710  26.430  27.187  1.00  0.00     0.173 A 
ATOM     42  C   UNL A   1      49.085  27.085  24.962  1.00  0.00     0.173 A 
ATOM     43  F   UNL A   1      49.439  26.294  28.494  1.00  0.00    -0.203 F 
ATOM     44  C   UNL A   1      50.975  26.073  26.724  1.00  0.00     0.198 A 
ATOM     45  C   UNL A   1      50.341  26.703  24.496  1.00  0.00     0.198 A 
ATOM     46  F   UNL A   1      48.196  27.575  24.084  1.00  0.00    -0.203 F 
ATOM     47  F   UNL A   1      51.897  25.614  27.581  1.00  0.00    -0.200 F 
ATOM     48  C   UNL A   1      51.286  26.204  25.379  1.00  0.00     0.200 A 
ATOM     49  F   UNL A   1      50.636  26.820  23.194  1.00  0.00    -0.200 F 
ATOM     50  F   UNL A   1      52.502  25.855  24.933  1.00  0.00    -0.200 F 
ENDBRANCH  26  40
BRANCH  27  51
ATOM     51  C   UNL A   1      39.545  28.936  29.683  1.00  0.00     0.064 A 
ATOM     52  C   UNL A   1      39.192  28.719  31.021  1.00  0.00     0.173 A 
ATOM     53  C   UNL A   1      38.570  29.466  28.826  1.00  0.00     0.173 A 
ATOM     54  F   UNL A   1      40.086  28.197  31.874  1.00  0.00    -0.203 F 
ATOM     55  C   UNL A   1      37.910  29.010  31.482  1.00  0.00     0.198 A 
ATOM     56  C   UNL A   1      37.298  29.786  29.295  1.00  0.00     0.198 A 
ATOM     57  F   UNL A   1      38.862  29.699  27.538  1.00  0.00    -0.203 F 
ATOM     58  F   UNL A   1      37.587  28.761  32.758  1.00  0.00    -0.200 F 
ATOM     59  C   UNL A   1      36.967  29.552  30.621  1.00  0.00     0.200 A 
ATOM     60  F   UNL A   1      36.397  30.325  28.463  1.00  0.00    -0.200 F 
ATOM     61  F   UNL A   1      35.738  29.844  31.067  1.00  0.00    -0.200 F 
ENDBRANCH  27  51
BRANCH  39  62
ATOM     62  C   UNL A   1      45.318  32.745  28.916  1.00  0.00     0.064 A 
ATOM     63  C   UNL A   1      45.865  33.150  30.142  1.00  0.00     0.173 A 
ATOM     64  C   UNL A   1      45.067  33.728  27.948  1.00  0.00     0.173 A 
ATOM     65  F   UNL A   1      46.105  32.249  31.106  1.00  0.00    -0.203 F 
ATOM     66  C   UNL A   1      46.122  34.494  30.400  1.00  0.00     0.198 A 
ATOM     67  C   UNL A   1      45.351  35.067  28.199  1.00  0.00     0.198 A 
ATOM     68  F   UNL A   1      44.548  33.389  26.759  1.00  0.00    -0.203 F 
ATOM     69  F   UNL A   1      46.593  34.866  31.598  1.00  0.00    -0.200 F 
ATOM     70  C   UNL A   1      45.869  35.450  29.427  1.00  0.00     0.200 A 
ATOM     71  F   UNL A   1      45.116  35.989  27.255  1.00  0.00    -0.200 F 
ATOM     72  F   UNL A   1      46.115  36.743  29.677  1.00  0.00    -0.200 F 
ENDBRANCH  39  62
ENDBRANCH  13  14
ENDBRANCH   6   8
ENDBRANCH   3   4
ENDBRANCH   2   3
ENDBRANCH   1   2
BRANCH   1  73
ATOM     73  C   UNL A   1      36.429  22.406  25.504  1.00  0.00     0.116 C 
BRANCH  73  74
ATOM     74  N   UNL A   1      35.658  21.732  26.531  1.00  0.00    -0.355 N 
ATOM     75  C   UNL A   1      34.340  21.761  26.874  1.00  0.00     0.231 C 
ATOM     76  H   UNL A   1      36.197  21.131  27.095  1.00  0.00     0.163 HD
ATOM     77  O   UNL A   1      34.044  21.079  27.860  1.00  0.00    -0.274 OA
BRANCH  75  78
ATOM     78  C   UNL A   1      33.265  22.556  26.086  1.00  0.00     0.098 C 
ATOM     79  C   UNL A   1      31.946  22.524  26.906  1.00  0.00     0.028 C 
ATOM     80  C   UNL A   1      33.676  24.055  26.062  1.00  0.00     0.279 C 
ATOM     81  C   UNL A   1      30.884  23.463  26.334  1.00  0.00     0.063 C 
ATOM     82  N   UNL A   1      32.674  25.042  25.632  1.00  0.00    -0.330 N 
ATOM     83  C   UNL A   1      31.391  24.897  26.327  1.00  0.00     0.262 C 
ATOM     84  H   UNL A   1      32.482  24.845  24.650  1.00  0.00     0.348 HD
BRANCH  78  85
ATOM     85  C   UNL A   1      33.076  21.970  24.650  1.00  0.00     0.027 C 
BRANCH  85  86
ATOM     86  C   UNL A   1      32.220  20.690  24.484  1.00  0.00     0.037 C 
BRANCH  86  87
ATOM     87  C   UNL A   1      32.859  19.389  24.056  1.00  0.00    -0.048 A 
ATOM     88  C   UNL A   1      32.322  18.560  23.064  1.00  0.00     0.004 A 
ATOM     89  C   UNL A   1      34.087  19.015  24.626  1.00  0.00     0.004 A 
ATOM     90  C   UNL A   1      32.914  17.332  22.752  1.00  0.00     0.000 A 
ATOM     91  C   UNL A   1      34.707  17.810  24.281  1.00  0.00     0.000 A 
ATOM     92  C   UNL A   1      34.104  16.954  23.365  1.00  0.00     0.000 A 
ENDBRANCH  86  87
ENDBRANCH  85  86
ENDBRANCH  78  85
BRANCH  82  93
ATOM     93  C   UNL A   1      33.201  26.430  25.716  1.00  0.00     0.300 C 
BRANCH  93  94
ATOM     94  C   UNL A   1      33.546  27.091  24.398  1.00  0.00     0.025 A 
ATOM     95  C   UNL A   1      33.727  28.472  24.267  1.00  0.00     0.013 A 
ATOM     96  C   UNL A   1      33.592  26.337  23.226  1.00  0.00     0.120 A 
ATOM     97  C   UNL A   1      33.852  29.041  23.002  1.00  0.00     0.021 A 
ATOM     98  N   UNL A   1      33.734  26.859  21.986  1.00  0.00    -0.264 NA
ATOM     99  C   UNL A   1      33.837  28.202  21.902  1.00  0.00     0.111 A 
ENDBRANCH  93  94
ENDBRANCH  82  93
ENDBRANCH  75  78
ENDBRANCH  73  74
ENDBRANCH   1  73
TORSDOF 16
ENDMDL
MODEL 3
REMARK VINA RESULT:     -13.0      1.146      2.665
REMARK SMILES O=C(NCCCCNC(=O)[C@@]1(CCc2ccccc2)CCC[N@@H+](Cc2cccnc2)C1)c1ccc(-c2c3nc(c(-c4c(F)c(F)c(F)c(F)c4F)c4ccc([nH]4)c(-c4c(F)c(F)c(F)c(F)c4F)c4nc(c(-c5c(F)c(F)c(F)c(F)c5F)c5ccc2[nH]5)C=C4)C=C3)cc1
REMARK SMILES IDX 6 1 5 2 4 3 3 4 1 5 2 6 32 8 33 9 94 10 34 11 93 12 35 13
REMARK SMILES IDX 36 14 37 15 87 16 38 17 92 18 86 19 88 20 39 21 91 22 85 23
REMARK SMILES IDX 84 24 40 26 72 27 52 28 71 29 53 30 56 31 70 32 89 33 54 34
REMARK SMILES IDX 55 35 69 37 90 38 57 39 41 40 42 41 50 42 43 43 44 44 48 45
REMARK SMILES IDX 51 46 45 47 46 48 49 49 47 50 73 51 74 52 82 53 75 54 76 55
REMARK SMILES IDX 80 56 83 57 77 58 78 59 81 60 79 61 58 62 59 63 67 64 60 65
REMARK SMILES IDX 61 66 65 67 68 68 62 69 63 70 66 71 64 72 7 73 8 74 9 75
REMARK SMILES IDX 10 77 11 78 20 79 31 80 21 81 23 82 22 83 12 85 13 86 14 87
REMARK SMILES IDX 15 88 19 89 16 90 18 91 17 92 24 93 25 94 26 95 30 96 27 97
REMARK SMILES IDX 29 98 28 99
REMARK H PARENT 3 7 88 25 56 36 8 76 23 84
REMARK Flexibility Score: inf
ROOT
ATOM      1  C   UNL A   1      32.205  27.177  26.465  1.00  0.00     0.023 C 
ENDROOT
BRANCH   1   2
ATOM      2  C   UNL A   1      31.906  28.639  26.782  1.00  0.00     0.023 C 
BRANCH   2   3
ATOM      3  C   UNL A   1      32.888  29.636  26.192  1.00  0.00     0.116 C 
BRANCH   3   4
ATOM      4  N   UNL A   1      32.589  31.021  26.528  1.00  0.00    -0.352 N 
ATOM      5  O   UNL A   1      32.894  33.001  27.581  1.00  0.00    -0.269 OA
ATOM      6  C   UNL A   1      33.323  31.884  27.309  1.00  0.00     0.251 C 
ATOM      7  H   UNL A   1      31.757  31.385  26.150  1.00  0.00     0.163 HD
BRANCH   6   8
ATOM      8  C   UNL A   1      34.616  31.428  27.854  1.00  0.00     0.039 A 
ATOM      9  C   UNL A   1      34.770  30.108  28.281  1.00  0.00     0.014 A 
ATOM     10  C   UNL A   1      35.658  32.347  28.000  1.00  0.00     0.014 A 
ATOM     11  C   UNL A   1      35.895  29.753  29.011  1.00  0.00     0.010 A 
ATOM     12  C   UNL A   1      36.832  31.958  28.651  1.00  0.00     0.010 A 
ATOM     13  C   UNL A   1      36.941  30.672  29.201  1.00  0.00    -0.014 A 
BRANCH  13  14
ATOM     14  C   UNL A   1      38.144  30.241  29.954  1.00  0.00     0.031 A 
ATOM     15  C   UNL A   1      38.354  30.643  31.387  1.00  0.00     0.074 A 
ATOM     16  C   UNL A   1      39.025  29.427  29.341  1.00  0.00     0.049 A 
ATOM     17  N   UNL A   1      39.322  30.311  32.203  1.00  0.00    -0.248 NA
ATOM     18  C   UNL A   1      37.355  31.544  31.982  1.00  0.00     0.031 C 
ATOM     19  C   UNL A   1      38.926  28.978  27.951  1.00  0.00     0.029 A 
ATOM     20  N   UNL A   1      40.153  28.808  29.811  1.00  0.00    -0.354 N 
ATOM     21  C   UNL A   1      39.069  30.982  33.392  1.00  0.00     0.074 A 
ATOM     22  C   UNL A   1      37.862  31.756  33.189  1.00  0.00     0.031 C 
ATOM     23  C   UNL A   1      39.911  28.105  27.700  1.00  0.00     0.029 A 
ATOM     24  C   UNL A   1      40.747  27.983  28.889  1.00  0.00     0.049 A 
ATOM     25  H   UNL A   1      40.505  28.942  30.721  1.00  0.00     0.167 HD
ATOM     26  C   UNL A   1      39.777  30.948  34.547  1.00  0.00     0.037 A 
ATOM     27  C   UNL A   1      41.847  27.216  28.985  1.00  0.00     0.037 A 
ATOM     28  C   UNL A   1      40.959  30.148  34.751  1.00  0.00     0.049 A 
ATOM     29  C   UNL A   1      42.610  27.199  30.278  1.00  0.00     0.074 A 
ATOM     30  C   UNL A   1      41.718  30.008  35.900  1.00  0.00     0.029 A 
ATOM     31  N   UNL A   1      41.551  29.351  33.782  1.00  0.00    -0.354 N 
ATOM     32  N   UNL A   1      42.340  27.813  31.403  1.00  0.00    -0.248 NA
ATOM     33  C   UNL A   1      43.831  26.385  30.310  1.00  0.00     0.031 C 
ATOM     34  C   UNL A   1      42.795  29.161  35.613  1.00  0.00     0.029 A 
ATOM     35  C   UNL A   1      42.680  28.735  34.298  1.00  0.00     0.049 A 
ATOM     36  H   UNL A   1      41.218  29.240  32.862  1.00  0.00     0.167 HD
ATOM     37  C   UNL A   1      43.348  27.450  32.283  1.00  0.00     0.074 A 
ATOM     38  C   UNL A   1      44.222  26.544  31.566  1.00  0.00     0.031 C 
ATOM     39  C   UNL A   1      43.536  27.835  33.570  1.00  0.00     0.037 A 
BRANCH  26  40
ATOM     40  C   UNL A   1      39.312  31.820  35.678  1.00  0.00     0.064 A 
ATOM     41  C   UNL A   1      38.368  31.377  36.617  1.00  0.00     0.173 A 
ATOM     42  C   UNL A   1      39.855  33.102  35.851  1.00  0.00     0.173 A 
ATOM     43  F   UNL A   1      37.810  30.163  36.491  1.00  0.00    -0.203 F 
ATOM     44  C   UNL A   1      37.969  32.194  37.672  1.00  0.00     0.198 A 
ATOM     45  C   UNL A   1      39.473  33.907  36.922  1.00  0.00     0.198 A 
ATOM     46  F   UNL A   1      40.766  33.573  34.985  1.00  0.00    -0.203 F 
ATOM     47  F   UNL A   1      37.035  31.766  38.533  1.00  0.00    -0.200 F 
ATOM     48  C   UNL A   1      38.526  33.454  37.827  1.00  0.00     0.200 A 
ATOM     49  F   UNL A   1      40.022  35.120  37.076  1.00  0.00    -0.200 F 
ATOM     50  F   UNL A   1      38.145  34.237  38.847  1.00  0.00    -0.200 F 
ENDBRANCH  26  40
BRANCH  27  51
ATOM     51  C   UNL A   1      42.277  26.397  27.825  1.00  0.00     0.064 A 
ATOM     52  C   UNL A   1      43.256  26.865  26.938  1.00  0.00     0.173 A 
ATOM     53  C   UNL A   1      41.740  25.122  27.593  1.00  0.00     0.173 A 
ATOM     54  F   UNL A   1      43.787  28.084  27.110  1.00  0.00    -0.203 F 
ATOM     55  C   UNL A   1      43.672  26.094  25.856  1.00  0.00     0.198 A 
ATOM     56  C   UNL A   1      42.178  24.339  26.528  1.00  0.00     0.198 A 
ATOM     57  F   UNL A   1      40.806  24.627  28.419  1.00  0.00    -0.203 F 
ATOM     58  F   UNL A   1      44.584  26.579  25.002  1.00  0.00    -0.200 F 
ATOM     59  C   UNL A   1      43.139  24.828  25.656  1.00  0.00     0.200 A 
ATOM     60  F   UNL A   1      41.674  23.111  26.351  1.00  0.00    -0.200 F 
ATOM     61  F   UNL A   1      43.549  24.082  24.622  1.00  0.00    -0.200 F 
ENDBRANCH  27  51
BRANCH  39  62
ATOM     62  C   UNL A   1      44.718  27.251  34.285  1.00  0.00     0.064 A 
ATOM     63  C   UNL A   1      45.958  27.905  34.309  1.00  0.00     0.173 A 
ATOM     64  C   UNL A   1      44.603  26.029  34.964  1.00  0.00     0.173 A 
ATOM     65  F   UNL A   1      46.122  29.067  33.659  1.00  0.00    -0.203 F 
ATOM     66  C   UNL A   1      47.050  27.342  34.962  1.00  0.00     0.198 A 
ATOM     67  C   UNL A   1      45.690  25.483  35.639  1.00  0.00     0.198 A 
ATOM     68  F   UNL A   1      43.436  25.369  34.974  1.00  0.00    -0.203 F 
ATOM     69  F   UNL A   1      48.241  27.957  34.927  1.00  0.00    -0.200 F 
ATOM     70  C   UNL A   1      46.914  26.134  35.630  1.00  0.00     0.200 A 
ATOM     71  F   UNL A   1      45.555  24.320  36.293  1.00  0.00    -0.200 F 
ATOM     72  F   UNL A   1      47.967  25.591  36.257  1.00  0.00    -0.200 F 
ENDBRANCH  39  62
ENDBRANCH  13  14
ENDBRANCH   6   8
ENDBRANCH   3   4
ENDBRANCH   2   3
ENDBRANCH   1   2
BRANCH   1  73
ATOM     73  C   UNL A   1      31.085  26.427  25.738  1.00  0.00     0.116 C 
BRANCH  73  74
ATOM     74  N   UNL A   1      30.607  25.288  26.498  1.00  0.00    -0.355 N 
ATOM     75  C   UNL A   1      30.955  23.972  26.519  1.00  0.00     0.231 C 
ATOM     76  H   UNL A   1      29.884  25.513  27.128  1.00  0.00     0.163 HD
ATOM     77  O   UNL A   1      30.279  23.267  27.276  1.00  0.00    -0.274 OA
BRANCH  75  78
ATOM     78  C   UNL A   1      32.125  23.380  25.691  1.00  0.00     0.098 C 
ATOM     79  C   UNL A   1      31.775  21.906  25.348  1.00  0.00     0.028 C 
ATOM     80  C   UNL A   1      32.173  24.102  24.315  1.00  0.00     0.279 C 
ATOM     81  C   UNL A   1      32.754  21.294  24.345  1.00  0.00     0.063 C 
ATOM     82  N   UNL A   1      33.004  23.515  23.252  1.00  0.00    -0.330 N 
ATOM     83  C   UNL A   1      32.748  22.086  23.046  1.00  0.00     0.262 C 
ATOM     84  H   UNL A   1      33.969  23.580  23.575  1.00  0.00     0.348 HD
BRANCH  78  85
ATOM     85  C   UNL A   1      33.476  23.495  26.467  1.00  0.00     0.027 C 
BRANCH  85  86
ATOM     86  C   UNL A   1      34.693  24.117  25.740  1.00  0.00     0.037 C 
BRANCH  86  87
ATOM     87  C   UNL A   1      36.022  23.396  25.708  1.00  0.00    -0.048 A 
ATOM     88  C   UNL A   1      36.203  22.149  25.101  1.00  0.00     0.004 A 
ATOM     89  C   UNL A   1      37.151  24.029  26.254  1.00  0.00     0.004 A 
ATOM     90  C   UNL A   1      37.436  21.491  25.159  1.00  0.00     0.000 A 
ATOM     91  C   UNL A   1      38.397  23.395  26.270  1.00  0.00     0.000 A 
ATOM     92  C   UNL A   1      38.532  22.112  25.749  1.00  0.00     0.000 A 
ENDBRANCH  86  87
ENDBRANCH  85  86
ENDBRANCH  78  85
BRANCH  82  93
ATOM     93  C   UNL A   1      32.901  24.289  21.986  1.00  0.00     0.300 C 
BRANCH  93  94
ATOM     94  C   UNL A   1      32.670  25.778  22.134  1.00  0.00     0.025 A 
ATOM     95  C   UNL A   1      33.645  26.650  22.631  1.00  0.00     0.013 A 
ATOM     96  C   UNL A   1      31.415  26.323  21.872  1.00  0.00     0.120 A 
ATOM     97  C   UNL A   1      33.313  27.971  22.923  1.00  0.00     0.021 A 
ATOM     98  N   UNL A   1      31.069  27.606  22.125  1.00  0.00    -0.264 NA
ATOM     99  C   UNL A   1      32.021  28.393  22.667  1.00  0.00     0.111 A 
ENDBRANCH  93  94
ENDBRANCH  82  93
ENDBRANCH  75  78
ENDBRANCH  73  74
ENDBRANCH   1  73
TORSDOF 16
ENDMDL
