MODEL 1
REMARK VINA RESULT:     -12.6      0.000      0.000
REMARK SMILES COc1ccc2c(c1)CC[C@@](C)(CCC(=O)NCCCCNC(=O)c1ccc(-c3c4nc(c(-c5c(F)c(F)c(F)c(F)c5F)c5ccc([nH]5)c(-c5c(F)c(F)c(F)c(F)c5F)c5nc(c(-c6c(F)c(F)c(F)c(F)c6F)c6ccc3[nH]6)C=C5)C=C4)cc1)C2=O
REMARK SMILES IDX 19 1 18 2 17 3 15 4 16 5 14 7 13 8 11 9 3 10 4 11 8 12 5 13
REMARK SMILES IDX 7 14 6 15 9 16 88 17 10 18 89 19 12 20 2 21 1 22 20 23 21 24
REMARK SMILES IDX 22 25 23 26 24 28 25 29 26 30 87 31 27 32 86 33 28 34 29 35
REMARK SMILES IDX 30 36 80 37 31 38 85 39 79 40 81 41 32 42 84 43 78 44 77 45
REMARK SMILES IDX 33 47 65 48 45 49 64 50 46 51 49 52 63 53 82 54 47 55 48 56
REMARK SMILES IDX 62 58 83 59 50 60 34 61 35 62 43 63 36 64 37 65 41 66 44 67
REMARK SMILES IDX 38 68 39 69 42 70 40 71 66 72 67 73 75 74 68 75 69 76 73 77
REMARK SMILES IDX 76 78 70 79 71 80 74 81 72 82 51 83 52 84 60 85 53 86 54 87
REMARK SMILES IDX 58 88 61 89 55 90 56 91 59 92 57 93
REMARK H PARENT 17 6 22 27 81 46 49 57
REMARK Flexibility Score: inf
ROOT
ATOM      1  C   UNL A   1      31.087  29.323  23.753  1.00  0.00     0.023 C 
ENDROOT
BRANCH   1   2
ATOM      2  C   UNL A   1      30.391  28.453  22.712  1.00  0.00     0.116 C 
BRANCH   2   3
ATOM      3  N   UNL A   1      29.077  28.079  23.190  1.00  0.00    -0.356 N 
ATOM      4  C   UNL A   1      28.629  26.912  23.714  1.00  0.00     0.220 C 
ATOM      5  O   UNL A   1      27.426  26.795  23.945  1.00  0.00    -0.275 OA
ATOM      6  H   UNL A   1      28.398  28.788  23.122  1.00  0.00     0.163 HD
BRANCH   4   7
ATOM      7  C   UNL A   1      29.609  25.811  24.056  1.00  0.00     0.101 C 
BRANCH   7   8
ATOM      8  C   UNL A   1      30.111  25.840  25.508  1.00  0.00     0.025 C 
BRANCH   8   9
ATOM      9  C   UNL A   1      31.654  25.763  25.800  1.00  0.00     0.032 C 
ATOM     10  C   UNL A   1      35.973  22.822  26.073  1.00  0.00     0.119 A 
ATOM     11  C   UNL A   1      35.018  22.152  26.834  1.00  0.00     0.047 A 
ATOM     12  C   UNL A   1      35.621  23.990  25.394  1.00  0.00     0.050 A 
ATOM     13  C   UNL A   1      33.722  22.668  26.930  1.00  0.00     0.016 A 
ATOM     14  C   UNL A   1      34.322  24.516  25.477  1.00  0.00    -0.033 A 
ATOM     15  C   UNL A   1      33.377  23.859  26.273  1.00  0.00     0.022 A 
ATOM     16  C   UNL A   1      34.016  25.821  24.798  1.00  0.00     0.037 C 
ATOM     17  C   UNL A   1      32.017  24.440  26.489  1.00  0.00     0.169 C 
ATOM     18  C   UNL A   1      32.520  25.978  24.545  1.00  0.00     0.020 C 
ATOM     19  O   UNL A   1      31.261  23.896  27.293  1.00  0.00    -0.294 OA
ATOM     20  C   UNL A   1      31.971  26.842  26.864  1.00  0.00     0.020 C 
BRANCH  10  21
ATOM     21  O   UNL A   1      37.304  22.511  26.069  1.00  0.00    -0.497 OA
ATOM     22  C   UNL A   1      38.196  23.617  26.064  1.00  0.00     0.278 C 
ENDBRANCH  10  21
ENDBRANCH   8   9
ENDBRANCH   7   8
ENDBRANCH   4   7
ENDBRANCH   2   3
ENDBRANCH   1   2
BRANCH   1  23
ATOM     23  C   UNL A   1      32.604  29.273  23.858  1.00  0.00     0.023 C 
BRANCH  23  24
ATOM     24  C   UNL A   1      33.246  29.473  25.215  1.00  0.00     0.116 C 
BRANCH  24  25
ATOM     25  N   UNL A   1      32.600  30.454  26.079  1.00  0.00    -0.352 N 
ATOM     26  C   UNL A   1      33.136  31.222  27.093  1.00  0.00     0.251 C 
ATOM     27  H   UNL A   1      31.639  30.590  25.913  1.00  0.00     0.163 HD
ATOM     28  O   UNL A   1      32.451  32.054  27.682  1.00  0.00    -0.269 OA
BRANCH  26  29
ATOM     29  C   UNL A   1      34.527  30.982  27.528  1.00  0.00     0.039 A 
ATOM     30  C   UNL A   1      34.922  29.719  27.947  1.00  0.00     0.014 A 
ATOM     31  C   UNL A   1      35.410  32.061  27.631  1.00  0.00     0.014 A 
ATOM     32  C   UNL A   1      36.045  29.604  28.745  1.00  0.00     0.010 A 
ATOM     33  C   UNL A   1      36.626  31.910  28.296  1.00  0.00     0.010 A 
ATOM     34  C   UNL A   1      36.915  30.697  28.921  1.00  0.00    -0.014 A 
BRANCH  34  35
ATOM     35  C   UNL A   1      38.166  30.462  29.676  1.00  0.00     0.031 A 
ATOM     36  C   UNL A   1      38.321  30.884  31.104  1.00  0.00     0.074 A 
ATOM     37  C   UNL A   1      39.106  29.733  29.047  1.00  0.00     0.049 A 
ATOM     38  N   UNL A   1      39.254  30.545  31.957  1.00  0.00    -0.248 NA
ATOM     39  C   UNL A   1      37.322  31.815  31.653  1.00  0.00     0.031 C 
ATOM     40  C   UNL A   1      39.032  29.327  27.640  1.00  0.00     0.029 A 
ATOM     41  N   UNL A   1      40.242  29.130  29.509  1.00  0.00    -0.354 N 
ATOM     42  C   UNL A   1      38.965  31.227  33.132  1.00  0.00     0.074 A 
ATOM     43  C   UNL A   1      37.784  32.022  32.879  1.00  0.00     0.031 C 
ATOM     44  C   UNL A   1      39.995  28.435  27.390  1.00  0.00     0.029 A 
ATOM     45  C   UNL A   1      40.799  28.268  28.594  1.00  0.00     0.049 A 
ATOM     46  H   UNL A   1      40.622  29.294  30.403  1.00  0.00     0.167 HD
ATOM     47  C   UNL A   1      39.634  31.176  34.310  1.00  0.00     0.037 A 
ATOM     48  C   UNL A   1      41.830  27.415  28.722  1.00  0.00     0.037 A 
ATOM     49  C   UNL A   1      40.803  30.359  34.524  1.00  0.00     0.049 A 
ATOM     50  C   UNL A   1      42.521  27.344  30.048  1.00  0.00     0.074 A 
ATOM     51  C   UNL A   1      41.557  30.211  35.674  1.00  0.00     0.029 A 
ATOM     52  N   UNL A   1      41.382  29.545  33.558  1.00  0.00    -0.354 N 
ATOM     53  N   UNL A   1      42.223  27.969  31.162  1.00  0.00    -0.248 NA
ATOM     54  C   UNL A   1      43.692  26.468  30.137  1.00  0.00     0.031 C 
ATOM     55  C   UNL A   1      42.616  29.342  35.392  1.00  0.00     0.029 A 
ATOM     56  C   UNL A   1      42.497  28.909  34.079  1.00  0.00     0.049 A 
ATOM     57  H   UNL A   1      41.050  29.437  32.638  1.00  0.00     0.167 HD
ATOM     58  C   UNL A   1      43.178  27.578  32.084  1.00  0.00     0.074 A 
ATOM     59  C   UNL A   1      44.040  26.626  31.407  1.00  0.00     0.031 C 
ATOM     60  C   UNL A   1      43.340  27.981  33.368  1.00  0.00     0.037 A 
BRANCH  47  61
ATOM     61  C   UNL A   1      39.138  32.021  35.450  1.00  0.00     0.064 A 
ATOM     62  C   UNL A   1      38.362  31.481  36.487  1.00  0.00     0.173 A 
ATOM     63  C   UNL A   1      39.506  33.373  35.550  1.00  0.00     0.173 A 
ATOM     64  F   UNL A   1      37.974  30.198  36.440  1.00  0.00    -0.203 F 
ATOM     65  C   UNL A   1      37.961  32.263  37.570  1.00  0.00     0.198 A 
ATOM     66  C   UNL A   1      39.126  34.146  36.646  1.00  0.00     0.198 A 
ATOM     67  F   UNL A   1      40.252  33.942  34.591  1.00  0.00    -0.203 F 
ATOM     68  F   UNL A   1      37.197  31.730  38.532  1.00  0.00    -0.200 F 
ATOM     69  C   UNL A   1      38.351  33.591  37.653  1.00  0.00     0.200 A 
ATOM     70  F   UNL A   1      39.515  35.426  36.730  1.00  0.00    -0.200 F 
ATOM     71  F   UNL A   1      37.979  34.336  38.703  1.00  0.00    -0.200 F 
ENDBRANCH  47  61
BRANCH  48  72
ATOM     72  C   UNL A   1      42.200  26.554  27.571  1.00  0.00     0.064 A 
ATOM     73  C   UNL A   1      43.235  26.920  26.701  1.00  0.00     0.173 A 
ATOM     74  C   UNL A   1      41.605  25.296  27.384  1.00  0.00     0.173 A 
ATOM     75  F   UNL A   1      43.832  28.112  26.835  1.00  0.00    -0.203 F 
ATOM     76  C   UNL A   1      43.669  26.056  25.697  1.00  0.00     0.198 A 
ATOM     77  C   UNL A   1      42.061  24.421  26.401  1.00  0.00     0.198 A 
ATOM     78  F   UNL A   1      40.621  24.892  28.201  1.00  0.00    -0.203 F 
ATOM     79  F   UNL A   1      44.658  26.431  24.875  1.00  0.00    -0.200 F 
ATOM     80  C   UNL A   1      43.092  24.802  25.558  1.00  0.00     0.200 A 
ATOM     81  F   UNL A   1      41.522  23.199  26.294  1.00  0.00    -0.200 F 
ATOM     82  F   UNL A   1      43.537  23.957  24.618  1.00  0.00    -0.200 F 
ENDBRANCH  48  72
BRANCH  60  83
ATOM     83  C   UNL A   1      44.507  27.406  34.109  1.00  0.00     0.064 A 
ATOM     84  C   UNL A   1      44.399  26.186  34.792  1.00  0.00     0.173 A 
ATOM     85  C   UNL A   1      45.753  28.047  34.086  1.00  0.00     0.173 A 
ATOM     86  F   UNL A   1      43.221  25.547  34.851  1.00  0.00    -0.203 F 
ATOM     87  C   UNL A   1      45.499  25.636  35.443  1.00  0.00     0.198 A 
ATOM     88  C   UNL A   1      46.856  27.481  34.716  1.00  0.00     0.198 A 
ATOM     89  F   UNL A   1      45.902  29.213  33.439  1.00  0.00    -0.203 F 
ATOM     90  F   UNL A   1      45.367  24.487  36.121  1.00  0.00    -0.200 F 
ATOM     91  C   UNL A   1      46.727  26.278  35.397  1.00  0.00     0.200 A 
ATOM     92  F   UNL A   1      48.045  28.096  34.663  1.00  0.00    -0.200 F 
ATOM     93  F   UNL A   1      47.788  25.741  36.014  1.00  0.00    -0.200 F 
ENDBRANCH  60  83
ENDBRANCH  34  35
ENDBRANCH  26  29
ENDBRANCH  24  25
ENDBRANCH  23  24
ENDBRANCH   1  23
TORSDOF 14
ENDMDL
MODEL 2
REMARK VINA RESULT:     -12.3      1.305      3.787
REMARK SMILES COc1ccc2c(c1)CC[C@@](C)(CCC(=O)NCCCCNC(=O)c1ccc(-c3c4nc(c(-c5c(F)c(F)c(F)c(F)c5F)c5ccc([nH]5)c(-c5c(F)c(F)c(F)c(F)c5F)c5nc(c(-c6c(F)c(F)c(F)c(F)c6F)c6ccc3[nH]6)C=C5)C=C4)cc1)C2=O
REMARK SMILES IDX 19 1 18 2 17 3 15 4 16 5 14 7 13 8 11 9 3 10 4 11 8 12 5 13
REMARK SMILES IDX 7 14 6 15 9 16 88 17 10 18 89 19 12 20 2 21 1 22 20 23 21 24
REMARK SMILES IDX 22 25 23 26 24 28 25 29 26 30 87 31 27 32 86 33 28 34 29 35
REMARK SMILES IDX 30 36 80 37 31 38 85 39 79 40 81 41 32 42 84 43 78 44 77 45
REMARK SMILES IDX 33 47 65 48 45 49 64 50 46 51 49 52 63 53 82 54 47 55 48 56
REMARK SMILES IDX 62 58 83 59 50 60 34 61 35 62 43 63 36 64 37 65 41 66 44 67
REMARK SMILES IDX 38 68 39 69 42 70 40 71 66 72 67 73 75 74 68 75 69 76 73 77
REMARK SMILES IDX 76 78 70 79 71 80 74 81 72 82 51 83 52 84 60 85 53 86 54 87
REMARK SMILES IDX 58 88 61 89 55 90 56 91 59 92 57 93
REMARK H PARENT 17 6 22 27 81 46 49 57
REMARK Flexibility Score: inf
ROOT
ATOM      1  C   UNL A   1      32.087  27.541  26.982  1.00  0.00     0.023 C 
ENDROOT
BRANCH   1   2
ATOM      2  C   UNL A   1      31.220  26.384  26.499  1.00  0.00     0.116 C 
BRANCH   2   3
ATOM      3  N   UNL A   1      31.868  25.128  26.810  1.00  0.00    -0.356 N 
ATOM      4  C   UNL A   1      32.959  24.539  26.260  1.00  0.00     0.220 C 
ATOM      5  O   UNL A   1      33.256  23.401  26.620  1.00  0.00    -0.275 OA
ATOM      6  H   UNL A   1      31.447  24.617  27.538  1.00  0.00     0.163 HD
BRANCH   4   7
ATOM      7  C   UNL A   1      33.812  25.303  25.272  1.00  0.00     0.101 C 
BRANCH   7   8
ATOM      8  C   UNL A   1      33.436  25.073  23.801  1.00  0.00     0.025 C 
BRANCH   8   9
ATOM      9  C   UNL A   1      32.677  26.196  23.005  1.00  0.00     0.032 C 
ATOM     10  C   UNL A   1      28.679  29.567  22.820  1.00  0.00     0.119 A 
ATOM     11  C   UNL A   1      28.112  28.334  23.126  1.00  0.00     0.047 A 
ATOM     12  C   UNL A   1      30.066  29.681  22.701  1.00  0.00     0.050 A 
ATOM     13  C   UNL A   1      28.933  27.214  23.289  1.00  0.00     0.016 A 
ATOM     14  C   UNL A   1      30.903  28.566  22.867  1.00  0.00    -0.033 A 
ATOM     15  C   UNL A   1      30.324  27.321  23.138  1.00  0.00     0.022 A 
ATOM     16  C   UNL A   1      32.381  28.720  22.645  1.00  0.00     0.037 C 
ATOM     17  C   UNL A   1      31.159  26.083  23.208  1.00  0.00     0.169 C 
ATOM     18  C   UNL A   1      33.167  27.617  23.345  1.00  0.00     0.020 C 
ATOM     19  O   UNL A   1      30.598  24.995  23.325  1.00  0.00    -0.294 OA
ATOM     20  C   UNL A   1      32.879  25.904  21.498  1.00  0.00     0.020 C 
BRANCH  10  21
ATOM     21  O   UNL A   1      27.961  30.672  22.455  1.00  0.00    -0.497 OA
ATOM     22  C   UNL A   1      27.653  31.582  23.500  1.00  0.00     0.278 C 
ENDBRANCH  10  21
ENDBRANCH   8   9
ENDBRANCH   7   8
ENDBRANCH   4   7
ENDBRANCH   2   3
ENDBRANCH   1   2
BRANCH   1  23
ATOM     23  C   UNL A   1      31.780  28.947  26.488  1.00  0.00     0.023 C 
BRANCH  23  24
ATOM     24  C   UNL A   1      32.912  29.949  26.398  1.00  0.00     0.116 C 
BRANCH  24  25
ATOM     25  N   UNL A   1      32.611  31.286  26.896  1.00  0.00    -0.352 N 
ATOM     26  C   UNL A   1      33.430  32.188  27.545  1.00  0.00     0.251 C 
ATOM     27  H   UNL A   1      31.687  31.591  26.746  1.00  0.00     0.163 HD
ATOM     28  O   UNL A   1      33.023  33.308  27.841  1.00  0.00    -0.269 OA
BRANCH  26  29
ATOM     29  C   UNL A   1      34.785  31.771  27.960  1.00  0.00     0.039 A 
ATOM     30  C   UNL A   1      35.011  30.481  28.421  1.00  0.00     0.014 A 
ATOM     31  C   UNL A   1      35.813  32.718  28.001  1.00  0.00     0.014 A 
ATOM     32  C   UNL A   1      36.127  30.239  29.199  1.00  0.00     0.010 A 
ATOM     33  C   UNL A   1      37.013  32.423  28.646  1.00  0.00     0.010 A 
ATOM     34  C   UNL A   1      37.146  31.205  29.313  1.00  0.00    -0.014 A 
BRANCH  34  35
ATOM     35  C   UNL A   1      38.371  30.825  30.050  1.00  0.00     0.031 A 
ATOM     36  C   UNL A   1      38.566  31.167  31.495  1.00  0.00     0.074 A 
ATOM     37  C   UNL A   1      39.240  30.042  29.386  1.00  0.00     0.049 A 
ATOM     38  N   UNL A   1      39.465  30.708  32.328  1.00  0.00    -0.248 NA
ATOM     39  C   UNL A   1      37.656  32.159  32.089  1.00  0.00     0.031 C 
ATOM     40  C   UNL A   1      39.128  29.707  27.962  1.00  0.00     0.029 A 
ATOM     41  N   UNL A   1      40.318  29.318  29.815  1.00  0.00    -0.354 N 
ATOM     42  C   UNL A   1      39.241  31.360  33.533  1.00  0.00     0.074 A 
ATOM     43  C   UNL A   1      38.136  32.269  33.321  1.00  0.00     0.031 C 
ATOM     44  C   UNL A   1      40.006  28.743  27.669  1.00  0.00     0.029 A 
ATOM     45  C   UNL A   1      40.793  28.451  28.860  1.00  0.00     0.049 A 
ATOM     46  H   UNL A   1      40.712  29.408  30.713  1.00  0.00     0.167 HD
ATOM     47  C   UNL A   1      39.903  31.197  34.704  1.00  0.00     0.037 A 
ATOM     48  C   UNL A   1      41.742  27.503  28.945  1.00  0.00     0.037 A 
ATOM     49  C   UNL A   1      40.993  30.269  34.876  1.00  0.00     0.049 A 
ATOM     50  C   UNL A   1      42.425  27.312  30.263  1.00  0.00     0.074 A 
ATOM     51  C   UNL A   1      41.733  30.003  36.014  1.00  0.00     0.029 A 
ATOM     52  N   UNL A   1      41.496  29.450  33.872  1.00  0.00    -0.354 N 
ATOM     53  N   UNL A   1      42.187  27.911  31.405  1.00  0.00    -0.248 NA
ATOM     54  C   UNL A   1      43.512  26.330  30.307  1.00  0.00     0.031 C 
ATOM     55  C   UNL A   1      42.708  29.054  35.689  1.00  0.00     0.029 A 
ATOM     56  C   UNL A   1      42.549  28.692  34.359  1.00  0.00     0.049 A 
ATOM     57  H   UNL A   1      41.154  29.412  32.950  1.00  0.00     0.167 HD
ATOM     58  C   UNL A   1      43.103  27.394  32.304  1.00  0.00     0.074 A 
ATOM     59  C   UNL A   1      43.874  26.399  31.581  1.00  0.00     0.031 C 
ATOM     60  C   UNL A   1      43.303  27.724  33.603  1.00  0.00     0.037 A 
BRANCH  47  61
ATOM     61  C   UNL A   1      39.488  32.033  35.883  1.00  0.00     0.064 A 
ATOM     62  C   UNL A   1      40.086  33.273  36.155  1.00  0.00     0.173 A 
ATOM     63  C   UNL A   1      38.428  31.626  36.709  1.00  0.00     0.173 A 
ATOM     64  F   UNL A   1      41.109  33.707  35.405  1.00  0.00    -0.203 F 
ATOM     65  C   UNL A   1      39.648  34.066  37.215  1.00  0.00     0.198 A 
ATOM     66  C   UNL A   1      37.975  32.432  37.752  1.00  0.00     0.198 A 
ATOM     67  F   UNL A   1      37.815  30.453  36.492  1.00  0.00    -0.203 F 
ATOM     68  F   UNL A   1      40.255  35.233  37.472  1.00  0.00    -0.200 F 
ATOM     69  C   UNL A   1      38.588  33.650  38.006  1.00  0.00     0.200 A 
ATOM     70  F   UNL A   1      36.941  32.034  38.506  1.00  0.00    -0.200 F 
ATOM     71  F   UNL A   1      38.157  34.421  39.014  1.00  0.00    -0.200 F 
ENDBRANCH  47  61
BRANCH  48  72
ATOM     72  C   UNL A   1      42.031  26.663  27.755  1.00  0.00     0.064 A 
ATOM     73  C   UNL A   1      43.067  26.996  26.873  1.00  0.00     0.173 A 
ATOM     74  C   UNL A   1      41.353  25.453  27.538  1.00  0.00     0.173 A 
ATOM     75  F   UNL A   1      43.741  28.143  27.034  1.00  0.00    -0.203 F 
ATOM     76  C   UNL A   1      43.423  26.144  25.829  1.00  0.00     0.198 A 
ATOM     77  C   UNL A   1      41.731  24.588  26.514  1.00  0.00     0.198 A 
ATOM     78  F   UNL A   1      40.364  25.081  28.365  1.00  0.00    -0.203 F 
ATOM     79  F   UNL A   1      44.415  26.487  24.997  1.00  0.00    -0.200 F 
ATOM     80  C   UNL A   1      42.765  24.935  25.660  1.00  0.00     0.200 A 
ATOM     81  F   UNL A   1      41.113  23.407  26.377  1.00  0.00    -0.200 F 
ATOM     82  F   UNL A   1      43.134  24.099  24.680  1.00  0.00    -0.200 F 
ENDBRANCH  48  72
BRANCH  60  83
ATOM     83  C   UNL A   1      44.414  27.013  34.312  1.00  0.00     0.064 A 
ATOM     84  C   UNL A   1      45.698  27.572  34.385  1.00  0.00     0.173 A 
ATOM     85  C   UNL A   1      44.179  25.799  34.970  1.00  0.00     0.173 A 
ATOM     86  F   UNL A   1      45.968  28.727  33.757  1.00  0.00    -0.203 F 
ATOM     87  C   UNL A   1      46.715  26.929  35.081  1.00  0.00     0.198 A 
ATOM     88  C   UNL A   1      45.193  25.171  35.687  1.00  0.00     0.198 A 
ATOM     89  F   UNL A   1      42.964  25.232  34.932  1.00  0.00    -0.203 F 
ATOM     90  F   UNL A   1      47.945  27.461  35.110  1.00  0.00    -0.200 F 
ATOM     91  C   UNL A   1      46.460  25.734  35.739  1.00  0.00     0.200 A 
ATOM     92  F   UNL A   1      44.944  24.022  36.331  1.00  0.00    -0.200 F 
ATOM     93  F   UNL A   1      47.438  25.121  36.418  1.00  0.00    -0.200 F 
ENDBRANCH  60  83
ENDBRANCH  34  35
ENDBRANCH  26  29
ENDBRANCH  24  25
ENDBRANCH  23  24
ENDBRANCH   1  23
TORSDOF 14
ENDMDL
MODEL 3
REMARK VINA RESULT:     -12.2      2.736      8.612
REMARK SMILES COc1ccc2c(c1)CC[C@@](C)(CCC(=O)NCCCCNC(=O)c1ccc(-c3c4nc(c(-c5c(F)c(F)c(F)c(F)c5F)c5ccc([nH]5)c(-c5c(F)c(F)c(F)c(F)c5F)c5nc(c(-c6c(F)c(F)c(F)c(F)c6F)c6ccc3[nH]6)C=C5)C=C4)cc1)C2=O
REMARK SMILES IDX 19 1 18 2 17 3 15 4 16 5 14 7 13 8 11 9 3 10 4 11 8 12 5 13
REMARK SMILES IDX 7 14 6 15 9 16 88 17 10 18 89 19 12 20 2 21 1 22 20 23 21 24
REMARK SMILES IDX 22 25 23 26 24 28 25 29 26 30 87 31 27 32 86 33 28 34 29 35
REMARK SMILES IDX 30 36 80 37 31 38 85 39 79 40 81 41 32 42 84 43 78 44 77 45
REMARK SMILES IDX 33 47 65 48 45 49 64 50 46 51 49 52 63 53 82 54 47 55 48 56
REMARK SMILES IDX 62 58 83 59 50 60 34 61 35 62 43 63 36 64 37 65 41 66 44 67
REMARK SMILES IDX 38 68 39 69 42 70 40 71 66 72 67 73 75 74 68 75 69 76 73 77
REMARK SMILES IDX 76 78 70 79 71 80 74 81 72 82 51 83 52 84 60 85 53 86 54 87
REMARK SMILES IDX 58 88 61 89 55 90 56 91 59 92 57 93
REMARK H PARENT 17 6 22 27 81 46 49 57
REMARK Flexibility Score: inf
ROOT
ATOM      1  C   UNL A   1      34.682  33.040  29.023  1.00  0.00     0.023 C 
ENDROOT
BRANCH   1   2
ATOM      2  C   UNL A   1      35.353  32.618  27.720  1.00  0.00     0.116 C 
BRANCH   2   3
ATOM      3  N   UNL A   1      35.506  31.179  27.696  1.00  0.00    -0.356 N 
ATOM      4  C   UNL A   1      34.582  30.196  27.553  1.00  0.00     0.220 C 
ATOM      5  O   UNL A   1      34.943  29.027  27.682  1.00  0.00    -0.275 OA
ATOM      6  H   UNL A   1      36.431  30.862  27.801  1.00  0.00     0.163 HD
BRANCH   4   7
ATOM      7  C   UNL A   1      33.157  30.547  27.187  1.00  0.00     0.101 C 
BRANCH   7   8
ATOM      8  C   UNL A   1      32.731  30.079  25.787  1.00  0.00     0.025 C 
BRANCH   8   9
ATOM      9  C   UNL A   1      32.218  28.607  25.579  1.00  0.00     0.032 C 
ATOM     10  C   UNL A   1      33.269  23.484  25.725  1.00  0.00     0.119 A 
ATOM     11  C   UNL A   1      34.288  24.051  24.964  1.00  0.00     0.047 A 
ATOM     12  C   UNL A   1      32.300  24.305  26.306  1.00  0.00     0.050 A 
ATOM     13  C   UNL A   1      34.318  25.435  24.768  1.00  0.00     0.016 A 
ATOM     14  C   UNL A   1      32.321  25.696  26.121  1.00  0.00    -0.033 A 
ATOM     15  C   UNL A   1      33.325  26.257  25.324  1.00  0.00     0.022 A 
ATOM     16  C   UNL A   1      31.208  26.528  26.694  1.00  0.00     0.037 C 
ATOM     17  C   UNL A   1      33.326  27.716  25.000  1.00  0.00     0.169 C 
ATOM     18  C   UNL A   1      31.631  27.984  26.859  1.00  0.00     0.020 C 
ATOM     19  O   UNL A   1      34.153  28.145  24.198  1.00  0.00    -0.294 OA
ATOM     20  C   UNL A   1      31.147  28.651  24.461  1.00  0.00     0.020 C 
BRANCH  10  21
ATOM     21  O   UNL A   1      33.040  22.139  25.819  1.00  0.00    -0.497 OA
ATOM     22  C   UNL A   1      31.779  21.693  25.342  1.00  0.00     0.278 C 
ENDBRANCH  10  21
ENDBRANCH   8   9
ENDBRANCH   7   8
ENDBRANCH   4   7
ENDBRANCH   2   3
ENDBRANCH   1   2
BRANCH   1  23
ATOM     23  C   UNL A   1      33.498  33.993  28.965  1.00  0.00     0.023 C 
BRANCH  23  24
ATOM     24  C   UNL A   1      33.714  35.444  29.340  1.00  0.00     0.116 C 
BRANCH  24  25
ATOM     25  N   UNL A   1      32.730  36.013  30.253  1.00  0.00    -0.352 N 
ATOM     26  C   UNL A   1      32.708  36.012  31.634  1.00  0.00     0.251 C 
ATOM     27  H   UNL A   1      31.969  36.464  29.821  1.00  0.00     0.163 HD
ATOM     28  O   UNL A   1      31.822  36.601  32.249  1.00  0.00    -0.269 OA
BRANCH  26  29
ATOM     29  C   UNL A   1      33.714  35.227  32.376  1.00  0.00     0.039 A 
ATOM     30  C   UNL A   1      35.002  35.718  32.544  1.00  0.00     0.014 A 
ATOM     31  C   UNL A   1      33.397  33.934  32.803  1.00  0.00     0.014 A 
ATOM     32  C   UNL A   1      36.020  34.829  32.830  1.00  0.00     0.010 A 
ATOM     33  C   UNL A   1      34.403  33.078  33.250  1.00  0.00     0.010 A 
ATOM     34  C   UNL A   1      35.732  33.500  33.195  1.00  0.00    -0.014 A 
BRANCH  34  35
ATOM     35  C   UNL A   1      36.862  32.645  33.619  1.00  0.00     0.031 A 
ATOM     36  C   UNL A   1      37.552  31.715  32.669  1.00  0.00     0.074 A 
ATOM     37  C   UNL A   1      37.318  32.846  34.868  1.00  0.00     0.049 A 
ATOM     38  N   UNL A   1      38.689  31.085  32.826  1.00  0.00    -0.248 NA
ATOM     39  C   UNL A   1      36.889  31.435  31.386  1.00  0.00     0.031 C 
ATOM     40  C   UNL A   1      36.663  33.708  35.858  1.00  0.00     0.029 A 
ATOM     41  N   UNL A   1      38.462  32.432  35.492  1.00  0.00    -0.354 N 
ATOM     42  C   UNL A   1      38.870  30.327  31.676  1.00  0.00     0.074 A 
ATOM     43  C   UNL A   1      37.714  30.553  30.836  1.00  0.00     0.031 C 
ATOM     44  C   UNL A   1      37.478  33.870  36.905  1.00  0.00     0.029 A 
ATOM     45  C   UNL A   1      38.672  33.062  36.696  1.00  0.00     0.049 A 
ATOM     46  H   UNL A   1      39.071  31.754  35.119  1.00  0.00     0.167 HD
ATOM     47  C   UNL A   1      39.917  29.526  31.364  1.00  0.00     0.037 A 
ATOM     48  C   UNL A   1      39.726  33.014  37.527  1.00  0.00     0.037 A 
ATOM     49  C   UNL A   1      41.057  29.338  32.226  1.00  0.00     0.049 A 
ATOM     50  C   UNL A   1      40.890  32.157  37.135  1.00  0.00     0.074 A 
ATOM     51  C   UNL A   1      42.185  28.565  32.014  1.00  0.00     0.029 A 
ATOM     52  N   UNL A   1      41.212  29.939  33.469  1.00  0.00    -0.354 N 
ATOM     53  N   UNL A   1      41.066  31.468  36.033  1.00  0.00    -0.248 NA
ATOM     54  C   UNL A   1      41.990  32.057  38.097  1.00  0.00     0.031 C 
ATOM     55  C   UNL A   1      43.001  28.666  33.146  1.00  0.00     0.029 A 
ATOM     56  C   UNL A   1      42.406  29.539  34.046  1.00  0.00     0.049 A 
ATOM     57  H   UNL A   1      40.567  30.559  33.881  1.00  0.00     0.167 HD
ATOM     58  C   UNL A   1      42.290  30.837  36.171  1.00  0.00     0.074 A 
ATOM     59  C   UNL A   1      42.832  31.262  37.449  1.00  0.00     0.031 C 
ATOM     60  C   UNL A   1      42.903  29.971  35.328  1.00  0.00     0.037 A 
BRANCH  47  61
ATOM     61  C   UNL A   1      39.885  28.787  30.055  1.00  0.00     0.064 A 
ATOM     62  C   UNL A   1      40.449  29.326  28.889  1.00  0.00     0.173 A 
ATOM     63  C   UNL A   1      39.351  27.490  29.980  1.00  0.00     0.173 A 
ATOM     64  F   UNL A   1      40.966  30.564  28.900  1.00  0.00    -0.203 F 
ATOM     65  C   UNL A   1      40.468  28.603  27.697  1.00  0.00     0.198 A 
ATOM     66  C   UNL A   1      39.394  26.759  28.793  1.00  0.00     0.198 A 
ATOM     67  F   UNL A   1      38.804  26.921  31.064  1.00  0.00    -0.203 F 
ATOM     68  F   UNL A   1      40.987  29.152  26.590  1.00  0.00    -0.200 F 
ATOM     69  C   UNL A   1      39.949  27.318  27.652  1.00  0.00     0.200 A 
ATOM     70  F   UNL A   1      38.903  25.513  28.757  1.00  0.00    -0.200 F 
ATOM     71  F   UNL A   1      39.983  26.618  26.509  1.00  0.00    -0.200 F 
ENDBRANCH  47  61
BRANCH  48  72
ATOM     72  C   UNL A   1      39.712  33.843  38.759  1.00  0.00     0.064 A 
ATOM     73  C   UNL A   1      40.291  35.117  38.776  1.00  0.00     0.173 A 
ATOM     74  C   UNL A   1      39.021  33.425  39.908  1.00  0.00     0.173 A 
ATOM     75  F   UNL A   1      40.967  35.561  37.706  1.00  0.00    -0.203 F 
ATOM     76  C   UNL A   1      40.169  35.947  39.889  1.00  0.00     0.198 A 
ATOM     77  C   UNL A   1      38.871  34.267  41.006  1.00  0.00     0.198 A 
ATOM     78  F   UNL A   1      38.433  32.219  39.935  1.00  0.00    -0.203 F 
ATOM     79  F   UNL A   1      40.736  37.161  39.882  1.00  0.00    -0.200 F 
ATOM     80  C   UNL A   1      39.447  35.528  40.996  1.00  0.00     0.200 A 
ATOM     81  F   UNL A   1      38.145  33.868  42.059  1.00  0.00    -0.200 F 
ATOM     82  F   UNL A   1      39.296  36.341  42.051  1.00  0.00    -0.200 F 
ENDBRANCH  48  72
BRANCH  60  83
ATOM     83  C   UNL A   1      44.217  29.413  35.779  1.00  0.00     0.064 A 
ATOM     84  C   UNL A   1      45.423  30.049  35.449  1.00  0.00     0.173 A 
ATOM     85  C   UNL A   1      44.267  28.273  36.592  1.00  0.00     0.173 A 
ATOM     86  F   UNL A   1      45.421  31.134  34.661  1.00  0.00    -0.203 F 
ATOM     87  C   UNL A   1      46.638  29.550  35.907  1.00  0.00     0.198 A 
ATOM     88  C   UNL A   1      45.482  27.793  37.069  1.00  0.00     0.198 A 
ATOM     89  F   UNL A   1      43.137  27.638  36.937  1.00  0.00    -0.203 F 
ATOM     90  F   UNL A   1      47.782  30.150  35.552  1.00  0.00    -0.200 F 
ATOM     91  C   UNL A   1      46.666  28.429  36.723  1.00  0.00     0.200 A 
ATOM     92  F   UNL A   1      45.508  26.716  37.867  1.00  0.00    -0.200 F 
ATOM     93  F   UNL A   1      47.836  27.956  37.173  1.00  0.00    -0.200 F 
ENDBRANCH  60  83
ENDBRANCH  34  35
ENDBRANCH  26  29
ENDBRANCH  24  25
ENDBRANCH  23  24
ENDBRANCH   1  23
TORSDOF 14
ENDMDL
