MODEL 1
REMARK VINA RESULT:     -13.0      0.000      0.000
REMARK SMILES Cc1cc(-c2ccc(/C=C/C(=O)NCCCCNC(=O)c3ccc(-c4c5nc(c(-c6c(F)c(F)c(F)c(F)c6F)c6ccc([nH]6)c(-c6c(F)c(F)c(F)c(F)c6F)c6nc(c(-c7c(F)c(F)c(F)c(F)c7F)c7ccc4[nH]7)C=C6)C=C5)cc3)o2)c(C)cc1Br
REMARK SMILES IDX 15 1 14 2 13 3 11 4 12 5 10 7 9 8 8 9 5 10 6 11 84 12 7 13
REMARK SMILES IDX 4 14 1 15 2 16 3 17 88 18 87 19 89 20 85 21 86 22 16 23
REMARK SMILES IDX 17 24 18 25 19 26 20 28 21 29 22 30 83 31 23 32 82 33 24 34
REMARK SMILES IDX 25 35 26 36 76 37 27 38 81 39 75 40 77 41 28 42 80 43 74 44
REMARK SMILES IDX 73 45 29 47 61 48 41 49 60 50 42 51 45 52 59 53 78 54 43 55
REMARK SMILES IDX 44 56 58 58 79 59 46 60 30 61 31 62 39 63 32 64 33 65 37 66
REMARK SMILES IDX 40 67 34 68 35 69 38 70 36 71 62 72 63 73 71 74 64 75 65 76
REMARK SMILES IDX 69 77 72 78 66 79 67 80 70 81 68 82 47 83 48 84 56 85 49 86
REMARK SMILES IDX 50 87 54 88 57 89 51 90 52 91 55 92 53 93
REMARK H PARENT 13 6 18 27 77 46 45 57
REMARK Flexibility Score: inf
ROOT
ATOM      1  C   UNL A   1      32.374  30.229  26.870  1.00  0.00     0.023 C 
ENDROOT
BRANCH   1   2
ATOM      2  C   UNL A   1      32.761  29.708  25.483  1.00  0.00     0.116 C 
BRANCH   2   3
ATOM      3  N   UNL A   1      31.632  29.722  24.570  1.00  0.00    -0.353 N 
ATOM      4  C   UNL A   1      30.883  28.696  24.078  1.00  0.00     0.244 C 
ATOM      5  O   UNL A   1      29.875  28.946  23.421  1.00  0.00    -0.270 OA
ATOM      6  H   UNL A   1      31.366  30.616  24.257  1.00  0.00     0.163 HD
BRANCH   4   7
ATOM      7  C   UNL A   1      31.217  27.289  24.390  1.00  0.00     0.075 C 
ATOM      8  C   UNL A   1      30.749  26.636  25.461  1.00  0.00     0.053 C 
BRANCH   8   9
ATOM      9  C   UNL A   1      31.094  25.285  25.707  1.00  0.00     0.127 A 
ATOM     10  C   UNL A   1      32.308  23.433  25.780  1.00  0.00     0.135 A 
ATOM     11  C   UNL A   1      31.109  23.122  26.379  1.00  0.00     0.051 A 
ATOM     12  O   UNL A   1      32.288  24.718  25.339  1.00  0.00    -0.457 OA
ATOM     13  C   UNL A   1      30.345  24.312  26.358  1.00  0.00     0.051 A 
BRANCH  10  14
ATOM     14  C   UNL A   1      33.533  22.695  25.529  1.00  0.00     0.020 A 
ATOM     15  C   UNL A   1      37.254  23.482  25.674  1.00  0.00     0.045 C 
ATOM     16  C   UNL A   1      35.987  22.708  25.445  1.00  0.00    -0.036 A 
ATOM     17  C   UNL A   1      34.762  23.359  25.671  1.00  0.00     0.016 A 
ATOM     18  C   UNL A   1      35.960  21.352  25.092  1.00  0.00     0.021 A 
ATOM     19  C   UNL A   1      34.740  20.682  24.933  1.00  0.00     0.020 A 
ATOM     20  Br  UNL A   1      37.543  20.340  24.818  1.00  0.00    -0.051 Br
ATOM     21  C   UNL A   1      33.519  21.343  25.137  1.00  0.00    -0.039 A 
ATOM     22  C   UNL A   1      32.234  20.578  24.954  1.00  0.00     0.045 C 
ENDBRANCH  10  14
ENDBRANCH   8   9
ENDBRANCH   4   7
ENDBRANCH   2   3
ENDBRANCH   1   2
BRANCH   1  23
ATOM     23  C   UNL A   1      31.964  31.701  26.912  1.00  0.00     0.023 C 
BRANCH  23  24
ATOM     24  C   UNL A   1      33.002  32.640  27.512  1.00  0.00     0.116 C 
BRANCH  24  25
ATOM     25  N   UNL A   1      32.517  33.991  27.727  1.00  0.00    -0.352 N 
ATOM     26  C   UNL A   1      33.019  34.947  28.595  1.00  0.00     0.251 C 
ATOM     27  H   UNL A   1      31.736  34.260  27.193  1.00  0.00     0.163 HD
ATOM     28  O   UNL A   1      32.465  36.020  28.736  1.00  0.00    -0.269 OA
BRANCH  26  29
ATOM     29  C   UNL A   1      34.213  34.600  29.395  1.00  0.00     0.039 A 
ATOM     30  C   UNL A   1      35.492  34.787  28.871  1.00  0.00     0.014 A 
ATOM     31  C   UNL A   1      34.034  33.989  30.638  1.00  0.00     0.014 A 
ATOM     32  C   UNL A   1      36.581  34.202  29.505  1.00  0.00     0.010 A 
ATOM     33  C   UNL A   1      35.139  33.462  31.310  1.00  0.00     0.010 A 
ATOM     34  C   UNL A   1      36.410  33.510  30.716  1.00  0.00    -0.014 A 
BRANCH  34  35
ATOM     35  C   UNL A   1      37.567  32.796  31.310  1.00  0.00     0.031 A 
ATOM     36  C   UNL A   1      38.021  33.115  32.708  1.00  0.00     0.074 A 
ATOM     37  C   UNL A   1      38.152  31.799  30.621  1.00  0.00     0.049 A 
ATOM     38  N   UNL A   1      38.988  32.572  33.406  1.00  0.00    -0.248 NA
ATOM     39  C   UNL A   1      37.298  34.181  33.420  1.00  0.00     0.031 C 
ATOM     40  C   UNL A   1      37.777  31.381  29.269  1.00  0.00     0.029 A 
ATOM     41  N   UNL A   1      39.156  30.937  30.974  1.00  0.00    -0.354 N 
ATOM     42  C   UNL A   1      39.002  33.242  34.622  1.00  0.00     0.074 A 
ATOM     43  C   UNL A   1      37.959  34.244  34.567  1.00  0.00     0.031 C 
ATOM     44  C   UNL A   1      38.502  30.304  28.929  1.00  0.00     0.029 A 
ATOM     45  C   UNL A   1      39.424  29.989  30.017  1.00  0.00     0.049 A 
ATOM     46  H   UNL A   1      39.639  30.991  31.830  1.00  0.00     0.167 HD
ATOM     47  C   UNL A   1      39.804  33.031  35.693  1.00  0.00     0.037 A 
ATOM     48  C   UNL A   1      40.315  28.981  30.016  1.00  0.00     0.037 A 
ATOM     49  C   UNL A   1      40.817  32.013  35.763  1.00  0.00     0.049 A 
ATOM     50  C   UNL A   1      41.211  28.788  31.205  1.00  0.00     0.074 A 
ATOM     51  C   UNL A   1      41.671  31.715  36.811  1.00  0.00     0.029 A 
ATOM     52  N   UNL A   1      41.107  31.119  34.744  1.00  0.00    -0.354 N 
ATOM     53  N   UNL A   1      41.230  29.446  32.338  1.00  0.00    -0.248 NA
ATOM     54  C   UNL A   1      42.222  27.727  31.106  1.00  0.00     0.031 C 
ATOM     55  C   UNL A   1      42.496  30.656  36.417  1.00  0.00     0.029 A 
ATOM     56  C   UNL A   1      42.135  30.276  35.134  1.00  0.00     0.049 A 
ATOM     57  H   UNL A   1      40.650  31.087  33.873  1.00  0.00     0.167 HD
ATOM     58  C   UNL A   1      42.251  28.881  33.088  1.00  0.00     0.074 A 
ATOM     59  C   UNL A   1      42.815  27.811  32.289  1.00  0.00     0.031 C 
ATOM     60  C   UNL A   1      42.690  29.227  34.321  1.00  0.00     0.037 A 
BRANCH  47  61
ATOM     61  C   UNL A   1      39.626  33.925  36.883  1.00  0.00     0.064 A 
ATOM     62  C   UNL A   1      40.185  35.210  36.924  1.00  0.00     0.173 A 
ATOM     63  C   UNL A   1      38.836  33.515  37.967  1.00  0.00     0.173 A 
ATOM     64  F   UNL A   1      40.961  35.640  35.917  1.00  0.00    -0.203 F 
ATOM     65  C   UNL A   1      39.968  36.050  38.012  1.00  0.00     0.198 A 
ATOM     66  C   UNL A   1      38.604  34.364  39.045  1.00  0.00     0.198 A 
ATOM     67  F   UNL A   1      38.277  32.295  37.973  1.00  0.00    -0.203 F 
ATOM     68  F   UNL A   1      40.532  37.264  38.043  1.00  0.00    -0.200 F 
ATOM     69  C   UNL A   1      39.171  35.630  39.069  1.00  0.00     0.200 A 
ATOM     70  F   UNL A   1      37.829  33.959  40.061  1.00  0.00    -0.200 F 
ATOM     71  F   UNL A   1      38.955  36.443  40.111  1.00  0.00    -0.200 F 
ENDBRANCH  47  61
BRANCH  48  72
ATOM     72  C   UNL A   1      40.388  28.074  28.846  1.00  0.00     0.064 A 
ATOM     73  C   UNL A   1      39.695  26.856  28.840  1.00  0.00     0.173 A 
ATOM     74  C   UNL A   1      41.117  28.422  27.700  1.00  0.00     0.173 A 
ATOM     75  F   UNL A   1      39.001  26.475  29.922  1.00  0.00    -0.203 F 
ATOM     76  C   UNL A   1      39.728  26.018  27.728  1.00  0.00     0.198 A 
ATOM     77  C   UNL A   1      41.132  27.593  26.581  1.00  0.00     0.198 A 
ATOM     78  F   UNL A   1      41.793  29.578  27.660  1.00  0.00    -0.203 F 
ATOM     79  F   UNL A   1      39.075  24.849  27.753  1.00  0.00    -0.200 F 
ATOM     80  C   UNL A   1      40.440  26.391  26.596  1.00  0.00     0.200 A 
ATOM     81  F   UNL A   1      41.810  27.962  25.486  1.00  0.00    -0.200 F 
ATOM     82  F   UNL A   1      40.460  25.591  25.522  1.00  0.00    -0.200 F 
ENDBRANCH  48  72
BRANCH  60  83
ATOM     83  C   UNL A   1      43.840  28.448  34.881  1.00  0.00     0.064 A 
ATOM     84  C   UNL A   1      43.626  27.320  35.685  1.00  0.00     0.173 A 
ATOM     85  C   UNL A   1      45.161  28.799  34.569  1.00  0.00     0.173 A 
ATOM     86  F   UNL A   1      42.378  26.958  36.020  1.00  0.00    -0.203 F 
ATOM     87  C   UNL A   1      44.698  26.575  36.168  1.00  0.00     0.198 A 
ATOM     88  C   UNL A   1      46.229  28.040  35.038  1.00  0.00     0.198 A 
ATOM     89  F   UNL A   1      45.413  29.869  33.799  1.00  0.00    -0.203 F 
ATOM     90  F   UNL A   1      44.473  25.516  36.958  1.00  0.00    -0.200 F 
ATOM     91  C   UNL A   1      45.997  26.932  35.838  1.00  0.00     0.200 A 
ATOM     92  F   UNL A   1      47.484  28.381  34.713  1.00  0.00    -0.200 F 
ATOM     93  F   UNL A   1      47.028  26.209  36.298  1.00  0.00    -0.200 F 
ENDBRANCH  60  83
ENDBRANCH  34  35
ENDBRANCH  26  29
ENDBRANCH  24  25
ENDBRANCH  23  24
ENDBRANCH   1  23
TORSDOF 13
ENDMDL
MODEL 2
REMARK VINA RESULT:     -12.9      0.443      7.310
REMARK SMILES Cc1cc(-c2ccc(/C=C/C(=O)NCCCCNC(=O)c3ccc(-c4c5nc(c(-c6c(F)c(F)c(F)c(F)c6F)c6ccc([nH]6)c(-c6c(F)c(F)c(F)c(F)c6F)c6nc(c(-c7c(F)c(F)c(F)c(F)c7F)c7ccc4[nH]7)C=C6)C=C5)cc3)o2)c(C)cc1Br
REMARK SMILES IDX 15 1 14 2 13 3 11 4 12 5 10 7 9 8 8 9 5 10 6 11 84 12 7 13
REMARK SMILES IDX 4 14 1 15 2 16 3 17 88 18 87 19 89 20 85 21 86 22 16 23
REMARK SMILES IDX 17 24 18 25 19 26 20 28 21 29 22 30 83 31 23 32 82 33 24 34
REMARK SMILES IDX 25 35 26 36 76 37 27 38 81 39 75 40 77 41 28 42 80 43 74 44
REMARK SMILES IDX 73 45 29 47 61 48 41 49 60 50 42 51 45 52 59 53 78 54 43 55
REMARK SMILES IDX 44 56 58 58 79 59 46 60 30 61 31 62 39 63 32 64 33 65 37 66
REMARK SMILES IDX 40 67 34 68 35 69 38 70 36 71 62 72 63 73 71 74 64 75 65 76
REMARK SMILES IDX 69 77 72 78 66 79 67 80 70 81 68 82 47 83 48 84 56 85 49 86
REMARK SMILES IDX 50 87 54 88 57 89 51 90 52 91 55 92 53 93
REMARK H PARENT 13 6 18 27 77 46 45 57
REMARK Flexibility Score: inf
ROOT
ATOM      1  C   UNL A   1      32.282  30.340  26.931  1.00  0.00     0.023 C 
ENDROOT
BRANCH   1   2
ATOM      2  C   UNL A   1      32.772  29.790  25.589  1.00  0.00     0.116 C 
BRANCH   2   3
ATOM      3  N   UNL A   1      31.696  29.706  24.618  1.00  0.00    -0.353 N 
ATOM      4  C   UNL A   1      31.011  28.624  24.152  1.00  0.00     0.244 C 
ATOM      5  O   UNL A   1      30.033  28.795  23.428  1.00  0.00    -0.270 OA
ATOM      6  H   UNL A   1      31.417  30.568  24.235  1.00  0.00     0.163 HD
BRANCH   4   7
ATOM      7  C   UNL A   1      31.376  27.253  24.569  1.00  0.00     0.075 C 
ATOM      8  C   UNL A   1      30.584  26.469  25.311  1.00  0.00     0.053 C 
BRANCH   8   9
ATOM      9  C   UNL A   1      30.978  25.158  25.675  1.00  0.00     0.127 A 
ATOM     10  C   UNL A   1      32.240  23.346  25.859  1.00  0.00     0.135 A 
ATOM     11  C   UNL A   1      31.093  23.080  26.570  1.00  0.00     0.051 A 
ATOM     12  O   UNL A   1      32.159  24.577  25.287  1.00  0.00    -0.457 OA
ATOM     13  C   UNL A   1      30.300  24.248  26.476  1.00  0.00     0.051 A 
BRANCH  10  14
ATOM     14  C   UNL A   1      33.464  22.607  25.603  1.00  0.00     0.020 A 
ATOM     15  C   UNL A   1      37.187  23.383  25.761  1.00  0.00     0.045 C 
ATOM     16  C   UNL A   1      35.918  22.614  25.523  1.00  0.00    -0.036 A 
ATOM     17  C   UNL A   1      34.695  23.267  25.753  1.00  0.00     0.016 A 
ATOM     18  C   UNL A   1      35.887  21.262  25.156  1.00  0.00     0.021 A 
ATOM     19  C   UNL A   1      34.666  20.597  24.988  1.00  0.00     0.020 A 
ATOM     20  Br  UNL A   1      37.469  20.249  24.875  1.00  0.00    -0.051 Br
ATOM     21  C   UNL A   1      33.447  21.260  25.197  1.00  0.00    -0.039 A 
ATOM     22  C   UNL A   1      32.160  20.500  25.005  1.00  0.00     0.045 C 
ENDBRANCH  10  14
ENDBRANCH   8   9
ENDBRANCH   4   7
ENDBRANCH   2   3
ENDBRANCH   1   2
BRANCH   1  23
ATOM     23  C   UNL A   1      31.917  31.823  26.923  1.00  0.00     0.023 C 
BRANCH  23  24
ATOM     24  C   UNL A   1      32.987  32.752  27.481  1.00  0.00     0.116 C 
BRANCH  24  25
ATOM     25  N   UNL A   1      32.529  34.112  27.700  1.00  0.00    -0.352 N 
ATOM     26  C   UNL A   1      33.016  35.039  28.606  1.00  0.00     0.251 C 
ATOM     27  H   UNL A   1      31.781  34.412  27.136  1.00  0.00     0.163 HD
ATOM     28  O   UNL A   1      32.486  36.124  28.743  1.00  0.00    -0.269 OA
BRANCH  26  29
ATOM     29  C   UNL A   1      34.163  34.645  29.453  1.00  0.00     0.039 A 
ATOM     30  C   UNL A   1      35.444  34.558  28.908  1.00  0.00     0.014 A 
ATOM     31  C   UNL A   1      33.922  34.265  30.775  1.00  0.00     0.014 A 
ATOM     32  C   UNL A   1      36.449  33.922  29.628  1.00  0.00     0.010 A 
ATOM     33  C   UNL A   1      34.952  33.689  31.522  1.00  0.00     0.010 A 
ATOM     34  C   UNL A   1      36.203  33.456  30.931  1.00  0.00    -0.014 A 
BRANCH  34  35
ATOM     35  C   UNL A   1      37.255  32.678  31.630  1.00  0.00     0.031 A 
ATOM     36  C   UNL A   1      37.952  31.543  30.930  1.00  0.00     0.074 A 
ATOM     37  C   UNL A   1      37.641  33.049  32.864  1.00  0.00     0.049 A 
ATOM     38  N   UNL A   1      38.918  30.773  31.366  1.00  0.00    -0.248 NA
ATOM     39  C   UNL A   1      37.512  31.230  29.561  1.00  0.00     0.031 C 
ATOM     40  C   UNL A   1      37.057  34.151  33.630  1.00  0.00     0.029 A 
ATOM     41  N   UNL A   1      38.635  32.566  33.674  1.00  0.00    -0.354 N 
ATOM     42  C   UNL A   1      39.183  29.877  30.340  1.00  0.00     0.074 A 
ATOM     43  C   UNL A   1      38.268  30.184  29.262  1.00  0.00     0.031 C 
ATOM     44  C   UNL A   1      37.743  34.298  34.774  1.00  0.00     0.029 A 
ATOM     45  C   UNL A   1      38.778  33.271  34.843  1.00  0.00     0.049 A 
ATOM     46  H   UNL A   1      39.193  31.789  33.440  1.00  0.00     0.167 HD
ATOM     47  C   UNL A   1      40.115  28.895  30.296  1.00  0.00     0.037 A 
ATOM     48  C   UNL A   1      39.646  33.106  35.858  1.00  0.00     0.037 A 
ATOM     49  C   UNL A   1      41.049  28.611  31.353  1.00  0.00     0.049 A 
ATOM     50  C   UNL A   1      40.650  31.991  35.796  1.00  0.00     0.074 A 
ATOM     51  C   UNL A   1      42.038  27.644  31.393  1.00  0.00     0.029 A 
ATOM     52  N   UNL A   1      41.114  29.302  32.552  1.00  0.00    -0.354 N 
ATOM     53  N   UNL A   1      40.872  31.135  34.829  1.00  0.00    -0.248 NA
ATOM     54  C   UNL A   1      41.509  31.808  36.973  1.00  0.00     0.031 C 
ATOM     55  C   UNL A   1      42.687  27.733  32.630  1.00  0.00     0.029 A 
ATOM     56  C   UNL A   1      42.120  28.775  33.346  1.00  0.00     0.049 A 
ATOM     57  H   UNL A   1      40.533  30.056  32.803  1.00  0.00     0.167 HD
ATOM     58  C   UNL A   1      41.893  30.311  35.279  1.00  0.00     0.074 A 
ATOM     59  C   UNL A   1      42.263  30.784  36.598  1.00  0.00     0.031 C 
ATOM     60  C   UNL A   1      42.464  29.251  34.660  1.00  0.00     0.037 A 
BRANCH  47  61
ATOM     61  C   UNL A   1      40.171  28.042  29.065  1.00  0.00     0.064 A 
ATOM     62  C   UNL A   1      40.880  28.446  27.925  1.00  0.00     0.173 A 
ATOM     63  C   UNL A   1      39.561  26.778  29.048  1.00  0.00     0.173 A 
ATOM     64  F   UNL A   1      41.468  29.652  27.889  1.00  0.00    -0.203 F 
ATOM     65  C   UNL A   1      40.969  27.620  26.808  1.00  0.00     0.198 A 
ATOM     66  C   UNL A   1      39.668  25.947  27.937  1.00  0.00     0.198 A 
ATOM     67  F   UNL A   1      38.873  26.347  30.115  1.00  0.00    -0.203 F 
ATOM     68  F   UNL A   1      41.631  28.036  25.720  1.00  0.00    -0.200 F 
ATOM     69  C   UNL A   1      40.370  26.368  26.817  1.00  0.00     0.200 A 
ATOM     70  F   UNL A   1      39.094  24.736  27.950  1.00  0.00    -0.200 F 
ATOM     71  F   UNL A   1      40.464  25.571  25.745  1.00  0.00    -0.200 F 
ENDBRANCH  47  61
BRANCH  48  72
ATOM     72  C   UNL A   1      39.601  34.033  37.014  1.00  0.00     0.064 A 
ATOM     73  C   UNL A   1      38.861  33.713  38.160  1.00  0.00     0.173 A 
ATOM     74  C   UNL A   1      40.324  35.234  37.012  1.00  0.00     0.173 A 
ATOM     75  F   UNL A   1      38.139  32.583  38.197  1.00  0.00    -0.203 F 
ATOM     76  C   UNL A   1      38.846  34.562  39.264  1.00  0.00     0.198 A 
ATOM     77  C   UNL A   1      40.325  36.071  38.124  1.00  0.00     0.198 A 
ATOM     78  F   UNL A   1      41.048  35.580  35.938  1.00  0.00    -0.203 F 
ATOM     79  F   UNL A   1      38.115  34.245  40.340  1.00  0.00    -0.200 F 
ATOM     80  C   UNL A   1      39.585  35.736  39.249  1.00  0.00     0.200 A 
ATOM     81  F   UNL A   1      41.050  37.199  38.110  1.00  0.00    -0.200 F 
ATOM     82  F   UNL A   1      39.582  36.546  40.316  1.00  0.00    -0.200 F 
ENDBRANCH  48  72
BRANCH  60  83
ATOM     83  C   UNL A   1      43.542  28.524  35.401  1.00  0.00     0.064 A 
ATOM     84  C   UNL A   1      44.892  28.857  35.226  1.00  0.00     0.173 A 
ATOM     85  C   UNL A   1      43.221  27.526  36.333  1.00  0.00     0.173 A 
ATOM     86  F   UNL A   1      45.244  29.797  34.335  1.00  0.00    -0.203 F 
ATOM     87  C   UNL A   1      45.887  28.208  35.950  1.00  0.00     0.198 A 
ATOM     88  C   UNL A   1      44.218  26.892  37.069  1.00  0.00     0.198 A 
ATOM     89  F   UNL A   1      41.942  27.177  36.537  1.00  0.00    -0.203 F 
ATOM     90  F   UNL A   1      47.174  28.522  35.748  1.00  0.00    -0.200 F 
ATOM     91  C   UNL A   1      45.549  27.231  36.875  1.00  0.00     0.200 A 
ATOM     92  F   UNL A   1      43.890  25.954  37.968  1.00  0.00    -0.200 F 
ATOM     93  F   UNL A   1      46.507  26.612  37.578  1.00  0.00    -0.200 F 
ENDBRANCH  60  83
ENDBRANCH  34  35
ENDBRANCH  26  29
ENDBRANCH  24  25
ENDBRANCH  23  24
ENDBRANCH   1  23
TORSDOF 13
ENDMDL
MODEL 3
REMARK VINA RESULT:     -12.8      5.716     11.183
REMARK SMILES Cc1cc(-c2ccc(/C=C/C(=O)NCCCCNC(=O)c3ccc(-c4c5nc(c(-c6c(F)c(F)c(F)c(F)c6F)c6ccc([nH]6)c(-c6c(F)c(F)c(F)c(F)c6F)c6nc(c(-c7c(F)c(F)c(F)c(F)c7F)c7ccc4[nH]7)C=C6)C=C5)cc3)o2)c(C)cc1Br
REMARK SMILES IDX 15 1 14 2 13 3 11 4 12 5 10 7 9 8 8 9 5 10 6 11 84 12 7 13
REMARK SMILES IDX 4 14 1 15 2 16 3 17 88 18 87 19 89 20 85 21 86 22 16 23
REMARK SMILES IDX 17 24 18 25 19 26 20 28 21 29 22 30 83 31 23 32 82 33 24 34
REMARK SMILES IDX 25 35 26 36 76 37 27 38 81 39 75 40 77 41 28 42 80 43 74 44
REMARK SMILES IDX 73 45 29 47 61 48 41 49 60 50 42 51 45 52 59 53 78 54 43 55
REMARK SMILES IDX 44 56 58 58 79 59 46 60 30 61 31 62 39 63 32 64 33 65 37 66
REMARK SMILES IDX 40 67 34 68 35 69 38 70 36 71 62 72 63 73 71 74 64 75 65 76
REMARK SMILES IDX 69 77 72 78 66 79 67 80 70 81 68 82 47 83 48 84 56 85 49 86
REMARK SMILES IDX 50 87 54 88 57 89 51 90 52 91 55 92 53 93
REMARK H PARENT 13 6 18 27 77 46 45 57
REMARK Flexibility Score: inf
ROOT
ATOM      1  C   UNL A   1      36.846  20.186  24.870  1.00  0.00     0.023 C 
ENDROOT
BRANCH   1   2
ATOM      2  C   UNL A   1      35.488  20.849  25.111  1.00  0.00     0.116 C 
BRANCH   2   3
ATOM      3  N   UNL A   1      34.399  19.894  25.010  1.00  0.00    -0.353 N 
ATOM      4  C   UNL A   1      33.054  20.076  25.121  1.00  0.00     0.244 C 
ATOM      5  O   UNL A   1      32.295  19.144  24.860  1.00  0.00    -0.270 OA
ATOM      6  H   UNL A   1      34.678  18.968  24.833  1.00  0.00     0.163 HD
BRANCH   4   7
ATOM      7  C   UNL A   1      32.488  21.396  25.473  1.00  0.00     0.075 C 
ATOM      8  C   UNL A   1      31.960  22.239  24.577  1.00  0.00     0.053 C 
BRANCH   8   9
ATOM      9  C   UNL A   1      31.423  23.489  24.969  1.00  0.00     0.127 A 
ATOM     10  C   UNL A   1      30.646  25.558  24.805  1.00  0.00     0.135 A 
ATOM     11  C   UNL A   1      30.513  25.209  26.128  1.00  0.00     0.051 A 
ATOM     12  O   UNL A   1      31.230  24.544  24.112  1.00  0.00    -0.457 OA
ATOM     13  C   UNL A   1      30.981  23.878  26.228  1.00  0.00     0.051 A 
BRANCH  10  14
ATOM     14  C   UNL A   1      30.312  26.742  24.033  1.00  0.00     0.020 A 
ATOM     15  C   UNL A   1      27.101  28.572  23.124  1.00  0.00     0.045 C 
ATOM     16  C   UNL A   1      28.565  28.234  23.168  1.00  0.00    -0.036 A 
ATOM     17  C   UNL A   1      28.961  27.101  23.899  1.00  0.00     0.016 A 
ATOM     18  C   UNL A   1      29.562  29.027  22.584  1.00  0.00     0.021 A 
ATOM     19  C   UNL A   1      30.911  28.671  22.698  1.00  0.00     0.020 A 
ATOM     20  Br  UNL A   1      29.165  30.615  21.623  1.00  0.00    -0.051 Br
ATOM     21  C   UNL A   1      31.301  27.526  23.410  1.00  0.00    -0.039 A 
ATOM     22  C   UNL A   1      32.766  27.187  23.504  1.00  0.00     0.045 C 
ENDBRANCH  10  14
ENDBRANCH   8   9
ENDBRANCH   4   7
ENDBRANCH   2   3
ENDBRANCH   1   2
BRANCH   1  23
ATOM     23  C   UNL A   1      38.046  21.128  24.962  1.00  0.00     0.023 C 
BRANCH  23  24
ATOM     24  C   UNL A   1      38.990  20.853  26.125  1.00  0.00     0.116 C 
BRANCH  24  25
ATOM     25  N   UNL A   1      39.809  19.667  25.949  1.00  0.00    -0.352 N 
ATOM     26  C   UNL A   1      41.187  19.562  26.042  1.00  0.00     0.251 C 
ATOM     27  H   UNL A   1      39.326  18.836  25.737  1.00  0.00     0.163 HD
ATOM     28  O   UNL A   1      41.756  18.518  25.792  1.00  0.00    -0.269 OA
BRANCH  26  29
ATOM     29  C   UNL A   1      41.954  20.777  26.392  1.00  0.00     0.039 A 
ATOM     30  C   UNL A   1      42.181  21.106  27.728  1.00  0.00     0.014 A 
ATOM     31  C   UNL A   1      42.353  21.637  25.367  1.00  0.00     0.014 A 
ATOM     32  C   UNL A   1      42.646  22.377  28.048  1.00  0.00     0.010 A 
ATOM     33  C   UNL A   1      42.886  22.888  25.689  1.00  0.00     0.010 A 
ATOM     34  C   UNL A   1      42.976  23.289  27.031  1.00  0.00    -0.014 A 
BRANCH  34  35
ATOM     35  C   UNL A   1      43.355  24.675  27.399  1.00  0.00     0.031 A 
ATOM     36  C   UNL A   1      44.739  25.187  27.107  1.00  0.00     0.074 A 
ATOM     37  C   UNL A   1      42.426  25.499  27.916  1.00  0.00     0.049 A 
ATOM     38  N   UNL A   1      45.242  26.377  27.323  1.00  0.00    -0.248 NA
ATOM     39  C   UNL A   1      45.685  24.243  26.490  1.00  0.00     0.031 C 
ATOM     40  C   UNL A   1      41.044  25.122  28.216  1.00  0.00     0.029 A 
ATOM     41  N   UNL A   1      42.492  26.827  28.247  1.00  0.00    -0.354 N 
ATOM     42  C   UNL A   1      46.560  26.318  26.891  1.00  0.00     0.074 A 
ATOM     43  C   UNL A   1      46.790  24.971  26.414  1.00  0.00     0.031 C 
ATOM     44  C   UNL A   1      40.376  26.209  28.631  1.00  0.00     0.029 A 
ATOM     45  C   UNL A   1      41.295  27.344  28.674  1.00  0.00     0.049 A 
ATOM     46  H   UNL A   1      43.318  27.359  28.185  1.00  0.00     0.167 HD
ATOM     47  C   UNL A   1      47.491  27.301  26.882  1.00  0.00     0.037 A 
ATOM     48  C   UNL A   1      40.973  28.592  29.060  1.00  0.00     0.037 A 
ATOM     49  C   UNL A   1      47.254  28.650  27.323  1.00  0.00     0.049 A 
ATOM     50  C   UNL A   1      42.032  29.656  29.067  1.00  0.00     0.074 A 
ATOM     51  C   UNL A   1      48.133  29.720  27.340  1.00  0.00     0.029 A 
ATOM     52  N   UNL A   1      46.046  29.116  27.817  1.00  0.00    -0.354 N 
ATOM     53  N   UNL A   1      43.281  29.579  28.680  1.00  0.00    -0.248 NA
ATOM     54  C   UNL A   1      41.640  30.975  29.583  1.00  0.00     0.031 C 
ATOM     55  C   UNL A   1      47.462  30.828  27.868  1.00  0.00     0.029 A 
ATOM     56  C   UNL A   1      46.159  30.456  28.153  1.00  0.00     0.049 A 
ATOM     57  H   UNL A   1      45.229  28.576  27.914  1.00  0.00     0.167 HD
ATOM     58  C   UNL A   1      43.827  30.834  28.905  1.00  0.00     0.074 A 
ATOM     59  C   UNL A   1      42.765  31.663  29.442  1.00  0.00     0.031 C 
ATOM     60  C   UNL A   1      45.096  31.258  28.697  1.00  0.00     0.037 A 
BRANCH  47  61
ATOM     61  C   UNL A   1      48.862  26.959  26.385  1.00  0.00     0.064 A 
ATOM     62  C   UNL A   1      49.845  26.443  27.241  1.00  0.00     0.173 A 
ATOM     63  C   UNL A   1      49.177  27.089  25.023  1.00  0.00     0.173 A 
ATOM     64  F   UNL A   1      49.596  26.315  28.553  1.00  0.00    -0.203 F 
ATOM     65  C   UNL A   1      51.098  26.078  26.755  1.00  0.00     0.198 A 
ATOM     66  C   UNL A   1      50.423  26.705  24.537  1.00  0.00     0.198 A 
ATOM     67  F   UNL A   1      48.269  27.575  24.164  1.00  0.00    -0.203 F 
ATOM     68  F   UNL A   1      52.031  25.612  27.595  1.00  0.00    -0.200 F 
ATOM     69  C   UNL A   1      51.383  26.202  25.402  1.00  0.00     0.200 A 
ATOM     70  F   UNL A   1      50.695  26.819  23.229  1.00  0.00    -0.200 F 
ATOM     71  F   UNL A   1      52.586  25.842  24.934  1.00  0.00    -0.200 F 
ENDBRANCH  47  61
BRANCH  48  72
ATOM     72  C   UNL A   1      39.579  28.895  29.461  1.00  0.00     0.064 A 
ATOM     73  C   UNL A   1      39.154  28.696  30.781  1.00  0.00     0.173 A 
ATOM     74  C   UNL A   1      38.657  29.424  28.547  1.00  0.00     0.173 A 
ATOM     75  F   UNL A   1      39.998  28.174  31.684  1.00  0.00    -0.203 F 
ATOM     76  C   UNL A   1      37.856  29.016  31.173  1.00  0.00     0.198 A 
ATOM     77  C   UNL A   1      37.366  29.763  28.945  1.00  0.00     0.198 A 
ATOM     78  F   UNL A   1      39.020  29.633  27.274  1.00  0.00    -0.203 F 
ATOM     79  F   UNL A   1      37.468  28.798  32.436  1.00  0.00    -0.200 F 
ATOM     80  C   UNL A   1      36.966  29.557  30.257  1.00  0.00     0.200 A 
ATOM     81  F   UNL A   1      36.513  30.297  28.059  1.00  0.00    -0.200 F 
ATOM     82  F   UNL A   1      35.722  29.877  30.638  1.00  0.00    -0.200 F 
ENDBRANCH  48  72
BRANCH  60  83
ATOM     83  C   UNL A   1      45.411  32.677  29.057  1.00  0.00     0.064 A 
ATOM     84  C   UNL A   1      45.207  33.718  28.142  1.00  0.00     0.173 A 
ATOM     85  C   UNL A   1      45.868  33.004  30.342  1.00  0.00     0.173 A 
ATOM     86  F   UNL A   1      44.784  33.448  26.897  1.00  0.00    -0.203 F 
ATOM     87  C   UNL A   1      45.461  35.040  28.496  1.00  0.00     0.198 A 
ATOM     88  C   UNL A   1      46.103  34.329  30.699  1.00  0.00     0.198 A 
ATOM     89  F   UNL A   1      46.074  32.040  31.253  1.00  0.00    -0.203 F 
ATOM     90  F   UNL A   1      45.286  36.018  27.597  1.00  0.00    -0.200 F 
ATOM     91  C   UNL A   1      45.902  35.344  29.776  1.00  0.00     0.200 A 
ATOM     92  F   UNL A   1      46.522  34.623  31.937  1.00  0.00    -0.200 F 
ATOM     93  F   UNL A   1      46.139  36.617  30.118  1.00  0.00    -0.200 F 
ENDBRANCH  60  83
ENDBRANCH  34  35
ENDBRANCH  26  29
ENDBRANCH  24  25
ENDBRANCH  23  24
ENDBRANCH   1  23
TORSDOF 13
ENDMDL
