MODEL 1
REMARK VINA RESULT:     -10.9      0.000      0.000
REMARK SMILES C=C(C)COc1cc(/C=C/c2cc(C(=O)NCCCCNC(=O)c3ccc(-c4c5nc(c(-c6c(F)c(F)c(F)c(F)c6F)c6ccc([nH]6)c(-c6c(F)c(F)c(F)c(F)c6F)c6nc(c(-c7c(F)c(F)c(F)c(F)c7F)c7ccc4[nH]7)C=C6)C=C5)cc3)ncn2)ccc1OC
REMARK SMILES IDX 17 1 16 2 14 3 15 4 13 6 11 7 12 8 89 9 88 10 87 11 10 12
REMARK SMILES IDX 9 13 8 14 6 15 7 16 92 17 91 18 90 19 5 20 4 21 2 22 1 23
REMARK SMILES IDX 3 24 93 25 94 26 18 27 19 28 20 29 21 30 22 31 23 33 24 34
REMARK SMILES IDX 25 35 86 36 26 37 85 38 27 39 28 40 29 41 79 42 30 43 84 44
REMARK SMILES IDX 78 45 80 46 31 47 83 48 77 49 76 50 32 52 64 53 44 54 63 55
REMARK SMILES IDX 45 56 48 57 62 58 81 59 46 60 47 61 61 63 82 64 49 65 33 66
REMARK SMILES IDX 34 67 42 68 35 69 36 70 40 71 43 72 37 73 38 74 41 75 39 76
REMARK SMILES IDX 65 77 66 78 74 79 67 80 68 81 72 82 75 83 69 84 70 85 73 86
REMARK SMILES IDX 71 87 50 88 51 89 59 90 52 91 53 92 57 93 60 94 54 95 55 96
REMARK SMILES IDX 58 97 56 98
REMARK H PARENT 16 5 21 32 80 51 48 62
REMARK Flexibility Score: inf
ROOT
ATOM      1  C   UNL A   1      35.427  33.232  27.657  1.00  0.00     0.116 C 
ENDROOT
BRANCH   1   2
ATOM      2  N   UNL A   1      35.727  31.945  28.257  1.00  0.00    -0.351 N 
ATOM      3  C   UNL A   1      35.148  30.697  28.140  1.00  0.00     0.270 C 
ATOM      4  O   UNL A   1      35.669  29.787  28.787  1.00  0.00    -0.268 OA
ATOM      5  H   UNL A   1      36.496  31.965  28.872  1.00  0.00     0.163 HD
BRANCH   3   6
ATOM      6  C   UNL A   1      33.971  30.404  27.248  1.00  0.00     0.132 A 
ATOM      7  C   UNL A   1      32.682  29.057  25.825  1.00  0.00     0.067 A 
ATOM      8  C   UNL A   1      33.897  29.297  26.441  1.00  0.00     0.062 A 
ATOM      9  N   UNL A   1      31.664  29.927  25.853  1.00  0.00    -0.237 NA
ATOM     10  C   UNL A   1      31.874  31.033  26.584  1.00  0.00     0.223 A 
ATOM     11  N   UNL A   1      32.966  31.305  27.310  1.00  0.00    -0.231 NA
BRANCH   7  12
ATOM     12  C   UNL A   1      32.455  27.747  25.192  1.00  0.00     0.029 C 
ATOM     13  C   UNL A   1      32.464  26.663  25.987  1.00  0.00     0.010 C 
BRANCH  13  14
ATOM     14  C   UNL A   1      32.542  25.230  25.653  1.00  0.00    -0.022 A 
ATOM     15  C   UNL A   1      33.422  22.963  25.923  1.00  0.00     0.162 A 
ATOM     16  C   UNL A   1      33.582  24.365  26.022  1.00  0.00     0.058 A 
ATOM     17  C   UNL A   1      32.210  22.425  25.471  1.00  0.00     0.160 A 
ATOM     18  C   UNL A   1      31.219  23.297  25.016  1.00  0.00     0.051 A 
ATOM     19  C   UNL A   1      31.379  24.677  25.101  1.00  0.00     0.012 A 
BRANCH  15  20
ATOM     20  O   UNL A   1      34.414  22.181  26.456  1.00  0.00    -0.485 OA
BRANCH  20  21
ATOM     21  C   UNL A   1      35.739  22.611  26.106  1.00  0.00     0.260 C 
BRANCH  21  22
ATOM     22  C   UNL A   1      36.211  21.807  24.906  1.00  0.00    -0.043 C 
ATOM     23  C   UNL A   1      36.288  20.463  24.924  1.00  0.00     0.011 C 
ATOM     24  C   UNL A   1      36.478  22.568  23.637  1.00  0.00     0.042 C 
ENDBRANCH  21  22
ENDBRANCH  20  21
ENDBRANCH  15  20
BRANCH  17  25
ATOM     25  O   UNL A   1      31.774  21.134  25.422  1.00  0.00    -0.493 OA
ATOM     26  C   UNL A   1      32.320  20.237  24.477  1.00  0.00     0.278 C 
ENDBRANCH  17  25
ENDBRANCH  13  14
ENDBRANCH   7  12
ENDBRANCH   3   6
ENDBRANCH   1   2
BRANCH   1  27
ATOM     27  C   UNL A   1      35.505  34.347  28.703  1.00  0.00     0.023 C 
BRANCH  27  28
ATOM     28  C   UNL A   1      34.236  35.198  28.808  1.00  0.00     0.023 C 
BRANCH  28  29
ATOM     29  C   UNL A   1      33.081  34.542  29.557  1.00  0.00     0.116 C 
BRANCH  29  30
ATOM     30  N   UNL A   1      32.523  35.381  30.605  1.00  0.00    -0.352 N 
ATOM     31  C   UNL A   1      32.959  35.553  31.897  1.00  0.00     0.251 C 
ATOM     32  H   UNL A   1      31.722  35.897  30.354  1.00  0.00     0.163 HD
ATOM     33  O   UNL A   1      32.302  36.216  32.687  1.00  0.00    -0.269 OA
BRANCH  31  34
ATOM     34  C   UNL A   1      34.208  34.896  32.340  1.00  0.00     0.039 A 
ATOM     35  C   UNL A   1      34.131  33.600  32.855  1.00  0.00     0.014 A 
ATOM     36  C   UNL A   1      35.442  35.543  32.240  1.00  0.00     0.014 A 
ATOM     37  C   UNL A   1      35.302  32.934  33.219  1.00  0.00     0.010 A 
ATOM     38  C   UNL A   1      36.613  34.848  32.524  1.00  0.00     0.010 A 
ATOM     39  C   UNL A   1      36.556  33.540  33.025  1.00  0.00    -0.014 A 
BRANCH  39  40
ATOM     40  C   UNL A   1      37.806  32.808  33.346  1.00  0.00     0.031 A 
ATOM     41  C   UNL A   1      38.542  33.082  34.629  1.00  0.00     0.074 A 
ATOM     42  C   UNL A   1      38.296  31.916  32.464  1.00  0.00     0.049 A 
ATOM     43  N   UNL A   1      39.638  32.533  35.088  1.00  0.00    -0.248 NA
ATOM     44  C   UNL A   1      37.989  34.130  35.500  1.00  0.00     0.031 C 
ATOM     45  C   UNL A   1      37.707  31.608  31.159  1.00  0.00     0.029 A 
ATOM     46  N   UNL A   1      39.399  31.102  32.530  1.00  0.00    -0.354 N 
ATOM     47  C   UNL A   1      39.904  33.168  36.293  1.00  0.00     0.074 A 
ATOM     48  C   UNL A   1      38.897  34.192  36.462  1.00  0.00     0.031 C 
ATOM     49  C   UNL A   1      38.429  30.644  30.567  1.00  0.00     0.029 A 
ATOM     50  C   UNL A   1      39.551  30.291  31.431  1.00  0.00     0.049 A 
ATOM     51  H   UNL A   1      40.022  31.099  33.293  1.00  0.00     0.167 HD
ATOM     52  C   UNL A   1      40.882  32.903  37.193  1.00  0.00     0.037 A 
ATOM     53  C   UNL A   1      40.487  29.364  31.156  1.00  0.00     0.037 A 
ATOM     54  C   UNL A   1      41.877  31.876  37.023  1.00  0.00     0.049 A 
ATOM     55  C   UNL A   1      41.565  29.091  32.171  1.00  0.00     0.074 A 
ATOM     56  C   UNL A   1      42.882  31.494  37.895  1.00  0.00     0.029 A 
ATOM     57  N   UNL A   1      41.996  31.069  35.902  1.00  0.00    -0.354 N 
ATOM     58  N   UNL A   1      41.760  29.643  33.343  1.00  0.00    -0.248 NA
ATOM     59  C   UNL A   1      42.545  28.053  31.827  1.00  0.00     0.031 C 
ATOM     60  C   UNL A   1      43.642  30.496  37.277  1.00  0.00     0.029 A 
ATOM     61  C   UNL A   1      43.071  30.206  36.049  1.00  0.00     0.049 A 
ATOM     62  H   UNL A   1      41.404  31.103  35.115  1.00  0.00     0.167 HD
ATOM     63  C   UNL A   1      42.861  28.998  33.892  1.00  0.00     0.074 A 
ATOM     64  C   UNL A   1      43.277  27.999  32.929  1.00  0.00     0.031 C 
ATOM     65  C   UNL A   1      43.471  29.212  35.085  1.00  0.00     0.037 A 
BRANCH  52  66
ATOM     66  C   UNL A   1      40.920  33.738  38.442  1.00  0.00     0.064 A 
ATOM     67  C   UNL A   1      41.735  34.877  38.543  1.00  0.00     0.173 A 
ATOM     68  C   UNL A   1      40.112  33.415  39.542  1.00  0.00     0.173 A 
ATOM     69  F   UNL A   1      42.537  35.227  37.526  1.00  0.00    -0.203 F 
ATOM     70  C   UNL A   1      41.766  35.637  39.710  1.00  0.00     0.198 A 
ATOM     71  C   UNL A   1      40.118  34.197  40.694  1.00  0.00     0.198 A 
ATOM     72  F   UNL A   1      39.309  32.340  39.500  1.00  0.00    -0.203 F 
ATOM     73  F   UNL A   1      42.596  36.685  39.803  1.00  0.00    -0.200 F 
ATOM     74  C   UNL A   1      40.952  35.302  40.781  1.00  0.00     0.200 A 
ATOM     75  F   UNL A   1      39.321  33.881  41.723  1.00  0.00    -0.200 F 
ATOM     76  F   UNL A   1      40.978  36.038  41.900  1.00  0.00    -0.200 F 
ENDBRANCH  52  66
BRANCH  53  77
ATOM     77  C   UNL A   1      40.425  28.597  29.884  1.00  0.00     0.064 A 
ATOM     78  C   UNL A   1      39.686  27.408  29.795  1.00  0.00     0.173 A 
ATOM     79  C   UNL A   1      41.106  29.027  28.737  1.00  0.00     0.173 A 
ATOM     80  F   UNL A   1      39.032  26.943  30.869  1.00  0.00    -0.203 F 
ATOM     81  C   UNL A   1      39.655  26.666  28.616  1.00  0.00     0.198 A 
ATOM     82  C   UNL A   1      41.047  28.302  27.549  1.00  0.00     0.198 A 
ATOM     83  F   UNL A   1      41.821  30.162  28.766  1.00  0.00    -0.203 F 
ATOM     84  F   UNL A   1      38.985  25.506  28.574  1.00  0.00    -0.200 F 
ATOM     85  C   UNL A   1      40.330  27.117  27.492  1.00  0.00     0.200 A 
ATOM     86  F   UNL A   1      41.687  28.751  26.460  1.00  0.00    -0.200 F 
ATOM     87  F   UNL A   1      40.297  26.404  26.357  1.00  0.00    -0.200 F 
ENDBRANCH  53  77
BRANCH  65  88
ATOM     88  C   UNL A   1      44.625  28.314  35.434  1.00  0.00     0.064 A 
ATOM     89  C   UNL A   1      45.947  28.637  35.093  1.00  0.00     0.173 A 
ATOM     90  C   UNL A   1      44.402  27.117  36.132  1.00  0.00     0.173 A 
ATOM     91  F   UNL A   1      46.215  29.763  34.415  1.00  0.00    -0.203 F 
ATOM     92  C   UNL A   1      46.997  27.774  35.399  1.00  0.00     0.198 A 
ATOM     93  C   UNL A   1      45.458  26.276  36.470  1.00  0.00     0.198 A 
ATOM     94  F   UNL A   1      43.159  26.764  36.493  1.00  0.00    -0.203 F 
ATOM     95  F   UNL A   1      48.242  28.070  35.001  1.00  0.00    -0.200 F 
ATOM     96  C   UNL A   1      46.752  26.597  36.091  1.00  0.00     0.200 A 
ATOM     97  F   UNL A   1      45.222  25.148  37.155  1.00  0.00    -0.200 F 
ATOM     98  F   UNL A   1      47.763  25.767  36.384  1.00  0.00    -0.200 F 
ENDBRANCH  65  88
ENDBRANCH  39  40
ENDBRANCH  31  34
ENDBRANCH  29  30
ENDBRANCH  28  29
ENDBRANCH  27  28
ENDBRANCH   1  27
TORSDOF 17
ENDMDL
MODEL 2
REMARK VINA RESULT:     -10.8      4.739     10.862
REMARK SMILES C=C(C)COc1cc(/C=C/c2cc(C(=O)NCCCCNC(=O)c3ccc(-c4c5nc(c(-c6c(F)c(F)c(F)c(F)c6F)c6ccc([nH]6)c(-c6c(F)c(F)c(F)c(F)c6F)c6nc(c(-c7c(F)c(F)c(F)c(F)c7F)c7ccc4[nH]7)C=C6)C=C5)cc3)ncn2)ccc1OC
REMARK SMILES IDX 17 1 16 2 14 3 15 4 13 6 11 7 12 8 89 9 88 10 87 11 10 12
REMARK SMILES IDX 9 13 8 14 6 15 7 16 92 17 91 18 90 19 5 20 4 21 2 22 1 23
REMARK SMILES IDX 3 24 93 25 94 26 18 27 19 28 20 29 21 30 22 31 23 33 24 34
REMARK SMILES IDX 25 35 86 36 26 37 85 38 27 39 28 40 29 41 79 42 30 43 84 44
REMARK SMILES IDX 78 45 80 46 31 47 83 48 77 49 76 50 32 52 64 53 44 54 63 55
REMARK SMILES IDX 45 56 48 57 62 58 81 59 46 60 47 61 61 63 82 64 49 65 33 66
REMARK SMILES IDX 34 67 42 68 35 69 36 70 40 71 43 72 37 73 38 74 41 75 39 76
REMARK SMILES IDX 65 77 66 78 74 79 67 80 68 81 72 82 75 83 69 84 70 85 73 86
REMARK SMILES IDX 71 87 50 88 51 89 59 90 52 91 53 92 57 93 60 94 54 95 55 96
REMARK SMILES IDX 58 97 56 98
REMARK H PARENT 16 5 21 32 80 51 48 62
REMARK Flexibility Score: inf
ROOT
ATOM      1  C   UNL A   1      46.041  21.676  24.761  1.00  0.00     0.116 C 
ENDROOT
BRANCH   1   2
ATOM      2  N   UNL A   1      45.773  20.594  23.831  1.00  0.00    -0.351 N 
ATOM      3  C   UNL A   1      45.007  19.449  23.920  1.00  0.00     0.270 C 
ATOM      4  O   UNL A   1      44.977  18.730  22.920  1.00  0.00    -0.268 OA
ATOM      5  H   UNL A   1      46.228  20.696  22.965  1.00  0.00     0.163 HD
BRANCH   3   6
ATOM      6  C   UNL A   1      44.200  19.077  25.136  1.00  0.00     0.132 A 
ATOM      7  C   UNL A   1      42.369  19.255  26.591  1.00  0.00     0.067 A 
ATOM      8  C   UNL A   1      43.132  19.815  25.583  1.00  0.00     0.062 A 
ATOM      9  N   UNL A   1      42.720  18.136  27.239  1.00  0.00    -0.237 NA
ATOM     10  C   UNL A   1      43.841  17.545  26.797  1.00  0.00     0.223 A 
ATOM     11  N   UNL A   1      44.586  17.940  25.756  1.00  0.00    -0.231 NA
BRANCH   7  12
ATOM     12  C   UNL A   1      41.061  19.853  26.905  1.00  0.00     0.029 C 
ATOM     13  C   UNL A   1      40.540  20.711  26.011  1.00  0.00     0.010 C 
BRANCH  13  14
ATOM     14  C   UNL A   1      39.422  21.663  26.135  1.00  0.00    -0.022 A 
ATOM     15  C   UNL A   1      38.472  23.895  26.455  1.00  0.00     0.162 A 
ATOM     16  C   UNL A   1      39.514  22.961  26.657  1.00  0.00     0.058 A 
ATOM     17  C   UNL A   1      37.341  23.534  25.710  1.00  0.00     0.160 A 
ATOM     18  C   UNL A   1      37.218  22.212  25.279  1.00  0.00     0.051 A 
ATOM     19  C   UNL A   1      38.237  21.288  25.489  1.00  0.00     0.012 A 
BRANCH  15  20
ATOM     20  O   UNL A   1      38.704  25.188  26.848  1.00  0.00    -0.485 OA
BRANCH  20  21
ATOM     21  C   UNL A   1      39.485  25.294  28.050  1.00  0.00     0.260 C 
BRANCH  21  22
ATOM     22  C   UNL A   1      40.939  25.511  27.668  1.00  0.00    -0.043 C 
ATOM     23  C   UNL A   1      41.943  24.804  28.219  1.00  0.00     0.011 C 
ATOM     24  C   UNL A   1      41.212  26.475  26.546  1.00  0.00     0.042 C 
ENDBRANCH  21  22
ENDBRANCH  20  21
ENDBRANCH  15  20
BRANCH  17  25
ATOM     25  O   UNL A   1      36.291  24.284  25.269  1.00  0.00    -0.493 OA
ATOM     26  C   UNL A   1      35.230  23.674  24.564  1.00  0.00     0.278 C 
ENDBRANCH  17  25
ENDBRANCH  13  14
ENDBRANCH   7  12
ENDBRANCH   3   6
ENDBRANCH   1   2
BRANCH   1  27
ATOM     27  C   UNL A   1      45.696  23.028  24.130  1.00  0.00     0.023 C 
BRANCH  27  28
ATOM     28  C   UNL A   1      44.330  23.584  24.545  1.00  0.00     0.023 C 
BRANCH  28  29
ATOM     29  C   UNL A   1      44.366  24.970  25.180  1.00  0.00     0.116 C 
BRANCH  29  30
ATOM     30  N   UNL A   1      45.660  25.622  25.068  1.00  0.00    -0.352 N 
ATOM     31  C   UNL A   1      46.130  26.727  25.736  1.00  0.00     0.251 C 
ATOM     32  H   UNL A   1      46.286  25.215  24.424  1.00  0.00     0.163 HD
ATOM     33  O   UNL A   1      47.211  27.215  25.438  1.00  0.00    -0.269 OA
BRANCH  31  34
ATOM     34  C   UNL A   1      45.302  27.351  26.790  1.00  0.00     0.039 A 
ATOM     35  C   UNL A   1      44.943  26.580  27.898  1.00  0.00     0.014 A 
ATOM     36  C   UNL A   1      44.891  28.683  26.694  1.00  0.00     0.014 A 
ATOM     37  C   UNL A   1      44.216  27.164  28.937  1.00  0.00     0.010 A 
ATOM     38  C   UNL A   1      44.240  29.285  27.767  1.00  0.00     0.010 A 
ATOM     39  C   UNL A   1      43.888  28.531  28.895  1.00  0.00    -0.014 A 
BRANCH  39  40
ATOM     40  C   UNL A   1      43.176  29.171  30.029  1.00  0.00     0.031 A 
ATOM     41  C   UNL A   1      41.750  29.621  29.876  1.00  0.00     0.074 A 
ATOM     42  C   UNL A   1      43.829  29.374  31.190  1.00  0.00     0.049 A 
ATOM     43  N   UNL A   1      40.961  30.185  30.757  1.00  0.00    -0.248 NA
ATOM     44  C   UNL A   1      41.134  29.440  28.553  1.00  0.00     0.031 C 
ATOM     45  C   UNL A   1      45.232  29.037  31.440  1.00  0.00     0.029 A 
ATOM     46  N   UNL A   1      43.400  29.911  32.378  1.00  0.00    -0.354 N 
ATOM     47  C   UNL A   1      39.765  30.425  30.095  1.00  0.00     0.074 A 
ATOM     48  C   UNL A   1      39.953  30.013  28.722  1.00  0.00     0.031 C 
ATOM     49  C   UNL A   1      45.534  29.335  32.713  1.00  0.00     0.029 A 
ATOM     50  C   UNL A   1      44.362  29.917  33.358  1.00  0.00     0.049 A 
ATOM     51  H   UNL A   1      42.488  30.258  32.514  1.00  0.00     0.167 HD
ATOM     52  C   UNL A   1      38.605  30.917  30.593  1.00  0.00     0.037 A 
ATOM     53  C   UNL A   1      44.302  30.339  34.635  1.00  0.00     0.037 A 
ATOM     54  C   UNL A   1      38.421  31.317  31.965  1.00  0.00     0.049 A 
ATOM     55  C   UNL A   1      43.002  30.885  35.163  1.00  0.00     0.074 A 
ATOM     56  C   UNL A   1      37.274  31.785  32.582  1.00  0.00     0.029 A 
ATOM     57  N   UNL A   1      39.416  31.302  32.931  1.00  0.00    -0.354 N 
ATOM     58  N   UNL A   1      41.854  31.034  34.548  1.00  0.00    -0.248 NA
ATOM     59  C   UNL A   1      42.989  31.308  36.569  1.00  0.00     0.031 C 
ATOM     60  C   UNL A   1      37.590  32.105  33.907  1.00  0.00     0.029 A 
ATOM     61  C   UNL A   1      38.915  31.773  34.136  1.00  0.00     0.049 A 
ATOM     62  H   UNL A   1      40.342  31.002  32.785  1.00  0.00     0.167 HD
ATOM     63  C   UNL A   1      40.973  31.534  35.499  1.00  0.00     0.074 A 
ATOM     64  C   UNL A   1      41.719  31.644  36.736  1.00  0.00     0.031 C 
ATOM     65  C   UNL A   1      39.667  31.872  35.361  1.00  0.00     0.037 A 
BRANCH  52  66
ATOM     66  C   UNL A   1      37.445  31.049  29.647  1.00  0.00     0.064 A 
ATOM     67  C   UNL A   1      36.626  29.953  29.328  1.00  0.00     0.173 A 
ATOM     68  C   UNL A   1      37.127  32.289  29.073  1.00  0.00     0.173 A 
ATOM     69  F   UNL A   1      36.889  28.741  29.838  1.00  0.00    -0.203 F 
ATOM     70  C   UNL A   1      35.558  30.088  28.443  1.00  0.00     0.198 A 
ATOM     71  C   UNL A   1      36.038  32.428  28.217  1.00  0.00     0.198 A 
ATOM     72  F   UNL A   1      37.872  33.371  29.347  1.00  0.00    -0.203 F 
ATOM     73  F   UNL A   1      34.828  29.015  28.109  1.00  0.00    -0.200 F 
ATOM     74  C   UNL A   1      35.260  31.326  27.895  1.00  0.00     0.200 A 
ATOM     75  F   UNL A   1      35.742  33.628  27.700  1.00  0.00    -0.200 F 
ATOM     76  F   UNL A   1      34.229  31.455  27.050  1.00  0.00    -0.200 F 
ENDBRANCH  52  66
BRANCH  53  77
ATOM     77  C   UNL A   1      45.495  30.224  35.514  1.00  0.00     0.064 A 
ATOM     78  C   UNL A   1      45.700  29.085  36.307  1.00  0.00     0.173 A 
ATOM     79  C   UNL A   1      46.448  31.250  35.590  1.00  0.00     0.173 A 
ATOM     80  F   UNL A   1      44.808  28.084  36.285  1.00  0.00    -0.203 F 
ATOM     81  C   UNL A   1      46.797  28.989  37.160  1.00  0.00     0.198 A 
ATOM     82  C   UNL A   1      47.562  31.139  36.419  1.00  0.00     0.198 A 
ATOM     83  F   UNL A   1      46.304  32.357  34.847  1.00  0.00    -0.203 F 
ATOM     84  F   UNL A   1      46.940  27.913  37.946  1.00  0.00    -0.200 F 
ATOM     85  C   UNL A   1      47.731  30.013  37.211  1.00  0.00     0.200 A 
ATOM     86  F   UNL A   1      48.471  32.123  36.452  1.00  0.00    -0.200 F 
ATOM     87  F   UNL A   1      48.787  29.919  38.030  1.00  0.00    -0.200 F 
ENDBRANCH  53  77
BRANCH  65  88
ATOM     88  C   UNL A   1      38.948  32.345  36.594  1.00  0.00     0.064 A 
ATOM     89  C   UNL A   1      39.125  33.638  37.106  1.00  0.00     0.173 A 
ATOM     90  C   UNL A   1      38.059  31.490  37.264  1.00  0.00     0.173 A 
ATOM     91  F   UNL A   1      39.973  34.492  36.511  1.00  0.00    -0.203 F 
ATOM     92  C   UNL A   1      38.473  34.044  38.269  1.00  0.00     0.198 A 
ATOM     93  C   UNL A   1      37.379  31.912  38.404  1.00  0.00     0.198 A 
ATOM     94  F   UNL A   1      37.843  30.246  36.812  1.00  0.00    -0.203 F 
ATOM     95  F   UNL A   1      38.712  35.260  38.778  1.00  0.00    -0.200 F 
ATOM     96  C   UNL A   1      37.597  33.183  38.913  1.00  0.00     0.200 A 
ATOM     97  F   UNL A   1      36.519  31.084  39.014  1.00  0.00    -0.200 F 
ATOM     98  F   UNL A   1      36.971  33.574  40.031  1.00  0.00    -0.200 F 
ENDBRANCH  65  88
ENDBRANCH  39  40
ENDBRANCH  31  34
ENDBRANCH  29  30
ENDBRANCH  28  29
ENDBRANCH  27  28
ENDBRANCH   1  27
TORSDOF 17
ENDMDL
MODEL 3
REMARK VINA RESULT:     -10.7      0.805      7.253
REMARK SMILES C=C(C)COc1cc(/C=C/c2cc(C(=O)NCCCCNC(=O)c3ccc(-c4c5nc(c(-c6c(F)c(F)c(F)c(F)c6F)c6ccc([nH]6)c(-c6c(F)c(F)c(F)c(F)c6F)c6nc(c(-c7c(F)c(F)c(F)c(F)c7F)c7ccc4[nH]7)C=C6)C=C5)cc3)ncn2)ccc1OC
REMARK SMILES IDX 17 1 16 2 14 3 15 4 13 6 11 7 12 8 89 9 88 10 87 11 10 12
REMARK SMILES IDX 9 13 8 14 6 15 7 16 92 17 91 18 90 19 5 20 4 21 2 22 1 23
REMARK SMILES IDX 3 24 93 25 94 26 18 27 19 28 20 29 21 30 22 31 23 33 24 34
REMARK SMILES IDX 25 35 86 36 26 37 85 38 27 39 28 40 29 41 79 42 30 43 84 44
REMARK SMILES IDX 78 45 80 46 31 47 83 48 77 49 76 50 32 52 64 53 44 54 63 55
REMARK SMILES IDX 45 56 48 57 62 58 81 59 46 60 47 61 61 63 82 64 49 65 33 66
REMARK SMILES IDX 34 67 42 68 35 69 36 70 40 71 43 72 37 73 38 74 41 75 39 76
REMARK SMILES IDX 65 77 66 78 74 79 67 80 68 81 72 82 75 83 69 84 70 85 73 86
REMARK SMILES IDX 71 87 50 88 51 89 59 90 52 91 53 92 57 93 60 94 54 95 55 96
REMARK SMILES IDX 58 97 56 98
REMARK H PARENT 16 5 21 32 80 51 48 62
REMARK Flexibility Score: inf
ROOT
ATOM      1  C   UNL A   1      35.348  32.930  27.936  1.00  0.00     0.116 C 
ENDROOT
BRANCH   1   2
ATOM      2  N   UNL A   1      35.875  31.665  28.414  1.00  0.00    -0.351 N 
ATOM      3  C   UNL A   1      35.489  30.354  28.218  1.00  0.00     0.270 C 
ATOM      4  O   UNL A   1      36.179  29.492  28.764  1.00  0.00    -0.268 OA
ATOM      5  H   UNL A   1      36.664  31.760  28.995  1.00  0.00     0.163 HD
BRANCH   3   6
ATOM      6  C   UNL A   1      34.323  29.947  27.355  1.00  0.00     0.132 A 
ATOM      7  C   UNL A   1      33.167  28.509  25.908  1.00  0.00     0.067 A 
ATOM      8  C   UNL A   1      34.364  28.883  26.491  1.00  0.00     0.062 A 
ATOM      9  N   UNL A   1      32.042  29.228  26.023  1.00  0.00    -0.237 NA
ATOM     10  C   UNL A   1      32.133  30.314  26.806  1.00  0.00     0.223 A 
ATOM     11  N   UNL A   1      33.209  30.697  27.506  1.00  0.00    -0.231 NA
BRANCH   7  12
ATOM     12  C   UNL A   1      33.091  27.214  25.212  1.00  0.00     0.029 C 
ATOM     13  C   UNL A   1      32.892  26.117  25.962  1.00  0.00     0.010 C 
BRANCH  13  14
ATOM     14  C   UNL A   1      33.035  24.689  25.629  1.00  0.00    -0.022 A 
ATOM     15  C   UNL A   1      34.072  22.483  25.843  1.00  0.00     0.162 A 
ATOM     16  C   UNL A   1      34.150  23.892  25.926  1.00  0.00     0.058 A 
ATOM     17  C   UNL A   1      32.867  21.867  25.480  1.00  0.00     0.160 A 
ATOM     18  C   UNL A   1      31.794  22.672  25.093  1.00  0.00     0.051 A 
ATOM     19  C   UNL A   1      31.874  24.060  25.162  1.00  0.00     0.012 A 
BRANCH  15  20
ATOM     20  O   UNL A   1      35.146  21.768  26.308  1.00  0.00    -0.485 OA
BRANCH  20  21
ATOM     21  C   UNL A   1      35.950  21.192  25.266  1.00  0.00     0.260 C 
BRANCH  21  22
ATOM     22  C   UNL A   1      36.860  22.270  24.702  1.00  0.00    -0.043 C 
ATOM     23  C   UNL A   1      36.756  22.711  23.434  1.00  0.00     0.011 C 
ATOM     24  C   UNL A   1      37.818  22.924  25.659  1.00  0.00     0.042 C 
ENDBRANCH  21  22
ENDBRANCH  20  21
ENDBRANCH  15  20
BRANCH  17  25
ATOM     25  O   UNL A   1      32.511  20.551  25.467  1.00  0.00    -0.493 OA
ATOM     26  C   UNL A   1      32.559  19.815  24.261  1.00  0.00     0.278 C 
ENDBRANCH  17  25
ENDBRANCH  13  14
ENDBRANCH   7  12
ENDBRANCH   3   6
ENDBRANCH   1   2
BRANCH   1  27
ATOM     27  C   UNL A   1      35.679  34.058  28.917  1.00  0.00     0.023 C 
BRANCH  27  28
ATOM     28  C   UNL A   1      34.553  35.080  29.101  1.00  0.00     0.023 C 
BRANCH  28  29
ATOM     29  C   UNL A   1      33.242  34.506  29.627  1.00  0.00     0.116 C 
BRANCH  29  30
ATOM     30  N   UNL A   1      32.598  35.352  30.618  1.00  0.00    -0.352 N 
ATOM     31  C   UNL A   1      32.938  35.549  31.936  1.00  0.00     0.251 C 
ATOM     32  H   UNL A   1      31.810  35.852  30.302  1.00  0.00     0.163 HD
ATOM     33  O   UNL A   1      32.216  36.213  32.665  1.00  0.00    -0.269 OA
BRANCH  31  34
ATOM     34  C   UNL A   1      34.159  34.917  32.477  1.00  0.00     0.039 A 
ATOM     35  C   UNL A   1      34.067  33.623  32.995  1.00  0.00     0.014 A 
ATOM     36  C   UNL A   1      35.386  35.586  32.468  1.00  0.00     0.014 A 
ATOM     37  C   UNL A   1      35.218  32.980  33.452  1.00  0.00     0.010 A 
ATOM     38  C   UNL A   1      36.544  34.913  32.846  1.00  0.00     0.010 A 
ATOM     39  C   UNL A   1      36.472  33.607  33.350  1.00  0.00    -0.014 A 
BRANCH  39  40
ATOM     40  C   UNL A   1      37.706  32.900  33.772  1.00  0.00     0.031 A 
ATOM     41  C   UNL A   1      38.351  31.887  32.867  1.00  0.00     0.074 A 
ATOM     42  C   UNL A   1      38.229  33.150  34.988  1.00  0.00     0.049 A 
ATOM     43  N   UNL A   1      39.438  31.181  33.056  1.00  0.00    -0.248 NA
ATOM     44  C   UNL A   1      37.673  31.609  31.591  1.00  0.00     0.031 C 
ATOM     45  C   UNL A   1      37.661  34.065  35.979  1.00  0.00     0.029 A 
ATOM     46  N   UNL A   1      39.357  32.659  35.597  1.00  0.00    -0.354 N 
ATOM     47  C   UNL A   1      39.569  30.379  31.931  1.00  0.00     0.074 A 
ATOM     48  C   UNL A   1      38.416  30.632  31.096  1.00  0.00     0.031 C 
ATOM     49  C   UNL A   1      38.464  34.102  37.054  1.00  0.00     0.029 A 
ATOM     50  C   UNL A   1      39.582  33.188  36.844  1.00  0.00     0.049 A 
ATOM     51  H   UNL A   1      39.948  31.992  35.179  1.00  0.00     0.167 HD
ATOM     52  C   UNL A   1      40.575  29.530  31.608  1.00  0.00     0.037 A 
ATOM     53  C   UNL A   1      40.582  32.965  37.718  1.00  0.00     0.037 A 
ATOM     54  C   UNL A   1      41.726  29.290  32.440  1.00  0.00     0.049 A 
ATOM     55  C   UNL A   1      41.686  32.014  37.336  1.00  0.00     0.074 A 
ATOM     56  C   UNL A   1      42.823  28.486  32.185  1.00  0.00     0.029 A 
ATOM     57  N   UNL A   1      41.924  29.849  33.694  1.00  0.00    -0.354 N 
ATOM     58  N   UNL A   1      41.840  31.322  36.234  1.00  0.00    -0.248 NA
ATOM     59  C   UNL A   1      42.762  31.828  38.318  1.00  0.00     0.031 C 
ATOM     60  C   UNL A   1      43.657  28.516  33.308  1.00  0.00     0.029 A 
ATOM     61  C   UNL A   1      43.116  29.391  34.235  1.00  0.00     0.049 A 
ATOM     62  H   UNL A   1      41.310  30.479  34.135  1.00  0.00     0.167 HD
ATOM     63  C   UNL A   1      43.045  30.645  36.374  1.00  0.00     0.074 A 
ATOM     64  C   UNL A   1      43.588  31.029  37.661  1.00  0.00     0.031 C 
ATOM     65  C   UNL A   1      43.647  29.785  35.515  1.00  0.00     0.037 A 
BRANCH  52  66
ATOM     66  C   UNL A   1      40.473  28.801  30.298  1.00  0.00     0.064 A 
ATOM     67  C   UNL A   1      41.116  29.270  29.140  1.00  0.00     0.173 A 
ATOM     68  C   UNL A   1      39.749  27.603  30.201  1.00  0.00     0.173 A 
ATOM     69  F   UNL A   1      41.812  30.417  29.172  1.00  0.00    -0.203 F 
ATOM     70  C   UNL A   1      41.006  28.588  27.931  1.00  0.00     0.198 A 
ATOM     71  C   UNL A   1      39.671  26.905  28.999  1.00  0.00     0.198 A 
ATOM     72  F   UNL A   1      39.119  27.105  31.276  1.00  0.00    -0.203 F 
ATOM     73  F   UNL A   1      41.580  29.089  26.828  1.00  0.00    -0.200 F 
ATOM     74  C   UNL A   1      40.291  27.402  27.862  1.00  0.00     0.200 A 
ATOM     75  F   UNL A   1      38.993  25.751  28.938  1.00  0.00    -0.200 F 
ATOM     76  F   UNL A   1      40.193  26.744  26.700  1.00  0.00    -0.200 F 
ENDBRANCH  52  66
BRANCH  53  77
ATOM     77  C   UNL A   1      40.609  33.683  39.019  1.00  0.00     0.064 A 
ATOM     78  C   UNL A   1      41.402  34.827  39.195  1.00  0.00     0.173 A 
ATOM     79  C   UNL A   1      39.855  33.239  40.114  1.00  0.00     0.173 A 
ATOM     80  F   UNL A   1      42.156  35.282  38.184  1.00  0.00    -0.203 F 
ATOM     81  C   UNL A   1      41.459  35.482  40.423  1.00  0.00     0.198 A 
ATOM     82  C   UNL A   1      39.887  33.914  41.333  1.00  0.00     0.198 A 
ATOM     83  F   UNL A   1      39.075  32.155  39.997  1.00  0.00    -0.203 F 
ATOM     84  F   UNL A   1      42.265  36.541  40.579  1.00  0.00    -0.200 F 
ATOM     85  C   UNL A   1      40.697  35.029  41.489  1.00  0.00     0.200 A 
ATOM     86  F   UNL A   1      39.136  33.483  42.355  1.00  0.00    -0.200 F 
ATOM     87  F   UNL A   1      40.751  35.660  42.670  1.00  0.00    -0.200 F 
ENDBRANCH  53  77
BRANCH  65  88
ATOM     88  C   UNL A   1      44.988  29.239  35.920  1.00  0.00     0.064 A 
ATOM     89  C   UNL A   1      45.115  28.049  36.653  1.00  0.00     0.173 A 
ATOM     90  C   UNL A   1      46.165  29.914  35.559  1.00  0.00     0.173 A 
ATOM     91  F   UNL A   1      44.023  27.371  37.035  1.00  0.00    -0.203 F 
ATOM     92  C   UNL A   1      46.366  27.580  37.046  1.00  0.00     0.198 A 
ATOM     93  C   UNL A   1      47.415  29.421  35.920  1.00  0.00     0.198 A 
ATOM     94  F   UNL A   1      46.103  31.051  34.849  1.00  0.00    -0.203 F 
ATOM     95  F   UNL A   1      46.458  26.479  37.804  1.00  0.00    -0.200 F 
ATOM     96  C   UNL A   1      47.515  28.263  36.675  1.00  0.00     0.200 A 
ATOM     97  F   UNL A   1      48.525  30.074  35.545  1.00  0.00    -0.200 F 
ATOM     98  F   UNL A   1      48.718  27.811  37.054  1.00  0.00    -0.200 F 
ENDBRANCH  65  88
ENDBRANCH  39  40
ENDBRANCH  31  34
ENDBRANCH  29  30
ENDBRANCH  28  29
ENDBRANCH  27  28
ENDBRANCH   1  27
TORSDOF 17
ENDMDL
