MODEL 1
REMARK VINA RESULT:     -13.3      0.000      0.000
REMARK SMILES CCOC(=O)c1c(NC(=O)[C@@H]2[C@@H](C(=O)NCCCCNC(=O)c3ccc(-c4c5nc(c(-c6c(F)c(F)c(F)c(F)c6F)c6ccc([nH]6)c(-c6c(F)c(F)c(F)c(F)c6F)c6nc(c(-c7c(F)c(F)c(F)c(F)c7F)c7ccc4[nH]7)C=C6)C=C5)cc3)[C@@H]3C=C[C@H]2CC3)sc2c1CCC2
REMARK SMILES IDX 16 1 15 2 13 3 14 4 12 6 11 7 89 8 86 9 88 10 90 11 87 12
REMARK SMILES IDX 91 13 9 14 8 15 10 17 7 18 6 19 94 20 92 21 93 22 95 23
REMARK SMILES IDX 97 24 96 25 4 26 5 27 3 28 2 29 1 30 17 31 18 32 19 33 20 34
REMARK SMILES IDX 21 35 22 37 23 38 24 39 85 40 25 41 84 42 26 43 27 44 28 45
REMARK SMILES IDX 78 46 29 47 83 48 77 49 79 50 30 51 82 52 76 53 75 54 31 56
REMARK SMILES IDX 63 57 43 58 62 59 44 60 47 61 61 62 80 63 45 64 46 65 60 67
REMARK SMILES IDX 81 68 48 69 32 70 33 71 41 72 34 73 35 74 39 75 42 76 36 77
REMARK SMILES IDX 37 78 40 79 38 80 64 81 65 82 73 83 66 84 67 85 71 86 74 87
REMARK SMILES IDX 68 88 69 89 72 90 70 91 49 92 50 93 58 94 51 95 52 96 56 97
REMARK SMILES IDX 59 98 53 99 54 100 57 101 55 102
REMARK H PARENT 15 5 8 16 20 36 79 55 47 66
REMARK Flexibility Score: inf
ROOT
ATOM      1  C   UNL A   1      37.186  22.273  25.082  1.00  0.00     0.116 C 
ENDROOT
BRANCH   1   2
ATOM      2  N   UNL A   1      36.257  22.525  26.176  1.00  0.00    -0.356 N 
ATOM      3  C   UNL A   1      34.923  22.830  26.199  1.00  0.00     0.224 C 
ATOM      4  O   UNL A   1      34.395  22.941  27.306  1.00  0.00    -0.275 OA
ATOM      5  H   UNL A   1      36.667  22.465  27.069  1.00  0.00     0.163 HD
BRANCH   3   6
ATOM      6  C   UNL A   1      34.118  22.895  24.906  1.00  0.00     0.098 C 
ATOM      7  C   UNL A   1      33.163  24.068  24.740  1.00  0.00     0.099 C 
ATOM      8  C   UNL A   1      31.739  23.482  24.462  1.00  0.00     0.025 C 
ATOM      9  C   UNL A   1      33.479  21.567  24.417  1.00  0.00     0.025 C 
ATOM     10  C   UNL A   1      31.831  22.782  23.124  1.00  0.00    -0.027 C 
ATOM     11  C   UNL A   1      31.407  22.388  25.529  1.00  0.00     0.009 C 
ATOM     12  C   UNL A   1      32.776  21.828  23.080  1.00  0.00    -0.027 C 
ATOM     13  C   UNL A   1      32.356  21.176  25.381  1.00  0.00     0.009 C 
BRANCH   7  14
ATOM     14  C   UNL A   1      33.540  25.162  23.682  1.00  0.00     0.229 C 
ATOM     15  N   UNL A   1      33.250  26.503  23.607  1.00  0.00    -0.317 N 
ATOM     16  H   UNL A   1      33.663  26.914  22.814  1.00  0.00     0.170 HD
ATOM     17  O   UNL A   1      34.288  24.767  22.764  1.00  0.00    -0.274 OA
BRANCH  15  18
ATOM     18  C   UNL A   1      32.531  27.440  24.343  1.00  0.00     0.110 A 
ATOM     19  C   UNL A   1      31.657  28.454  23.912  1.00  0.00     0.098 A 
ATOM     20  C   UNL A   1      31.589  29.423  24.966  1.00  0.00    -0.017 A 
ATOM     21  S   UNL A   1      32.051  27.239  26.004  1.00  0.00    -0.122 S 
ATOM     22  C   UNL A   1      32.111  28.907  26.123  1.00  0.00     0.011 A 
ATOM     23  C   UNL A   1      31.010  30.758  25.252  1.00  0.00     0.038 C 
ATOM     24  C   UNL A   1      32.211  29.827  27.265  1.00  0.00     0.047 C 
ATOM     25  C   UNL A   1      31.691  31.143  26.614  1.00  0.00     0.010 C 
BRANCH  19  26
ATOM     26  C   UNL A   1      30.995  28.416  22.620  1.00  0.00     0.341 C 
ATOM     27  O   UNL A   1      30.751  27.361  22.063  1.00  0.00    -0.246 OA
BRANCH  26  28
ATOM     28  O   UNL A   1      30.598  29.644  22.182  1.00  0.00    -0.462 OA
BRANCH  28  29
ATOM     29  C   UNL A   1      29.213  29.761  21.816  1.00  0.00     0.230 C 
ATOM     30  C   UNL A   1      28.267  29.943  22.993  1.00  0.00     0.049 C 
ENDBRANCH  28  29
ENDBRANCH  26  28
ENDBRANCH  19  26
ENDBRANCH  15  18
ENDBRANCH   7  14
ENDBRANCH   3   6
ENDBRANCH   1   2
BRANCH   1  31
ATOM     31  C   UNL A   1      36.959  20.911  24.424  1.00  0.00     0.023 C 
BRANCH  31  32
ATOM     32  C   UNL A   1      37.804  19.772  25.008  1.00  0.00     0.023 C 
BRANCH  32  33
ATOM     33  C   UNL A   1      39.062  20.238  25.729  1.00  0.00     0.116 C 
BRANCH  33  34
ATOM     34  N   UNL A   1      40.094  19.206  25.804  1.00  0.00    -0.352 N 
ATOM     35  C   UNL A   1      41.453  19.401  25.962  1.00  0.00     0.251 C 
ATOM     36  H   UNL A   1      39.789  18.273  25.735  1.00  0.00     0.163 HD
ATOM     37  O   UNL A   1      42.269  18.555  25.621  1.00  0.00    -0.269 OA
BRANCH  35  38
ATOM     38  C   UNL A   1      41.902  20.662  26.573  1.00  0.00     0.039 A 
ATOM     39  C   UNL A   1      42.464  21.687  25.806  1.00  0.00     0.014 A 
ATOM     40  C   UNL A   1      41.701  20.812  27.943  1.00  0.00     0.014 A 
ATOM     41  C   UNL A   1      42.745  22.906  26.417  1.00  0.00     0.010 A 
ATOM     42  C   UNL A   1      41.864  22.048  28.516  1.00  0.00     0.010 A 
ATOM     43  C   UNL A   1      42.420  23.086  27.770  1.00  0.00    -0.014 A 
BRANCH  43  44
ATOM     44  C   UNL A   1      42.482  24.412  28.387  1.00  0.00     0.031 A 
ATOM     45  C   UNL A   1      41.285  25.261  28.109  1.00  0.00     0.074 A 
ATOM     46  C   UNL A   1      43.395  24.703  29.343  1.00  0.00     0.049 A 
ATOM     47  N   UNL A   1      41.243  26.426  27.552  1.00  0.00    -0.248 NA
ATOM     48  C   UNL A   1      39.948  24.687  28.364  1.00  0.00     0.031 C 
ATOM     49  C   UNL A   1      44.413  23.797  29.895  1.00  0.00     0.029 A 
ATOM     50  N   UNL A   1      43.529  25.807  30.133  1.00  0.00    -0.354 N 
ATOM     51  C   UNL A   1      39.904  26.821  27.583  1.00  0.00     0.074 A 
ATOM     52  C   UNL A   1      39.144  25.646  27.904  1.00  0.00     0.031 C 
ATOM     53  C   UNL A   1      44.863  24.279  31.072  1.00  0.00     0.029 A 
ATOM     54  C   UNL A   1      44.299  25.599  31.276  1.00  0.00     0.049 A 
ATOM     55  H   UNL A   1      43.117  26.674  29.914  1.00  0.00     0.167 HD
ATOM     56  C   UNL A   1      39.577  28.143  27.651  1.00  0.00     0.037 A 
ATOM     57  C   UNL A   1      44.436  26.435  32.335  1.00  0.00     0.037 A 
ATOM     58  C   UNL A   1      40.703  28.955  27.265  1.00  0.00     0.049 A 
ATOM     59  C   UNL A   1      44.006  27.776  31.885  1.00  0.00     0.074 A 
ATOM     60  C   UNL A   1      41.437  29.168  26.118  1.00  0.00     0.029 A 
ATOM     61  N   UNL A   1      41.456  29.423  28.307  1.00  0.00    -0.354 N 
ATOM     62  N   UNL A   1      44.648  28.485  31.000  1.00  0.00    -0.248 NA
ATOM     63  C   UNL A   1      42.631  28.179  32.132  1.00  0.00     0.031 C 
ATOM     64  C   UNL A   1      42.766  29.447  26.563  1.00  0.00     0.029 A 
ATOM     65  C   UNL A   1      42.774  29.459  27.959  1.00  0.00     0.049 A 
ATOM     66  H   UNL A   1      41.097  29.697  29.183  1.00  0.00     0.167 HD
ATOM     67  C   UNL A   1      43.652  29.110  30.270  1.00  0.00     0.074 A 
ATOM     68  C   UNL A   1      42.459  29.015  31.106  1.00  0.00     0.031 C 
ATOM     69  C   UNL A   1      43.833  29.356  28.938  1.00  0.00     0.037 A 
BRANCH  56  70
ATOM     70  C   UNL A   1      38.487  28.713  28.555  1.00  0.00     0.064 A 
ATOM     71  C   UNL A   1      37.680  29.760  28.052  1.00  0.00     0.173 A 
ATOM     72  C   UNL A   1      38.439  28.548  29.957  1.00  0.00     0.173 A 
ATOM     73  F   UNL A   1      37.637  30.017  26.736  1.00  0.00    -0.203 F 
ATOM     74  C   UNL A   1      36.991  30.641  28.893  1.00  0.00     0.198 A 
ATOM     75  C   UNL A   1      37.712  29.401  30.790  1.00  0.00     0.198 A 
ATOM     76  F   UNL A   1      39.173  27.636  30.602  1.00  0.00    -0.203 F 
ATOM     77  F   UNL A   1      36.367  31.707  28.374  1.00  0.00    -0.200 F 
ATOM     78  C   UNL A   1      37.021  30.469  30.263  1.00  0.00     0.200 A 
ATOM     79  F   UNL A   1      37.768  29.226  32.118  1.00  0.00    -0.200 F 
ATOM     80  F   UNL A   1      36.430  31.354  31.076  1.00  0.00    -0.200 F 
ENDBRANCH  56  70
BRANCH  57  81
ATOM     81  C   UNL A   1      44.647  26.114  33.768  1.00  0.00     0.064 A 
ATOM     82  C   UNL A   1      43.576  25.729  34.594  1.00  0.00     0.173 A 
ATOM     83  C   UNL A   1      45.940  25.901  34.286  1.00  0.00     0.173 A 
ATOM     84  F   UNL A   1      42.313  25.858  34.162  1.00  0.00    -0.203 F 
ATOM     85  C   UNL A   1      43.786  25.139  35.846  1.00  0.00     0.198 A 
ATOM     86  C   UNL A   1      46.149  25.318  35.538  1.00  0.00     0.198 A 
ATOM     87  F   UNL A   1      47.027  26.165  33.547  1.00  0.00    -0.203 F 
ATOM     88  F   UNL A   1      42.741  24.725  36.575  1.00  0.00    -0.200 F 
ATOM     89  C   UNL A   1      45.072  24.924  36.311  1.00  0.00     0.200 A 
ATOM     90  F   UNL A   1      47.399  25.083  35.961  1.00  0.00    -0.200 F 
ATOM     91  F   UNL A   1      45.277  24.300  37.481  1.00  0.00    -0.200 F 
ENDBRANCH  57  81
BRANCH  69  92
ATOM     92  C   UNL A   1      45.241  29.340  28.418  1.00  0.00     0.064 A 
ATOM     93  C   UNL A   1      45.887  28.214  27.881  1.00  0.00     0.173 A 
ATOM     94  C   UNL A   1      45.925  30.563  28.367  1.00  0.00     0.173 A 
ATOM     95  F   UNL A   1      45.268  27.029  27.814  1.00  0.00    -0.203 F 
ATOM     96  C   UNL A   1      47.175  28.305  27.358  1.00  0.00     0.198 A 
ATOM     97  C   UNL A   1      47.193  30.658  27.806  1.00  0.00     0.198 A 
ATOM     98  F   UNL A   1      45.337  31.680  28.823  1.00  0.00    -0.203 F 
ATOM     99  F   UNL A   1      47.780  27.212  26.868  1.00  0.00    -0.200 F 
ATOM    100  C   UNL A   1      47.824  29.527  27.313  1.00  0.00     0.200 A 
ATOM    101  F   UNL A   1      47.795  31.852  27.725  1.00  0.00    -0.200 F 
ATOM    102  F   UNL A   1      49.047  29.623  26.774  1.00  0.00    -0.200 F 
ENDBRANCH  69  92
ENDBRANCH  43  44
ENDBRANCH  35  38
ENDBRANCH  33  34
ENDBRANCH  32  33
ENDBRANCH  31  32
ENDBRANCH   1  31
TORSDOF 16
ENDMDL
MODEL 2
REMARK VINA RESULT:     -13.1      2.288      6.726
REMARK SMILES CCOC(=O)c1c(NC(=O)[C@@H]2[C@@H](C(=O)NCCCCNC(=O)c3ccc(-c4c5nc(c(-c6c(F)c(F)c(F)c(F)c6F)c6ccc([nH]6)c(-c6c(F)c(F)c(F)c(F)c6F)c6nc(c(-c7c(F)c(F)c(F)c(F)c7F)c7ccc4[nH]7)C=C6)C=C5)cc3)[C@@H]3C=C[C@H]2CC3)sc2c1CCC2
REMARK SMILES IDX 16 1 15 2 13 3 14 4 12 6 11 7 89 8 86 9 88 10 90 11 87 12
REMARK SMILES IDX 91 13 9 14 8 15 10 17 7 18 6 19 94 20 92 21 93 22 95 23
REMARK SMILES IDX 97 24 96 25 4 26 5 27 3 28 2 29 1 30 17 31 18 32 19 33 20 34
REMARK SMILES IDX 21 35 22 37 23 38 24 39 85 40 25 41 84 42 26 43 27 44 28 45
REMARK SMILES IDX 78 46 29 47 83 48 77 49 79 50 30 51 82 52 76 53 75 54 31 56
REMARK SMILES IDX 63 57 43 58 62 59 44 60 47 61 61 62 80 63 45 64 46 65 60 67
REMARK SMILES IDX 81 68 48 69 32 70 33 71 41 72 34 73 35 74 39 75 42 76 36 77
REMARK SMILES IDX 37 78 40 79 38 80 64 81 65 82 73 83 66 84 67 85 71 86 74 87
REMARK SMILES IDX 68 88 69 89 72 90 70 91 49 92 50 93 58 94 51 95 52 96 56 97
REMARK SMILES IDX 59 98 53 99 54 100 57 101 55 102
REMARK H PARENT 15 5 8 16 20 36 79 55 47 66
REMARK Flexibility Score: inf
ROOT
ATOM      1  C   UNL A   1      37.246  21.941  25.202  1.00  0.00     0.116 C 
ENDROOT
BRANCH   1   2
ATOM      2  N   UNL A   1      36.241  21.709  26.232  1.00  0.00    -0.356 N 
ATOM      3  C   UNL A   1      34.877  21.826  26.231  1.00  0.00     0.224 C 
ATOM      4  O   UNL A   1      34.289  21.507  27.264  1.00  0.00    -0.275 OA
ATOM      5  H   UNL A   1      36.614  21.412  27.093  1.00  0.00     0.163 HD
BRANCH   3   6
ATOM      6  C   UNL A   1      34.131  22.210  24.957  1.00  0.00     0.098 C 
ATOM      7  C   UNL A   1      33.434  23.562  24.941  1.00  0.00     0.099 C 
ATOM      8  C   UNL A   1      31.928  23.312  24.596  1.00  0.00     0.025 C 
ATOM      9  C   UNL A   1      33.252  21.107  24.307  1.00  0.00     0.025 C 
ATOM     10  C   UNL A   1      31.909  22.778  23.180  1.00  0.00    -0.027 C 
ATOM     11  C   UNL A   1      31.360  22.184  25.518  1.00  0.00     0.009 C 
ATOM     12  C   UNL A   1      32.646  21.666  23.015  1.00  0.00    -0.027 C 
ATOM     13  C   UNL A   1      32.051  20.835  25.218  1.00  0.00     0.009 C 
BRANCH   7  14
ATOM     14  C   UNL A   1      34.045  24.680  24.028  1.00  0.00     0.229 C 
ATOM     15  N   UNL A   1      33.898  26.046  24.028  1.00  0.00    -0.317 N 
ATOM     16  H   UNL A   1      34.446  26.464  23.326  1.00  0.00     0.170 HD
ATOM     17  O   UNL A   1      34.861  24.271  23.176  1.00  0.00    -0.274 OA
BRANCH  15  18
ATOM     18  C   UNL A   1      33.187  27.001  24.747  1.00  0.00     0.110 A 
ATOM     19  C   UNL A   1      32.125  27.832  24.346  1.00  0.00     0.098 A 
ATOM     20  C   UNL A   1      32.097  28.941  25.254  1.00  0.00    -0.017 A 
ATOM     21  S   UNL A   1      33.011  27.011  26.479  1.00  0.00    -0.122 S 
ATOM     22  C   UNL A   1      32.863  28.673  26.358  1.00  0.00     0.011 A 
ATOM     23  C   UNL A   1      31.396  30.232  25.456  1.00  0.00     0.038 C 
ATOM     24  C   UNL A   1      33.020  29.766  27.329  1.00  0.00     0.047 C 
ATOM     25  C   UNL A   1      32.228  30.899  26.610  1.00  0.00     0.010 C 
BRANCH  19  26
ATOM     26  C   UNL A   1      31.276  27.520  23.211  1.00  0.00     0.341 C 
ATOM     27  O   UNL A   1      31.214  28.258  22.243  1.00  0.00    -0.246 OA
BRANCH  26  28
ATOM     28  O   UNL A   1      30.674  26.302  23.306  1.00  0.00    -0.462 OA
BRANCH  28  29
ATOM     29  C   UNL A   1      29.677  26.174  24.333  1.00  0.00     0.230 C 
ATOM     30  C   UNL A   1      28.280  26.599  23.906  1.00  0.00     0.049 C 
ENDBRANCH  28  29
ENDBRANCH  26  28
ENDBRANCH  19  26
ENDBRANCH  15  18
ENDBRANCH   7  14
ENDBRANCH   3   6
ENDBRANCH   1   2
BRANCH   1  31
ATOM     31  C   UNL A   1      38.646  22.141  25.785  1.00  0.00     0.023 C 
BRANCH  31  32
ATOM     32  C   UNL A   1      39.504  20.870  25.830  1.00  0.00     0.023 C 
BRANCH  32  33
ATOM     33  C   UNL A   1      40.806  21.027  26.605  1.00  0.00     0.116 C 
BRANCH  33  34
ATOM     34  N   UNL A   1      41.955  21.298  25.744  1.00  0.00    -0.352 N 
ATOM     35  C   UNL A   1      42.503  22.533  25.456  1.00  0.00     0.251 C 
ATOM     36  H   UNL A   1      42.384  20.518  25.325  1.00  0.00     0.163 HD
ATOM     37  O   UNL A   1      43.177  22.721  24.452  1.00  0.00    -0.269 OA
BRANCH  35  38
ATOM     38  C   UNL A   1      42.270  23.630  26.408  1.00  0.00     0.039 A 
ATOM     39  C   UNL A   1      42.889  23.655  27.661  1.00  0.00     0.014 A 
ATOM     40  C   UNL A   1      41.442  24.670  25.991  1.00  0.00     0.014 A 
ATOM     41  C   UNL A   1      42.736  24.783  28.464  1.00  0.00     0.010 A 
ATOM     42  C   UNL A   1      41.391  25.827  26.726  1.00  0.00     0.010 A 
ATOM     43  C   UNL A   1      42.003  25.876  27.978  1.00  0.00    -0.014 A 
BRANCH  43  44
ATOM     44  C   UNL A   1      42.013  27.159  28.683  1.00  0.00     0.031 A 
ATOM     45  C   UNL A   1      43.153  28.046  28.304  1.00  0.00     0.074 A 
ATOM     46  C   UNL A   1      40.933  27.591  29.375  1.00  0.00     0.049 A 
ATOM     47  N   UNL A   1      44.061  28.553  29.070  1.00  0.00    -0.248 NA
ATOM     48  C   UNL A   1      43.393  28.297  26.868  1.00  0.00     0.031 C 
ATOM     49  C   UNL A   1      39.646  26.895  29.526  1.00  0.00     0.029 A 
ATOM     50  N   UNL A   1      40.685  28.793  29.971  1.00  0.00    -0.354 N 
ATOM     51  C   UNL A   1      44.855  29.356  28.249  1.00  0.00     0.074 A 
ATOM     52  C   UNL A   1      44.523  29.005  26.897  1.00  0.00     0.031 C 
ATOM     53  C   UNL A   1      38.698  27.769  29.923  1.00  0.00     0.029 A 
ATOM     54  C   UNL A   1      39.335  29.038  30.219  1.00  0.00     0.049 A 
ATOM     55  H   UNL A   1      41.398  29.430  30.204  1.00  0.00     0.167 HD
ATOM     56  C   UNL A   1      45.480  30.455  28.759  1.00  0.00     0.037 A 
ATOM     57  C   UNL A   1      38.773  30.210  30.604  1.00  0.00     0.037 A 
ATOM     58  C   UNL A   1      45.540  30.373  30.197  1.00  0.00     0.049 A 
ATOM     59  C   UNL A   1      39.859  31.051  31.150  1.00  0.00     0.074 A 
ATOM     60  C   UNL A   1      46.150  29.560  31.128  1.00  0.00     0.029 A 
ATOM     61  N   UNL A   1      44.542  31.042  30.850  1.00  0.00    -0.354 N 
ATOM     62  N   UNL A   1      40.505  30.781  32.249  1.00  0.00    -0.248 NA
ATOM     63  C   UNL A   1      40.507  32.004  30.262  1.00  0.00     0.031 C 
ATOM     64  C   UNL A   1      45.255  29.521  32.241  1.00  0.00     0.029 A 
ATOM     65  C   UNL A   1      44.173  30.361  31.972  1.00  0.00     0.049 A 
ATOM     66  H   UNL A   1      44.147  31.895  30.554  1.00  0.00     0.167 HD
ATOM     67  C   UNL A   1      41.809  31.163  31.986  1.00  0.00     0.074 A 
ATOM     68  C   UNL A   1      41.714  32.047  30.827  1.00  0.00     0.031 C 
ATOM     69  C   UNL A   1      42.849  30.472  32.541  1.00  0.00     0.037 A 
BRANCH  56  70
ATOM     70  C   UNL A   1      45.542  31.811  28.059  1.00  0.00     0.064 A 
ATOM     71  C   UNL A   1      44.341  32.357  27.550  1.00  0.00     0.173 A 
ATOM     72  C   UNL A   1      46.723  32.400  27.555  1.00  0.00     0.173 A 
ATOM     73  F   UNL A   1      43.151  31.883  27.951  1.00  0.00    -0.203 F 
ATOM     74  C   UNL A   1      44.331  33.317  26.533  1.00  0.00     0.198 A 
ATOM     75  C   UNL A   1      46.707  33.393  26.574  1.00  0.00     0.198 A 
ATOM     76  F   UNL A   1      47.944  31.977  27.896  1.00  0.00    -0.203 F 
ATOM     77  F   UNL A   1      43.169  33.689  25.979  1.00  0.00    -0.200 F 
ATOM     78  C   UNL A   1      45.515  33.823  26.035  1.00  0.00     0.200 A 
ATOM     79  F   UNL A   1      47.869  33.859  26.094  1.00  0.00    -0.200 F 
ATOM     80  F   UNL A   1      45.514  34.684  25.009  1.00  0.00    -0.200 F 
ENDBRANCH  56  70
BRANCH  57  81
ATOM     81  C   UNL A   1      37.431  30.760  30.290  1.00  0.00     0.064 A 
ATOM     82  C   UNL A   1      36.549  31.154  31.311  1.00  0.00     0.173 A 
ATOM     83  C   UNL A   1      37.098  31.174  28.985  1.00  0.00     0.173 A 
ATOM     84  F   UNL A   1      36.812  30.839  32.588  1.00  0.00    -0.203 F 
ATOM     85  C   UNL A   1      35.422  31.942  31.048  1.00  0.00     0.198 A 
ATOM     86  C   UNL A   1      35.970  31.955  28.722  1.00  0.00     0.198 A 
ATOM     87  F   UNL A   1      37.913  30.913  27.954  1.00  0.00    -0.203 F 
ATOM     88  F   UNL A   1      34.642  32.354  32.057  1.00  0.00    -0.200 F 
ATOM     89  C   UNL A   1      35.141  32.351  29.755  1.00  0.00     0.200 A 
ATOM     90  F   UNL A   1      35.728  32.373  27.471  1.00  0.00    -0.200 F 
ATOM     91  F   UNL A   1      34.098  33.158  29.509  1.00  0.00    -0.200 F 
ENDBRANCH  57  81
BRANCH  69  92
ATOM     92  C   UNL A   1      42.549  29.618  33.739  1.00  0.00     0.064 A 
ATOM     93  C   UNL A   1      42.133  28.278  33.686  1.00  0.00     0.173 A 
ATOM     94  C   UNL A   1      42.803  30.166  35.004  1.00  0.00     0.173 A 
ATOM     95  F   UNL A   1      41.953  27.656  32.514  1.00  0.00    -0.203 F 
ATOM     96  C   UNL A   1      41.942  27.537  34.850  1.00  0.00     0.198 A 
ATOM     97  C   UNL A   1      42.651  29.412  36.162  1.00  0.00     0.198 A 
ATOM     98  F   UNL A   1      43.247  31.429  35.111  1.00  0.00    -0.203 F 
ATOM     99  F   UNL A   1      41.525  26.263  34.776  1.00  0.00    -0.200 F 
ATOM    100  C   UNL A   1      42.208  28.101  36.086  1.00  0.00     0.200 A 
ATOM    101  F   UNL A   1      42.955  29.951  37.350  1.00  0.00    -0.200 F 
ATOM    102  F   UNL A   1      42.061  27.377  37.204  1.00  0.00    -0.200 F 
ENDBRANCH  69  92
ENDBRANCH  43  44
ENDBRANCH  35  38
ENDBRANCH  33  34
ENDBRANCH  32  33
ENDBRANCH  31  32
ENDBRANCH   1  31
TORSDOF 16
ENDMDL
MODEL 3
REMARK VINA RESULT:     -13.0      1.146      2.059
REMARK SMILES CCOC(=O)c1c(NC(=O)[C@@H]2[C@@H](C(=O)NCCCCNC(=O)c3ccc(-c4c5nc(c(-c6c(F)c(F)c(F)c(F)c6F)c6ccc([nH]6)c(-c6c(F)c(F)c(F)c(F)c6F)c6nc(c(-c7c(F)c(F)c(F)c(F)c7F)c7ccc4[nH]7)C=C6)C=C5)cc3)[C@@H]3C=C[C@H]2CC3)sc2c1CCC2
REMARK SMILES IDX 16 1 15 2 13 3 14 4 12 6 11 7 89 8 86 9 88 10 90 11 87 12
REMARK SMILES IDX 91 13 9 14 8 15 10 17 7 18 6 19 94 20 92 21 93 22 95 23
REMARK SMILES IDX 97 24 96 25 4 26 5 27 3 28 2 29 1 30 17 31 18 32 19 33 20 34
REMARK SMILES IDX 21 35 22 37 23 38 24 39 85 40 25 41 84 42 26 43 27 44 28 45
REMARK SMILES IDX 78 46 29 47 83 48 77 49 79 50 30 51 82 52 76 53 75 54 31 56
REMARK SMILES IDX 63 57 43 58 62 59 44 60 47 61 61 62 80 63 45 64 46 65 60 67
REMARK SMILES IDX 81 68 48 69 32 70 33 71 41 72 34 73 35 74 39 75 42 76 36 77
REMARK SMILES IDX 37 78 40 79 38 80 64 81 65 82 73 83 66 84 67 85 71 86 74 87
REMARK SMILES IDX 68 88 69 89 72 90 70 91 49 92 50 93 58 94 51 95 52 96 56 97
REMARK SMILES IDX 59 98 53 99 54 100 57 101 55 102
REMARK H PARENT 15 5 8 16 20 36 79 55 47 66
REMARK Flexibility Score: inf
ROOT
ATOM      1  C   UNL A   1      35.224  20.014  24.900  1.00  0.00     0.116 C 
ENDROOT
BRANCH   1   2
ATOM      2  N   UNL A   1      34.170  20.539  25.759  1.00  0.00    -0.356 N 
ATOM      3  C   UNL A   1      33.434  21.693  25.713  1.00  0.00     0.224 C 
ATOM      4  O   UNL A   1      32.566  21.834  26.574  1.00  0.00    -0.275 OA
ATOM      5  H   UNL A   1      33.945  19.953  26.517  1.00  0.00     0.163 HD
BRANCH   3   6
ATOM      6  C   UNL A   1      33.609  22.681  24.566  1.00  0.00     0.098 C 
ATOM      7  C   UNL A   1      33.056  24.084  24.767  1.00  0.00     0.099 C 
ATOM      8  C   UNL A   1      32.068  24.376  23.589  1.00  0.00     0.025 C 
ATOM      9  C   UNL A   1      33.310  22.150  23.138  1.00  0.00     0.025 C 
ATOM     10  C   UNL A   1      32.913  24.399  22.334  1.00  0.00    -0.027 C 
ATOM     11  C   UNL A   1      31.064  23.185  23.442  1.00  0.00     0.009 C 
ATOM     12  C   UNL A   1      33.606  23.266  22.130  1.00  0.00    -0.027 C 
ATOM     13  C   UNL A   1      31.805  21.898  23.013  1.00  0.00     0.009 C 
BRANCH   7  14
ATOM     14  C   UNL A   1      34.089  25.251  24.940  1.00  0.00     0.229 C 
ATOM     15  N   UNL A   1      33.964  26.613  24.809  1.00  0.00    -0.317 N 
ATOM     16  H   UNL A   1      34.811  27.070  25.012  1.00  0.00     0.170 HD
ATOM     17  O   UNL A   1      35.223  24.893  25.320  1.00  0.00    -0.274 OA
BRANCH  15  18
ATOM     18  C   UNL A   1      32.968  27.524  24.470  1.00  0.00     0.110 A 
ATOM     19  C   UNL A   1      31.739  27.797  25.095  1.00  0.00     0.098 A 
ATOM     20  C   UNL A   1      30.898  28.413  24.111  1.00  0.00    -0.017 A 
ATOM     21  S   UNL A   1      33.227  28.974  23.543  1.00  0.00    -0.122 S 
ATOM     22  C   UNL A   1      31.641  28.816  23.032  1.00  0.00     0.011 A 
ATOM     23  C   UNL A   1      29.502  28.885  23.936  1.00  0.00     0.038 C 
ATOM     24  C   UNL A   1      30.897  29.365  21.890  1.00  0.00     0.047 C 
ATOM     25  C   UNL A   1      29.434  29.196  22.398  1.00  0.00     0.010 C 
BRANCH  19  26
ATOM     26  C   UNL A   1      31.483  27.478  26.487  1.00  0.00     0.341 C 
ATOM     27  O   UNL A   1      31.464  26.325  26.881  1.00  0.00    -0.246 OA
BRANCH  26  28
ATOM     28  O   UNL A   1      31.385  28.579  27.284  1.00  0.00    -0.462 OA
BRANCH  28  29
ATOM     29  C   UNL A   1      32.531  29.445  27.301  1.00  0.00     0.230 C 
ATOM     30  C   UNL A   1      32.245  30.871  26.855  1.00  0.00     0.049 C 
ENDBRANCH  28  29
ENDBRANCH  26  28
ENDBRANCH  19  26
ENDBRANCH  15  18
ENDBRANCH   7  14
ENDBRANCH   3   6
ENDBRANCH   1   2
BRANCH   1  31
ATOM     31  C   UNL A   1      36.582  20.662  25.177  1.00  0.00     0.023 C 
BRANCH  31  32
ATOM     32  C   UNL A   1      37.787  19.747  24.927  1.00  0.00     0.023 C 
BRANCH  32  33
ATOM     33  C   UNL A   1      39.078  20.227  25.578  1.00  0.00     0.116 C 
BRANCH  33  34
ATOM     34  N   UNL A   1      40.078  19.170  25.714  1.00  0.00    -0.352 N 
ATOM     35  C   UNL A   1      41.429  19.332  25.947  1.00  0.00     0.251 C 
ATOM     36  H   UNL A   1      39.753  18.245  25.630  1.00  0.00     0.163 HD
ATOM     37  O   UNL A   1      42.242  18.465  25.655  1.00  0.00    -0.269 OA
BRANCH  35  38
ATOM     38  C   UNL A   1      41.875  20.583  26.580  1.00  0.00     0.039 A 
ATOM     39  C   UNL A   1      42.495  21.596  25.841  1.00  0.00     0.014 A 
ATOM     40  C   UNL A   1      41.611  20.739  27.938  1.00  0.00     0.014 A 
ATOM     41  C   UNL A   1      42.772  22.809  26.465  1.00  0.00     0.010 A 
ATOM     42  C   UNL A   1      41.771  21.972  28.518  1.00  0.00     0.010 A 
ATOM     43  C   UNL A   1      42.386  22.998  27.801  1.00  0.00    -0.014 A 
BRANCH  43  44
ATOM     44  C   UNL A   1      42.445  24.323  28.419  1.00  0.00     0.031 A 
ATOM     45  C   UNL A   1      41.270  25.189  28.102  1.00  0.00     0.074 A 
ATOM     46  C   UNL A   1      43.330  24.601  29.405  1.00  0.00     0.049 A 
ATOM     47  N   UNL A   1      41.263  26.354  27.544  1.00  0.00    -0.248 NA
ATOM     48  C   UNL A   1      39.918  24.633  28.311  1.00  0.00     0.031 C 
ATOM     49  C   UNL A   1      44.315  23.681  29.991  1.00  0.00     0.029 A 
ATOM     50  N   UNL A   1      43.452  25.703  30.200  1.00  0.00    -0.354 N 
ATOM     51  C   UNL A   1      39.929  26.767  27.531  1.00  0.00     0.074 A 
ATOM     52  C   UNL A   1      39.143  25.604  27.825  1.00  0.00     0.031 C 
ATOM     53  C   UNL A   1      44.733  24.157  31.183  1.00  0.00     0.029 A 
ATOM     54  C   UNL A   1      44.180  25.484  31.369  1.00  0.00     0.049 A 
ATOM     55  H   UNL A   1      43.061  26.575  29.968  1.00  0.00     0.167 HD
ATOM     56  C   UNL A   1      39.620  28.094  27.588  1.00  0.00     0.037 A 
ATOM     57  C   UNL A   1      44.294  26.318  32.432  1.00  0.00     0.037 A 
ATOM     58  C   UNL A   1      40.770  28.890  27.240  1.00  0.00     0.049 A 
ATOM     59  C   UNL A   1      43.899  27.665  31.968  1.00  0.00     0.074 A 
ATOM     60  C   UNL A   1      41.544  29.092  26.118  1.00  0.00     0.029 A 
ATOM     61  N   UNL A   1      41.493  29.348  28.307  1.00  0.00    -0.354 N 
ATOM     62  N   UNL A   1      44.580  28.365  31.105  1.00  0.00    -0.248 NA
ATOM     63  C   UNL A   1      42.521  28.088  32.169  1.00  0.00     0.031 C 
ATOM     64  C   UNL A   1      42.861  29.353  26.608  1.00  0.00     0.029 A 
ATOM     65  C   UNL A   1      42.823  29.365  28.004  1.00  0.00     0.049 A 
ATOM     66  H   UNL A   1      41.109  29.627  29.170  1.00  0.00     0.167 HD
ATOM     67  C   UNL A   1      43.618  29.003  30.342  1.00  0.00     0.074 A 
ATOM     68  C   UNL A   1      42.396  28.926  31.138  1.00  0.00     0.031 C 
ATOM     69  C   UNL A   1      43.846  29.247  29.017  1.00  0.00     0.037 A 
BRANCH  56  70
ATOM     70  C   UNL A   1      38.508  28.679  28.455  1.00  0.00     0.064 A 
ATOM     71  C   UNL A   1      37.745  29.750  27.933  1.00  0.00     0.173 A 
ATOM     72  C   UNL A   1      38.401  28.501  29.852  1.00  0.00     0.173 A 
ATOM     73  F   UNL A   1      37.761  30.023  26.619  1.00  0.00    -0.203 F 
ATOM     74  C   UNL A   1      37.044  30.638  28.757  1.00  0.00     0.198 A 
ATOM     75  C   UNL A   1      37.661  29.361  30.665  1.00  0.00     0.198 A 
ATOM     76  F   UNL A   1      39.088  27.565  30.515  1.00  0.00    -0.203 F 
ATOM     77  F   UNL A   1      36.466  31.724  28.226  1.00  0.00    -0.200 F 
ATOM     78  C   UNL A   1      37.016  30.451  30.124  1.00  0.00     0.200 A 
ATOM     79  F   UNL A   1      37.661  29.170  31.993  1.00  0.00    -0.200 F 
ATOM     80  F   UNL A   1      36.414  31.340  30.924  1.00  0.00    -0.200 F 
ENDBRANCH  56  70
BRANCH  57  81
ATOM     81  C   UNL A   1      44.452  25.994  33.871  1.00  0.00     0.064 A 
ATOM     82  C   UNL A   1      43.340  25.692  34.676  1.00  0.00     0.173 A 
ATOM     83  C   UNL A   1      45.716  25.696  34.418  1.00  0.00     0.173 A 
ATOM     84  F   UNL A   1      42.098  25.905  34.217  1.00  0.00    -0.203 F 
ATOM     85  C   UNL A   1      43.483  25.098  35.936  1.00  0.00     0.198 A 
ATOM     86  C   UNL A   1      45.858  25.109  35.678  1.00  0.00     0.198 A 
ATOM     87  F   UNL A   1      46.834  25.877  33.701  1.00  0.00    -0.203 F 
ATOM     88  F   UNL A   1      42.396  24.764  36.645  1.00  0.00    -0.200 F 
ATOM     89  C   UNL A   1      44.741  24.797  36.430  1.00  0.00     0.200 A 
ATOM     90  F   UNL A   1      47.080  24.791  36.129  1.00  0.00    -0.200 F 
ATOM     91  F   UNL A   1      44.876  24.170  37.608  1.00  0.00    -0.200 F 
ENDBRANCH  57  81
BRANCH  69  92
ATOM     92  C   UNL A   1      45.271  29.212  28.545  1.00  0.00     0.064 A 
ATOM     93  C   UNL A   1      46.197  30.255  28.709  1.00  0.00     0.173 A 
ATOM     94  C   UNL A   1      45.740  28.011  27.995  1.00  0.00     0.173 A 
ATOM     95  F   UNL A   1      45.848  31.402  29.304  1.00  0.00    -0.203 F 
ATOM     96  C   UNL A   1      47.521  30.113  28.300  1.00  0.00     0.198 A 
ATOM     97  C   UNL A   1      47.072  27.858  27.626  1.00  0.00     0.198 A 
ATOM     98  F   UNL A   1      44.910  26.966  27.858  1.00  0.00    -0.203 F 
ATOM     99  F   UNL A   1      48.384  31.130  28.447  1.00  0.00    -0.200 F 
ATOM    100  C   UNL A   1      47.960  28.912  27.766  1.00  0.00     0.200 A 
ATOM    101  F   UNL A   1      47.499  26.679  27.153  1.00  0.00    -0.200 F 
ATOM    102  F   UNL A   1      49.242  28.761  27.408  1.00  0.00    -0.200 F 
ENDBRANCH  69  92
ENDBRANCH  43  44
ENDBRANCH  35  38
ENDBRANCH  33  34
ENDBRANCH  32  33
ENDBRANCH  31  32
ENDBRANCH   1  31
TORSDOF 16
ENDMDL
