MODEL 1
REMARK VINA RESULT:     -13.0      0.000      0.000
REMARK SMILES Cc1ccc(-c2ncccc2C(=O)NCCCCNC(=O)c2ccc(-c3c4nc(c(-c5c(F)c(F)c(F)c(F)c5F)c5ccc([nH]5)c(-c5c(F)c(F)c(F)c(F)c5F)c5nc(c(-c6c(F)c(F)c(F)c(F)c6F)c6ccc3[nH]6)C=C5)C=C4)cc2)c(Cl)c1
REMARK SMILES IDX 17 1 16 2 15 3 14 4 12 5 13 6 11 8 6 9 7 10 8 11 10 12 9 13
REMARK SMILES IDX 5 14 1 15 2 16 3 17 87 18 4 19 85 20 86 21 18 22 19 23 20 24
REMARK SMILES IDX 21 26 22 27 23 28 84 29 24 30 83 31 25 32 26 33 27 34 77 35
REMARK SMILES IDX 28 36 82 37 76 38 78 39 29 40 81 41 75 42 74 43 30 45 62 46
REMARK SMILES IDX 42 47 61 48 43 49 46 50 60 51 79 52 44 53 45 54 59 56 80 57
REMARK SMILES IDX 47 58 31 59 32 60 40 61 33 62 34 63 38 64 41 65 35 66 36 67
REMARK SMILES IDX 39 68 37 69 63 70 64 71 72 72 65 73 66 74 70 75 73 76 67 77
REMARK SMILES IDX 68 78 71 79 69 80 48 81 49 82 57 83 50 84 51 85 55 86 58 87
REMARK SMILES IDX 52 88 53 89 56 90 54 91
REMARK H PARENT 14 7 19 25 78 44 46 55
REMARK Flexibility Score: inf
ROOT
ATOM      1  C   UNL A   1      31.440  32.052  26.742  1.00  0.00     0.023 C 
ENDROOT
BRANCH   1   2
ATOM      2  C   UNL A   1      31.779  30.811  25.903  1.00  0.00     0.023 C 
BRANCH   2   3
ATOM      3  C   UNL A   1      32.554  29.732  26.662  1.00  0.00     0.116 C 
BRANCH   3   4
ATOM      4  N   UNL A   1      31.704  28.597  26.952  1.00  0.00    -0.352 N 
ATOM      5  C   UNL A   1      31.591  27.311  26.493  1.00  0.00     0.253 C 
ATOM      6  O   UNL A   1      30.691  26.678  27.047  1.00  0.00    -0.269 OA
ATOM      7  H   UNL A   1      31.044  28.800  27.654  1.00  0.00     0.163 HD
BRANCH   5   8
ATOM      8  C   UNL A   1      32.459  26.666  25.449  1.00  0.00     0.066 A 
ATOM      9  C   UNL A   1      32.126  26.754  24.079  1.00  0.00     0.084 A 
ATOM     10  N   UNL A   1      32.836  26.111  23.099  1.00  0.00    -0.255 NA
ATOM     11  C   UNL A   1      33.894  25.366  23.456  1.00  0.00     0.112 A 
ATOM     12  C   UNL A   1      33.627  25.951  25.749  1.00  0.00     0.018 A 
ATOM     13  C   UNL A   1      34.337  25.273  24.755  1.00  0.00     0.021 A 
BRANCH   9  14
ATOM     14  C   UNL A   1      31.064  27.600  23.510  1.00  0.00     0.020 A 
ATOM     15  C   UNL A   1      28.040  30.241  21.874  1.00  0.00     0.044 C 
ATOM     16  C   UNL A   1      29.094  29.324  22.417  1.00  0.00    -0.050 A 
ATOM     17  C   UNL A   1      30.445  29.665  22.347  1.00  0.00     0.004 A 
ATOM     18  C   UNL A   1      28.733  28.103  23.001  1.00  0.00     0.024 A 
ATOM     19  C   UNL A   1      31.416  28.809  22.873  1.00  0.00     0.012 A 
ATOM     20  C   UNL A   1      29.704  27.254  23.548  1.00  0.00     0.050 A 
ATOM     21  Cl  UNL A   1      29.153  25.788  24.289  1.00  0.00    -0.084 Cl
ENDBRANCH   9  14
ENDBRANCH   5   8
ENDBRANCH   3   4
ENDBRANCH   2   3
ENDBRANCH   1   2
BRANCH   1  22
ATOM     22  C   UNL A   1      32.640  32.819  27.295  1.00  0.00     0.116 C 
BRANCH  22  23
ATOM     23  N   UNL A   1      32.333  34.198  27.639  1.00  0.00    -0.352 N 
ATOM     24  C   UNL A   1      32.947  35.016  28.558  1.00  0.00     0.251 C 
ATOM     25  H   UNL A   1      31.582  34.602  27.147  1.00  0.00     0.163 HD
ATOM     26  O   UNL A   1      32.500  36.130  28.792  1.00  0.00    -0.269 OA
BRANCH  24  27
ATOM     27  C   UNL A   1      34.130  34.522  29.292  1.00  0.00     0.039 A 
ATOM     28  C   UNL A   1      33.939  33.936  30.546  1.00  0.00     0.014 A 
ATOM     29  C   UNL A   1      35.409  34.617  28.742  1.00  0.00     0.014 A 
ATOM     30  C   UNL A   1      35.028  33.381  31.221  1.00  0.00     0.010 A 
ATOM     31  C   UNL A   1      36.484  34.014  29.388  1.00  0.00     0.010 A 
ATOM     32  C   UNL A   1      36.302  33.384  30.630  1.00  0.00    -0.014 A 
BRANCH  32  33
ATOM     33  C   UNL A   1      37.454  32.720  31.288  1.00  0.00     0.031 A 
ATOM     34  C   UNL A   1      38.143  31.564  30.620  1.00  0.00     0.074 A 
ATOM     35  C   UNL A   1      37.828  33.111  32.522  1.00  0.00     0.049 A 
ATOM     36  N   UNL A   1      39.109  30.805  31.070  1.00  0.00    -0.248 NA
ATOM     37  C   UNL A   1      37.663  31.195  29.280  1.00  0.00     0.031 C 
ATOM     38  C   UNL A   1      37.198  34.184  33.295  1.00  0.00     0.029 A 
ATOM     39  N   UNL A   1      38.814  32.640  33.350  1.00  0.00    -0.354 N 
ATOM     40  C   UNL A   1      39.338  29.859  30.081  1.00  0.00     0.074 A 
ATOM     41  C   UNL A   1      38.382  30.111  29.023  1.00  0.00     0.031 C 
ATOM     42  C   UNL A   1      37.822  34.296  34.478  1.00  0.00     0.029 A 
ATOM     43  C   UNL A   1      38.870  33.285  34.562  1.00  0.00     0.049 A 
ATOM     44  H   UNL A   1      39.425  31.909  33.101  1.00  0.00     0.167 HD
ATOM     45  C   UNL A   1      40.275  28.882  30.050  1.00  0.00     0.037 A 
ATOM     46  C   UNL A   1      39.671  33.075  35.624  1.00  0.00     0.037 A 
ATOM     47  C   UNL A   1      41.247  28.657  31.087  1.00  0.00     0.049 A 
ATOM     48  C   UNL A   1      40.716  31.995  35.553  1.00  0.00     0.074 A 
ATOM     49  C   UNL A   1      42.284  27.743  31.114  1.00  0.00     0.029 A 
ATOM     50  N   UNL A   1      41.298  29.357  32.283  1.00  0.00    -0.354 N 
ATOM     51  N   UNL A   1      40.975  31.159  34.578  1.00  0.00    -0.248 NA
ATOM     52  C   UNL A   1      41.587  31.837  36.726  1.00  0.00     0.031 C 
ATOM     53  C   UNL A   1      42.940  27.862  32.343  1.00  0.00     0.029 A 
ATOM     54  C   UNL A   1      42.339  28.881  33.064  1.00  0.00     0.049 A 
ATOM     55  H   UNL A   1      40.686  30.084  32.540  1.00  0.00     0.167 HD
ATOM     56  C   UNL A   1      42.051  30.395  35.008  1.00  0.00     0.074 A 
ATOM     57  C   UNL A   1      42.408  30.878  36.325  1.00  0.00     0.031 C 
ATOM     58  C   UNL A   1      42.687  29.381  34.369  1.00  0.00     0.037 A 
BRANCH  45  59
ATOM     59  C   UNL A   1      40.302  27.980  28.850  1.00  0.00     0.064 A 
ATOM     60  C   UNL A   1      41.037  28.310  27.701  1.00  0.00     0.173 A 
ATOM     61  C   UNL A   1      39.630  26.750  28.869  1.00  0.00     0.173 A 
ATOM     62  F   UNL A   1      41.688  29.480  27.628  1.00  0.00    -0.203 F 
ATOM     63  C   UNL A   1      41.076  27.450  26.606  1.00  0.00     0.198 A 
ATOM     64  C   UNL A   1      39.695  25.880  27.784  1.00  0.00     0.198 A 
ATOM     65  F   UNL A   1      38.918  26.384  29.946  1.00  0.00    -0.203 F 
ATOM     66  F   UNL A   1      41.750  27.804  25.503  1.00  0.00    -0.200 F 
ATOM     67  C   UNL A   1      40.413  26.233  26.652  1.00  0.00     0.200 A 
ATOM     68  F   UNL A   1      39.064  24.698  27.834  1.00  0.00    -0.200 F 
ATOM     69  F   UNL A   1      40.462  25.403  25.601  1.00  0.00    -0.200 F 
ENDBRANCH  45  59
BRANCH  46  70
ATOM     70  C   UNL A   1      39.530  33.917  36.840  1.00  0.00     0.064 A 
ATOM     71  C   UNL A   1      38.760  33.486  37.929  1.00  0.00     0.173 A 
ATOM     72  C   UNL A   1      40.149  35.173  36.934  1.00  0.00     0.173 A 
ATOM     73  F   UNL A   1      38.132  32.302  37.878  1.00  0.00    -0.203 F 
ATOM     74  C   UNL A   1      38.593  34.288  39.056  1.00  0.00     0.198 A 
ATOM     75  C   UNL A   1      40.003  35.962  38.074  1.00  0.00     0.198 A 
ATOM     76  F   UNL A   1      40.901  35.628  35.923  1.00  0.00    -0.203 F 
ATOM     77  F   UNL A   1      37.811  33.872  40.062  1.00  0.00    -0.200 F 
ATOM     78  C   UNL A   1      39.219  35.524  39.129  1.00  0.00     0.200 A 
ATOM     79  F   UNL A   1      40.622  37.149  38.147  1.00  0.00    -0.200 F 
ATOM     80  F   UNL A   1      39.058  36.294  40.214  1.00  0.00    -0.200 F 
ENDBRANCH  46  70
BRANCH  58  81
ATOM     81  C   UNL A   1      43.854  28.752  35.069  1.00  0.00     0.064 A 
ATOM     82  C   UNL A   1      43.694  27.638  35.907  1.00  0.00     0.173 A 
ATOM     83  C   UNL A   1      45.152  29.241  34.864  1.00  0.00     0.173 A 
ATOM     84  F   UNL A   1      42.471  27.144  36.146  1.00  0.00    -0.203 F 
ATOM     85  C   UNL A   1      44.791  27.052  36.531  1.00  0.00     0.198 A 
ATOM     86  C   UNL A   1      46.250  28.635  35.468  1.00  0.00     0.198 A 
ATOM     87  F   UNL A   1      45.358  30.300  34.067  1.00  0.00    -0.203 F 
ATOM     88  F   UNL A   1      44.611  26.016  37.363  1.00  0.00    -0.200 F 
ATOM     89  C   UNL A   1      46.068  27.545  36.305  1.00  0.00     0.200 A 
ATOM     90  F   UNL A   1      47.484  29.104  35.239  1.00  0.00    -0.200 F 
ATOM     91  F   UNL A   1      47.124  26.973  36.902  1.00  0.00    -0.200 F 
ENDBRANCH  58  81
ENDBRANCH  32  33
ENDBRANCH  24  27
ENDBRANCH  22  23
ENDBRANCH   1  22
TORSDOF 12
ENDMDL
MODEL 2
REMARK VINA RESULT:     -12.9      0.606      1.390
REMARK SMILES Cc1ccc(-c2ncccc2C(=O)NCCCCNC(=O)c2ccc(-c3c4nc(c(-c5c(F)c(F)c(F)c(F)c5F)c5ccc([nH]5)c(-c5c(F)c(F)c(F)c(F)c5F)c5nc(c(-c6c(F)c(F)c(F)c(F)c6F)c6ccc3[nH]6)C=C5)C=C4)cc2)c(Cl)c1
REMARK SMILES IDX 17 1 16 2 15 3 14 4 12 5 13 6 11 8 6 9 7 10 8 11 10 12 9 13
REMARK SMILES IDX 5 14 1 15 2 16 3 17 87 18 4 19 85 20 86 21 18 22 19 23 20 24
REMARK SMILES IDX 21 26 22 27 23 28 84 29 24 30 83 31 25 32 26 33 27 34 77 35
REMARK SMILES IDX 28 36 82 37 76 38 78 39 29 40 81 41 75 42 74 43 30 45 62 46
REMARK SMILES IDX 42 47 61 48 43 49 46 50 60 51 79 52 44 53 45 54 59 56 80 57
REMARK SMILES IDX 47 58 31 59 32 60 40 61 33 62 34 63 38 64 41 65 35 66 36 67
REMARK SMILES IDX 39 68 37 69 63 70 64 71 72 72 65 73 66 74 70 75 73 76 67 77
REMARK SMILES IDX 68 78 71 79 69 80 48 81 49 82 57 83 50 84 51 85 55 86 58 87
REMARK SMILES IDX 52 88 53 89 56 90 54 91
REMARK H PARENT 14 7 19 25 78 44 46 55
REMARK Flexibility Score: inf
ROOT
ATOM      1  C   UNL A   1      31.476  31.949  26.876  1.00  0.00     0.023 C 
ENDROOT
BRANCH   1   2
ATOM      2  C   UNL A   1      31.739  30.826  25.862  1.00  0.00     0.023 C 
BRANCH   2   3
ATOM      3  C   UNL A   1      32.670  29.724  26.373  1.00  0.00     0.116 C 
BRANCH   3   4
ATOM      4  N   UNL A   1      31.908  28.600  26.875  1.00  0.00    -0.352 N 
ATOM      5  C   UNL A   1      31.821  27.263  26.585  1.00  0.00     0.253 C 
ATOM      6  O   UNL A   1      31.006  26.668  27.292  1.00  0.00    -0.269 OA
ATOM      7  H   UNL A   1      31.303  28.861  27.607  1.00  0.00     0.163 HD
BRANCH   5   8
ATOM      8  C   UNL A   1      32.625  26.530  25.548  1.00  0.00     0.066 A 
ATOM      9  C   UNL A   1      32.260  26.578  24.185  1.00  0.00     0.084 A 
ATOM     10  N   UNL A   1      32.907  25.857  23.216  1.00  0.00    -0.255 NA
ATOM     11  C   UNL A   1      33.935  25.073  23.578  1.00  0.00     0.112 A 
ATOM     12  C   UNL A   1      33.762  25.768  25.849  1.00  0.00     0.018 A 
ATOM     13  C   UNL A   1      34.408  25.012  24.868  1.00  0.00     0.021 A 
BRANCH   9  14
ATOM     14  C   UNL A   1      31.227  27.454  23.606  1.00  0.00     0.020 A 
ATOM     15  C   UNL A   1      28.083  29.885  21.874  1.00  0.00     0.044 C 
ATOM     16  C   UNL A   1      29.162  29.050  22.495  1.00  0.00    -0.050 A 
ATOM     17  C   UNL A   1      28.851  27.884  23.194  1.00  0.00     0.004 A 
ATOM     18  C   UNL A   1      30.504  29.438  22.385  1.00  0.00     0.024 A 
ATOM     19  C   UNL A   1      29.868  27.105  23.754  1.00  0.00     0.012 A 
ATOM     20  C   UNL A   1      31.526  28.646  22.927  1.00  0.00     0.050 A 
ATOM     21  Cl  UNL A   1      33.156  29.186  22.698  1.00  0.00    -0.084 Cl
ENDBRANCH   9  14
ENDBRANCH   5   8
ENDBRANCH   3   4
ENDBRANCH   2   3
ENDBRANCH   1   2
BRANCH   1  22
ATOM     22  C   UNL A   1      32.695  32.785  27.262  1.00  0.00     0.116 C 
BRANCH  22  23
ATOM     23  N   UNL A   1      32.364  34.153  27.626  1.00  0.00    -0.352 N 
ATOM     24  C   UNL A   1      32.960  34.967  28.560  1.00  0.00     0.251 C 
ATOM     25  H   UNL A   1      31.610  34.552  27.135  1.00  0.00     0.163 HD
ATOM     26  O   UNL A   1      32.493  36.070  28.809  1.00  0.00    -0.269 OA
BRANCH  24  27
ATOM     27  C   UNL A   1      34.146  34.480  29.294  1.00  0.00     0.039 A 
ATOM     28  C   UNL A   1      33.958  33.866  30.534  1.00  0.00     0.014 A 
ATOM     29  C   UNL A   1      35.428  34.611  28.755  1.00  0.00     0.014 A 
ATOM     30  C   UNL A   1      35.053  33.318  31.207  1.00  0.00     0.010 A 
ATOM     31  C   UNL A   1      36.509  34.015  29.397  1.00  0.00     0.010 A 
ATOM     32  C   UNL A   1      36.330  33.357  30.625  1.00  0.00    -0.014 A 
BRANCH  32  33
ATOM     33  C   UNL A   1      37.490  32.702  31.279  1.00  0.00     0.031 A 
ATOM     34  C   UNL A   1      38.184  31.551  30.610  1.00  0.00     0.074 A 
ATOM     35  C   UNL A   1      37.866  33.097  32.511  1.00  0.00     0.049 A 
ATOM     36  N   UNL A   1      39.158  30.799  31.056  1.00  0.00    -0.248 NA
ATOM     37  C   UNL A   1      37.701  31.177  29.272  1.00  0.00     0.031 C 
ATOM     38  C   UNL A   1      37.233  34.167  33.285  1.00  0.00     0.029 A 
ATOM     39  N   UNL A   1      38.860  32.634  33.335  1.00  0.00    -0.354 N 
ATOM     40  C   UNL A   1      39.389  29.854  30.066  1.00  0.00     0.074 A 
ATOM     41  C   UNL A   1      38.427  30.098  29.013  1.00  0.00     0.031 C 
ATOM     42  C   UNL A   1      37.860  34.284  34.466  1.00  0.00     0.029 A 
ATOM     43  C   UNL A   1      38.916  33.281  34.546  1.00  0.00     0.049 A 
ATOM     44  H   UNL A   1      39.475  31.907  33.084  1.00  0.00     0.167 HD
ATOM     45  C   UNL A   1      40.333  28.884  30.032  1.00  0.00     0.037 A 
ATOM     46  C   UNL A   1      39.724  33.078  35.605  1.00  0.00     0.037 A 
ATOM     47  C   UNL A   1      41.311  28.667  31.065  1.00  0.00     0.049 A 
ATOM     48  C   UNL A   1      40.776  32.005  35.531  1.00  0.00     0.074 A 
ATOM     49  C   UNL A   1      42.355  27.760  31.089  1.00  0.00     0.029 A 
ATOM     50  N   UNL A   1      41.363  29.368  32.261  1.00  0.00    -0.354 N 
ATOM     51  N   UNL A   1      41.037  31.170  34.555  1.00  0.00    -0.248 NA
ATOM     52  C   UNL A   1      41.654  31.854  36.700  1.00  0.00     0.031 C 
ATOM     53  C   UNL A   1      43.016  27.885  32.314  1.00  0.00     0.029 A 
ATOM     54  C   UNL A   1      42.411  28.900  33.037  1.00  0.00     0.049 A 
ATOM     55  H   UNL A   1      40.747  30.091  32.520  1.00  0.00     0.167 HD
ATOM     56  C   UNL A   1      42.121  30.414  34.981  1.00  0.00     0.074 A 
ATOM     57  C   UNL A   1      42.480  30.901  36.296  1.00  0.00     0.031 C 
ATOM     58  C   UNL A   1      42.760  29.405  34.340  1.00  0.00     0.037 A 
BRANCH  45  59
ATOM     59  C   UNL A   1      40.362  27.981  28.833  1.00  0.00     0.064 A 
ATOM     60  C   UNL A   1      41.108  28.303  27.690  1.00  0.00     0.173 A 
ATOM     61  C   UNL A   1      39.678  26.757  28.848  1.00  0.00     0.173 A 
ATOM     62  F   UNL A   1      41.770  29.467  27.622  1.00  0.00    -0.203 F 
ATOM     63  C   UNL A   1      41.149  27.443  26.596  1.00  0.00     0.198 A 
ATOM     64  C   UNL A   1      39.744  25.886  27.764  1.00  0.00     0.198 A 
ATOM     65  F   UNL A   1      38.954  26.398  29.919  1.00  0.00    -0.203 F 
ATOM     66  F   UNL A   1      41.834  27.790  25.498  1.00  0.00    -0.200 F 
ATOM     67  C   UNL A   1      40.474  26.231  26.637  1.00  0.00     0.200 A 
ATOM     68  F   UNL A   1      39.101  24.710  27.809  1.00  0.00    -0.200 F 
ATOM     69  F   UNL A   1      40.524  25.400  25.587  1.00  0.00    -0.200 F 
ENDBRANCH  45  59
BRANCH  46  70
ATOM     70  C   UNL A   1      39.582  33.920  36.821  1.00  0.00     0.064 A 
ATOM     71  C   UNL A   1      38.806  33.491  37.907  1.00  0.00     0.173 A 
ATOM     72  C   UNL A   1      40.205  35.173  36.918  1.00  0.00     0.173 A 
ATOM     73  F   UNL A   1      38.175  32.309  37.854  1.00  0.00    -0.203 F 
ATOM     74  C   UNL A   1      38.639  34.293  39.034  1.00  0.00     0.198 A 
ATOM     75  C   UNL A   1      40.059  35.962  38.057  1.00  0.00     0.198 A 
ATOM     76  F   UNL A   1      40.962  35.626  35.908  1.00  0.00    -0.203 F 
ATOM     77  F   UNL A   1      37.853  33.880  40.037  1.00  0.00    -0.200 F 
ATOM     78  C   UNL A   1      39.269  35.527  39.110  1.00  0.00     0.200 A 
ATOM     79  F   UNL A   1      40.681  37.147  38.132  1.00  0.00    -0.200 F 
ATOM     80  F   UNL A   1      39.108  36.297  40.194  1.00  0.00    -0.200 F 
ENDBRANCH  46  70
BRANCH  58  81
ATOM     81  C   UNL A   1      43.935  28.784  35.035  1.00  0.00     0.064 A 
ATOM     82  C   UNL A   1      45.237  29.276  34.858  1.00  0.00     0.173 A 
ATOM     83  C   UNL A   1      43.751  27.715  35.923  1.00  0.00     0.173 A 
ATOM     84  F   UNL A   1      45.467  30.287  34.007  1.00  0.00    -0.203 F 
ATOM     85  C   UNL A   1      46.314  28.703  35.529  1.00  0.00     0.198 A 
ATOM     86  C   UNL A   1      44.826  27.163  36.613  1.00  0.00     0.198 A 
ATOM     87  F   UNL A   1      42.524  27.213  36.132  1.00  0.00    -0.203 F 
ATOM     88  F   UNL A   1      47.555  29.159  35.311  1.00  0.00    -0.200 F 
ATOM     89  C   UNL A   1      46.107  27.653  36.411  1.00  0.00     0.200 A 
ATOM     90  F   UNL A   1      44.623  26.157  37.475  1.00  0.00    -0.200 F 
ATOM     91  F   UNL A   1      47.145  27.108  37.061  1.00  0.00    -0.200 F 
ENDBRANCH  58  81
ENDBRANCH  32  33
ENDBRANCH  24  27
ENDBRANCH  22  23
ENDBRANCH   1  22
TORSDOF 12
ENDMDL
MODEL 3
REMARK VINA RESULT:     -12.8      5.956     11.132
REMARK SMILES Cc1ccc(-c2ncccc2C(=O)NCCCCNC(=O)c2ccc(-c3c4nc(c(-c5c(F)c(F)c(F)c(F)c5F)c5ccc([nH]5)c(-c5c(F)c(F)c(F)c(F)c5F)c5nc(c(-c6c(F)c(F)c(F)c(F)c6F)c6ccc3[nH]6)C=C5)C=C4)cc2)c(Cl)c1
REMARK SMILES IDX 17 1 16 2 15 3 14 4 12 5 13 6 11 8 6 9 7 10 8 11 10 12 9 13
REMARK SMILES IDX 5 14 1 15 2 16 3 17 87 18 4 19 85 20 86 21 18 22 19 23 20 24
REMARK SMILES IDX 21 26 22 27 23 28 84 29 24 30 83 31 25 32 26 33 27 34 77 35
REMARK SMILES IDX 28 36 82 37 76 38 78 39 29 40 81 41 75 42 74 43 30 45 62 46
REMARK SMILES IDX 42 47 61 48 43 49 46 50 60 51 79 52 44 53 45 54 59 56 80 57
REMARK SMILES IDX 47 58 31 59 32 60 40 61 33 62 34 63 38 64 41 65 35 66 36 67
REMARK SMILES IDX 39 68 37 69 63 70 64 71 72 72 65 73 66 74 70 75 73 76 67 77
REMARK SMILES IDX 68 78 71 79 69 80 48 81 49 82 57 83 50 84 51 85 55 86 58 87
REMARK SMILES IDX 52 88 53 89 56 90 54 91
REMARK H PARENT 14 7 19 25 78 44 46 55
REMARK Flexibility Score: inf
ROOT
ATOM      1  C   UNL A   1      37.903  19.978  25.041  1.00  0.00     0.023 C 
ENDROOT
BRANCH   1   2
ATOM      2  C   UNL A   1      37.104  21.185  24.528  1.00  0.00     0.023 C 
BRANCH   2   3
ATOM      3  C   UNL A   1      36.938  22.309  25.553  1.00  0.00     0.116 C 
BRANCH   3   4
ATOM      4  N   UNL A   1      35.944  21.959  26.545  1.00  0.00    -0.352 N 
ATOM      5  C   UNL A   1      34.636  21.551  26.525  1.00  0.00     0.253 C 
ATOM      6  O   UNL A   1      34.171  21.363  27.650  1.00  0.00    -0.269 OA
ATOM      7  H   UNL A   1      36.297  22.030  27.462  1.00  0.00     0.163 HD
BRANCH   5   8
ATOM      8  C   UNL A   1      33.804  21.311  25.296  1.00  0.00     0.066 A 
ATOM      9  C   UNL A   1      33.067  22.361  24.707  1.00  0.00     0.084 A 
ATOM     10  N   UNL A   1      32.227  22.174  23.641  1.00  0.00    -0.255 NA
ATOM     11  C   UNL A   1      32.101  20.937  23.133  1.00  0.00     0.112 A 
ATOM     12  C   UNL A   1      33.702  20.064  24.664  1.00  0.00     0.018 A 
ATOM     13  C   UNL A   1      32.827  19.864  23.593  1.00  0.00     0.021 A 
BRANCH   9  14
ATOM     14  C   UNL A   1      33.163  23.784  25.075  1.00  0.00     0.020 A 
ATOM     15  C   UNL A   1      33.626  27.965  26.123  1.00  0.00     0.044 C 
ATOM     16  C   UNL A   1      33.459  26.526  25.739  1.00  0.00    -0.050 A 
ATOM     17  C   UNL A   1      34.285  25.942  24.778  1.00  0.00     0.004 A 
ATOM     18  C   UNL A   1      32.460  25.748  26.339  1.00  0.00     0.024 A 
ATOM     19  C   UNL A   1      34.129  24.594  24.441  1.00  0.00     0.012 A 
ATOM     20  C   UNL A   1      32.318  24.391  26.017  1.00  0.00     0.050 A 
ATOM     21  Cl  UNL A   1      31.084  23.503  26.848  1.00  0.00    -0.084 Cl
ENDBRANCH   9  14
ENDBRANCH   5   8
ENDBRANCH   3   4
ENDBRANCH   2   3
ENDBRANCH   1   2
BRANCH   1  22
ATOM     22  C   UNL A   1      39.169  20.313  25.827  1.00  0.00     0.116 C 
BRANCH  22  23
ATOM     23  N   UNL A   1      40.130  19.223  25.864  1.00  0.00    -0.352 N 
ATOM     24  C   UNL A   1      41.485  19.273  26.095  1.00  0.00     0.251 C 
ATOM     25  H   UNL A   1      39.761  18.325  25.700  1.00  0.00     0.163 HD
ATOM     26  O   UNL A   1      42.168  18.263  25.997  1.00  0.00    -0.269 OA
BRANCH  24  27
ATOM     27  C   UNL A   1      42.117  20.568  26.422  1.00  0.00     0.039 A 
ATOM     28  C   UNL A   1      42.553  21.381  25.373  1.00  0.00     0.014 A 
ATOM     29  C   UNL A   1      42.260  20.984  27.747  1.00  0.00     0.014 A 
ATOM     30  C   UNL A   1      43.073  22.647  25.651  1.00  0.00     0.010 A 
ATOM     31  C   UNL A   1      42.724  22.267  28.020  1.00  0.00     0.010 A 
ATOM     32  C   UNL A   1      43.127  23.113  26.974  1.00  0.00    -0.014 A 
BRANCH  32  33
ATOM     33  C   UNL A   1      43.590  24.488  27.284  1.00  0.00     0.031 A 
ATOM     34  C   UNL A   1      42.624  25.509  27.813  1.00  0.00     0.074 A 
ATOM     35  C   UNL A   1      44.864  24.834  27.015  1.00  0.00     0.049 A 
ATOM     36  N   UNL A   1      42.818  26.779  28.065  1.00  0.00    -0.248 NA
ATOM     37  C   UNL A   1      41.250  25.049  28.066  1.00  0.00     0.031 C 
ATOM     38  C   UNL A   1      45.880  23.945  26.448  1.00  0.00     0.029 A 
ATOM     39  N   UNL A   1      45.517  26.031  27.166  1.00  0.00    -0.354 N 
ATOM     40  C   UNL A   1      41.591  27.272  28.485  1.00  0.00     0.074 A 
ATOM     41  C   UNL A   1      40.647  26.177  28.415  1.00  0.00     0.031 C 
ATOM     42  C   UNL A   1      47.030  24.624  26.309  1.00  0.00     0.029 A 
ATOM     43  C   UNL A   1      46.825  26.001  26.745  1.00  0.00     0.049 A 
ATOM     44  H   UNL A   1      45.090  26.836  27.539  1.00  0.00     0.167 HD
ATOM     45  C   UNL A   1      41.285  28.521  28.909  1.00  0.00     0.037 A 
ATOM     46  C   UNL A   1      47.750  26.979  26.708  1.00  0.00     0.037 A 
ATOM     47  C   UNL A   1      42.235  29.597  29.012  1.00  0.00     0.049 A 
ATOM     48  C   UNL A   1      47.388  28.352  27.205  1.00  0.00     0.074 A 
ATOM     49  C   UNL A   1      42.040  30.876  29.502  1.00  0.00     0.029 A 
ATOM     50  N   UNL A   1      43.561  29.518  28.615  1.00  0.00    -0.354 N 
ATOM     51  N   UNL A   1      46.244  28.785  27.675  1.00  0.00    -0.248 NA
ATOM     52  C   UNL A   1      48.448  29.369  27.176  1.00  0.00     0.031 C 
ATOM     53  C   UNL A   1      43.238  31.584  29.366  1.00  0.00     0.029 A 
ATOM     54  C   UNL A   1      44.192  30.733  28.832  1.00  0.00     0.049 A 
ATOM     55  H   UNL A   1      43.991  28.719  28.235  1.00  0.00     0.167 HD
ATOM     56  C   UNL A   1      46.452  30.113  28.021  1.00  0.00     0.074 A 
ATOM     57  C   UNL A   1      47.838  30.410  27.722  1.00  0.00     0.031 C 
ATOM     58  C   UNL A   1      45.575  31.008  28.539  1.00  0.00     0.037 A 
BRANCH  45  59
ATOM     59  C   UNL A   1      39.863  28.795  29.305  1.00  0.00     0.064 A 
ATOM     60  C   UNL A   1      38.921  29.264  28.377  1.00  0.00     0.173 A 
ATOM     61  C   UNL A   1      39.426  28.536  30.612  1.00  0.00     0.173 A 
ATOM     62  F   UNL A   1      39.292  29.538  27.118  1.00  0.00    -0.203 F 
ATOM     63  C   UNL A   1      37.599  29.488  28.751  1.00  0.00     0.198 A 
ATOM     64  C   UNL A   1      38.096  28.733  30.975  1.00  0.00     0.198 A 
ATOM     65  F   UNL A   1      40.285  28.080  31.536  1.00  0.00    -0.203 F 
ATOM     66  F   UNL A   1      36.726  29.975  27.859  1.00  0.00    -0.200 F 
ATOM     67  C   UNL A   1      37.185  29.214  30.046  1.00  0.00     0.200 A 
ATOM     68  F   UNL A   1      37.695  28.457  32.224  1.00  0.00    -0.200 F 
ATOM     69  F   UNL A   1      35.909  29.419  30.400  1.00  0.00    -0.200 F 
ENDBRANCH  45  59
BRANCH  46  70
ATOM     70  C   UNL A   1      49.115  26.692  26.197  1.00  0.00     0.064 A 
ATOM     71  C   UNL A   1      50.096  26.142  27.034  1.00  0.00     0.173 A 
ATOM     72  C   UNL A   1      49.472  26.971  24.870  1.00  0.00     0.173 A 
ATOM     73  F   UNL A   1      49.809  25.876  28.317  1.00  0.00    -0.203 F 
ATOM     74  C   UNL A   1      51.389  25.906  26.571  1.00  0.00     0.198 A 
ATOM     75  C   UNL A   1      50.758  26.709  24.400  1.00  0.00     0.198 A 
ATOM     76  F   UNL A   1      48.569  27.492  24.027  1.00  0.00    -0.203 F 
ATOM     77  F   UNL A   1      52.320  25.425  27.407  1.00  0.00    -0.200 F 
ATOM     78  C   UNL A   1      51.717  26.185  25.253  1.00  0.00     0.200 A 
ATOM     79  F   UNL A   1      51.068  26.966  23.122  1.00  0.00    -0.200 F 
ATOM     80  F   UNL A   1      52.961  25.957  24.809  1.00  0.00    -0.200 F 
ENDBRANCH  46  70
BRANCH  58  81
ATOM     81  C   UNL A   1      46.094  32.380  28.848  1.00  0.00     0.064 A 
ATOM     82  C   UNL A   1      46.664  32.686  30.093  1.00  0.00     0.173 A 
ATOM     83  C   UNL A   1      46.060  33.388  27.874  1.00  0.00     0.173 A 
ATOM     84  F   UNL A   1      46.705  31.760  31.062  1.00  0.00    -0.203 F 
ATOM     85  C   UNL A   1      47.162  33.958  30.356  1.00  0.00     0.198 A 
ATOM     86  C   UNL A   1      46.584  34.651  28.131  1.00  0.00     0.198 A 
ATOM     87  F   UNL A   1      45.530  33.143  26.666  1.00  0.00    -0.203 F 
ATOM     88  F   UNL A   1      47.663  34.242  31.567  1.00  0.00    -0.200 F 
ATOM     89  C   UNL A   1      47.129  34.937  29.374  1.00  0.00     0.200 A 
ATOM     90  F   UNL A   1      46.563  35.592  27.177  1.00  0.00    -0.200 F 
ATOM     91  F   UNL A   1      47.616  36.160  29.628  1.00  0.00    -0.200 F 
ENDBRANCH  58  81
ENDBRANCH  32  33
ENDBRANCH  24  27
ENDBRANCH  22  23
ENDBRANCH   1  22
TORSDOF 12
ENDMDL
