MODEL 1
REMARK VINA RESULT:     -13.2      0.000      0.000
REMARK SMILES C[C@H](Nc1ccc(C(=O)NCCCCNC(=O)c2ccc(-c3c4nc(c(-c5c(F)c(F)c(F)c(F)c5F)c5ccc([nH]5)c(-c5c(F)c(F)c(F)c(F)c5F)c5nc(c(-c6c(F)c(F)c(F)c(F)c6F)c6ccc3[nH]6)C=C5)C=C4)cc2)c(F)c1F)c1ccccc1Cl
REMARK SMILES IDX 12 1 11 2 10 3 8 4 9 5 7 7 4 8 5 9 83 10 6 11 81 12 84 13
REMARK SMILES IDX 82 14 3 15 2 17 1 18 85 19 86 20 90 21 87 22 89 23 91 24
REMARK SMILES IDX 88 25 13 26 14 27 15 28 16 29 17 31 18 32 19 33 80 34 20 35
REMARK SMILES IDX 79 36 21 37 22 38 23 39 73 40 24 41 78 42 72 43 74 44 25 45
REMARK SMILES IDX 77 46 71 47 70 48 26 50 58 51 38 52 57 53 39 54 42 55 56 56
REMARK SMILES IDX 75 57 40 58 41 59 55 61 76 62 43 63 27 64 28 65 36 66 29 67
REMARK SMILES IDX 30 68 34 69 37 70 31 71 32 72 35 73 33 74 59 75 60 76 68 77
REMARK SMILES IDX 61 78 62 79 66 80 69 81 63 82 64 83 67 84 65 85 44 86 45 87
REMARK SMILES IDX 53 88 46 89 47 90 51 91 54 92 48 93 49 94 52 95 50 96
REMARK H PARENT 10 6 3 16 15 30 74 49 42 60
REMARK Flexibility Score: inf
ROOT
ATOM      1  C   UNL A   1      31.778  30.487  26.877  1.00  0.00     0.023 C 
ENDROOT
BRANCH   1   2
ATOM      2  C   UNL A   1      32.012  29.787  25.542  1.00  0.00     0.116 C 
BRANCH   2   3
ATOM      3  N   UNL A   1      31.007  30.085  24.536  1.00  0.00    -0.352 N 
ATOM      4  C   UNL A   1      30.439  29.263  23.592  1.00  0.00     0.254 C 
ATOM      5  O   UNL A   1      29.588  29.716  22.829  1.00  0.00    -0.269 OA
ATOM      6  H   UNL A   1      30.683  31.014  24.531  1.00  0.00     0.163 HD
BRANCH   4   7
ATOM      7  C   UNL A   1      30.896  27.872  23.406  1.00  0.00     0.078 A 
ATOM      8  C   UNL A   1      31.532  25.177  22.894  1.00  0.00     0.074 A 
ATOM      9  C   UNL A   1      30.401  25.510  23.646  1.00  0.00     0.030 A 
ATOM     10  C   UNL A   1      32.382  26.218  22.488  1.00  0.00     0.182 A 
ATOM     11  C   UNL A   1      30.085  26.846  23.908  1.00  0.00     0.019 A 
ATOM     12  C   UNL A   1      32.080  27.549  22.754  1.00  0.00     0.173 A 
ATOM     13  F   UNL A   1      33.476  25.925  21.764  1.00  0.00    -0.201 F 
ATOM     14  F   UNL A   1      32.922  28.505  22.331  1.00  0.00    -0.203 F 
BRANCH   8  15
ATOM     15  N   UNL A   1      31.773  23.870  22.475  1.00  0.00    -0.376 N 
ATOM     16  H   UNL A   1      31.608  23.611  21.539  1.00  0.00     0.161 HD
BRANCH  15  17
ATOM     17  C   UNL A   1      32.274  22.882  23.440  1.00  0.00     0.108 C 
ATOM     18  C   UNL A   1      32.195  21.498  22.783  1.00  0.00     0.036 C 
BRANCH  17  19
ATOM     19  C   UNL A   1      33.693  23.191  23.895  1.00  0.00    -0.007 A 
ATOM     20  C   UNL A   1      34.796  22.941  23.056  1.00  0.00     0.007 A 
ATOM     21  C   UNL A   1      33.956  23.703  25.181  1.00  0.00     0.046 A 
ATOM     22  C   UNL A   1      36.104  23.188  23.480  1.00  0.00     0.000 A 
ATOM     23  C   UNL A   1      35.269  23.942  25.607  1.00  0.00     0.021 A 
ATOM     24  Cl  UNL A   1      32.694  24.073  26.306  1.00  0.00    -0.084 Cl
ATOM     25  C   UNL A   1      36.342  23.684  24.757  1.00  0.00     0.002 A 
ENDBRANCH  17  19
ENDBRANCH  15  17
ENDBRANCH   8  15
ENDBRANCH   4   7
ENDBRANCH   2   3
ENDBRANCH   1   2
BRANCH   1  26
ATOM     26  C   UNL A   1      31.600  32.004  26.825  1.00  0.00     0.023 C 
BRANCH  26  27
ATOM     27  C   UNL A   1      32.799  32.840  27.261  1.00  0.00     0.116 C 
BRANCH  27  28
ATOM     28  N   UNL A   1      32.451  34.190  27.675  1.00  0.00    -0.352 N 
ATOM     29  C   UNL A   1      33.017  34.999  28.635  1.00  0.00     0.251 C 
ATOM     30  H   UNL A   1      31.691  34.589  27.194  1.00  0.00     0.163 HD
ATOM     31  O   UNL A   1      32.517  36.089  28.888  1.00  0.00    -0.269 OA
BRANCH  29  32
ATOM     32  C   UNL A   1      34.202  34.543  29.396  1.00  0.00     0.039 A 
ATOM     33  C   UNL A   1      34.009  34.006  30.673  1.00  0.00     0.014 A 
ATOM     34  C   UNL A   1      35.491  34.633  28.866  1.00  0.00     0.014 A 
ATOM     35  C   UNL A   1      35.092  33.474  31.375  1.00  0.00     0.010 A 
ATOM     36  C   UNL A   1      36.557  34.032  29.533  1.00  0.00     0.010 A 
ATOM     37  C   UNL A   1      36.368  33.438  30.789  1.00  0.00    -0.014 A 
BRANCH  37  38
ATOM     38  C   UNL A   1      37.508  32.765  31.464  1.00  0.00     0.031 A 
ATOM     39  C   UNL A   1      38.205  31.607  30.807  1.00  0.00     0.074 A 
ATOM     40  C   UNL A   1      37.869  33.150  32.705  1.00  0.00     0.049 A 
ATOM     41  N   UNL A   1      39.155  30.839  31.277  1.00  0.00    -0.248 NA
ATOM     42  C   UNL A   1      37.755  31.244  29.453  1.00  0.00     0.031 C 
ATOM     43  C   UNL A   1      37.236  34.223  33.474  1.00  0.00     0.029 A 
ATOM     44  N   UNL A   1      38.846  32.673  33.545  1.00  0.00    -0.354 N 
ATOM     45  C   UNL A   1      39.399  29.893  30.290  1.00  0.00     0.074 A 
ATOM     46  C   UNL A   1      38.470  30.154  29.212  1.00  0.00     0.031 C 
ATOM     47  C   UNL A   1      37.855  34.338  34.660  1.00  0.00     0.029 A 
ATOM     48  C   UNL A   1      38.902  33.325  34.753  1.00  0.00     0.049 A 
ATOM     49  H   UNL A   1      39.450  31.934  33.304  1.00  0.00     0.167 HD
ATOM     50  C   UNL A   1      40.329  28.911  30.277  1.00  0.00     0.037 A 
ATOM     51  C   UNL A   1      39.701  33.125  35.820  1.00  0.00     0.037 A 
ATOM     52  C   UNL A   1      41.285  28.683  31.327  1.00  0.00     0.049 A 
ATOM     53  C   UNL A   1      40.743  32.043  35.768  1.00  0.00     0.074 A 
ATOM     54  C   UNL A   1      42.319  27.765  31.363  1.00  0.00     0.029 A 
ATOM     55  N   UNL A   1      41.328  29.384  32.522  1.00  0.00    -0.354 N 
ATOM     56  N   UNL A   1      41.007  31.198  34.801  1.00  0.00    -0.248 NA
ATOM     57  C   UNL A   1      41.602  31.885  36.951  1.00  0.00     0.031 C 
ATOM     58  C   UNL A   1      42.965  27.883  32.597  1.00  0.00     0.029 A 
ATOM     59  C   UNL A   1      42.360  28.904  33.312  1.00  0.00     0.049 A 
ATOM     60  H   UNL A   1      40.715  30.114  32.773  1.00  0.00     0.167 HD
ATOM     61  C   UNL A   1      42.067  30.424  35.248  1.00  0.00     0.074 A 
ATOM     62  C   UNL A   1      42.413  30.907  36.569  1.00  0.00     0.031 C 
ATOM     63  C   UNL A   1      42.697  29.401  34.621  1.00  0.00     0.037 A 
BRANCH  50  64
ATOM     64  C   UNL A   1      40.384  28.011  29.079  1.00  0.00     0.064 A 
ATOM     65  C   UNL A   1      41.135  28.373  27.950  1.00  0.00     0.173 A 
ATOM     66  C   UNL A   1      39.627  26.833  29.014  1.00  0.00     0.173 A 
ATOM     67  F   UNL A   1      41.872  29.495  27.958  1.00  0.00    -0.203 F 
ATOM     68  C   UNL A   1      41.115  27.595  26.796  1.00  0.00     0.198 A 
ATOM     69  C   UNL A   1      39.629  26.042  27.867  1.00  0.00     0.198 A 
ATOM     70  F   UNL A   1      38.900  26.438  30.070  1.00  0.00    -0.203 F 
ATOM     71  F   UNL A   1      41.814  27.978  25.718  1.00  0.00    -0.200 F 
ATOM     72  C   UNL A   1      40.363  26.430  26.756  1.00  0.00     0.200 A 
ATOM     73  F   UNL A   1      38.919  24.906  27.838  1.00  0.00    -0.200 F 
ATOM     74  F   UNL A   1      40.348  25.679  25.646  1.00  0.00    -0.200 F 
ENDBRANCH  50  64
BRANCH  51  75
ATOM     75  C   UNL A   1      39.561  33.995  37.017  1.00  0.00     0.064 A 
ATOM     76  C   UNL A   1      38.779  33.608  38.114  1.00  0.00     0.173 A 
ATOM     77  C   UNL A   1      40.193  35.245  37.072  1.00  0.00     0.173 A 
ATOM     78  F   UNL A   1      38.151  32.423  38.108  1.00  0.00    -0.203 F 
ATOM     79  C   UNL A   1      38.622  34.446  39.217  1.00  0.00     0.198 A 
ATOM     80  C   UNL A   1      40.055  36.071  38.186  1.00  0.00     0.198 A 
ATOM     81  F   UNL A   1      40.968  35.649  36.056  1.00  0.00    -0.203 F 
ATOM     82  F   UNL A   1      37.846  34.065  40.241  1.00  0.00    -0.200 F 
ATOM     83  C   UNL A   1      39.264  35.674  39.253  1.00  0.00     0.200 A 
ATOM     84  F   UNL A   1      40.697  37.247  38.228  1.00  0.00    -0.200 F 
ATOM     85  F   UNL A   1      39.123  36.475  40.319  1.00  0.00    -0.200 F 
ENDBRANCH  51  75
BRANCH  63  86
ATOM     86  C   UNL A   1      43.833  28.736  35.335  1.00  0.00     0.064 A 
ATOM     87  C   UNL A   1      45.155  29.152  35.113  1.00  0.00     0.173 A 
ATOM     88  C   UNL A   1      43.623  27.626  36.167  1.00  0.00     0.173 A 
ATOM     89  F   UNL A   1      45.408  30.204  34.318  1.00  0.00    -0.203 F 
ATOM     90  C   UNL A   1      46.226  28.468  35.682  1.00  0.00     0.198 A 
ATOM     91  C   UNL A   1      44.695  26.960  36.754  1.00  0.00     0.198 A 
ATOM     92  F   UNL A   1      42.376  27.199  36.419  1.00  0.00    -0.203 F 
ATOM     93  F   UNL A   1      47.481  28.860  35.424  1.00  0.00    -0.200 F 
ATOM     94  C   UNL A   1      45.995  27.374  36.501  1.00  0.00     0.200 A 
ATOM     95  F   UNL A   1      44.471  25.916  37.562  1.00  0.00    -0.200 F 
ATOM     96  F   UNL A   1      47.027  26.718  37.050  1.00  0.00    -0.200 F 
ENDBRANCH  63  86
ENDBRANCH  37  38
ENDBRANCH  29  32
ENDBRANCH  27  28
ENDBRANCH  26  27
ENDBRANCH   1  26
TORSDOF 14
ENDMDL
MODEL 2
REMARK VINA RESULT:     -13.2      0.249      1.594
REMARK SMILES C[C@H](Nc1ccc(C(=O)NCCCCNC(=O)c2ccc(-c3c4nc(c(-c5c(F)c(F)c(F)c(F)c5F)c5ccc([nH]5)c(-c5c(F)c(F)c(F)c(F)c5F)c5nc(c(-c6c(F)c(F)c(F)c(F)c6F)c6ccc3[nH]6)C=C5)C=C4)cc2)c(F)c1F)c1ccccc1Cl
REMARK SMILES IDX 12 1 11 2 10 3 8 4 9 5 7 7 4 8 5 9 83 10 6 11 81 12 84 13
REMARK SMILES IDX 82 14 3 15 2 17 1 18 85 19 86 20 90 21 87 22 89 23 91 24
REMARK SMILES IDX 88 25 13 26 14 27 15 28 16 29 17 31 18 32 19 33 80 34 20 35
REMARK SMILES IDX 79 36 21 37 22 38 23 39 73 40 24 41 78 42 72 43 74 44 25 45
REMARK SMILES IDX 77 46 71 47 70 48 26 50 58 51 38 52 57 53 39 54 42 55 56 56
REMARK SMILES IDX 75 57 40 58 41 59 55 61 76 62 43 63 27 64 28 65 36 66 29 67
REMARK SMILES IDX 30 68 34 69 37 70 31 71 32 72 35 73 33 74 59 75 60 76 68 77
REMARK SMILES IDX 61 78 62 79 66 80 69 81 63 82 64 83 67 84 65 85 44 86 45 87
REMARK SMILES IDX 53 88 46 89 47 90 51 91 54 92 48 93 49 94 52 95 50 96
REMARK H PARENT 10 6 3 16 15 30 74 49 42 60
REMARK Flexibility Score: inf
ROOT
ATOM      1  C   UNL A   1      31.412  30.597  26.693  1.00  0.00     0.023 C 
ENDROOT
BRANCH   1   2
ATOM      2  C   UNL A   1      31.753  29.816  25.427  1.00  0.00     0.116 C 
BRANCH   2   3
ATOM      3  N   UNL A   1      30.864  30.088  24.310  1.00  0.00    -0.352 N 
ATOM      4  C   UNL A   1      30.421  29.248  23.317  1.00  0.00     0.254 C 
ATOM      5  O   UNL A   1      29.656  29.680  22.457  1.00  0.00    -0.269 OA
ATOM      6  H   UNL A   1      30.530  31.012  24.257  1.00  0.00     0.163 HD
BRANCH   4   7
ATOM      7  C   UNL A   1      30.917  27.863  23.201  1.00  0.00     0.078 A 
ATOM      8  C   UNL A   1      31.639  25.170  22.808  1.00  0.00     0.074 A 
ATOM      9  C   UNL A   1      30.456  25.498  23.479  1.00  0.00     0.030 A 
ATOM     10  C   UNL A   1      32.490  26.217  22.424  1.00  0.00     0.182 A 
ATOM     11  C   UNL A   1      30.097  26.834  23.682  1.00  0.00     0.019 A 
ATOM     12  C   UNL A   1      32.145  27.548  22.633  1.00  0.00     0.173 A 
ATOM     13  F   UNL A   1      33.634  25.929  21.779  1.00  0.00    -0.201 F 
ATOM     14  F   UNL A   1      32.992  28.511  22.235  1.00  0.00    -0.203 F 
BRANCH   8  15
ATOM     15  N   UNL A   1      31.932  23.857  22.442  1.00  0.00    -0.376 N 
ATOM     16  H   UNL A   1      31.830  23.568  21.507  1.00  0.00     0.161 HD
BRANCH  15  17
ATOM     17  C   UNL A   1      32.395  22.909  23.465  1.00  0.00     0.108 C 
ATOM     18  C   UNL A   1      32.304  21.496  22.873  1.00  0.00     0.036 C 
BRANCH  17  19
ATOM     19  C   UNL A   1      33.810  23.215  23.934  1.00  0.00    -0.007 A 
ATOM     20  C   UNL A   1      34.924  22.917  23.126  1.00  0.00     0.007 A 
ATOM     21  C   UNL A   1      34.057  23.773  25.204  1.00  0.00     0.046 A 
ATOM     22  C   UNL A   1      36.228  23.162  23.565  1.00  0.00     0.000 A 
ATOM     23  C   UNL A   1      35.365  24.008  25.646  1.00  0.00     0.021 A 
ATOM     24  Cl  UNL A   1      32.780  24.204  26.290  1.00  0.00    -0.084 Cl
ATOM     25  C   UNL A   1      36.449  23.703  24.827  1.00  0.00     0.002 A 
ENDBRANCH  17  19
ENDBRANCH  15  17
ENDBRANCH   8  15
ENDBRANCH   4   7
ENDBRANCH   2   3
ENDBRANCH   1   2
BRANCH   1  26
ATOM     26  C   UNL A   1      31.445  32.121  26.580  1.00  0.00     0.023 C 
BRANCH  26  27
ATOM     27  C   UNL A   1      32.619  32.822  27.257  1.00  0.00     0.116 C 
BRANCH  27  28
ATOM     28  N   UNL A   1      32.343  34.202  27.623  1.00  0.00    -0.352 N 
ATOM     29  C   UNL A   1      32.970  35.022  28.534  1.00  0.00     0.251 C 
ATOM     30  H   UNL A   1      31.589  34.616  27.145  1.00  0.00     0.163 HD
ATOM     31  O   UNL A   1      32.527  36.143  28.754  1.00  0.00    -0.269 OA
BRANCH  29  32
ATOM     32  C   UNL A   1      34.153  34.543  29.284  1.00  0.00     0.039 A 
ATOM     33  C   UNL A   1      33.960  33.993  30.555  1.00  0.00     0.014 A 
ATOM     34  C   UNL A   1      35.440  34.624  28.750  1.00  0.00     0.014 A 
ATOM     35  C   UNL A   1      35.040  33.439  31.246  1.00  0.00     0.010 A 
ATOM     36  C   UNL A   1      36.503  34.003  29.404  1.00  0.00     0.010 A 
ATOM     37  C   UNL A   1      36.313  33.396  30.654  1.00  0.00    -0.014 A 
BRANCH  37  38
ATOM     38  C   UNL A   1      37.448  32.702  31.315  1.00  0.00     0.031 A 
ATOM     39  C   UNL A   1      38.137  31.553  30.634  1.00  0.00     0.074 A 
ATOM     40  C   UNL A   1      37.811  33.058  32.564  1.00  0.00     0.049 A 
ATOM     41  N   UNL A   1      39.082  30.769  31.088  1.00  0.00    -0.248 NA
ATOM     42  C   UNL A   1      37.686  31.221  29.273  1.00  0.00     0.031 C 
ATOM     43  C   UNL A   1      37.184  34.119  33.355  1.00  0.00     0.029 A 
ATOM     44  N   UNL A   1      38.784  32.557  33.394  1.00  0.00    -0.354 N 
ATOM     45  C   UNL A   1      39.320  29.842  30.082  1.00  0.00     0.074 A 
ATOM     46  C   UNL A   1      38.394  30.132  29.009  1.00  0.00     0.031 C 
ATOM     47  C   UNL A   1      37.803  34.205  34.543  1.00  0.00     0.029 A 
ATOM     48  C   UNL A   1      38.843  33.183  34.616  1.00  0.00     0.049 A 
ATOM     49  H   UNL A   1      39.383  31.819  33.138  1.00  0.00     0.167 HD
ATOM     50  C   UNL A   1      40.244  28.854  30.049  1.00  0.00     0.037 A 
ATOM     51  C   UNL A   1      39.640  32.956  35.678  1.00  0.00     0.037 A 
ATOM     52  C   UNL A   1      41.197  28.598  31.095  1.00  0.00     0.049 A 
ATOM     53  C   UNL A   1      40.675  31.868  35.604  1.00  0.00     0.074 A 
ATOM     54  C   UNL A   1      42.226  27.673  31.113  1.00  0.00     0.029 A 
ATOM     55  N   UNL A   1      41.244  29.273  32.305  1.00  0.00    -0.354 N 
ATOM     56  N   UNL A   1      40.934  31.041  34.621  1.00  0.00    -0.248 NA
ATOM     57  C   UNL A   1      41.532  31.680  36.785  1.00  0.00     0.031 C 
ATOM     58  C   UNL A   1      42.872  27.761  32.349  1.00  0.00     0.029 A 
ATOM     59  C   UNL A   1      42.273  28.771  33.085  1.00  0.00     0.049 A 
ATOM     60  H   UNL A   1      40.636  30.002  32.570  1.00  0.00     0.167 HD
ATOM     61  C   UNL A   1      41.989  30.251  35.052  1.00  0.00     0.074 A 
ATOM     62  C   UNL A   1      42.337  30.705  36.383  1.00  0.00     0.031 C 
ATOM     63  C   UNL A   1      42.612  29.238  34.404  1.00  0.00     0.037 A 
BRANCH  50  64
ATOM     64  C   UNL A   1      40.294  27.979  28.833  1.00  0.00     0.064 A 
ATOM     65  C   UNL A   1      39.640  26.737  28.822  1.00  0.00     0.173 A 
ATOM     66  C   UNL A   1      41.058  28.329  27.711  1.00  0.00     0.173 A 
ATOM     67  F   UNL A   1      38.902  26.351  29.874  1.00  0.00    -0.203 F 
ATOM     68  C   UNL A   1      39.761  25.873  27.737  1.00  0.00     0.198 A 
ATOM     69  C   UNL A   1      41.155  27.474  26.615  1.00  0.00     0.198 A 
ATOM     70  F   UNL A   1      41.694  29.509  27.669  1.00  0.00    -0.203 F 
ATOM     71  F   UNL A   1      39.154  24.678  27.761  1.00  0.00    -0.200 F 
ATOM     72  C   UNL A   1      40.516  26.244  26.634  1.00  0.00     0.200 A 
ATOM     73  F   UNL A   1      41.869  27.843  25.543  1.00  0.00    -0.200 F 
ATOM     74  F   UNL A   1      40.628  25.414  25.588  1.00  0.00    -0.200 F 
ENDBRANCH  50  64
BRANCH  51  75
ATOM     75  C   UNL A   1      39.505  33.802  36.893  1.00  0.00     0.064 A 
ATOM     76  C   UNL A   1      40.168  35.032  37.006  1.00  0.00     0.173 A 
ATOM     77  C   UNL A   1      38.723  33.378  37.976  1.00  0.00     0.173 A 
ATOM     78  F   UNL A   1      40.932  35.479  35.998  1.00  0.00    -0.203 F 
ATOM     79  C   UNL A   1      40.066  35.800  38.165  1.00  0.00     0.198 A 
ATOM     80  C   UNL A   1      38.601  34.159  39.125  1.00  0.00     0.198 A 
ATOM     81  F   UNL A   1      38.053  32.219  37.906  1.00  0.00    -0.203 F 
ATOM     82  F   UNL A   1      40.733  36.958  38.259  1.00  0.00    -0.200 F 
ATOM     83  C   UNL A   1      39.279  35.365  39.220  1.00  0.00     0.200 A 
ATOM     84  F   UNL A   1      37.821  33.747  40.133  1.00  0.00    -0.200 F 
ATOM     85  F   UNL A   1      39.172  36.110  40.329  1.00  0.00    -0.200 F 
ENDBRANCH  51  75
BRANCH  63  86
ATOM     86  C   UNL A   1      43.744  28.550  35.105  1.00  0.00     0.064 A 
ATOM     87  C   UNL A   1      45.066  28.979  34.911  1.00  0.00     0.173 A 
ATOM     88  C   UNL A   1      43.528  27.410  35.893  1.00  0.00     0.173 A 
ATOM     89  F   UNL A   1      45.323  30.060  34.158  1.00  0.00    -0.203 F 
ATOM     90  C   UNL A   1      46.133  28.278  35.465  1.00  0.00     0.198 A 
ATOM     91  C   UNL A   1      44.597  26.726  36.466  1.00  0.00     0.198 A 
ATOM     92  F   UNL A   1      42.281  26.970  36.117  1.00  0.00    -0.203 F 
ATOM     93  F   UNL A   1      47.390  28.682  35.235  1.00  0.00    -0.200 F 
ATOM     94  C   UNL A   1      45.898  27.153  36.242  1.00  0.00     0.200 A 
ATOM     95  F   UNL A   1      44.368  25.653  37.233  1.00  0.00    -0.200 F 
ATOM     96  F   UNL A   1      46.927  26.481  36.777  1.00  0.00    -0.200 F 
ENDBRANCH  63  86
ENDBRANCH  37  38
ENDBRANCH  29  32
ENDBRANCH  27  28
ENDBRANCH  26  27
ENDBRANCH   1  26
TORSDOF 14
ENDMDL
MODEL 3
REMARK VINA RESULT:     -13.1      6.057     11.356
REMARK SMILES C[C@H](Nc1ccc(C(=O)NCCCCNC(=O)c2ccc(-c3c4nc(c(-c5c(F)c(F)c(F)c(F)c5F)c5ccc([nH]5)c(-c5c(F)c(F)c(F)c(F)c5F)c5nc(c(-c6c(F)c(F)c(F)c(F)c6F)c6ccc3[nH]6)C=C5)C=C4)cc2)c(F)c1F)c1ccccc1Cl
REMARK SMILES IDX 12 1 11 2 10 3 8 4 9 5 7 7 4 8 5 9 83 10 6 11 81 12 84 13
REMARK SMILES IDX 82 14 3 15 2 17 1 18 85 19 86 20 90 21 87 22 89 23 91 24
REMARK SMILES IDX 88 25 13 26 14 27 15 28 16 29 17 31 18 32 19 33 80 34 20 35
REMARK SMILES IDX 79 36 21 37 22 38 23 39 73 40 24 41 78 42 72 43 74 44 25 45
REMARK SMILES IDX 77 46 71 47 70 48 26 50 58 51 38 52 57 53 39 54 42 55 56 56
REMARK SMILES IDX 75 57 40 58 41 59 55 61 76 62 43 63 27 64 28 65 36 66 29 67
REMARK SMILES IDX 30 68 34 69 37 70 31 71 32 72 35 73 33 74 59 75 60 76 68 77
REMARK SMILES IDX 61 78 62 79 66 80 69 81 63 82 64 83 67 84 65 85 44 86 45 87
REMARK SMILES IDX 53 88 46 89 47 90 51 91 54 92 48 93 49 94 52 95 50 96
REMARK H PARENT 10 6 3 16 15 30 74 49 42 60
REMARK Flexibility Score: inf
ROOT
ATOM      1  C   UNL A   1      37.342  21.132  24.624  1.00  0.00     0.023 C 
ENDROOT
BRANCH   1   2
ATOM      2  C   UNL A   1      36.029  21.316  25.381  1.00  0.00     0.116 C 
BRANCH   2   3
ATOM      3  N   UNL A   1      35.128  20.180  25.281  1.00  0.00    -0.352 N 
ATOM      4  C   UNL A   1      33.772  20.153  25.058  1.00  0.00     0.254 C 
ATOM      5  O   UNL A   1      33.191  19.071  25.001  1.00  0.00    -0.269 OA
ATOM      6  H   UNL A   1      35.552  19.299  25.389  1.00  0.00     0.163 HD
BRANCH   4   7
ATOM      7  C   UNL A   1      32.979  21.395  24.981  1.00  0.00     0.078 A 
ATOM      8  C   UNL A   1      31.260  23.608  24.709  1.00  0.00     0.074 A 
ATOM      9  C   UNL A   1      31.777  22.967  23.579  1.00  0.00     0.030 A 
ATOM     10  C   UNL A   1      31.696  23.173  25.970  1.00  0.00     0.182 A 
ATOM     11  C   UNL A   1      32.637  21.872  23.709  1.00  0.00     0.019 A 
ATOM     12  C   UNL A   1      32.559  22.092  26.107  1.00  0.00     0.173 A 
ATOM     13  F   UNL A   1      31.214  23.773  27.073  1.00  0.00    -0.201 F 
ATOM     14  F   UNL A   1      32.935  21.710  27.338  1.00  0.00    -0.203 F 
BRANCH   8  15
ATOM     15  N   UNL A   1      30.271  24.585  24.607  1.00  0.00    -0.376 N 
ATOM     16  H   UNL A   1      29.341  24.378  24.854  1.00  0.00     0.161 HD
BRANCH  15  17
ATOM     17  C   UNL A   1      30.630  25.928  24.128  1.00  0.00     0.108 C 
ATOM     18  C   UNL A   1      29.328  26.701  23.876  1.00  0.00     0.036 C 
BRANCH  17  19
ATOM     19  C   UNL A   1      31.525  26.668  25.110  1.00  0.00    -0.007 A 
ATOM     20  C   UNL A   1      31.028  27.122  26.347  1.00  0.00     0.007 A 
ATOM     21  C   UNL A   1      32.869  26.959  24.802  1.00  0.00     0.046 A 
ATOM     22  C   UNL A   1      31.834  27.835  27.238  1.00  0.00     0.000 A 
ATOM     23  C   UNL A   1      33.673  27.681  25.693  1.00  0.00     0.021 A 
ATOM     24  Cl  UNL A   1      33.612  26.445  23.326  1.00  0.00    -0.084 Cl
ATOM     25  C   UNL A   1      33.156  28.119  26.909  1.00  0.00     0.002 A 
ENDBRANCH  17  19
ENDBRANCH  15  17
ENDBRANCH   8  15
ENDBRANCH   4   7
ENDBRANCH   2   3
ENDBRANCH   1   2
BRANCH   1  26
ATOM     26  C   UNL A   1      38.177  19.910  25.002  1.00  0.00     0.023 C 
BRANCH  26  27
ATOM     27  C   UNL A   1      39.342  20.157  25.956  1.00  0.00     0.116 C 
BRANCH  27  28
ATOM     28  N   UNL A   1      40.355  19.114  25.924  1.00  0.00    -0.352 N 
ATOM     29  C   UNL A   1      41.719  19.195  26.096  1.00  0.00     0.251 C 
ATOM     30  H   UNL A   1      40.013  18.207  25.752  1.00  0.00     0.163 HD
ATOM     31  O   UNL A   1      42.413  18.197  25.949  1.00  0.00    -0.269 OA
BRANCH  29  32
ATOM     32  C   UNL A   1      42.359  20.492  26.413  1.00  0.00     0.039 A 
ATOM     33  C   UNL A   1      42.966  21.208  25.377  1.00  0.00     0.014 A 
ATOM     34  C   UNL A   1      42.363  21.007  27.711  1.00  0.00     0.014 A 
ATOM     35  C   UNL A   1      43.489  22.480  25.623  1.00  0.00     0.010 A 
ATOM     36  C   UNL A   1      42.813  22.306  27.939  1.00  0.00     0.010 A 
ATOM     37  C   UNL A   1      43.372  23.060  26.896  1.00  0.00    -0.014 A 
BRANCH  37  38
ATOM     38  C   UNL A   1      43.807  24.457  27.150  1.00  0.00     0.031 A 
ATOM     39  C   UNL A   1      42.825  25.481  27.647  1.00  0.00     0.074 A 
ATOM     40  C   UNL A   1      45.072  24.825  26.861  1.00  0.00     0.049 A 
ATOM     41  N   UNL A   1      42.996  26.765  27.839  1.00  0.00    -0.248 NA
ATOM     42  C   UNL A   1      41.463  25.006  27.939  1.00  0.00     0.031 C 
ATOM     43  C   UNL A   1      46.106  23.939  26.321  1.00  0.00     0.029 A 
ATOM     44  N   UNL A   1      45.701  26.041  26.967  1.00  0.00    -0.354 N 
ATOM     45  C   UNL A   1      41.762  27.252  28.250  1.00  0.00     0.074 A 
ATOM     46  C   UNL A   1      40.840  26.137  28.241  1.00  0.00     0.031 C 
ATOM     47  C   UNL A   1      47.243  24.635  26.165  1.00  0.00     0.029 A 
ATOM     48  C   UNL A   1      47.012  26.022  26.557  1.00  0.00     0.049 A 
ATOM     49  H   UNL A   1      45.254  26.851  27.305  1.00  0.00     0.167 HD
ATOM     50  C   UNL A   1      41.436  28.511  28.625  1.00  0.00     0.037 A 
ATOM     51  C   UNL A   1      47.925  27.012  26.496  1.00  0.00     0.037 A 
ATOM     52  C   UNL A   1      42.365  29.607  28.682  1.00  0.00     0.049 A 
ATOM     53  C   UNL A   1      47.542  28.396  26.941  1.00  0.00     0.074 A 
ATOM     54  C   UNL A   1      42.144  30.898  29.128  1.00  0.00     0.029 A 
ATOM     55  N   UNL A   1      43.692  29.541  28.286  1.00  0.00    -0.354 N 
ATOM     56  N   UNL A   1      46.390  28.829  27.391  1.00  0.00    -0.248 NA
ATOM     57  C   UNL A   1      48.585  29.431  26.876  1.00  0.00     0.031 C 
ATOM     58  C   UNL A   1      43.327  31.624  28.967  1.00  0.00     0.029 A 
ATOM     59  C   UNL A   1      44.297  30.774  28.460  1.00  0.00     0.049 A 
ATOM     60  H   UNL A   1      44.138  28.736  27.933  1.00  0.00     0.167 HD
ATOM     61  C   UNL A   1      46.571  30.174  27.678  1.00  0.00     0.074 A 
ATOM     62  C   UNL A   1      47.950  30.487  27.367  1.00  0.00     0.031 C 
ATOM     63  C   UNL A   1      45.673  31.069  28.153  1.00  0.00     0.037 A 
BRANCH  50  64
ATOM     64  C   UNL A   1      40.017  28.779  29.027  1.00  0.00     0.064 A 
ATOM     65  C   UNL A   1      39.603  28.578  30.353  1.00  0.00     0.173 A 
ATOM     66  C   UNL A   1      39.047  29.152  28.085  1.00  0.00     0.173 A 
ATOM     67  F   UNL A   1      40.490  28.213  31.292  1.00  0.00    -0.203 F 
ATOM     68  C   UNL A   1      38.268  28.728  30.717  1.00  0.00     0.198 A 
ATOM     69  C   UNL A   1      37.717  29.327  28.459  1.00  0.00     0.198 A 
ATOM     70  F   UNL A   1      39.395  29.365  26.808  1.00  0.00    -0.203 F 
ATOM     71  F   UNL A   1      37.889  28.499  31.983  1.00  0.00    -0.200 F 
ATOM     72  C   UNL A   1      37.327  29.104  29.770  1.00  0.00     0.200 A 
ATOM     73  F   UNL A   1      36.813  29.711  27.546  1.00  0.00    -0.200 F 
ATOM     74  F   UNL A   1      36.043  29.254  30.123  1.00  0.00    -0.200 F 
ENDBRANCH  50  64
BRANCH  51  75
ATOM     75  C   UNL A   1      49.301  26.715  26.019  1.00  0.00     0.064 A 
ATOM     76  C   UNL A   1      49.679  26.943  24.688  1.00  0.00     0.173 A 
ATOM     77  C   UNL A   1      50.259  26.175  26.887  1.00  0.00     0.173 A 
ATOM     78  F   UNL A   1      48.797  27.455  23.817  1.00  0.00    -0.203 F 
ATOM     79  C   UNL A   1      50.960  26.626  24.240  1.00  0.00     0.198 A 
ATOM     80  C   UNL A   1      51.547  25.881  26.444  1.00  0.00     0.198 A 
ATOM     81  F   UNL A   1      49.951  25.959  28.174  1.00  0.00    -0.203 F 
ATOM     82  F   UNL A   1      51.287  26.826  22.956  1.00  0.00    -0.200 F 
ATOM     83  C   UNL A   1      51.894  26.100  25.119  1.00  0.00     0.200 A 
ATOM     84  F   UNL A   1      52.455  25.396  27.303  1.00  0.00    -0.200 F 
ATOM     85  F   UNL A   1      53.129  25.807  24.691  1.00  0.00    -0.200 F 
ENDBRANCH  51  75
BRANCH  63  86
ATOM     86  C   UNL A   1      46.141  32.474  28.385  1.00  0.00     0.064 A 
ATOM     87  C   UNL A   1      46.630  32.862  29.642  1.00  0.00     0.173 A 
ATOM     88  C   UNL A   1      46.018  33.457  27.392  1.00  0.00     0.173 A 
ATOM     89  F   UNL A   1      46.759  31.959  30.626  1.00  0.00    -0.203 F 
ATOM     90  C   UNL A   1      46.961  34.190  29.901  1.00  0.00     0.198 A 
ATOM     91  C   UNL A   1      46.372  34.778  27.649  1.00  0.00     0.198 A 
ATOM     92  F   UNL A   1      45.566  33.130  26.172  1.00  0.00    -0.203 F 
ATOM     93  F   UNL A   1      47.389  34.545  31.120  1.00  0.00    -0.200 F 
ATOM     94  C   UNL A   1      46.831  35.146  28.905  1.00  0.00     0.200 A 
ATOM     95  F   UNL A   1      46.268  35.697  26.680  1.00  0.00    -0.200 F 
ATOM     96  F   UNL A   1      47.152  36.423  29.156  1.00  0.00    -0.200 F 
ENDBRANCH  63  86
ENDBRANCH  37  38
ENDBRANCH  29  32
ENDBRANCH  27  28
ENDBRANCH  26  27
ENDBRANCH   1  26
TORSDOF 14
ENDMDL
