MODEL 1
REMARK VINA RESULT:     -13.4      0.000      0.000
REMARK SMILES O=C(NCCCCNC(=O)c1cc(-c2ccccc2)nc(Nc2nc3ccccc3s2)n1)c1ccc(-c2c3nc(c(-c4c(F)c(F)c(F)c(F)c4F)c4ccc([nH]4)c(-c4c(F)c(F)c(F)c(F)c4F)c4nc(c(-c5c(F)c(F)c(F)c(F)c5F)c5ccc2[nH]5)C=C4)C=C3)cc1
REMARK SMILES IDX 5 1 4 2 3 3 1 4 2 5 33 7 34 8 95 9 35 10 94 11 36 12 37 13
REMARK SMILES IDX 38 14 88 15 39 16 93 17 87 18 89 19 40 20 92 21 86 22 85 23
REMARK SMILES IDX 41 25 73 26 53 27 72 28 54 29 57 30 71 31 90 32 55 33 56 34
REMARK SMILES IDX 70 36 91 37 58 38 42 39 43 40 51 41 44 42 45 43 49 44 52 45
REMARK SMILES IDX 46 46 47 47 50 48 48 49 74 50 75 51 83 52 76 53 77 54 81 55
REMARK SMILES IDX 84 56 78 57 79 58 82 59 80 60 59 61 60 62 68 63 61 64 62 65
REMARK SMILES IDX 66 66 69 67 63 68 64 69 67 70 65 71 6 72 7 73 8 74 9 75
REMARK SMILES IDX 10 77 11 78 12 79 32 80 13 81 21 82 20 83 14 84 15 85 19 86
REMARK SMILES IDX 16 87 18 88 17 89 22 90 23 92 24 93 31 94 25 95 30 96 26 97
REMARK SMILES IDX 29 98 27 99 28 100
REMARK H PARENT 3 6 89 24 57 35 8 76 22 91
REMARK Flexibility Score: inf
ROOT
ATOM      1  C   UNL A   1      31.381  32.172  26.795  1.00  0.00     0.023 C 
ENDROOT
BRANCH   1   2
ATOM      2  C   UNL A   1      32.638  32.919  27.221  1.00  0.00     0.116 C 
BRANCH   2   3
ATOM      3  N   UNL A   1      32.375  34.270  27.688  1.00  0.00    -0.352 N 
ATOM      4  O   UNL A   1      32.581  36.084  29.015  1.00  0.00    -0.269 OA
ATOM      5  C   UNL A   1      33.008  34.990  28.676  1.00  0.00     0.251 C 
ATOM      6  H   UNL A   1      31.638  34.738  27.231  1.00  0.00     0.163 HD
BRANCH   5   7
ATOM      7  C   UNL A   1      34.193  34.415  29.354  1.00  0.00     0.039 A 
ATOM      8  C   UNL A   1      35.477  34.632  28.852  1.00  0.00     0.014 A 
ATOM      9  C   UNL A   1      34.007  33.637  30.500  1.00  0.00     0.014 A 
ATOM     10  C   UNL A   1      36.555  33.946  29.401  1.00  0.00     0.010 A 
ATOM     11  C   UNL A   1      35.106  33.018  31.105  1.00  0.00     0.010 A 
ATOM     12  C   UNL A   1      36.383  33.139  30.538  1.00  0.00    -0.014 A 
BRANCH  12  13
ATOM     13  C   UNL A   1      37.569  32.476  31.138  1.00  0.00     0.031 A 
ATOM     14  C   UNL A   1      38.044  32.827  32.521  1.00  0.00     0.074 A 
ATOM     15  C   UNL A   1      38.191  31.512  30.433  1.00  0.00     0.049 A 
ATOM     16  N   UNL A   1      39.042  32.321  33.202  1.00  0.00    -0.248 NA
ATOM     17  C   UNL A   1      37.313  33.888  33.230  1.00  0.00     0.031 C 
ATOM     18  C   UNL A   1      37.827  31.094  29.078  1.00  0.00     0.029 A 
ATOM     19  N   UNL A   1      39.242  30.694  30.761  1.00  0.00    -0.354 N 
ATOM     20  C   UNL A   1      39.063  33.003  34.412  1.00  0.00     0.074 A 
ATOM     21  C   UNL A   1      37.998  33.982  34.361  1.00  0.00     0.031 C 
ATOM     22  C   UNL A   1      38.607  30.070  28.708  1.00  0.00     0.029 A 
ATOM     23  C   UNL A   1      39.563  29.794  29.775  1.00  0.00     0.049 A 
ATOM     24  H   UNL A   1      39.720  30.746  31.620  1.00  0.00     0.167 HD
ATOM     25  C   UNL A   1      39.889  32.818  35.470  1.00  0.00     0.037 A 
ATOM     26  C   UNL A   1      40.529  28.859  29.727  1.00  0.00     0.037 A 
ATOM     27  C   UNL A   1      40.942  31.836  35.520  1.00  0.00     0.049 A 
ATOM     28  C   UNL A   1      41.438  28.689  30.909  1.00  0.00     0.074 A 
ATOM     29  C   UNL A   1      41.826  31.566  36.551  1.00  0.00     0.029 A 
ATOM     30  N   UNL A   1      41.250  30.956  34.491  1.00  0.00    -0.354 N 
ATOM     31  N   UNL A   1      41.434  29.330  32.053  1.00  0.00    -0.248 NA
ATOM     32  C   UNL A   1      42.487  27.668  30.793  1.00  0.00     0.031 C 
ATOM     33  C   UNL A   1      42.691  30.549  36.134  1.00  0.00     0.029 A 
ATOM     34  C   UNL A   1      42.320  30.154  34.859  1.00  0.00     0.049 A 
ATOM     35  H   UNL A   1      40.780  30.909  33.629  1.00  0.00     0.167 HD
ATOM     36  C   UNL A   1      42.470  28.784  32.797  1.00  0.00     0.074 A 
ATOM     37  C   UNL A   1      43.063  27.741  31.984  1.00  0.00     0.031 C 
ATOM     38  C   UNL A   1      42.897  29.122  34.038  1.00  0.00     0.037 A 
BRANCH  25  39
ATOM     39  C   UNL A   1      39.696  33.703  36.668  1.00  0.00     0.064 A 
ATOM     40  C   UNL A   1      40.303  34.964  36.754  1.00  0.00     0.173 A 
ATOM     41  C   UNL A   1      38.848  33.310  37.715  1.00  0.00     0.173 A 
ATOM     42  F   UNL A   1      41.130  35.383  35.785  1.00  0.00    -0.203 F 
ATOM     43  C   UNL A   1      40.081  35.793  37.852  1.00  0.00     0.198 A 
ATOM     44  C   UNL A   1      38.609  34.150  38.799  1.00  0.00     0.198 A 
ATOM     45  F   UNL A   1      38.237  32.116  37.679  1.00  0.00    -0.203 F 
ATOM     46  F   UNL A   1      40.698  36.980  37.929  1.00  0.00    -0.200 F 
ATOM     47  C   UNL A   1      39.229  35.389  38.869  1.00  0.00     0.200 A 
ATOM     48  F   UNL A   1      37.777  33.763  39.776  1.00  0.00    -0.200 F 
ATOM     49  F   UNL A   1      39.010  36.191  39.920  1.00  0.00    -0.200 F 
ENDBRANCH  25  39
BRANCH  26  50
ATOM     50  C   UNL A   1      40.679  28.017  28.514  1.00  0.00     0.064 A 
ATOM     51  C   UNL A   1      41.459  28.442  27.430  1.00  0.00     0.173 A 
ATOM     52  C   UNL A   1      40.054  26.764  28.419  1.00  0.00     0.173 A 
ATOM     53  F   UNL A   1      42.061  29.640  27.468  1.00  0.00    -0.203 F 
ATOM     54  C   UNL A   1      41.595  27.653  26.291  1.00  0.00     0.198 A 
ATOM     55  C   UNL A   1      40.216  25.963  27.292  1.00  0.00     0.198 A 
ATOM     56  F   UNL A   1      39.303  26.310  29.433  1.00  0.00    -0.203 F 
ATOM     57  F   UNL A   1      42.312  28.101  25.251  1.00  0.00    -0.200 F 
ATOM     58  C   UNL A   1      40.979  26.412  26.225  1.00  0.00     0.200 A 
ATOM     59  F   UNL A   1      39.633  24.759  27.240  1.00  0.00    -0.200 F 
ATOM     60  F   UNL A   1      41.116  25.651  25.131  1.00  0.00    -0.200 F 
ENDBRANCH  26  50
BRANCH  38  61
ATOM     61  C   UNL A   1      44.048  28.338  34.594  1.00  0.00     0.064 A 
ATOM     62  C   UNL A   1      45.373  28.768  34.427  1.00  0.00     0.173 A 
ATOM     63  C   UNL A   1      43.822  27.155  35.312  1.00  0.00     0.173 A 
ATOM     64  F   UNL A   1      45.639  29.883  33.732  1.00  0.00    -0.203 F 
ATOM     65  C   UNL A   1      46.433  28.023  34.936  1.00  0.00     0.198 A 
ATOM     66  C   UNL A   1      44.884  26.428  35.842  1.00  0.00     0.198 A 
ATOM     67  F   UNL A   1      42.572  26.706  35.500  1.00  0.00    -0.203 F 
ATOM     68  F   UNL A   1      47.694  28.424  34.722  1.00  0.00    -0.200 F 
ATOM     69  C   UNL A   1      46.188  26.857  35.647  1.00  0.00     0.200 A 
ATOM     70  F   UNL A   1      44.645  25.305  36.535  1.00  0.00    -0.200 F 
ATOM     71  F   UNL A   1      47.210  26.142  36.134  1.00  0.00    -0.200 F 
ENDBRANCH  38  61
ENDBRANCH  12  13
ENDBRANCH   5   7
ENDBRANCH   2   3
ENDBRANCH   1   2
BRANCH   1  72
ATOM     72  C   UNL A   1      31.611  30.795  26.182  1.00  0.00     0.023 C 
BRANCH  72  73
ATOM     73  C   UNL A   1      31.977  29.692  27.168  1.00  0.00     0.116 C 
BRANCH  73  74
ATOM     74  N   UNL A   1      33.387  29.680  27.522  1.00  0.00    -0.351 N 
ATOM     75  C   UNL A   1      34.389  28.867  27.039  1.00  0.00     0.270 C 
ATOM     76  H   UNL A   1      33.662  30.341  28.198  1.00  0.00     0.163 HD
ATOM     77  O   UNL A   1      35.540  29.002  27.440  1.00  0.00    -0.268 OA
BRANCH  75  78
ATOM     78  C   UNL A   1      34.053  27.855  26.011  1.00  0.00     0.134 A 
ATOM     79  C   UNL A   1      34.318  26.537  26.246  1.00  0.00     0.063 A 
ATOM     80  N   UNL A   1      33.601  28.335  24.849  1.00  0.00    -0.207 NA
ATOM     81  C   UNL A   1      34.171  25.713  25.155  1.00  0.00     0.077 A 
ATOM     82  C   UNL A   1      33.418  27.470  23.851  1.00  0.00     0.230 A 
ATOM     83  N   UNL A   1      33.709  26.161  23.961  1.00  0.00    -0.213 NA
BRANCH  81  84
ATOM     84  C   UNL A   1      34.648  24.324  25.223  1.00  0.00     0.000 A 
ATOM     85  C   UNL A   1      34.389  23.533  26.355  1.00  0.00     0.010 A 
ATOM     86  C   UNL A   1      35.262  23.711  24.115  1.00  0.00     0.010 A 
ATOM     87  C   UNL A   1      34.697  22.170  26.365  1.00  0.00     0.001 A 
ATOM     88  C   UNL A   1      35.576  22.350  24.126  1.00  0.00     0.001 A 
ATOM     89  C   UNL A   1      35.283  21.579  25.247  1.00  0.00     0.000 A 
ENDBRANCH  81  84
BRANCH  82  90
ATOM     90  N   UNL A   1      32.842  27.904  22.660  1.00  0.00    -0.300 N 
ATOM     91  H   UNL A   1      33.394  27.910  21.845  1.00  0.00     0.172 HD
BRANCH  90  92
ATOM     92  C   UNL A   1      31.561  28.318  22.570  1.00  0.00     0.190 A 
ATOM     93  N   UNL A   1      31.177  29.547  22.309  1.00  0.00    -0.220 NA
ATOM     94  S   UNL A   1      30.257  27.213  22.816  1.00  0.00    -0.097 S 
ATOM     95  C   UNL A   1      29.826  29.700  22.527  1.00  0.00     0.084 A 
ATOM     96  C   UNL A   1      29.141  28.530  22.846  1.00  0.00     0.056 A 
ATOM     97  C   UNL A   1      29.120  30.918  22.476  1.00  0.00     0.030 A 
ATOM     98  C   UNL A   1      27.765  28.538  23.133  1.00  0.00     0.021 A 
ATOM     99  C   UNL A   1      27.757  30.942  22.773  1.00  0.00     0.002 A 
ATOM    100  C   UNL A   1      27.091  29.766  23.103  1.00  0.00     0.002 A 
ENDBRANCH  90  92
ENDBRANCH  82  90
ENDBRANCH  75  78
ENDBRANCH  73  74
ENDBRANCH  72  73
ENDBRANCH   1  72
TORSDOF 14
ENDMDL
MODEL 2
REMARK VINA RESULT:     -13.3      2.615      4.977
REMARK SMILES O=C(NCCCCNC(=O)c1cc(-c2ccccc2)nc(Nc2nc3ccccc3s2)n1)c1ccc(-c2c3nc(c(-c4c(F)c(F)c(F)c(F)c4F)c4ccc([nH]4)c(-c4c(F)c(F)c(F)c(F)c4F)c4nc(c(-c5c(F)c(F)c(F)c(F)c5F)c5ccc2[nH]5)C=C4)C=C3)cc1
REMARK SMILES IDX 5 1 4 2 3 3 1 4 2 5 33 7 34 8 95 9 35 10 94 11 36 12 37 13
REMARK SMILES IDX 38 14 88 15 39 16 93 17 87 18 89 19 40 20 92 21 86 22 85 23
REMARK SMILES IDX 41 25 73 26 53 27 72 28 54 29 57 30 71 31 90 32 55 33 56 34
REMARK SMILES IDX 70 36 91 37 58 38 42 39 43 40 51 41 44 42 45 43 49 44 52 45
REMARK SMILES IDX 46 46 47 47 50 48 48 49 74 50 75 51 83 52 76 53 77 54 81 55
REMARK SMILES IDX 84 56 78 57 79 58 82 59 80 60 59 61 60 62 68 63 61 64 62 65
REMARK SMILES IDX 66 66 69 67 63 68 64 69 67 70 65 71 6 72 7 73 8 74 9 75
REMARK SMILES IDX 10 77 11 78 12 79 32 80 13 81 21 82 20 83 14 84 15 85 19 86
REMARK SMILES IDX 16 87 18 88 17 89 22 90 23 92 24 93 31 94 25 95 30 96 26 97
REMARK SMILES IDX 29 98 27 99 28 100
REMARK H PARENT 3 6 89 24 57 35 8 76 22 91
REMARK Flexibility Score: inf
ROOT
ATOM      1  C   UNL A   1      32.509  29.077  24.566  1.00  0.00     0.023 C 
ENDROOT
BRANCH   1   2
ATOM      2  C   UNL A   1      33.261  29.545  25.805  1.00  0.00     0.116 C 
BRANCH   2   3
ATOM      3  N   UNL A   1      32.851  30.861  26.266  1.00  0.00    -0.352 N 
ATOM      4  O   UNL A   1      32.882  32.709  27.560  1.00  0.00    -0.269 OA
ATOM      5  C   UNL A   1      33.428  31.670  27.217  1.00  0.00     0.251 C 
ATOM      6  H   UNL A   1      32.044  31.225  25.834  1.00  0.00     0.163 HD
BRANCH   5   7
ATOM      7  C   UNL A   1      34.702  31.259  27.851  1.00  0.00     0.039 A 
ATOM      8  C   UNL A   1      34.863  29.969  28.357  1.00  0.00     0.014 A 
ATOM      9  C   UNL A   1      35.742  32.189  27.950  1.00  0.00     0.014 A 
ATOM     10  C   UNL A   1      35.998  29.657  29.097  1.00  0.00     0.010 A 
ATOM     11  C   UNL A   1      36.920  31.844  28.619  1.00  0.00     0.010 A 
ATOM     12  C   UNL A   1      37.043  30.587  29.229  1.00  0.00    -0.014 A 
BRANCH  12  13
ATOM     13  C   UNL A   1      38.269  30.196  29.969  1.00  0.00     0.031 A 
ATOM     14  C   UNL A   1      38.515  30.664  31.377  1.00  0.00     0.074 A 
ATOM     15  C   UNL A   1      39.145  29.369  29.368  1.00  0.00     0.049 A 
ATOM     16  N   UNL A   1      39.518  30.388  32.173  1.00  0.00    -0.248 NA
ATOM     17  C   UNL A   1      37.512  31.563  31.967  1.00  0.00     0.031 C 
ATOM     18  C   UNL A   1      39.017  28.859  28.001  1.00  0.00     0.029 A 
ATOM     19  N   UNL A   1      40.301  28.792  29.830  1.00  0.00    -0.354 N 
ATOM     20  C   UNL A   1      39.274  31.082  33.351  1.00  0.00     0.074 A 
ATOM     21  C   UNL A   1      38.042  31.818  33.156  1.00  0.00     0.031 C 
ATOM     22  C   UNL A   1      40.024  28.012  27.751  1.00  0.00     0.029 A 
ATOM     23  C   UNL A   1      40.900  27.960  28.917  1.00  0.00     0.049 A 
ATOM     24  H   UNL A   1      40.665  28.959  30.730  1.00  0.00     0.167 HD
ATOM     25  C   UNL A   1      40.004  31.093  34.491  1.00  0.00     0.037 A 
ATOM     26  C   UNL A   1      42.036  27.244  29.002  1.00  0.00     0.037 A 
ATOM     27  C   UNL A   1      41.224  30.350  34.684  1.00  0.00     0.049 A 
ATOM     28  C   UNL A   1      42.832  27.289  30.274  1.00  0.00     0.074 A 
ATOM     29  C   UNL A   1      42.032  30.289  35.807  1.00  0.00     0.029 A 
ATOM     30  N   UNL A   1      41.811  29.535  33.727  1.00  0.00    -0.354 N 
ATOM     31  N   UNL A   1      42.577  27.936  31.385  1.00  0.00    -0.248 NA
ATOM     32  C   UNL A   1      44.073  26.505  30.303  1.00  0.00     0.031 C 
ATOM     33  C   UNL A   1      43.125  29.465  35.518  1.00  0.00     0.029 A 
ATOM     34  C   UNL A   1      42.978  28.978  34.230  1.00  0.00     0.049 A 
ATOM     35  H   UNL A   1      41.453  29.375  32.825  1.00  0.00     0.167 HD
ATOM     36  C   UNL A   1      43.619  27.631  32.249  1.00  0.00     0.074 A 
ATOM     37  C   UNL A   1      44.494  26.718  31.541  1.00  0.00     0.031 C 
ATOM     38  C   UNL A   1      43.836  28.072  33.511  1.00  0.00     0.037 A 
BRANCH  25  39
ATOM     39  C   UNL A   1      39.510  31.940  35.629  1.00  0.00     0.064 A 
ATOM     40  C   UNL A   1      38.548  31.466  36.532  1.00  0.00     0.173 A 
ATOM     41  C   UNL A   1      40.047  33.217  35.853  1.00  0.00     0.173 A 
ATOM     42  F   UNL A   1      37.996  30.256  36.357  1.00  0.00    -0.203 F 
ATOM     43  C   UNL A   1      38.129  32.245  37.608  1.00  0.00     0.198 A 
ATOM     44  C   UNL A   1      39.645  33.984  36.943  1.00  0.00     0.198 A 
ATOM     45  F   UNL A   1      40.976  33.715  35.022  1.00  0.00    -0.203 F 
ATOM     46  F   UNL A   1      37.185  31.785  38.439  1.00  0.00    -0.200 F 
ATOM     47  C   UNL A   1      38.683  33.500  37.817  1.00  0.00     0.200 A 
ATOM     48  F   UNL A   1      40.189  35.191  37.149  1.00  0.00    -0.200 F 
ATOM     49  F   UNL A   1      38.286  34.244  38.858  1.00  0.00    -0.200 F 
ENDBRANCH  25  39
BRANCH  26  50
ATOM     50  C   UNL A   1      42.481  26.429  27.844  1.00  0.00     0.064 A 
ATOM     51  C   UNL A   1      43.379  26.944  26.900  1.00  0.00     0.173 A 
ATOM     52  C   UNL A   1      42.025  25.115  27.665  1.00  0.00     0.173 A 
ATOM     53  F   UNL A   1      43.828  28.202  27.019  1.00  0.00    -0.203 F 
ATOM     54  C   UNL A   1      43.792  26.179  25.811  1.00  0.00     0.198 A 
ATOM     55  C   UNL A   1      42.462  24.341  26.593  1.00  0.00     0.198 A 
ATOM     56  F   UNL A   1      41.170  24.575  28.546  1.00  0.00    -0.203 F 
ATOM     57  F   UNL A   1      44.619  26.709  24.899  1.00  0.00    -0.200 F 
ATOM     58  C   UNL A   1      43.339  24.877  25.662  1.00  0.00     0.200 A 
ATOM     59  F   UNL A   1      42.035  23.079  26.463  1.00  0.00    -0.200 F 
ATOM     60  F   UNL A   1      43.742  24.140  24.618  1.00  0.00    -0.200 F 
ENDBRANCH  26  50
BRANCH  38  61
ATOM     61  C   UNL A   1      45.058  27.555  34.209  1.00  0.00     0.064 A 
ATOM     62  C   UNL A   1      45.019  26.385  34.981  1.00  0.00     0.173 A 
ATOM     63  C   UNL A   1      46.282  28.231  34.093  1.00  0.00     0.173 A 
ATOM     64  F   UNL A   1      43.867  25.716  35.136  1.00  0.00    -0.203 F 
ATOM     65  C   UNL A   1      46.158  25.924  35.635  1.00  0.00     0.198 A 
ATOM     66  C   UNL A   1      47.424  27.751  34.728  1.00  0.00     0.198 A 
ATOM     67  F   UNL A   1      46.369  29.352  33.362  1.00  0.00    -0.203 F 
ATOM     68  F   UNL A   1      46.087  24.832  36.409  1.00  0.00    -0.200 F 
ATOM     69  C   UNL A   1      47.360  26.605  35.505  1.00  0.00     0.200 A 
ATOM     70  F   UNL A   1      48.587  28.405  34.594  1.00  0.00    -0.200 F 
ATOM     71  F   UNL A   1      48.454  26.160  36.137  1.00  0.00    -0.200 F 
ENDBRANCH  38  61
ENDBRANCH  12  13
ENDBRANCH   5   7
ENDBRANCH   2   3
ENDBRANCH   1   2
BRANCH   1  72
ATOM     72  C   UNL A   1      31.321  28.157  24.827  1.00  0.00     0.023 C 
BRANCH  72  73
ATOM     73  C   UNL A   1      31.415  26.771  24.199  1.00  0.00     0.116 C 
BRANCH  73  74
ATOM     74  N   UNL A   1      32.188  26.748  22.968  1.00  0.00    -0.351 N 
ATOM     75  C   UNL A   1      33.158  25.850  22.578  1.00  0.00     0.270 C 
ATOM     76  H   UNL A   1      31.992  27.470  22.328  1.00  0.00     0.163 HD
ATOM     77  O   UNL A   1      33.707  25.971  21.488  1.00  0.00    -0.268 OA
BRANCH  75  78
ATOM     78  C   UNL A   1      33.499  24.731  23.485  1.00  0.00     0.134 A 
ATOM     79  C   UNL A   1      34.742  24.668  24.047  1.00  0.00     0.063 A 
ATOM     80  N   UNL A   1      32.573  23.775  23.603  1.00  0.00    -0.207 NA
ATOM     81  C   UNL A   1      35.028  23.487  24.692  1.00  0.00     0.077 A 
ATOM     82  C   UNL A   1      32.894  22.683  24.298  1.00  0.00     0.230 A 
ATOM     83  N   UNL A   1      34.112  22.497  24.838  1.00  0.00    -0.213 NA
BRANCH  81  84
ATOM     84  C   UNL A   1      36.404  23.213  25.131  1.00  0.00     0.000 A 
ATOM     85  C   UNL A   1      37.118  24.163  25.879  1.00  0.00     0.010 A 
ATOM     86  C   UNL A   1      36.995  21.953  24.925  1.00  0.00     0.010 A 
ATOM     87  C   UNL A   1      38.362  23.851  26.436  1.00  0.00     0.001 A 
ATOM     88  C   UNL A   1      38.240  21.643  25.476  1.00  0.00     0.001 A 
ATOM     89  C   UNL A   1      38.917  22.588  26.240  1.00  0.00     0.000 A 
ENDBRANCH  81  84
BRANCH  82  90
ATOM     90  N   UNL A   1      31.925  21.714  24.544  1.00  0.00    -0.300 N 
ATOM     91  H   UNL A   1      31.024  22.008  24.812  1.00  0.00     0.172 HD
BRANCH  90  92
ATOM     92  C   UNL A   1      32.162  20.391  24.430  1.00  0.00     0.190 A 
ATOM     93  N   UNL A   1      32.185  19.536  25.428  1.00  0.00    -0.220 NA
ATOM     94  S   UNL A   1      32.484  19.680  22.891  1.00  0.00    -0.097 S 
ATOM     95  C   UNL A   1      32.692  18.321  25.027  1.00  0.00     0.084 A 
ATOM     96  C   UNL A   1      32.949  18.208  23.663  1.00  0.00     0.056 A 
ATOM     97  C   UNL A   1      32.980  17.233  25.874  1.00  0.00     0.030 A 
ATOM     98  C   UNL A   1      33.505  17.039  23.114  1.00  0.00     0.021 A 
ATOM     99  C   UNL A   1      33.546  16.073  25.344  1.00  0.00     0.002 A 
ATOM    100  C   UNL A   1      33.808  15.982  23.980  1.00  0.00     0.002 A 
ENDBRANCH  90  92
ENDBRANCH  82  90
ENDBRANCH  75  78
ENDBRANCH  73  74
ENDBRANCH  72  73
ENDBRANCH   1  72
TORSDOF 14
ENDMDL
MODEL 3
REMARK VINA RESULT:     -13.3      5.403     10.665
REMARK SMILES O=C(NCCCCNC(=O)c1cc(-c2ccccc2)nc(Nc2nc3ccccc3s2)n1)c1ccc(-c2c3nc(c(-c4c(F)c(F)c(F)c(F)c4F)c4ccc([nH]4)c(-c4c(F)c(F)c(F)c(F)c4F)c4nc(c(-c5c(F)c(F)c(F)c(F)c5F)c5ccc2[nH]5)C=C4)C=C3)cc1
REMARK SMILES IDX 5 1 4 2 3 3 1 4 2 5 33 7 34 8 95 9 35 10 94 11 36 12 37 13
REMARK SMILES IDX 38 14 88 15 39 16 93 17 87 18 89 19 40 20 92 21 86 22 85 23
REMARK SMILES IDX 41 25 73 26 53 27 72 28 54 29 57 30 71 31 90 32 55 33 56 34
REMARK SMILES IDX 70 36 91 37 58 38 42 39 43 40 51 41 44 42 45 43 49 44 52 45
REMARK SMILES IDX 46 46 47 47 50 48 48 49 74 50 75 51 83 52 76 53 77 54 81 55
REMARK SMILES IDX 84 56 78 57 79 58 82 59 80 60 59 61 60 62 68 63 61 64 62 65
REMARK SMILES IDX 66 66 69 67 63 68 64 69 67 70 65 71 6 72 7 73 8 74 9 75
REMARK SMILES IDX 10 77 11 78 12 79 32 80 13 81 21 82 20 83 14 84 15 85 19 86
REMARK SMILES IDX 16 87 18 88 17 89 22 90 23 92 24 93 31 94 25 95 30 96 26 97
REMARK SMILES IDX 29 98 27 99 28 100
REMARK H PARENT 3 6 89 24 57 35 8 76 22 91
REMARK Flexibility Score: inf
ROOT
ATOM      1  C   UNL A   1      38.077  19.861  24.818  1.00  0.00     0.023 C 
ENDROOT
BRANCH   1   2
ATOM      2  C   UNL A   1      39.143  20.161  25.864  1.00  0.00     0.116 C 
BRANCH   2   3
ATOM      3  N   UNL A   1      40.194  19.159  25.919  1.00  0.00    -0.352 N 
ATOM      4  O   UNL A   1      42.306  18.371  26.031  1.00  0.00    -0.269 OA
ATOM      5  C   UNL A   1      41.545  19.323  26.126  1.00  0.00     0.251 C 
ATOM      6  H   UNL A   1      39.897  18.228  25.790  1.00  0.00     0.163 HD
BRANCH   5   7
ATOM      7  C   UNL A   1      42.079  20.670  26.431  1.00  0.00     0.039 A 
ATOM      8  C   UNL A   1      42.290  21.072  27.751  1.00  0.00     0.014 A 
ATOM      9  C   UNL A   1      42.358  21.544  25.376  1.00  0.00     0.014 A 
ATOM     10  C   UNL A   1      42.629  22.393  28.022  1.00  0.00     0.010 A 
ATOM     11  C   UNL A   1      42.783  22.848  25.649  1.00  0.00     0.010 A 
ATOM     12  C   UNL A   1      42.887  23.293  26.974  1.00  0.00    -0.014 A 
BRANCH  12  13
ATOM     13  C   UNL A   1      43.312  24.678  27.301  1.00  0.00     0.031 A 
ATOM     14  C   UNL A   1      44.701  25.163  26.990  1.00  0.00     0.074 A 
ATOM     15  C   UNL A   1      42.409  25.515  27.847  1.00  0.00     0.049 A 
ATOM     16  N   UNL A   1      45.221  26.350  27.181  1.00  0.00    -0.248 NA
ATOM     17  C   UNL A   1      45.629  24.192  26.392  1.00  0.00     0.031 C 
ATOM     18  C   UNL A   1      41.036  25.153  28.205  1.00  0.00     0.029 A 
ATOM     19  N   UNL A   1      42.498  26.844  28.176  1.00  0.00    -0.354 N 
ATOM     20  C   UNL A   1      46.535  26.268  26.737  1.00  0.00     0.074 A 
ATOM     21  C   UNL A   1      46.744  24.905  26.294  1.00  0.00     0.031 C 
ATOM     22  C   UNL A   1      40.398  26.240  28.658  1.00  0.00     0.029 A 
ATOM     23  C   UNL A   1      41.330  27.362  28.677  1.00  0.00     0.049 A 
ATOM     24  H   UNL A   1      43.320  27.374  28.064  1.00  0.00     0.167 HD
ATOM     25  C   UNL A   1      47.473  27.244  26.694  1.00  0.00     0.037 A 
ATOM     26  C   UNL A   1      41.042  28.600  29.116  1.00  0.00     0.037 A 
ATOM     27  C   UNL A   1      47.258  28.601  27.127  1.00  0.00     0.049 A 
ATOM     28  C   UNL A   1      42.108  29.656  29.070  1.00  0.00     0.074 A 
ATOM     29  C   UNL A   1      48.144  29.665  27.115  1.00  0.00     0.029 A 
ATOM     30  N   UNL A   1      46.066  29.083  27.650  1.00  0.00    -0.354 N 
ATOM     31  N   UNL A   1      43.340  29.567  28.631  1.00  0.00    -0.248 NA
ATOM     32  C   UNL A   1      41.744  30.984  29.582  1.00  0.00     0.031 C 
ATOM     33  C   UNL A   1      47.500  30.780  27.661  1.00  0.00     0.029 A 
ATOM     34  C   UNL A   1      46.199  30.424  27.975  1.00  0.00     0.049 A 
ATOM     35  H   UNL A   1      45.247  28.551  27.771  1.00  0.00     0.167 HD
ATOM     36  C   UNL A   1      43.896  30.827  28.803  1.00  0.00     0.074 A 
ATOM     37  C   UNL A   1      42.857  31.668  29.361  1.00  0.00     0.031 C 
ATOM     38  C   UNL A   1      45.155  31.246  28.530  1.00  0.00     0.037 A 
BRANCH  25  39
ATOM     39  C   UNL A   1      48.831  26.883  26.163  1.00  0.00     0.064 A 
ATOM     40  C   UNL A   1      49.796  26.270  26.975  1.00  0.00     0.173 A 
ATOM     41  C   UNL A   1      49.149  27.098  24.813  1.00  0.00     0.173 A 
ATOM     42  F   UNL A   1      49.546  26.051  28.274  1.00  0.00    -0.203 F 
ATOM     43  C   UNL A   1      51.037  25.901  26.459  1.00  0.00     0.198 A 
ATOM     44  C   UNL A   1      50.381  26.706  24.295  1.00  0.00     0.198 A 
ATOM     45  F   UNL A   1      48.258  27.674  23.992  1.00  0.00    -0.203 F 
ATOM     46  F   UNL A   1      51.957  25.348  27.261  1.00  0.00    -0.200 F 
ATOM     47  C   UNL A   1      51.325  26.112  25.119  1.00  0.00     0.200 A 
ATOM     48  F   UNL A   1      50.653  26.900  22.997  1.00  0.00    -0.200 F 
ATOM     49  F   UNL A   1      52.515  25.748  24.622  1.00  0.00    -0.200 F 
ENDBRANCH  25  39
BRANCH  26  50
ATOM     50  C   UNL A   1      39.685  28.900  29.638  1.00  0.00     0.064 A 
ATOM     51  C   UNL A   1      38.687  29.419  28.802  1.00  0.00     0.173 A 
ATOM     52  C   UNL A   1      39.356  28.663  30.981  1.00  0.00     0.173 A 
ATOM     53  F   UNL A   1      38.960  29.680  27.516  1.00  0.00    -0.203 F 
ATOM     54  C   UNL A   1      37.416  29.705  29.295  1.00  0.00     0.198 A 
ATOM     55  C   UNL A   1      38.077  28.920  31.465  1.00  0.00     0.198 A 
ATOM     56  F   UNL A   1      40.276  28.160  31.818  1.00  0.00    -0.203 F 
ATOM     57  F   UNL A   1      36.491  30.240  28.486  1.00  0.00    -0.200 F 
ATOM     58  C   UNL A   1      37.109  29.449  30.624  1.00  0.00     0.200 A 
ATOM     59  F   UNL A   1      37.781  28.655  32.744  1.00  0.00    -0.200 F 
ATOM     60  F   UNL A   1      35.884  29.718  31.095  1.00  0.00    -0.200 F 
ENDBRANCH  26  50
BRANCH  38  61
ATOM     61  C   UNL A   1      45.466  32.685  28.816  1.00  0.00     0.064 A 
ATOM     62  C   UNL A   1      45.235  33.686  27.862  1.00  0.00     0.173 A 
ATOM     63  C   UNL A   1      45.989  33.065  30.061  1.00  0.00     0.173 A 
ATOM     64  F   UNL A   1      44.754  33.368  26.651  1.00  0.00    -0.203 F 
ATOM     65  C   UNL A   1      45.542  35.016  28.136  1.00  0.00     0.198 A 
ATOM     66  C   UNL A   1      46.270  34.399  30.339  1.00  0.00     0.198 A 
ATOM     67  F   UNL A   1      46.224  32.143  31.006  1.00  0.00    -0.203 F 
ATOM     68  F   UNL A   1      45.361  35.951  27.192  1.00  0.00    -0.200 F 
ATOM     69  C   UNL A   1      46.055  35.372  29.374  1.00  0.00     0.200 A 
ATOM     70  F   UNL A   1      46.758  34.743  31.539  1.00  0.00    -0.200 F 
ATOM     71  F   UNL A   1      46.351  36.652  29.635  1.00  0.00    -0.200 F 
ENDBRANCH  38  61
ENDBRANCH  12  13
ENDBRANCH   5   7
ENDBRANCH   2   3
ENDBRANCH   1   2
BRANCH   1  72
ATOM     72  C   UNL A   1      36.753  20.597  25.000  1.00  0.00     0.023 C 
BRANCH  72  73
ATOM     73  C   UNL A   1      36.860  22.110  25.151  1.00  0.00     0.116 C 
BRANCH  73  74
ATOM     74  N   UNL A   1      36.161  22.623  26.318  1.00  0.00    -0.351 N 
ATOM     75  C   UNL A   1      34.822  22.528  26.630  1.00  0.00     0.270 C 
ATOM     76  H   UNL A   1      36.719  23.103  26.972  1.00  0.00     0.163 HD
ATOM     77  O   UNL A   1      34.397  23.011  27.674  1.00  0.00    -0.268 OA
BRANCH  75  78
ATOM     78  C   UNL A   1      33.922  21.811  25.698  1.00  0.00     0.134 A 
ATOM     79  C   UNL A   1      33.759  20.461  25.817  1.00  0.00     0.063 A 
ATOM     80  N   UNL A   1      33.404  22.546  24.709  1.00  0.00    -0.207 NA
ATOM     81  C   UNL A   1      33.080  19.866  24.780  1.00  0.00     0.077 A 
ATOM     82  C   UNL A   1      32.701  21.913  23.770  1.00  0.00     0.230 A 
ATOM     83  N   UNL A   1      32.535  20.578  23.762  1.00  0.00    -0.213 NA
BRANCH  81  84
ATOM     84  C   UNL A   1      33.046  18.399  24.680  1.00  0.00     0.000 A 
ATOM     85  C   UNL A   1      33.645  17.742  23.593  1.00  0.00     0.010 A 
ATOM     86  C   UNL A   1      32.526  17.612  25.724  1.00  0.00     0.010 A 
ATOM     87  C   UNL A   1      33.757  16.349  23.569  1.00  0.00     0.001 A 
ATOM     88  C   UNL A   1      32.633  16.220  25.698  1.00  0.00     0.001 A 
ATOM     89  C   UNL A   1      33.258  15.590  24.626  1.00  0.00     0.000 A 
ENDBRANCH  81  84
BRANCH  82  90
ATOM     90  N   UNL A   1      32.048  22.650  22.785  1.00  0.00    -0.300 N 
ATOM     91  H   UNL A   1      31.866  22.218  21.919  1.00  0.00     0.172 HD
BRANCH  90  92
ATOM     92  C   UNL A   1      31.651  23.927  22.962  1.00  0.00     0.190 A 
ATOM     93  N   UNL A   1      30.583  24.303  23.628  1.00  0.00    -0.220 NA
ATOM     94  S   UNL A   1      32.552  25.234  22.285  1.00  0.00    -0.097 S 
ATOM     95  C   UNL A   1      30.317  25.639  23.423  1.00  0.00     0.084 A 
ATOM     96  C   UNL A   1      31.274  26.325  22.680  1.00  0.00     0.056 A 
ATOM     97  C   UNL A   1      29.174  26.326  23.875  1.00  0.00     0.030 A 
ATOM     98  C   UNL A   1      31.119  27.684  22.357  1.00  0.00     0.021 A 
ATOM     99  C   UNL A   1      29.000  27.672  23.549  1.00  0.00     0.002 A 
ATOM    100  C   UNL A   1      29.961  28.339  22.794  1.00  0.00     0.002 A 
ENDBRANCH  90  92
ENDBRANCH  82  90
ENDBRANCH  75  78
ENDBRANCH  73  74
ENDBRANCH  72  73
ENDBRANCH   1  72
TORSDOF 14
ENDMDL
