MODEL 1
REMARK VINA RESULT:     -13.2      0.000      0.000
REMARK SMILES O=C(NCCCCNC(=O)[C@H](c1ccccc1)C(c1ccccc1)c1ccccc1)c1ccc(-c2c3nc(c(-c4c(F)c(F)c(F)c(F)c4F)c4ccc([nH]4)c(-c4c(F)c(F)c(F)c(F)c4F)c4nc(c(-c5c(F)c(F)c(F)c(F)c5F)c5ccc2[nH]5)C=C4)C=C3)cc1
REMARK SMILES IDX 5 1 4 2 3 3 1 4 2 5 31 7 32 8 93 9 33 10 92 11 34 12 35 13
REMARK SMILES IDX 36 14 86 15 37 16 91 17 85 18 87 19 38 20 90 21 84 22 83 23
REMARK SMILES IDX 39 25 71 26 51 27 70 28 52 29 55 30 69 31 88 32 53 33 54 34
REMARK SMILES IDX 68 36 89 37 56 38 40 39 41 40 49 41 42 42 43 43 47 44 50 45
REMARK SMILES IDX 44 46 45 47 48 48 46 49 72 50 73 51 81 52 74 53 75 54 79 55
REMARK SMILES IDX 82 56 76 57 77 58 80 59 78 60 57 61 58 62 66 63 59 64 60 65
REMARK SMILES IDX 64 66 67 67 61 68 62 69 65 70 63 71 6 72 7 73 8 74 9 75
REMARK SMILES IDX 10 77 11 78 18 79 19 80 20 81 24 82 21 83 23 84 22 85 25 86
REMARK SMILES IDX 26 87 30 88 27 89 29 90 28 91 12 92 13 93 17 94 14 95 16 96
REMARK SMILES IDX 15 97
REMARK H PARENT 3 6 87 24 55 35 8 76
REMARK Flexibility Score: inf
ROOT
ATOM      1  C   UNL A   1      31.522  28.808  25.981  1.00  0.00     0.023 C 
ENDROOT
BRANCH   1   2
ATOM      2  C   UNL A   1      32.769  29.640  26.230  1.00  0.00     0.116 C 
BRANCH   2   3
ATOM      3  N   UNL A   1      32.484  31.029  26.565  1.00  0.00    -0.352 N 
ATOM      4  O   UNL A   1      32.821  33.016  27.596  1.00  0.00    -0.269 OA
ATOM      5  C   UNL A   1      33.240  31.901  27.318  1.00  0.00     0.251 C 
ATOM      6  H   UNL A   1      31.643  31.392  26.207  1.00  0.00     0.163 HD
BRANCH   5   7
ATOM      7  C   UNL A   1      34.552  31.448  27.828  1.00  0.00     0.039 A 
ATOM      8  C   UNL A   1      34.737  30.118  28.206  1.00  0.00     0.014 A 
ATOM      9  C   UNL A   1      35.578  32.381  28.001  1.00  0.00     0.014 A 
ATOM     10  C   UNL A   1      35.870  29.764  28.925  1.00  0.00     0.010 A 
ATOM     11  C   UNL A   1      36.762  31.996  28.636  1.00  0.00     0.010 A 
ATOM     12  C   UNL A   1      36.895  30.698  29.149  1.00  0.00    -0.014 A 
BRANCH  12  13
ATOM     13  C   UNL A   1      38.098  30.270  29.908  1.00  0.00     0.031 A 
ATOM     14  C   UNL A   1      38.290  30.658  31.349  1.00  0.00     0.074 A 
ATOM     15  C   UNL A   1      38.991  29.467  29.299  1.00  0.00     0.049 A 
ATOM     16  N   UNL A   1      39.256  30.325  32.170  1.00  0.00    -0.248 NA
ATOM     17  C   UNL A   1      37.277  31.540  31.947  1.00  0.00     0.031 C 
ATOM     18  C   UNL A   1      38.913  29.032  27.902  1.00  0.00     0.029 A 
ATOM     19  N   UNL A   1      40.114  28.845  29.778  1.00  0.00    -0.354 N 
ATOM     20  C   UNL A   1      38.987  30.982  33.364  1.00  0.00     0.074 A 
ATOM     21  C   UNL A   1      37.774  31.745  33.160  1.00  0.00     0.031 C 
ATOM     22  C   UNL A   1      39.900  28.160  27.658  1.00  0.00     0.029 A 
ATOM     23  C   UNL A   1      40.718  28.024  28.857  1.00  0.00     0.049 A 
ATOM     24  H   UNL A   1      40.456  28.974  30.692  1.00  0.00     0.167 HD
ATOM     25  C   UNL A   1      39.687  30.946  34.524  1.00  0.00     0.037 A 
ATOM     26  C   UNL A   1      41.814  27.251  28.963  1.00  0.00     0.037 A 
ATOM     27  C   UNL A   1      40.871  30.151  34.734  1.00  0.00     0.049 A 
ATOM     28  C   UNL A   1      42.558  27.218  30.266  1.00  0.00     0.074 A 
ATOM     29  C   UNL A   1      41.626  30.014  35.886  1.00  0.00     0.029 A 
ATOM     30  N   UNL A   1      41.469  29.355  33.768  1.00  0.00    -0.354 N 
ATOM     31  N   UNL A   1      42.280  27.829  31.392  1.00  0.00    -0.248 NA
ATOM     32  C   UNL A   1      43.772  26.395  30.309  1.00  0.00     0.031 C 
ATOM     33  C   UNL A   1      42.702  29.165  35.606  1.00  0.00     0.029 A 
ATOM     34  C   UNL A   1      42.594  28.738  34.293  1.00  0.00     0.049 A 
ATOM     35  H   UNL A   1      41.143  29.245  32.846  1.00  0.00     0.167 HD
ATOM     36  C   UNL A   1      43.275  27.454  32.282  1.00  0.00     0.074 A 
ATOM     37  C   UNL A   1      44.150  26.545  31.571  1.00  0.00     0.031 C 
ATOM     38  C   UNL A   1      43.451  27.834  33.571  1.00  0.00     0.037 A 
BRANCH  25  39
ATOM     39  C   UNL A   1      39.208  31.806  35.657  1.00  0.00     0.064 A 
ATOM     40  C   UNL A   1      38.316  31.327  36.627  1.00  0.00     0.173 A 
ATOM     41  C   UNL A   1      39.690  33.118  35.800  1.00  0.00     0.173 A 
ATOM     42  F   UNL A   1      37.818  30.085  36.531  1.00  0.00    -0.203 F 
ATOM     43  C   UNL A   1      37.908  32.135  37.687  1.00  0.00     0.198 A 
ATOM     44  C   UNL A   1      39.300  33.914  36.874  1.00  0.00     0.198 A 
ATOM     45  F   UNL A   1      40.549  33.624  34.903  1.00  0.00    -0.203 F 
ATOM     46  F   UNL A   1      37.026  31.668  38.582  1.00  0.00    -0.200 F 
ATOM     47  C   UNL A   1      38.405  33.424  37.814  1.00  0.00     0.200 A 
ATOM     48  F   UNL A   1      39.790  35.155  37.001  1.00  0.00    -0.200 F 
ATOM     49  F   UNL A   1      38.019  34.196  38.839  1.00  0.00    -0.200 F 
ENDBRANCH  25  39
BRANCH  26  50
ATOM     50  C   UNL A   1      42.255  26.439  27.803  1.00  0.00     0.064 A 
ATOM     51  C   UNL A   1      43.240  26.912  26.926  1.00  0.00     0.173 A 
ATOM     52  C   UNL A   1      41.721  25.164  27.561  1.00  0.00     0.173 A 
ATOM     53  F   UNL A   1      43.767  28.131  27.107  1.00  0.00    -0.203 F 
ATOM     54  C   UNL A   1      43.667  26.145  25.845  1.00  0.00     0.198 A 
ATOM     55  C   UNL A   1      42.170  24.386  26.498  1.00  0.00     0.198 A 
ATOM     56  F   UNL A   1      40.781  24.665  28.377  1.00  0.00    -0.203 F 
ATOM     57  F   UNL A   1      44.587  26.634  25.001  1.00  0.00    -0.200 F 
ATOM     58  C   UNL A   1      43.138  24.879  25.636  1.00  0.00     0.200 A 
ATOM     59  F   UNL A   1      41.670  23.157  26.311  1.00  0.00    -0.200 F 
ATOM     60  F   UNL A   1      43.560  24.137  24.604  1.00  0.00    -0.200 F 
ENDBRANCH  26  50
BRANCH  38  61
ATOM     61  C   UNL A   1      44.620  27.240  34.297  1.00  0.00     0.064 A 
ATOM     62  C   UNL A   1      44.519  26.018  34.977  1.00  0.00     0.173 A 
ATOM     63  C   UNL A   1      45.860  27.897  34.302  1.00  0.00     0.173 A 
ATOM     64  F   UNL A   1      43.348  25.362  35.015  1.00  0.00    -0.203 F 
ATOM     65  C   UNL A   1      45.608  25.488  35.661  1.00  0.00     0.198 A 
ATOM     66  C   UNL A   1      46.955  27.351  34.964  1.00  0.00     0.198 A 
ATOM     67  F   UNL A   1      46.008  29.066  33.663  1.00  0.00    -0.203 F 
ATOM     68  F   UNL A   1      45.475  24.345  36.348  1.00  0.00    -0.200 F 
ATOM     69  C   UNL A   1      46.827  26.152  35.651  1.00  0.00     0.200 A 
ATOM     70  F   UNL A   1      48.133  27.989  34.947  1.00  0.00    -0.200 F 
ATOM     71  F   UNL A   1      47.874  25.642  36.312  1.00  0.00    -0.200 F 
ENDBRANCH  38  61
ENDBRANCH  12  13
ENDBRANCH   5   7
ENDBRANCH   2   3
ENDBRANCH   1   2
BRANCH   1  72
ATOM     72  C   UNL A   1      31.403  27.565  26.860  1.00  0.00     0.023 C 
BRANCH  72  73
ATOM     73  C   UNL A   1      30.915  26.315  26.126  1.00  0.00     0.116 C 
BRANCH  73  74
ATOM     74  N   UNL A   1      31.233  25.117  26.876  1.00  0.00    -0.356 N 
ATOM     75  C   UNL A   1      31.707  23.914  26.427  1.00  0.00     0.228 C 
ATOM     76  H   UNL A   1      31.088  25.177  27.848  1.00  0.00     0.163 HD
ATOM     77  O   UNL A   1      31.649  22.962  27.209  1.00  0.00    -0.274 OA
BRANCH  75  78
ATOM     78  C   UNL A   1      32.281  23.786  25.003  1.00  0.00     0.120 C 
BRANCH  78  79
ATOM     79  C   UNL A   1      33.579  24.666  24.907  1.00  0.00     0.066 C 
BRANCH  79  80
ATOM     80  C   UNL A   1      34.854  23.827  24.788  1.00  0.00    -0.039 A 
ATOM     81  C   UNL A   1      35.330  23.370  23.550  1.00  0.00     0.004 A 
ATOM     82  C   UNL A   1      35.570  23.493  25.950  1.00  0.00     0.004 A 
ATOM     83  C   UNL A   1      36.479  22.578  23.484  1.00  0.00     0.000 A 
ATOM     84  C   UNL A   1      36.718  22.703  25.881  1.00  0.00     0.000 A 
ATOM     85  C   UNL A   1      37.168  22.242  24.647  1.00  0.00     0.000 A 
ENDBRANCH  79  80
BRANCH  79  86
ATOM     86  C   UNL A   1      33.562  25.774  23.838  1.00  0.00    -0.039 A 
ATOM     87  C   UNL A   1      34.046  27.049  24.191  1.00  0.00     0.004 A 
ATOM     88  C   UNL A   1      33.081  25.593  22.532  1.00  0.00     0.004 A 
ATOM     89  C   UNL A   1      34.028  28.108  23.282  1.00  0.00     0.000 A 
ATOM     90  C   UNL A   1      33.052  26.659  21.626  1.00  0.00     0.000 A 
ATOM     91  C   UNL A   1      33.522  27.915  22.001  1.00  0.00     0.000 A 
ENDBRANCH  79  86
ENDBRANCH  78  79
BRANCH  78  92
ATOM     92  C   UNL A   1      32.483  22.303  24.664  1.00  0.00    -0.035 A 
ATOM     93  C   UNL A   1      32.153  21.822  23.384  1.00  0.00     0.004 A 
ATOM     94  C   UNL A   1      32.953  21.384  25.613  1.00  0.00     0.004 A 
ATOM     95  C   UNL A   1      32.235  20.462  23.083  1.00  0.00     0.000 A 
ATOM     96  C   UNL A   1      33.079  20.029  25.296  1.00  0.00     0.000 A 
ATOM     97  C   UNL A   1      32.703  19.564  24.039  1.00  0.00     0.000 A 
ENDBRANCH  78  92
ENDBRANCH  75  78
ENDBRANCH  73  74
ENDBRANCH  72  73
ENDBRANCH   1  72
TORSDOF 15
ENDMDL
MODEL 2
REMARK VINA RESULT:     -13.2      0.224      1.574
REMARK SMILES O=C(NCCCCNC(=O)[C@H](c1ccccc1)C(c1ccccc1)c1ccccc1)c1ccc(-c2c3nc(c(-c4c(F)c(F)c(F)c(F)c4F)c4ccc([nH]4)c(-c4c(F)c(F)c(F)c(F)c4F)c4nc(c(-c5c(F)c(F)c(F)c(F)c5F)c5ccc2[nH]5)C=C4)C=C3)cc1
REMARK SMILES IDX 5 1 4 2 3 3 1 4 2 5 31 7 32 8 93 9 33 10 92 11 34 12 35 13
REMARK SMILES IDX 36 14 86 15 37 16 91 17 85 18 87 19 38 20 90 21 84 22 83 23
REMARK SMILES IDX 39 25 71 26 51 27 70 28 52 29 55 30 69 31 88 32 53 33 54 34
REMARK SMILES IDX 68 36 89 37 56 38 40 39 41 40 49 41 42 42 43 43 47 44 50 45
REMARK SMILES IDX 44 46 45 47 48 48 46 49 72 50 73 51 81 52 74 53 75 54 79 55
REMARK SMILES IDX 82 56 76 57 77 58 80 59 78 60 57 61 58 62 66 63 59 64 60 65
REMARK SMILES IDX 64 66 67 67 61 68 62 69 65 70 63 71 6 72 7 73 8 74 9 75
REMARK SMILES IDX 10 77 11 78 18 79 19 80 20 81 24 82 21 83 23 84 22 85 25 86
REMARK SMILES IDX 26 87 30 88 27 89 29 90 28 91 12 92 13 93 17 94 14 95 16 96
REMARK SMILES IDX 15 97
REMARK H PARENT 3 6 87 24 55 35 8 76
REMARK Flexibility Score: inf
ROOT
ATOM      1  C   UNL A   1      31.590  28.813  26.042  1.00  0.00     0.023 C 
ENDROOT
BRANCH   1   2
ATOM      2  C   UNL A   1      32.827  29.674  26.238  1.00  0.00     0.116 C 
BRANCH   2   3
ATOM      3  N   UNL A   1      32.525  31.057  26.581  1.00  0.00    -0.352 N 
ATOM      4  O   UNL A   1      32.844  33.048  27.611  1.00  0.00    -0.269 OA
ATOM      5  C   UNL A   1      33.277  31.940  27.324  1.00  0.00     0.251 C 
ATOM      6  H   UNL A   1      31.672  31.407  26.236  1.00  0.00     0.163 HD
BRANCH   5   7
ATOM      7  C   UNL A   1      34.604  31.508  27.814  1.00  0.00     0.039 A 
ATOM      8  C   UNL A   1      34.816  30.180  28.188  1.00  0.00     0.014 A 
ATOM      9  C   UNL A   1      35.617  32.457  27.972  1.00  0.00     0.014 A 
ATOM     10  C   UNL A   1      35.965  29.843  28.889  1.00  0.00     0.010 A 
ATOM     11  C   UNL A   1      36.817  32.090  28.588  1.00  0.00     0.010 A 
ATOM     12  C   UNL A   1      36.979  30.794  29.098  1.00  0.00    -0.014 A 
BRANCH  12  13
ATOM     13  C   UNL A   1      38.200  30.385  29.838  1.00  0.00     0.031 A 
ATOM     14  C   UNL A   1      38.416  30.790  31.271  1.00  0.00     0.074 A 
ATOM     15  C   UNL A   1      39.088  29.582  29.221  1.00  0.00     0.049 A 
ATOM     16  N   UNL A   1      39.401  30.475  32.076  1.00  0.00    -0.248 NA
ATOM     17  C   UNL A   1      37.407  31.671  31.879  1.00  0.00     0.031 C 
ATOM     18  C   UNL A   1      38.986  29.131  27.830  1.00  0.00     0.029 A 
ATOM     19  N   UNL A   1      40.225  28.975  29.684  1.00  0.00    -0.354 N 
ATOM     20  C   UNL A   1      39.149  31.143  33.268  1.00  0.00     0.074 A 
ATOM     21  C   UNL A   1      37.926  31.893  33.079  1.00  0.00     0.031 C 
ATOM     22  C   UNL A   1      39.975  28.264  27.577  1.00  0.00     0.029 A 
ATOM     23  C   UNL A   1      40.818  28.149  28.761  1.00  0.00     0.049 A 
ATOM     24  H   UNL A   1      40.583  29.117  30.590  1.00  0.00     0.167 HD
ATOM     25  C   UNL A   1      39.872  31.126  34.414  1.00  0.00     0.037 A 
ATOM     26  C   UNL A   1      41.922  27.386  28.854  1.00  0.00     0.037 A 
ATOM     27  C   UNL A   1      41.067  30.343  34.609  1.00  0.00     0.049 A 
ATOM     28  C   UNL A   1      42.692  27.374  30.142  1.00  0.00     0.074 A 
ATOM     29  C   UNL A   1      41.846  30.225  35.748  1.00  0.00     0.029 A 
ATOM     30  N   UNL A   1      41.653  29.541  33.641  1.00  0.00    -0.354 N 
ATOM     31  N   UNL A   1      42.430  27.995  31.266  1.00  0.00    -0.248 NA
ATOM     32  C   UNL A   1      43.914  26.562  30.171  1.00  0.00     0.031 C 
ATOM     33  C   UNL A   1      42.923  29.382  35.457  1.00  0.00     0.029 A 
ATOM     34  C   UNL A   1      42.792  28.939  34.151  1.00  0.00     0.049 A 
ATOM     35  H   UNL A   1      41.310  29.417  32.727  1.00  0.00     0.167 HD
ATOM     36  C   UNL A   1      43.445  27.639  32.141  1.00  0.00     0.074 A 
ATOM     37  C   UNL A   1      44.314  26.728  31.423  1.00  0.00     0.031 C 
ATOM     38  C   UNL A   1      43.643  28.034  33.422  1.00  0.00     0.037 A 
BRANCH  25  39
ATOM     39  C   UNL A   1      39.408  31.995  35.546  1.00  0.00     0.064 A 
ATOM     40  C   UNL A   1      39.813  33.332  35.670  1.00  0.00     0.173 A 
ATOM     41  C   UNL A   1      38.502  31.493  36.496  1.00  0.00     0.173 A 
ATOM     42  F   UNL A   1      40.685  33.856  34.796  1.00  0.00    -0.203 F 
ATOM     43  C   UNL A   1      39.345  34.129  36.714  1.00  0.00     0.198 A 
ATOM     44  C   UNL A   1      38.018  32.300  37.522  1.00  0.00     0.198 A 
ATOM     45  F   UNL A   1      38.079  30.223  36.420  1.00  0.00    -0.203 F 
ATOM     46  F   UNL A   1      39.775  35.392  36.834  1.00  0.00    -0.200 F 
ATOM     47  C   UNL A   1      38.443  33.615  37.634  1.00  0.00     0.200 A 
ATOM     48  F   UNL A   1      37.137  31.804  38.404  1.00  0.00    -0.200 F 
ATOM     49  F   UNL A   1      37.987  34.386  38.631  1.00  0.00    -0.200 F 
ENDBRANCH  25  39
BRANCH  26  50
ATOM     50  C   UNL A   1      42.347  26.564  27.694  1.00  0.00     0.064 A 
ATOM     51  C   UNL A   1      43.316  27.033  26.796  1.00  0.00     0.173 A 
ATOM     52  C   UNL A   1      41.815  25.285  27.474  1.00  0.00     0.173 A 
ATOM     53  F   UNL A   1      43.841  28.257  26.958  1.00  0.00    -0.203 F 
ATOM     54  C   UNL A   1      43.728  26.258  25.717  1.00  0.00     0.198 A 
ATOM     55  C   UNL A   1      42.250  24.499  26.410  1.00  0.00     0.198 A 
ATOM     56  F   UNL A   1      40.891  24.790  28.310  1.00  0.00    -0.203 F 
ATOM     57  F   UNL A   1      44.631  26.742  24.853  1.00  0.00    -0.200 F 
ATOM     58  C   UNL A   1      43.201  24.988  25.528  1.00  0.00     0.200 A 
ATOM     59  F   UNL A   1      41.752  23.266  26.244  1.00  0.00    -0.200 F 
ATOM     60  F   UNL A   1      43.609  24.237  24.496  1.00  0.00    -0.200 F 
ENDBRANCH  26  50
BRANCH  38  61
ATOM     61  C   UNL A   1      44.831  27.458  34.132  1.00  0.00     0.064 A 
ATOM     62  C   UNL A   1      46.074  28.108  34.127  1.00  0.00     0.173 A 
ATOM     63  C   UNL A   1      44.721  26.248  34.834  1.00  0.00     0.173 A 
ATOM     64  F   UNL A   1      46.232  29.258  33.454  1.00  0.00    -0.203 F 
ATOM     65  C   UNL A   1      47.173  27.552  34.775  1.00  0.00     0.198 A 
ATOM     66  C   UNL A   1      45.815  25.709  35.504  1.00  0.00     0.198 A 
ATOM     67  F   UNL A   1      43.553  25.592  34.870  1.00  0.00    -0.203 F 
ATOM     68  F   UNL A   1      48.365  28.163  34.715  1.00  0.00    -0.200 F 
ATOM     69  C   UNL A   1      47.043  26.356  35.467  1.00  0.00     0.200 A 
ATOM     70  F   UNL A   1      45.686  24.558  36.177  1.00  0.00    -0.200 F 
ATOM     71  F   UNL A   1      48.102  25.821  36.088  1.00  0.00    -0.200 F 
ENDBRANCH  38  61
ENDBRANCH  12  13
ENDBRANCH   5   7
ENDBRANCH   2   3
ENDBRANCH   1   2
BRANCH   1  72
ATOM     72  C   UNL A   1      31.523  27.583  26.943  1.00  0.00     0.023 C 
BRANCH  72  73
ATOM     73  C   UNL A   1      30.939  26.337  26.272  1.00  0.00     0.116 C 
BRANCH  73  74
ATOM     74  N   UNL A   1      31.308  25.139  26.996  1.00  0.00    -0.356 N 
ATOM     75  C   UNL A   1      31.795  23.953  26.517  1.00  0.00     0.228 C 
ATOM     76  H   UNL A   1      31.192  25.182  27.973  1.00  0.00     0.163 HD
ATOM     77  O   UNL A   1      31.784  22.989  27.288  1.00  0.00    -0.274 OA
BRANCH  75  78
ATOM     78  C   UNL A   1      32.327  23.855  25.074  1.00  0.00     0.120 C 
BRANCH  78  79
ATOM     79  C   UNL A   1      33.628  24.730  24.962  1.00  0.00     0.066 C 
BRANCH  79  80
ATOM     80  C   UNL A   1      34.893  23.886  24.782  1.00  0.00    -0.039 A 
ATOM     81  C   UNL A   1      35.331  23.466  23.518  1.00  0.00     0.004 A 
ATOM     82  C   UNL A   1      35.638  23.510  25.913  1.00  0.00     0.004 A 
ATOM     83  C   UNL A   1      36.472  22.668  23.394  1.00  0.00     0.000 A 
ATOM     84  C   UNL A   1      36.776  22.715  25.787  1.00  0.00     0.000 A 
ATOM     85  C   UNL A   1      37.189  22.290  24.527  1.00  0.00     0.000 A 
ENDBRANCH  79  80
BRANCH  79  86
ATOM     86  C   UNL A   1      33.587  25.866  23.925  1.00  0.00    -0.039 A 
ATOM     87  C   UNL A   1      34.176  27.100  24.264  1.00  0.00     0.004 A 
ATOM     88  C   UNL A   1      32.985  25.750  22.662  1.00  0.00     0.004 A 
ATOM     89  C   UNL A   1      34.144  28.183  23.384  1.00  0.00     0.000 A 
ATOM     90  C   UNL A   1      32.943  26.841  21.787  1.00  0.00     0.000 A 
ATOM     91  C   UNL A   1      33.519  28.056  22.148  1.00  0.00     0.000 A 
ENDBRANCH  79  86
ENDBRANCH  78  79
BRANCH  78  92
ATOM     92  C   UNL A   1      32.509  22.381  24.694  1.00  0.00    -0.035 A 
ATOM     93  C   UNL A   1      32.187  21.943  23.397  1.00  0.00     0.004 A 
ATOM     94  C   UNL A   1      32.952  21.425  25.621  1.00  0.00     0.004 A 
ATOM     95  C   UNL A   1      32.251  20.591  23.056  1.00  0.00     0.000 A 
ATOM     96  C   UNL A   1      33.060  20.079  25.266  1.00  0.00     0.000 A 
ATOM     97  C   UNL A   1      32.692  19.658  23.991  1.00  0.00     0.000 A 
ENDBRANCH  78  92
ENDBRANCH  75  78
ENDBRANCH  73  74
ENDBRANCH  72  73
ENDBRANCH   1  72
TORSDOF 15
ENDMDL
MODEL 3
REMARK VINA RESULT:     -13.1      2.159      2.898
REMARK SMILES O=C(NCCCCNC(=O)[C@H](c1ccccc1)C(c1ccccc1)c1ccccc1)c1ccc(-c2c3nc(c(-c4c(F)c(F)c(F)c(F)c4F)c4ccc([nH]4)c(-c4c(F)c(F)c(F)c(F)c4F)c4nc(c(-c5c(F)c(F)c(F)c(F)c5F)c5ccc2[nH]5)C=C4)C=C3)cc1
REMARK SMILES IDX 5 1 4 2 3 3 1 4 2 5 31 7 32 8 93 9 33 10 92 11 34 12 35 13
REMARK SMILES IDX 36 14 86 15 37 16 91 17 85 18 87 19 38 20 90 21 84 22 83 23
REMARK SMILES IDX 39 25 71 26 51 27 70 28 52 29 55 30 69 31 88 32 53 33 54 34
REMARK SMILES IDX 68 36 89 37 56 38 40 39 41 40 49 41 42 42 43 43 47 44 50 45
REMARK SMILES IDX 44 46 45 47 48 48 46 49 72 50 73 51 81 52 74 53 75 54 79 55
REMARK SMILES IDX 82 56 76 57 77 58 80 59 78 60 57 61 58 62 66 63 59 64 60 65
REMARK SMILES IDX 64 66 67 67 61 68 62 69 65 70 63 71 6 72 7 73 8 74 9 75
REMARK SMILES IDX 10 77 11 78 18 79 19 80 20 81 24 82 21 83 23 84 22 85 25 86
REMARK SMILES IDX 26 87 30 88 27 89 29 90 28 91 12 92 13 93 17 94 14 95 16 96
REMARK SMILES IDX 15 97
REMARK H PARENT 3 6 87 24 55 35 8 76
REMARK Flexibility Score: inf
ROOT
ATOM      1  C   UNL A   1      31.838  27.877  27.477  1.00  0.00     0.023 C 
ENDROOT
BRANCH   1   2
ATOM      2  C   UNL A   1      33.231  28.482  27.422  1.00  0.00     0.116 C 
BRANCH   2   3
ATOM      3  N   UNL A   1      33.239  29.934  27.533  1.00  0.00    -0.352 N 
ATOM      4  O   UNL A   1      34.092  31.960  28.075  1.00  0.00    -0.269 OA
ATOM      5  C   UNL A   1      34.267  30.758  27.940  1.00  0.00     0.251 C 
ATOM      6  H   UNL A   1      32.402  30.388  27.284  1.00  0.00     0.163 HD
BRANCH   5   7
ATOM      7  C   UNL A   1      35.578  30.153  28.261  1.00  0.00     0.039 A 
ATOM      8  C   UNL A   1      35.824  29.646  29.537  1.00  0.00     0.014 A 
ATOM      9  C   UNL A   1      36.590  30.166  27.298  1.00  0.00     0.014 A 
ATOM     10  C   UNL A   1      37.123  29.330  29.907  1.00  0.00     0.010 A 
ATOM     11  C   UNL A   1      37.878  29.750  27.645  1.00  0.00     0.010 A 
ATOM     12  C   UNL A   1      38.166  29.378  28.966  1.00  0.00    -0.014 A 
BRANCH  12  13
ATOM     13  C   UNL A   1      39.538  29.013  29.401  1.00  0.00     0.031 A 
ATOM     14  C   UNL A   1      40.264  29.814  30.448  1.00  0.00     0.074 A 
ATOM     15  C   UNL A   1      40.103  27.905  28.886  1.00  0.00     0.049 A 
ATOM     16  N   UNL A   1      41.443  29.601  30.978  1.00  0.00    -0.248 NA
ATOM     17  C   UNL A   1      39.587  31.014  30.963  1.00  0.00     0.031 C 
ATOM     18  C   UNL A   1      39.497  27.054  27.859  1.00  0.00     0.029 A 
ATOM     19  N   UNL A   1      41.289  27.282  29.176  1.00  0.00    -0.354 N 
ATOM     20  C   UNL A   1      41.664  30.653  31.857  1.00  0.00     0.074 A 
ATOM     21  C   UNL A   1      40.503  31.514  31.782  1.00  0.00     0.031 C 
ATOM     22  C   UNL A   1      40.278  25.985  27.657  1.00  0.00     0.029 A 
ATOM     23  C   UNL A   1      41.470  26.106  28.488  1.00  0.00     0.049 A 
ATOM     24  H   UNL A   1      41.947  27.641  29.814  1.00  0.00     0.167 HD
ATOM     25  C   UNL A   1      42.737  30.876  32.655  1.00  0.00     0.037 A 
ATOM     26  C   UNL A   1      42.486  25.225  28.519  1.00  0.00     0.037 A 
ATOM     27  C   UNL A   1      43.871  29.993  32.756  1.00  0.00     0.049 A 
ATOM     28  C   UNL A   1      43.652  25.490  29.426  1.00  0.00     0.074 A 
ATOM     29  C   UNL A   1      44.987  30.109  33.568  1.00  0.00     0.029 A 
ATOM     30  N   UNL A   1      44.032  28.826  32.022  1.00  0.00    -0.354 N 
ATOM     31  N   UNL A   1      43.836  26.478  30.267  1.00  0.00    -0.248 NA
ATOM     32  C   UNL A   1      44.752  24.520  29.383  1.00  0.00     0.031 C 
ATOM     33  C   UNL A   1      45.839  29.033  33.298  1.00  0.00     0.029 A 
ATOM     34  C   UNL A   1      45.236  28.223  32.350  1.00  0.00     0.049 A 
ATOM     35  H   UNL A   1      43.386  28.479  31.366  1.00  0.00     0.167 HD
ATOM     36  C   UNL A   1      45.066  26.244  30.863  1.00  0.00     0.074 A 
ATOM     37  C   UNL A   1      45.572  25.006  30.304  1.00  0.00     0.031 C 
ATOM     38  C   UNL A   1      45.721  26.990  31.786  1.00  0.00     0.037 A 
BRANCH  25  39
ATOM     39  C   UNL A   1      42.751  32.135  33.472  1.00  0.00     0.064 A 
ATOM     40  C   UNL A   1      42.234  32.180  34.775  1.00  0.00     0.173 A 
ATOM     41  C   UNL A   1      43.338  33.303  32.959  1.00  0.00     0.173 A 
ATOM     42  F   UNL A   1      41.652  31.095  35.308  1.00  0.00    -0.203 F 
ATOM     43  C   UNL A   1      42.285  33.353  35.526  1.00  0.00     0.198 A 
ATOM     44  C   UNL A   1      43.410  34.466  33.721  1.00  0.00     0.198 A 
ATOM     45  F   UNL A   1      43.853  33.312  31.721  1.00  0.00    -0.203 F 
ATOM     46  F   UNL A   1      41.751  33.384  36.755  1.00  0.00    -0.200 F 
ATOM     47  C   UNL A   1      42.879  34.492  35.002  1.00  0.00     0.200 A 
ATOM     48  F   UNL A   1      43.994  35.562  33.217  1.00  0.00    -0.200 F 
ATOM     49  F   UNL A   1      42.935  35.616  35.729  1.00  0.00    -0.200 F 
ENDBRANCH  25  39
BRANCH  26  50
ATOM     50  C   UNL A   1      42.429  24.008  27.672  1.00  0.00     0.064 A 
ATOM     51  C   UNL A   1      42.840  24.043  26.333  1.00  0.00     0.173 A 
ATOM     52  C   UNL A   1      41.988  22.781  28.190  1.00  0.00     0.173 A 
ATOM     53  F   UNL A   1      43.254  25.197  25.791  1.00  0.00    -0.203 F 
ATOM     54  C   UNL A   1      42.803  22.899  25.541  1.00  0.00     0.198 A 
ATOM     55  C   UNL A   1      41.978  21.632  27.405  1.00  0.00     0.198 A 
ATOM     56  F   UNL A   1      41.590  22.696  29.468  1.00  0.00    -0.203 F 
ATOM     57  F   UNL A   1      43.169  22.966  24.254  1.00  0.00    -0.200 F 
ATOM     58  C   UNL A   1      42.380  21.692  26.079  1.00  0.00     0.200 A 
ATOM     59  F   UNL A   1      41.587  20.464  27.935  1.00  0.00    -0.200 F 
ATOM     60  F   UNL A   1      42.356  20.589  25.320  1.00  0.00    -0.200 F 
ENDBRANCH  26  50
BRANCH  38  61
ATOM     61  C   UNL A   1      47.041  26.467  32.265  1.00  0.00     0.064 A 
ATOM     62  C   UNL A   1      47.130  25.576  33.345  1.00  0.00     0.173 A 
ATOM     63  C   UNL A   1      48.231  26.852  31.628  1.00  0.00     0.173 A 
ATOM     64  F   UNL A   1      46.021  25.193  33.996  1.00  0.00    -0.203 F 
ATOM     65  C   UNL A   1      48.364  25.112  33.789  1.00  0.00     0.198 A 
ATOM     66  C   UNL A   1      49.461  26.366  32.059  1.00  0.00     0.198 A 
ATOM     67  F   UNL A   1      48.197  27.699  30.590  1.00  0.00    -0.203 F 
ATOM     68  F   UNL A   1      48.430  24.303  34.856  1.00  0.00    -0.200 F 
ATOM     69  C   UNL A   1      49.529  25.503  33.144  1.00  0.00     0.200 A 
ATOM     70  F   UNL A   1      50.584  26.738  31.430  1.00  0.00    -0.200 F 
ATOM     71  F   UNL A   1      50.716  25.059  33.575  1.00  0.00    -0.200 F 
ENDBRANCH  38  61
ENDBRANCH  12  13
ENDBRANCH   5   7
ENDBRANCH   2   3
ENDBRANCH   1   2
BRANCH   1  72
ATOM     72  C   UNL A   1      31.181  27.672  26.115  1.00  0.00     0.023 C 
BRANCH  72  73
ATOM     73  C   UNL A   1      30.542  26.295  25.920  1.00  0.00     0.116 C 
BRANCH  73  74
ATOM     74  N   UNL A   1      31.106  25.329  26.839  1.00  0.00    -0.356 N 
ATOM     75  C   UNL A   1      31.850  24.211  26.572  1.00  0.00     0.228 C 
ATOM     76  H   UNL A   1      30.930  25.500  27.792  1.00  0.00     0.163 HD
ATOM     77  O   UNL A   1      31.991  23.399  27.491  1.00  0.00    -0.274 OA
BRANCH  75  78
ATOM     78  C   UNL A   1      32.470  24.002  25.177  1.00  0.00     0.120 C 
BRANCH  78  79
ATOM     79  C   UNL A   1      33.785  24.857  25.082  1.00  0.00     0.066 C 
BRANCH  79  80
ATOM     80  C   UNL A   1      35.029  24.000  24.838  1.00  0.00    -0.039 A 
ATOM     81  C   UNL A   1      35.365  23.524  23.562  1.00  0.00     0.004 A 
ATOM     82  C   UNL A   1      35.862  23.670  25.921  1.00  0.00     0.004 A 
ATOM     83  C   UNL A   1      36.490  22.715  23.383  1.00  0.00     0.000 A 
ATOM     84  C   UNL A   1      36.986  22.864  25.740  1.00  0.00     0.000 A 
ATOM     85  C   UNL A   1      37.296  22.384  24.470  1.00  0.00     0.000 A 
ENDBRANCH  79  80
BRANCH  79  86
ATOM     86  C   UNL A   1      33.746  26.043  24.101  1.00  0.00    -0.039 A 
ATOM     87  C   UNL A   1      33.274  25.812  22.794  1.00  0.00     0.004 A 
ATOM     88  C   UNL A   1      34.166  27.342  24.427  1.00  0.00     0.004 A 
ATOM     89  C   UNL A   1      33.244  26.833  21.844  1.00  0.00     0.000 A 
ATOM     90  C   UNL A   1      34.147  28.362  23.469  1.00  0.00     0.000 A 
ATOM     91  C   UNL A   1      33.690  28.107  22.179  1.00  0.00     0.000 A 
ENDBRANCH  79  86
ENDBRANCH  78  79
BRANCH  78  92
ATOM     92  C   UNL A   1      32.658  22.502  24.919  1.00  0.00    -0.035 A 
ATOM     93  C   UNL A   1      32.294  21.949  23.678  1.00  0.00     0.004 A 
ATOM     94  C   UNL A   1      33.148  21.636  25.908  1.00  0.00     0.004 A 
ATOM     95  C   UNL A   1      32.364  20.574  23.454  1.00  0.00     0.000 A 
ATOM     96  C   UNL A   1      33.262  20.265  25.667  1.00  0.00     0.000 A 
ATOM     97  C   UNL A   1      32.853  19.731  24.448  1.00  0.00     0.000 A 
ENDBRANCH  78  92
ENDBRANCH  75  78
ENDBRANCH  73  74
ENDBRANCH  72  73
ENDBRANCH   1  72
TORSDOF 15
ENDMDL
