MODEL 1
REMARK VINA RESULT:     -10.2      0.000      0.000
REMARK SMILES CCCC[C@H](C(=O)OC)[C@H](O)C(=O)NCCCCNC(=O)c1ccc(-c2c3nc(c(-c4c(F)c(F)c(F)c(F)c4F)c4ccc([nH]4)c(-c4c(F)c(F)c(F)c(F)c4F)c4nc(c(-c5c(F)c(F)c(F)c(F)c5F)c5ccc2[nH]5)C=C4)C=C3)cc1
REMARK SMILES IDX 15 1 14 2 12 3 13 4 10 6 5 7 4 8 3 9 2 10 1 11 6 12 7 13
REMARK SMILES IDX 8 14 9 15 11 16 16 18 17 19 18 20 19 21 20 22 21 24 22 25
REMARK SMILES IDX 23 26 84 27 24 28 83 29 25 30 26 31 27 32 77 33 28 34 82 35
REMARK SMILES IDX 76 36 78 37 29 38 81 39 75 40 74 41 30 43 62 44 42 45 61 46
REMARK SMILES IDX 43 47 46 48 60 49 79 50 44 51 45 52 59 54 80 55 47 56 31 57
REMARK SMILES IDX 32 58 40 59 33 60 34 61 38 62 41 63 35 64 36 65 39 66 37 67
REMARK SMILES IDX 63 68 64 69 72 70 65 71 66 72 70 73 73 74 67 75 68 76 71 77
REMARK SMILES IDX 69 78 48 79 49 80 57 81 50 82 51 83 55 84 58 85 52 86 53 87
REMARK SMILES IDX 56 88 54 89
REMARK H PARENT 14 5 11 17 19 23 78 42 46 53
REMARK Flexibility Score: inf
ROOT
ATOM      1  C   UNL A   1      36.373  21.755  25.354  1.00  0.00     0.116 C 
ENDROOT
BRANCH   1   2
ATOM      2  N   UNL A   1      35.696  21.903  26.633  1.00  0.00    -0.354 N 
ATOM      3  C   UNL A   1      34.361  22.065  26.883  1.00  0.00     0.249 C 
ATOM      4  O   UNL A   1      33.986  22.144  28.053  1.00  0.00    -0.272 OA
ATOM      5  H   UNL A   1      36.278  21.882  27.427  1.00  0.00     0.163 HD
BRANCH   3   6
ATOM      6  C   UNL A   1      33.359  22.148  25.716  1.00  0.00     0.217 C 
BRANCH   6   7
ATOM      7  C   UNL A   1      32.982  23.618  25.458  1.00  0.00     0.137 C 
BRANCH   7   8
ATOM      8  C   UNL A   1      33.988  24.667  25.975  1.00  0.00     0.018 C 
BRANCH   8   9
ATOM      9  C   UNL A   1      33.994  25.953  25.128  1.00  0.00     0.001 C 
BRANCH   9  10
ATOM     10  C   UNL A   1      33.289  27.164  25.745  1.00  0.00    -0.003 C 
ATOM     11  C   UNL A   1      33.675  28.481  25.091  1.00  0.00     0.004 C 
ENDBRANCH   9  10
ENDBRANCH   8   9
ENDBRANCH   7   8
BRANCH   7  12
ATOM     12  C   UNL A   1      31.612  23.821  26.071  1.00  0.00     0.311 C 
ATOM     13  O   UNL A   1      31.398  24.069  27.251  1.00  0.00    -0.252 OA
BRANCH  12  14
ATOM     14  O   UNL A   1      30.653  23.658  25.117  1.00  0.00    -0.469 OA
ATOM     15  C   UNL A   1      30.654  24.660  24.100  1.00  0.00     0.282 C 
ENDBRANCH  12  14
ENDBRANCH   7  12
ENDBRANCH   6   7
BRANCH   6  16
ATOM     16  O   UNL A   1      32.227  21.327  26.018  1.00  0.00    -0.382 OA
ATOM     17  H   UNL A   1      31.648  21.792  26.642  1.00  0.00     0.211 HD
ENDBRANCH   6  16
ENDBRANCH   3   6
ENDBRANCH   1   2
BRANCH   1  18
ATOM     18  C   UNL A   1      36.653  20.301  25.001  1.00  0.00     0.023 C 
BRANCH  18  19
ATOM     19  C   UNL A   1      38.104  19.999  24.637  1.00  0.00     0.023 C 
BRANCH  19  20
ATOM     20  C   UNL A   1      39.116  20.236  25.751  1.00  0.00     0.116 C 
BRANCH  20  21
ATOM     21  N   UNL A   1      40.074  19.149  25.893  1.00  0.00    -0.352 N 
ATOM     22  C   UNL A   1      41.427  19.204  26.126  1.00  0.00     0.251 C 
ATOM     23  H   UNL A   1      39.697  18.243  25.808  1.00  0.00     0.163 HD
ATOM     24  O   UNL A   1      42.106  18.183  26.073  1.00  0.00    -0.269 OA
BRANCH  22  25
ATOM     25  C   UNL A   1      42.073  20.503  26.410  1.00  0.00     0.039 A 
ATOM     26  C   UNL A   1      42.516  21.284  25.340  1.00  0.00     0.014 A 
ATOM     27  C   UNL A   1      42.220  20.961  27.721  1.00  0.00     0.014 A 
ATOM     28  C   UNL A   1      43.037  22.557  25.582  1.00  0.00     0.010 A 
ATOM     29  C   UNL A   1      42.658  22.262  27.954  1.00  0.00     0.010 A 
ATOM     30  C   UNL A   1      43.070  23.074  26.888  1.00  0.00    -0.014 A 
BRANCH  30  31
ATOM     31  C   UNL A   1      43.524  24.465  27.155  1.00  0.00     0.031 A 
ATOM     32  C   UNL A   1      42.559  25.489  27.681  1.00  0.00     0.074 A 
ATOM     33  C   UNL A   1      44.791  24.819  26.862  1.00  0.00     0.049 A 
ATOM     34  N   UNL A   1      42.748  26.765  27.909  1.00  0.00    -0.248 NA
ATOM     35  C   UNL A   1      41.192  25.027  27.963  1.00  0.00     0.031 C 
ATOM     36  C   UNL A   1      45.811  23.932  26.301  1.00  0.00     0.029 A 
ATOM     37  N   UNL A   1      45.435  26.026  26.984  1.00  0.00    -0.354 N 
ATOM     38  C   UNL A   1      41.527  27.254  28.352  1.00  0.00     0.074 A 
ATOM     39  C   UNL A   1      40.586  26.156  28.300  1.00  0.00     0.031 C 
ATOM     40  C   UNL A   1      46.955  24.616  26.148  1.00  0.00     0.029 A 
ATOM     41  C   UNL A   1      46.741  26.001  26.557  1.00  0.00     0.049 A 
ATOM     42  H   UNL A   1      45.002  26.834  27.344  1.00  0.00     0.167 HD
ATOM     43  C   UNL A   1      41.222  28.500  28.789  1.00  0.00     0.037 A 
ATOM     44  C   UNL A   1      47.659  26.984  26.491  1.00  0.00     0.037 A 
ATOM     45  C   UNL A   1      42.162  29.589  28.852  1.00  0.00     0.049 A 
ATOM     46  C   UNL A   1      47.288  28.366  26.961  1.00  0.00     0.074 A 
ATOM     47  C   UNL A   1      41.964  30.875  29.323  1.00  0.00     0.029 A 
ATOM     48  N   UNL A   1      43.480  29.520  28.422  1.00  0.00    -0.354 N 
ATOM     49  N   UNL A   1      46.148  28.800  27.442  1.00  0.00    -0.248 NA
ATOM     50  C   UNL A   1      48.335  29.395  26.885  1.00  0.00     0.031 C 
ATOM     51  C   UNL A   1      43.144  31.600  29.128  1.00  0.00     0.029 A 
ATOM     52  C   UNL A   1      44.098  30.749  28.595  1.00  0.00     0.049 A 
ATOM     53  H   UNL A   1      43.912  28.717  28.050  1.00  0.00     0.167 HD
ATOM     54  C   UNL A   1      46.349  30.138  27.754  1.00  0.00     0.074 A 
ATOM     55  C   UNL A   1      47.726  30.441  27.423  1.00  0.00     0.031 C 
ATOM     56  C   UNL A   1      45.472  31.035  28.269  1.00  0.00     0.037 A 
BRANCH  43  57
ATOM     57  C   UNL A   1      39.810  28.754  29.237  1.00  0.00     0.064 A 
ATOM     58  C   UNL A   1      38.824  29.204  28.346  1.00  0.00     0.173 A 
ATOM     59  C   UNL A   1      39.428  28.508  30.565  1.00  0.00     0.173 A 
ATOM     60  F   UNL A   1      39.137  29.465  27.068  1.00  0.00    -0.203 F 
ATOM     61  C   UNL A   1      37.518  29.431  28.774  1.00  0.00     0.198 A 
ATOM     62  C   UNL A   1      38.113  28.702  30.981  1.00  0.00     0.198 A 
ATOM     63  F   UNL A   1      40.328  28.070  31.459  1.00  0.00    -0.203 F 
ATOM     64  F   UNL A   1      36.609  29.913  27.917  1.00  0.00    -0.200 F 
ATOM     65  C   UNL A   1      37.162  29.171  30.089  1.00  0.00     0.200 A 
ATOM     66  F   UNL A   1      37.767  28.436  32.249  1.00  0.00    -0.200 F 
ATOM     67  F   UNL A   1      35.903  29.381  30.497  1.00  0.00    -0.200 F 
ENDBRANCH  43  57
BRANCH  44  68
ATOM     68  C   UNL A   1      49.022  26.697  25.971  1.00  0.00     0.064 A 
ATOM     69  C   UNL A   1      50.014  26.157  26.801  1.00  0.00     0.173 A 
ATOM     70  C   UNL A   1      49.366  26.968  24.638  1.00  0.00     0.173 A 
ATOM     71  F   UNL A   1      49.741  25.899  28.089  1.00  0.00    -0.203 F 
ATOM     72  C   UNL A   1      51.303  25.922  26.326  1.00  0.00     0.198 A 
ATOM     73  C   UNL A   1      50.646  26.703  24.155  1.00  0.00     0.198 A 
ATOM     74  F   UNL A   1      48.453  27.481  23.799  1.00  0.00    -0.203 F 
ATOM     75  F   UNL A   1      52.245  25.456  27.156  1.00  0.00    -0.200 F 
ATOM     76  C   UNL A   1      51.616  26.189  25.002  1.00  0.00     0.200 A 
ATOM     77  F   UNL A   1      50.938  26.947  22.871  1.00  0.00    -0.200 F 
ATOM     78  F   UNL A   1      52.854  25.961  24.545  1.00  0.00    -0.200 F 
ENDBRANCH  44  68
BRANCH  56  79
ATOM     79  C   UNL A   1      45.983  32.421  28.544  1.00  0.00     0.064 A 
ATOM     80  C   UNL A   1      46.585  32.760  29.765  1.00  0.00     0.173 A 
ATOM     81  C   UNL A   1      45.903  33.414  27.555  1.00  0.00     0.173 A 
ATOM     82  F   UNL A   1      46.674  31.853  30.749  1.00  0.00    -0.203 F 
ATOM     83  C   UNL A   1      47.062  34.048  29.996  1.00  0.00     0.198 A 
ATOM     84  C   UNL A   1      46.413  34.691  27.776  1.00  0.00     0.198 A 
ATOM     85  F   UNL A   1      45.344  33.142  26.366  1.00  0.00    -0.203 F 
ATOM     86  F   UNL A   1      47.585  34.364  31.189  1.00  0.00    -0.200 F 
ATOM     87  C   UNL A   1      46.983  35.009  28.999  1.00  0.00     0.200 A 
ATOM     88  F   UNL A   1      46.351  35.612  26.805  1.00  0.00    -0.200 F 
ATOM     89  F   UNL A   1      47.450  36.246  29.219  1.00  0.00    -0.200 F 
ENDBRANCH  56  79
ENDBRANCH  30  31
ENDBRANCH  22  25
ENDBRANCH  20  21
ENDBRANCH  19  20
ENDBRANCH  18  19
ENDBRANCH   1  18
TORSDOF 18
ENDMDL
MODEL 2
REMARK VINA RESULT:     -10.0      0.919      1.734
REMARK SMILES CCCC[C@H](C(=O)OC)[C@H](O)C(=O)NCCCCNC(=O)c1ccc(-c2c3nc(c(-c4c(F)c(F)c(F)c(F)c4F)c4ccc([nH]4)c(-c4c(F)c(F)c(F)c(F)c4F)c4nc(c(-c5c(F)c(F)c(F)c(F)c5F)c5ccc2[nH]5)C=C4)C=C3)cc1
REMARK SMILES IDX 15 1 14 2 12 3 13 4 10 6 5 7 4 8 3 9 2 10 1 11 6 12 7 13
REMARK SMILES IDX 8 14 9 15 11 16 16 18 17 19 18 20 19 21 20 22 21 24 22 25
REMARK SMILES IDX 23 26 84 27 24 28 83 29 25 30 26 31 27 32 77 33 28 34 82 35
REMARK SMILES IDX 76 36 78 37 29 38 81 39 75 40 74 41 30 43 62 44 42 45 61 46
REMARK SMILES IDX 43 47 46 48 60 49 79 50 44 51 45 52 59 54 80 55 47 56 31 57
REMARK SMILES IDX 32 58 40 59 33 60 34 61 38 62 41 63 35 64 36 65 39 66 37 67
REMARK SMILES IDX 63 68 64 69 72 70 65 71 66 72 70 73 73 74 67 75 68 76 71 77
REMARK SMILES IDX 69 78 48 79 49 80 57 81 50 82 51 83 55 84 58 85 52 86 53 87
REMARK SMILES IDX 56 88 54 89
REMARK H PARENT 14 5 11 17 19 23 78 42 46 53
REMARK Flexibility Score: inf
ROOT
ATOM      1  C   UNL A   1      35.439  20.468  25.091  1.00  0.00     0.116 C 
ENDROOT
BRANCH   1   2
ATOM      2  N   UNL A   1      34.832  21.074  26.265  1.00  0.00    -0.354 N 
ATOM      3  C   UNL A   1      33.555  21.539  26.426  1.00  0.00     0.249 C 
ATOM      4  O   UNL A   1      33.228  21.997  27.522  1.00  0.00    -0.272 OA
ATOM      5  H   UNL A   1      35.418  21.162  27.051  1.00  0.00     0.163 HD
BRANCH   3   6
ATOM      6  C   UNL A   1      32.558  21.487  25.254  1.00  0.00     0.217 C 
BRANCH   6   7
ATOM      7  C   UNL A   1      32.521  22.852  24.542  1.00  0.00     0.137 C 
BRANCH   7   8
ATOM      8  C   UNL A   1      31.215  23.657  24.707  1.00  0.00     0.018 C 
BRANCH   8   9
ATOM      9  C   UNL A   1      31.248  24.599  25.925  1.00  0.00     0.001 C 
BRANCH   9  10
ATOM     10  C   UNL A   1      30.378  25.854  25.824  1.00  0.00    -0.003 C 
ATOM     11  C   UNL A   1      29.709  26.014  24.469  1.00  0.00     0.004 C 
ENDBRANCH   9  10
ENDBRANCH   8   9
ENDBRANCH   7   8
BRANCH   7  12
ATOM     12  C   UNL A   1      32.816  22.580  23.081  1.00  0.00     0.311 C 
ATOM     13  O   UNL A   1      32.344  21.660  22.427  1.00  0.00    -0.252 OA
BRANCH  12  14
ATOM     14  O   UNL A   1      33.710  23.497  22.616  1.00  0.00    -0.469 OA
ATOM     15  C   UNL A   1      34.773  23.799  23.519  1.00  0.00     0.282 C 
ENDBRANCH  12  14
ENDBRANCH   7  12
ENDBRANCH   6   7
BRANCH   6  16
ATOM     16  O   UNL A   1      31.278  21.082  25.750  1.00  0.00    -0.382 OA
ATOM     17  H   UNL A   1      31.020  20.246  25.334  1.00  0.00     0.211 HD
ENDBRANCH   6  16
ENDBRANCH   3   6
ENDBRANCH   1   2
BRANCH   1  18
ATOM     18  C   UNL A   1      36.869  20.937  24.860  1.00  0.00     0.023 C 
BRANCH  18  19
ATOM     19  C   UNL A   1      37.930  19.847  24.995  1.00  0.00     0.023 C 
BRANCH  19  20
ATOM     20  C   UNL A   1      39.174  20.245  25.780  1.00  0.00     0.116 C 
BRANCH  20  21
ATOM     21  N   UNL A   1      40.141  19.164  25.903  1.00  0.00    -0.352 N 
ATOM     22  C   UNL A   1      41.496  19.227  26.122  1.00  0.00     0.251 C 
ATOM     23  H   UNL A   1      39.769  18.256  25.816  1.00  0.00     0.163 HD
ATOM     24  O   UNL A   1      42.181  18.211  26.053  1.00  0.00    -0.269 OA
BRANCH  22  25
ATOM     25  C   UNL A   1      42.135  20.528  26.408  1.00  0.00     0.039 A 
ATOM     26  C   UNL A   1      42.592  21.305  25.340  1.00  0.00     0.014 A 
ATOM     27  C   UNL A   1      42.265  20.993  27.719  1.00  0.00     0.014 A 
ATOM     28  C   UNL A   1      43.107  22.581  25.584  1.00  0.00     0.010 A 
ATOM     29  C   UNL A   1      42.697  22.295  27.952  1.00  0.00     0.010 A 
ATOM     30  C   UNL A   1      43.121  23.104  26.887  1.00  0.00    -0.014 A 
BRANCH  30  31
ATOM     31  C   UNL A   1      43.570  24.496  27.153  1.00  0.00     0.031 A 
ATOM     32  C   UNL A   1      42.597  25.521  27.662  1.00  0.00     0.074 A 
ATOM     33  C   UNL A   1      44.840  24.852  26.876  1.00  0.00     0.049 A 
ATOM     34  N   UNL A   1      42.780  26.798  27.888  1.00  0.00    -0.248 NA
ATOM     35  C   UNL A   1      41.227  25.058  27.929  1.00  0.00     0.031 C 
ATOM     36  C   UNL A   1      45.868  23.963  26.331  1.00  0.00     0.029 A 
ATOM     37  N   UNL A   1      45.480  26.060  27.001  1.00  0.00    -0.354 N 
ATOM     38  C   UNL A   1      41.552  27.287  28.313  1.00  0.00     0.074 A 
ATOM     39  C   UNL A   1      40.615  26.187  28.253  1.00  0.00     0.031 C 
ATOM     40  C   UNL A   1      47.014  24.649  26.190  1.00  0.00     0.029 A 
ATOM     41  C   UNL A   1      46.791  26.035  26.591  1.00  0.00     0.049 A 
ATOM     42  H   UNL A   1      45.041  26.869  27.351  1.00  0.00     0.167 HD
ATOM     43  C   UNL A   1      41.240  28.534  28.740  1.00  0.00     0.037 A 
ATOM     44  C   UNL A   1      47.708  27.020  26.532  1.00  0.00     0.037 A 
ATOM     45  C   UNL A   1      42.177  29.625  28.810  1.00  0.00     0.049 A 
ATOM     46  C   UNL A   1      47.329  28.403  26.991  1.00  0.00     0.074 A 
ATOM     47  C   UNL A   1      41.970  30.913  29.272  1.00  0.00     0.029 A 
ATOM     48  N   UNL A   1      43.500  29.557  28.398  1.00  0.00    -0.354 N 
ATOM     49  N   UNL A   1      46.182  28.837  27.456  1.00  0.00    -0.248 NA
ATOM     50  C   UNL A   1      48.375  29.434  26.923  1.00  0.00     0.031 C 
ATOM     51  C   UNL A   1      43.151  31.640  29.090  1.00  0.00     0.029 A 
ATOM     52  C   UNL A   1      44.114  30.788  28.573  1.00  0.00     0.049 A 
ATOM     53  H   UNL A   1      43.939  28.753  28.035  1.00  0.00     0.167 HD
ATOM     54  C   UNL A   1      46.377  30.177  27.764  1.00  0.00     0.074 A 
ATOM     55  C   UNL A   1      47.757  30.481  27.449  1.00  0.00     0.031 C 
ATOM     56  C   UNL A   1      45.491  31.075  28.263  1.00  0.00     0.037 A 
BRANCH  43  57
ATOM     57  C   UNL A   1      39.822  28.787  29.169  1.00  0.00     0.064 A 
ATOM     58  C   UNL A   1      39.412  28.608  30.499  1.00  0.00     0.173 A 
ATOM     59  C   UNL A   1      38.869  29.249  28.248  1.00  0.00     0.173 A 
ATOM     60  F   UNL A   1      40.279  28.158  31.418  1.00  0.00    -0.203 F 
ATOM     61  C   UNL A   1      38.095  28.850  30.884  1.00  0.00     0.198 A 
ATOM     62  C   UNL A   1      37.562  29.524  28.644  1.00  0.00     0.198 A 
ATOM     63  F   UNL A   1      39.206  29.444  26.964  1.00  0.00    -0.203 F 
ATOM     64  F   UNL A   1      37.716  28.619  32.148  1.00  0.00    -0.200 F 
ATOM     65  C   UNL A   1      37.174  29.316  29.958  1.00  0.00     0.200 A 
ATOM     66  F   UNL A   1      36.677  29.988  27.751  1.00  0.00    -0.200 F 
ATOM     67  F   UNL A   1      35.910  29.557  30.332  1.00  0.00    -0.200 F 
ENDBRANCH  43  57
BRANCH  44  68
ATOM     68  C   UNL A   1      49.079  26.734  26.031  1.00  0.00     0.064 A 
ATOM     69  C   UNL A   1      50.070  26.230  26.884  1.00  0.00     0.173 A 
ATOM     70  C   UNL A   1      49.429  26.968  24.692  1.00  0.00     0.173 A 
ATOM     71  F   UNL A   1      49.790  26.008  28.177  1.00  0.00    -0.203 F 
ATOM     72  C   UNL A   1      51.365  25.996  26.426  1.00  0.00     0.198 A 
ATOM     73  C   UNL A   1      50.716  26.703  24.228  1.00  0.00     0.198 A 
ATOM     74  F   UNL A   1      48.517  27.444  23.832  1.00  0.00    -0.203 F 
ATOM     75  F   UNL A   1      52.307  25.566  27.277  1.00  0.00    -0.200 F 
ATOM     76  C   UNL A   1      51.685  26.227  25.097  1.00  0.00     0.200 A 
ATOM     77  F   UNL A   1      51.015  26.912  22.939  1.00  0.00    -0.200 F 
ATOM     78  F   UNL A   1      52.930  25.999  24.656  1.00  0.00    -0.200 F 
ENDBRANCH  44  68
BRANCH  56  79
ATOM     79  C   UNL A   1      45.996  32.463  28.539  1.00  0.00     0.064 A 
ATOM     80  C   UNL A   1      46.579  32.809  29.767  1.00  0.00     0.173 A 
ATOM     81  C   UNL A   1      45.931  33.451  27.543  1.00  0.00     0.173 A 
ATOM     82  F   UNL A   1      46.653  31.908  30.757  1.00  0.00    -0.203 F 
ATOM     83  C   UNL A   1      47.050  34.100  29.998  1.00  0.00     0.198 A 
ATOM     84  C   UNL A   1      46.435  34.729  27.765  1.00  0.00     0.198 A 
ATOM     85  F   UNL A   1      45.390  33.171  26.348  1.00  0.00    -0.203 F 
ATOM     86  F   UNL A   1      47.554  34.423  31.197  1.00  0.00    -0.200 F 
ATOM     87  C   UNL A   1      46.985  35.055  28.995  1.00  0.00     0.200 A 
ATOM     88  F   UNL A   1      46.387  35.645  26.788  1.00  0.00    -0.200 F 
ATOM     89  F   UNL A   1      47.448  36.293  29.215  1.00  0.00    -0.200 F 
ENDBRANCH  56  79
ENDBRANCH  30  31
ENDBRANCH  22  25
ENDBRANCH  20  21
ENDBRANCH  19  20
ENDBRANCH  18  19
ENDBRANCH   1  18
TORSDOF 18
ENDMDL
MODEL 3
REMARK VINA RESULT:      -9.9      0.692      7.653
REMARK SMILES CCCC[C@H](C(=O)OC)[C@H](O)C(=O)NCCCCNC(=O)c1ccc(-c2c3nc(c(-c4c(F)c(F)c(F)c(F)c4F)c4ccc([nH]4)c(-c4c(F)c(F)c(F)c(F)c4F)c4nc(c(-c5c(F)c(F)c(F)c(F)c5F)c5ccc2[nH]5)C=C4)C=C3)cc1
REMARK SMILES IDX 15 1 14 2 12 3 13 4 10 6 5 7 4 8 3 9 2 10 1 11 6 12 7 13
REMARK SMILES IDX 8 14 9 15 11 16 16 18 17 19 18 20 19 21 20 22 21 24 22 25
REMARK SMILES IDX 23 26 84 27 24 28 83 29 25 30 26 31 27 32 77 33 28 34 82 35
REMARK SMILES IDX 76 36 78 37 29 38 81 39 75 40 74 41 30 43 62 44 42 45 61 46
REMARK SMILES IDX 43 47 46 48 60 49 79 50 44 51 45 52 59 54 80 55 47 56 31 57
REMARK SMILES IDX 32 58 40 59 33 60 34 61 38 62 41 63 35 64 36 65 39 66 37 67
REMARK SMILES IDX 63 68 64 69 72 70 65 71 66 72 70 73 73 74 67 75 68 76 71 77
REMARK SMILES IDX 69 78 48 79 49 80 57 81 50 82 51 83 55 84 58 85 52 86 53 87
REMARK SMILES IDX 56 88 54 89
REMARK H PARENT 14 5 11 17 19 23 78 42 46 53
REMARK Flexibility Score: inf
ROOT
ATOM      1  C   UNL A   1      36.146  21.509  25.206  1.00  0.00     0.116 C 
ENDROOT
BRANCH   1   2
ATOM      2  N   UNL A   1      35.502  21.699  26.497  1.00  0.00    -0.354 N 
ATOM      3  C   UNL A   1      34.174  21.876  26.774  1.00  0.00     0.249 C 
ATOM      4  O   UNL A   1      33.829  21.992  27.951  1.00  0.00    -0.272 OA
ATOM      5  H   UNL A   1      36.103  21.700  27.276  1.00  0.00     0.163 HD
BRANCH   3   6
ATOM      6  C   UNL A   1      33.144  21.928  25.631  1.00  0.00     0.217 C 
BRANCH   6   7
ATOM      7  C   UNL A   1      33.020  23.371  25.109  1.00  0.00     0.137 C 
BRANCH   7   8
ATOM      8  C   UNL A   1      33.715  24.453  25.961  1.00  0.00     0.018 C 
BRANCH   8   9
ATOM      9  C   UNL A   1      34.365  25.555  25.105  1.00  0.00     0.001 C 
BRANCH   9  10
ATOM     10  C   UNL A   1      33.657  26.912  25.112  1.00  0.00    -0.003 C 
ATOM     11  C   UNL A   1      33.272  27.383  26.505  1.00  0.00     0.004 C 
ENDBRANCH   9  10
ENDBRANCH   8   9
ENDBRANCH   7   8
BRANCH   7  12
ATOM     12  C   UNL A   1      31.537  23.648  24.971  1.00  0.00     0.311 C 
ATOM     13  O   UNL A   1      30.845  23.324  24.015  1.00  0.00    -0.252 OA
BRANCH  12  14
ATOM     14  O   UNL A   1      31.097  24.339  26.060  1.00  0.00    -0.469 OA
ATOM     15  C   UNL A   1      30.180  25.392  25.762  1.00  0.00     0.282 C 
ENDBRANCH  12  14
ENDBRANCH   7  12
ENDBRANCH   6   7
BRANCH   6  16
ATOM     16  O   UNL A   1      31.902  21.396  26.101  1.00  0.00    -0.382 OA
ATOM     17  H   UNL A   1      32.069  20.786  26.836  1.00  0.00     0.211 HD
ENDBRANCH   6  16
ENDBRANCH   3   6
ENDBRANCH   1   2
BRANCH   1  18
ATOM     18  C   UNL A   1      36.644  20.085  25.001  1.00  0.00     0.023 C 
BRANCH  18  19
ATOM     19  C   UNL A   1      38.133  19.967  24.684  1.00  0.00     0.023 C 
BRANCH  19  20
ATOM     20  C   UNL A   1      39.068  20.176  25.869  1.00  0.00     0.116 C 
BRANCH  20  21
ATOM     21  N   UNL A   1      40.118  19.171  25.950  1.00  0.00    -0.352 N 
ATOM     22  C   UNL A   1      41.471  19.336  26.126  1.00  0.00     0.251 C 
ATOM     23  H   UNL A   1      39.815  18.238  25.866  1.00  0.00     0.163 HD
ATOM     24  O   UNL A   1      42.229  18.377  26.026  1.00  0.00    -0.269 OA
BRANCH  22  25
ATOM     25  C   UNL A   1      42.018  20.681  26.405  1.00  0.00     0.039 A 
ATOM     26  C   UNL A   1      42.270  21.542  25.334  1.00  0.00     0.014 A 
ATOM     27  C   UNL A   1      42.260  21.101  27.715  1.00  0.00     0.014 A 
ATOM     28  C   UNL A   1      42.691  22.850  25.583  1.00  0.00     0.010 A 
ATOM     29  C   UNL A   1      42.596  22.429  27.964  1.00  0.00     0.010 A 
ATOM     30  C   UNL A   1      42.813  23.318  26.901  1.00  0.00    -0.014 A 
BRANCH  30  31
ATOM     31  C   UNL A   1      43.161  24.736  27.187  1.00  0.00     0.031 A 
ATOM     32  C   UNL A   1      44.556  25.237  26.944  1.00  0.00     0.074 A 
ATOM     33  C   UNL A   1      42.235  25.553  27.726  1.00  0.00     0.049 A 
ATOM     34  N   UNL A   1      45.069  26.415  27.195  1.00  0.00    -0.248 NA
ATOM     35  C   UNL A   1      45.512  24.280  26.365  1.00  0.00     0.031 C 
ATOM     36  C   UNL A   1      40.860  25.175  28.056  1.00  0.00     0.029 A 
ATOM     37  N   UNL A   1      42.315  26.871  28.104  1.00  0.00    -0.354 N 
ATOM     38  C   UNL A   1      46.402  26.337  26.814  1.00  0.00     0.074 A 
ATOM     39  C   UNL A   1      46.637  24.978  26.374  1.00  0.00     0.031 C 
ATOM     40  C   UNL A   1      40.220  26.239  28.566  1.00  0.00     0.029 A 
ATOM     41  C   UNL A   1      41.149  27.362  28.641  1.00  0.00     0.049 A 
ATOM     42  H   UNL A   1      43.130  27.413  28.001  1.00  0.00     0.167 HD
ATOM     43  C   UNL A   1      47.339  27.315  26.806  1.00  0.00     0.037 A 
ATOM     44  C   UNL A   1      40.864  28.577  29.149  1.00  0.00     0.037 A 
ATOM     45  C   UNL A   1      47.100  28.670  27.232  1.00  0.00     0.049 A 
ATOM     46  C   UNL A   1      41.930  29.640  29.149  1.00  0.00     0.074 A 
ATOM     47  C   UNL A   1      47.970  29.746  27.217  1.00  0.00     0.029 A 
ATOM     48  N   UNL A   1      45.902  29.132  27.757  1.00  0.00    -0.354 N 
ATOM     49  N   UNL A   1      43.168  29.573  28.722  1.00  0.00    -0.248 NA
ATOM     50  C   UNL A   1      41.557  30.953  29.696  1.00  0.00     0.031 C 
ATOM     51  C   UNL A   1      47.317  30.845  27.784  1.00  0.00     0.029 A 
ATOM     52  C   UNL A   1      46.019  30.472  28.093  1.00  0.00     0.049 A 
ATOM     53  H   UNL A   1      45.088  28.589  27.874  1.00  0.00     0.167 HD
ATOM     54  C   UNL A   1      43.710  30.837  28.919  1.00  0.00     0.074 A 
ATOM     55  C   UNL A   1      42.660  31.656  29.489  1.00  0.00     0.031 C 
ATOM     56  C   UNL A   1      44.964  31.278  28.652  1.00  0.00     0.037 A 
BRANCH  43  57
ATOM     57  C   UNL A   1      48.714  26.956  26.316  1.00  0.00     0.064 A 
ATOM     58  C   UNL A   1      49.714  26.508  27.192  1.00  0.00     0.173 A 
ATOM     59  C   UNL A   1      49.026  27.025  24.949  1.00  0.00     0.173 A 
ATOM     60  F   UNL A   1      49.473  26.433  28.510  1.00  0.00    -0.203 F 
ATOM     61  C   UNL A   1      50.984  26.175  26.724  1.00  0.00     0.198 A 
ATOM     62  C   UNL A   1      50.284  26.657  24.480  1.00  0.00     0.198 A 
ATOM     63  F   UNL A   1      48.106  27.441  24.065  1.00  0.00    -0.203 F 
ATOM     64  F   UNL A   1      51.937  25.803  27.588  1.00  0.00    -0.200 F 
ATOM     65  C   UNL A   1      51.264  26.242  25.368  1.00  0.00     0.200 A 
ATOM     66  F   UNL A   1      50.550  26.708  23.167  1.00  0.00    -0.200 F 
ATOM     67  F   UNL A   1      52.482  25.912  24.918  1.00  0.00    -0.200 F 
ENDBRANCH  43  57
BRANCH  44  68
ATOM     68  C   UNL A   1      39.507  28.860  29.688  1.00  0.00     0.064 A 
ATOM     69  C   UNL A   1      38.491  29.359  28.862  1.00  0.00     0.173 A 
ATOM     70  C   UNL A   1      39.202  28.647  31.041  1.00  0.00     0.173 A 
ATOM     71  F   UNL A   1      38.738  29.598  27.566  1.00  0.00    -0.203 F 
ATOM     72  C   UNL A   1      37.229  29.660  29.373  1.00  0.00     0.198 A 
ATOM     73  C   UNL A   1      37.931  28.918  31.544  1.00  0.00     0.198 A 
ATOM     74  F   UNL A   1      40.137  28.166  31.873  1.00  0.00    -0.203 F 
ATOM     75  F   UNL A   1      36.294  30.188  28.573  1.00  0.00    -0.200 F 
ATOM     76  C   UNL A   1      36.949  29.433  30.712  1.00  0.00     0.200 A 
ATOM     77  F   UNL A   1      37.660  28.681  32.834  1.00  0.00    -0.200 F 
ATOM     78  F   UNL A   1      35.736  29.720  31.203  1.00  0.00    -0.200 F 
ENDBRANCH  44  68
BRANCH  56  79
ATOM     79  C   UNL A   1      45.262  32.724  28.935  1.00  0.00     0.064 A 
ATOM     80  C   UNL A   1      45.843  33.138  30.142  1.00  0.00     0.173 A 
ATOM     81  C   UNL A   1      44.997  33.704  27.964  1.00  0.00     0.173 A 
ATOM     82  F   UNL A   1      46.103  32.245  31.108  1.00  0.00    -0.203 F 
ATOM     83  C   UNL A   1      46.121  34.482  30.379  1.00  0.00     0.198 A 
ATOM     84  C   UNL A   1      45.309  35.041  28.191  1.00  0.00     0.198 A 
ATOM     85  F   UNL A   1      44.449  33.361  26.789  1.00  0.00    -0.203 F 
ATOM     86  F   UNL A   1      46.627  34.862  31.561  1.00  0.00    -0.200 F 
ATOM     87  C   UNL A   1      45.862  35.431  29.401  1.00  0.00     0.200 A 
ATOM     88  F   UNL A   1      45.074  35.953  27.237  1.00  0.00    -0.200 F 
ATOM     89  F   UNL A   1      46.139  36.722  29.627  1.00  0.00    -0.200 F 
ENDBRANCH  56  79
ENDBRANCH  30  31
ENDBRANCH  22  25
ENDBRANCH  20  21
ENDBRANCH  19  20
ENDBRANCH  18  19
ENDBRANCH   1  18
TORSDOF 18
ENDMDL
