MODEL 1
REMARK VINA RESULT:     -12.2      0.000      0.000
REMARK SMILES COc1ccc(CCNC(=O)[C@@]2(C)CC[C@@H](C(=O)NCCCCNC(=O)c3ccc(-c4c5nc(c(-c6c(F)c(F)c(F)c(F)c6F)c6ccc([nH]6)c(-c6c(F)c(F)c(F)c(F)c6F)c6nc(c(-c7c(F)c(F)c(F)c(F)c7F)c7ccc4[nH]7)C=C6)C=C5)cc3)C2(C)C)cc1OC
REMARK SMILES IDX 20 1 19 2 17 3 18 4 16 6 12 7 13 8 14 9 90 10 15 11 91 12
REMARK SMILES IDX 92 13 10 14 9 15 11 17 8 18 7 19 6 20 3 21 4 22 94 23 5 24
REMARK SMILES IDX 93 25 2 26 1 27 95 28 96 29 21 30 22 31 23 32 24 33 25 34
REMARK SMILES IDX 26 36 27 37 28 38 89 39 29 40 88 41 30 42 31 43 32 44 82 45
REMARK SMILES IDX 33 46 87 47 81 48 83 49 34 50 86 51 80 52 79 53 35 55 67 56
REMARK SMILES IDX 47 57 66 58 48 59 51 60 65 61 84 62 49 63 50 64 64 66 85 67
REMARK SMILES IDX 52 68 36 69 37 70 45 71 38 72 39 73 43 74 46 75 40 76 41 77
REMARK SMILES IDX 44 78 42 79 68 80 69 81 77 82 70 83 71 84 75 85 78 86 72 87
REMARK SMILES IDX 73 88 76 89 74 90 53 91 54 92 62 93 55 94 56 95 60 96 63 97
REMARK SMILES IDX 57 98 58 99 61 100 59 101
REMARK H PARENT 19 5 9 16 24 35 83 54 51 65
REMARK Flexibility Score: inf
ROOT
ATOM      1  C   UNL A   1      34.725  29.313  27.305  1.00  0.00     0.116 C 
ENDROOT
BRANCH   1   2
ATOM      2  N   UNL A   1      33.533  28.591  27.661  1.00  0.00    -0.356 N 
ATOM      3  C   UNL A   1      32.488  28.143  26.925  1.00  0.00     0.223 C 
ATOM      4  O   UNL A   1      31.599  27.571  27.569  1.00  0.00    -0.275 OA
ATOM      5  H   UNL A   1      33.463  28.383  28.620  1.00  0.00     0.163 HD
BRANCH   3   6
ATOM      6  C   UNL A   1      32.356  28.227  25.392  1.00  0.00     0.085 C 
ATOM      7  C   UNL A   1      31.788  26.490  23.632  1.00  0.00     0.052 C 
ATOM      8  C   UNL A   1      31.732  26.890  22.128  1.00  0.00     0.022 C 
ATOM      9  C   UNL A   1      30.530  27.086  24.291  1.00  0.00     0.018 C 
ATOM     10  C   UNL A   1      33.020  27.201  24.411  1.00  0.00    -0.010 C 
ATOM     11  C   UNL A   1      30.929  28.418  24.894  1.00  0.00     0.015 C 
ATOM     12  C   UNL A   1      33.991  26.232  25.108  1.00  0.00     0.013 C 
ATOM     13  C   UNL A   1      33.944  28.032  23.470  1.00  0.00     0.013 C 
BRANCH   7  14
ATOM     14  C   UNL A   1      31.928  24.937  23.573  1.00  0.00     0.226 C 
ATOM     15  N   UNL A   1      31.553  24.024  24.501  1.00  0.00    -0.355 N 
ATOM     16  H   UNL A   1      31.664  23.106  24.164  1.00  0.00     0.163 HD
ATOM     17  O   UNL A   1      32.403  24.424  22.548  1.00  0.00    -0.274 OA
BRANCH  15  18
ATOM     18  C   UNL A   1      31.028  24.032  25.863  1.00  0.00     0.120 C 
BRANCH  18  19
ATOM     19  C   UNL A   1      32.012  23.520  26.931  1.00  0.00     0.057 C 
BRANCH  19  20
ATOM     20  C   UNL A   1      33.164  22.669  26.439  1.00  0.00    -0.042 A 
ATOM     21  C   UNL A   1      35.251  21.040  25.458  1.00  0.00     0.160 A 
ATOM     22  C   UNL A   1      35.519  22.311  25.979  1.00  0.00     0.051 A 
ATOM     23  C   UNL A   1      33.942  20.557  25.436  1.00  0.00     0.160 A 
ATOM     24  C   UNL A   1      34.484  23.123  26.457  1.00  0.00     0.008 A 
ATOM     25  C   UNL A   1      32.914  21.393  25.901  1.00  0.00     0.054 A 
BRANCH  21  26
ATOM     26  O   UNL A   1      36.325  20.307  25.030  1.00  0.00    -0.493 OA
ATOM     27  C   UNL A   1      37.510  21.105  25.008  1.00  0.00     0.278 C 
ENDBRANCH  21  26
BRANCH  23  28
ATOM     28  O   UNL A   1      33.504  19.349  24.966  1.00  0.00    -0.493 OA
ATOM     29  C   UNL A   1      32.544  19.341  23.920  1.00  0.00     0.278 C 
ENDBRANCH  23  28
ENDBRANCH  19  20
ENDBRANCH  18  19
ENDBRANCH  15  18
ENDBRANCH   7  14
ENDBRANCH   3   6
ENDBRANCH   1   2
BRANCH   1  30
ATOM     30  C   UNL A   1      34.696  30.771  27.761  1.00  0.00     0.023 C 
BRANCH  30  31
ATOM     31  C   UNL A   1      33.351  31.483  27.687  1.00  0.00     0.023 C 
BRANCH  31  32
ATOM     32  C   UNL A   1      33.363  32.885  27.100  1.00  0.00     0.116 C 
BRANCH  32  33
ATOM     33  N   UNL A   1      32.564  33.860  27.819  1.00  0.00    -0.352 N 
ATOM     34  C   UNL A   1      33.065  34.786  28.698  1.00  0.00     0.251 C 
ATOM     35  H   UNL A   1      31.592  33.855  27.667  1.00  0.00     0.163 HD
ATOM     36  O   UNL A   1      32.551  35.881  28.854  1.00  0.00    -0.269 OA
BRANCH  34  37
ATOM     37  C   UNL A   1      34.255  34.402  29.457  1.00  0.00     0.039 A 
ATOM     38  C   UNL A   1      34.093  33.633  30.611  1.00  0.00     0.014 A 
ATOM     39  C   UNL A   1      35.512  34.707  28.948  1.00  0.00     0.014 A 
ATOM     40  C   UNL A   1      35.217  33.161  31.280  1.00  0.00     0.010 A 
ATOM     41  C   UNL A   1      36.626  34.166  29.569  1.00  0.00     0.010 A 
ATOM     42  C   UNL A   1      36.490  33.396  30.742  1.00  0.00    -0.014 A 
BRANCH  42  43
ATOM     43  C   UNL A   1      37.720  32.867  31.375  1.00  0.00     0.031 A 
ATOM     44  C   UNL A   1      38.448  31.744  30.699  1.00  0.00     0.074 A 
ATOM     45  C   UNL A   1      38.089  33.297  32.597  1.00  0.00     0.049 A 
ATOM     46  N   UNL A   1      39.327  30.911  31.187  1.00  0.00    -0.248 NA
ATOM     47  C   UNL A   1      38.089  31.492  29.294  1.00  0.00     0.031 C 
ATOM     48  C   UNL A   1      37.444  34.372  33.352  1.00  0.00     0.029 A 
ATOM     49  N   UNL A   1      39.078  32.849  33.434  1.00  0.00    -0.354 N 
ATOM     50  C   UNL A   1      39.567  29.990  30.177  1.00  0.00     0.074 A 
ATOM     51  C   UNL A   1      38.737  30.362  29.051  1.00  0.00     0.031 C 
ATOM     52  C   UNL A   1      38.051  34.498  34.543  1.00  0.00     0.029 A 
ATOM     53  C   UNL A   1      39.085  33.476  34.656  1.00  0.00     0.049 A 
ATOM     54  H   UNL A   1      39.721  32.146  33.184  1.00  0.00     0.167 HD
ATOM     55  C   UNL A   1      40.405  28.927  30.197  1.00  0.00     0.037 A 
ATOM     56  C   UNL A   1      39.819  33.224  35.755  1.00  0.00     0.037 A 
ATOM     57  C   UNL A   1      41.276  28.621  31.301  1.00  0.00     0.049 A 
ATOM     58  C   UNL A   1      40.805  32.090  35.722  1.00  0.00     0.074 A 
ATOM     59  C   UNL A   1      42.218  27.616  31.408  1.00  0.00     0.029 A 
ATOM     60  N   UNL A   1      41.320  29.343  32.487  1.00  0.00    -0.354 N 
ATOM     61  N   UNL A   1      41.030  31.220  34.766  1.00  0.00    -0.248 NA
ATOM     62  C   UNL A   1      41.638  31.899  36.916  1.00  0.00     0.031 C 
ATOM     63  C   UNL A   1      42.821  27.717  32.667  1.00  0.00     0.029 A 
ATOM     64  C   UNL A   1      42.278  28.808  33.330  1.00  0.00     0.049 A 
ATOM     65  H   UNL A   1      40.755  30.121  32.697  1.00  0.00     0.167 HD
ATOM     66  C   UNL A   1      42.037  30.390  35.234  1.00  0.00     0.074 A 
ATOM     67  C   UNL A   1      42.393  30.872  36.554  1.00  0.00     0.031 C 
ATOM     68  C   UNL A   1      42.614  29.322  34.632  1.00  0.00     0.037 A 
BRANCH  55  69
ATOM     69  C   UNL A   1      40.405  28.017  29.005  1.00  0.00     0.064 A 
ATOM     70  C   UNL A   1      41.159  28.298  27.856  1.00  0.00     0.173 A 
ATOM     71  C   UNL A   1      39.643  26.839  29.017  1.00  0.00     0.173 A 
ATOM     72  F   UNL A   1      41.891  29.420  27.786  1.00  0.00    -0.203 F 
ATOM     73  C   UNL A   1      41.125  27.449  26.752  1.00  0.00     0.198 A 
ATOM     74  C   UNL A   1      39.636  25.977  27.923  1.00  0.00     0.198 A 
ATOM     75  F   UNL A   1      38.904  26.522  30.090  1.00  0.00    -0.203 F 
ATOM     76  F   UNL A   1      41.811  27.767  25.645  1.00  0.00    -0.200 F 
ATOM     77  C   UNL A   1      40.370  26.287  26.788  1.00  0.00     0.200 A 
ATOM     78  F   UNL A   1      38.912  24.849  27.963  1.00  0.00    -0.200 F 
ATOM     79  F   UNL A   1      40.341  25.471  25.726  1.00  0.00    -0.200 F 
ENDBRANCH  55  69
BRANCH  56  80
ATOM     80  C   UNL A   1      39.646  34.062  36.970  1.00  0.00     0.064 A 
ATOM     81  C   UNL A   1      40.251  35.323  37.061  1.00  0.00     0.173 A 
ATOM     82  C   UNL A   1      38.860  33.635  38.050  1.00  0.00     0.173 A 
ATOM     83  F   UNL A   1      41.027  35.765  36.061  1.00  0.00    -0.203 F 
ATOM     84  C   UNL A   1      40.088  36.120  38.192  1.00  0.00     0.198 A 
ATOM     85  C   UNL A   1      38.676  34.445  39.170  1.00  0.00     0.198 A 
ATOM     86  F   UNL A   1      38.252  32.440  38.009  1.00  0.00    -0.203 F 
ATOM     87  F   UNL A   1      40.705  37.307  38.267  1.00  0.00    -0.200 F 
ATOM     88  C   UNL A   1      39.295  35.684  39.243  1.00  0.00     0.200 A 
ATOM     89  F   UNL A   1      37.896  34.026  40.176  1.00  0.00    -0.200 F 
ATOM     90  F   UNL A   1      39.130  36.455  40.326  1.00  0.00    -0.200 F 
ENDBRANCH  56  80
BRANCH  68  91
ATOM     91  C   UNL A   1      43.710  28.631  35.385  1.00  0.00     0.064 A 
ATOM     92  C   UNL A   1      43.433  27.623  36.320  1.00  0.00     0.173 A 
ATOM     93  C   UNL A   1      45.051  28.955  35.135  1.00  0.00     0.173 A 
ATOM     94  F   UNL A   1      42.163  27.293  36.599  1.00  0.00    -0.203 F 
ATOM     95  C   UNL A   1      44.463  26.978  36.995  1.00  0.00     0.198 A 
ATOM     96  C   UNL A   1      46.080  28.292  35.796  1.00  0.00     0.198 A 
ATOM     97  F   UNL A   1      45.362  29.909  34.246  1.00  0.00    -0.203 F 
ATOM     98  F   UNL A   1      44.179  26.045  37.914  1.00  0.00    -0.200 F 
ATOM     99  C   UNL A   1      45.786  27.308  36.728  1.00  0.00     0.200 A 
ATOM    100  F   UNL A   1      47.355  28.604  35.532  1.00  0.00    -0.200 F 
ATOM    101  F   UNL A   1      46.776  26.681  37.377  1.00  0.00    -0.200 F 
ENDBRANCH  68  91
ENDBRANCH  42  43
ENDBRANCH  34  37
ENDBRANCH  32  33
ENDBRANCH  31  32
ENDBRANCH  30  31
ENDBRANCH   1  30
TORSDOF 17
ENDMDL
MODEL 2
REMARK VINA RESULT:     -12.0      5.480     11.098
REMARK SMILES COc1ccc(CCNC(=O)[C@@]2(C)CC[C@@H](C(=O)NCCCCNC(=O)c3ccc(-c4c5nc(c(-c6c(F)c(F)c(F)c(F)c6F)c6ccc([nH]6)c(-c6c(F)c(F)c(F)c(F)c6F)c6nc(c(-c7c(F)c(F)c(F)c(F)c7F)c7ccc4[nH]7)C=C6)C=C5)cc3)C2(C)C)cc1OC
REMARK SMILES IDX 20 1 19 2 17 3 18 4 16 6 12 7 13 8 14 9 90 10 15 11 91 12
REMARK SMILES IDX 92 13 10 14 9 15 11 17 8 18 7 19 6 20 3 21 4 22 94 23 5 24
REMARK SMILES IDX 93 25 2 26 1 27 95 28 96 29 21 30 22 31 23 32 24 33 25 34
REMARK SMILES IDX 26 36 27 37 28 38 89 39 29 40 88 41 30 42 31 43 32 44 82 45
REMARK SMILES IDX 33 46 87 47 81 48 83 49 34 50 86 51 80 52 79 53 35 55 67 56
REMARK SMILES IDX 47 57 66 58 48 59 51 60 65 61 84 62 49 63 50 64 64 66 85 67
REMARK SMILES IDX 52 68 36 69 37 70 45 71 38 72 39 73 43 74 46 75 40 76 41 77
REMARK SMILES IDX 44 78 42 79 68 80 69 81 77 82 70 83 71 84 75 85 78 86 72 87
REMARK SMILES IDX 73 88 76 89 74 90 53 91 54 92 62 93 55 94 56 95 60 96 63 97
REMARK SMILES IDX 57 98 58 99 61 100 59 101
REMARK H PARENT 19 5 9 16 24 35 83 54 51 65
REMARK Flexibility Score: inf
ROOT
ATOM      1  C   UNL A   1      38.054  23.888  26.162  1.00  0.00     0.116 C 
ENDROOT
BRANCH   1   2
ATOM      2  N   UNL A   1      37.598  23.755  24.805  1.00  0.00    -0.356 N 
ATOM      3  C   UNL A   1      36.507  23.162  24.267  1.00  0.00     0.223 C 
ATOM      4  O   UNL A   1      36.437  23.211  23.032  1.00  0.00    -0.275 OA
ATOM      5  H   UNL A   1      38.192  24.173  24.141  1.00  0.00     0.163 HD
BRANCH   3   6
ATOM      6  C   UNL A   1      35.349  22.512  25.049  1.00  0.00     0.085 C 
ATOM      7  C   UNL A   1      32.832  22.800  24.923  1.00  0.00     0.052 C 
ATOM      8  C   UNL A   1      31.902  21.984  25.870  1.00  0.00     0.022 C 
ATOM      9  C   UNL A   1      33.359  21.810  23.867  1.00  0.00     0.018 C 
ATOM     10  C   UNL A   1      34.166  23.326  25.677  1.00  0.00    -0.010 C 
ATOM     11  C   UNL A   1      34.709  21.319  24.350  1.00  0.00     0.015 C 
ATOM     12  C   UNL A   1      34.381  24.849  25.626  1.00  0.00     0.013 C 
ATOM     13  C   UNL A   1      34.177  23.006  27.203  1.00  0.00     0.013 C 
BRANCH   7  14
ATOM     14  C   UNL A   1      31.908  23.964  24.449  1.00  0.00     0.226 C 
ATOM     15  N   UNL A   1      32.004  24.706  23.320  1.00  0.00    -0.355 N 
ATOM     16  H   UNL A   1      31.230  25.306  23.220  1.00  0.00     0.163 HD
ATOM     17  O   UNL A   1      30.922  24.258  25.144  1.00  0.00    -0.274 OA
BRANCH  15  18
ATOM     18  C   UNL A   1      32.942  24.858  22.212  1.00  0.00     0.120 C 
BRANCH  18  19
ATOM     19  C   UNL A   1      33.562  26.262  22.086  1.00  0.00     0.057 C 
BRANCH  19  20
ATOM     20  C   UNL A   1      32.936  27.357  22.923  1.00  0.00    -0.042 A 
ATOM     21  C   UNL A   1      31.680  29.369  24.456  1.00  0.00     0.160 A 
ATOM     22  C   UNL A   1      32.911  28.830  24.851  1.00  0.00     0.051 A 
ATOM     23  C   UNL A   1      31.069  28.926  23.283  1.00  0.00     0.160 A 
ATOM     24  C   UNL A   1      33.529  27.825  24.097  1.00  0.00     0.008 A 
ATOM     25  C   UNL A   1      31.694  27.904  22.549  1.00  0.00     0.054 A 
BRANCH  21  26
ATOM     26  O   UNL A   1      31.157  30.359  25.242  1.00  0.00    -0.493 OA
ATOM     27  C   UNL A   1      31.874  30.463  26.475  1.00  0.00     0.278 C 
ENDBRANCH  21  26
BRANCH  23  28
ATOM     28  O   UNL A   1      29.878  29.339  22.752  1.00  0.00    -0.493 OA
ATOM     29  C   UNL A   1      28.708  28.597  23.065  1.00  0.00     0.278 C 
ENDBRANCH  23  28
ENDBRANCH  19  20
ENDBRANCH  18  19
ENDBRANCH  15  18
ENDBRANCH   7  14
ENDBRANCH   3   6
ENDBRANCH   1   2
BRANCH   1  30
ATOM     30  C   UNL A   1      39.158  22.893  26.520  1.00  0.00     0.023 C 
BRANCH  30  31
ATOM     31  C   UNL A   1      39.150  21.567  25.772  1.00  0.00     0.023 C 
BRANCH  31  32
ATOM     32  C   UNL A   1      39.616  20.349  26.553  1.00  0.00     0.116 C 
BRANCH  32  33
ATOM     33  N   UNL A   1      40.515  19.465  25.836  1.00  0.00    -0.352 N 
ATOM     34  C   UNL A   1      41.874  19.418  26.014  1.00  0.00     0.251 C 
ATOM     35  H   UNL A   1      40.121  18.855  25.171  1.00  0.00     0.163 HD
ATOM     36  O   UNL A   1      42.515  18.390  25.868  1.00  0.00    -0.269 OA
BRANCH  34  37
ATOM     37  C   UNL A   1      42.536  20.668  26.387  1.00  0.00     0.039 A 
ATOM     38  C   UNL A   1      42.917  21.550  25.375  1.00  0.00     0.014 A 
ATOM     39  C   UNL A   1      42.657  20.996  27.732  1.00  0.00     0.014 A 
ATOM     40  C   UNL A   1      43.442  22.793  25.715  1.00  0.00     0.010 A 
ATOM     41  C   UNL A   1      43.101  22.266  28.066  1.00  0.00     0.010 A 
ATOM     42  C   UNL A   1      43.503  23.170  27.063  1.00  0.00    -0.014 A 
BRANCH  42  43
ATOM     43  C   UNL A   1      43.994  24.503  27.483  1.00  0.00     0.031 A 
ATOM     44  C   UNL A   1      43.000  25.506  27.987  1.00  0.00     0.074 A 
ATOM     45  C   UNL A   1      45.282  24.843  27.283  1.00  0.00     0.049 A 
ATOM     46  N   UNL A   1      43.114  26.802  28.104  1.00  0.00    -0.248 NA
ATOM     47  C   UNL A   1      41.677  24.979  28.356  1.00  0.00     0.031 C 
ATOM     48  C   UNL A   1      46.330  23.951  26.784  1.00  0.00     0.029 A 
ATOM     49  N   UNL A   1      45.917  26.048  27.440  1.00  0.00    -0.354 N 
ATOM     50  C   UNL A   1      41.857  27.253  28.481  1.00  0.00     0.074 A 
ATOM     51  C   UNL A   1      40.995  26.094  28.570  1.00  0.00     0.031 C 
ATOM     52  C   UNL A   1      47.476  24.640  26.671  1.00  0.00     0.029 A 
ATOM     53  C   UNL A   1      47.229  26.031  27.033  1.00  0.00     0.049 A 
ATOM     54  H   UNL A   1      45.476  26.847  27.809  1.00  0.00     0.167 HD
ATOM     55  C   UNL A   1      41.465  28.525  28.727  1.00  0.00     0.037 A 
ATOM     56  C   UNL A   1      48.117  27.036  26.929  1.00  0.00     0.037 A 
ATOM     57  C   UNL A   1      42.359  29.652  28.705  1.00  0.00     0.049 A 
ATOM     58  C   UNL A   1      47.678  28.428  27.290  1.00  0.00     0.074 A 
ATOM     59  C   UNL A   1      42.093  30.974  29.006  1.00  0.00     0.029 A 
ATOM     60  N   UNL A   1      43.707  29.576  28.380  1.00  0.00    -0.354 N 
ATOM     61  N   UNL A   1      46.489  28.852  27.647  1.00  0.00    -0.248 NA
ATOM     62  C   UNL A   1      48.700  29.482  27.234  1.00  0.00     0.031 C 
ATOM     63  C   UNL A   1      43.277  31.704  28.847  1.00  0.00     0.029 A 
ATOM     64  C   UNL A   1      44.288  30.828  28.479  1.00  0.00     0.049 A 
ATOM     65  H   UNL A   1      44.180  28.753  28.120  1.00  0.00     0.167 HD
ATOM     66  C   UNL A   1      46.621  30.214  27.872  1.00  0.00     0.074 A 
ATOM     67  C   UNL A   1      48.012  30.543  27.630  1.00  0.00     0.031 C 
ATOM     68  C   UNL A   1      45.679  31.115  28.242  1.00  0.00     0.037 A 
BRANCH  55  69
ATOM     69  C   UNL A   1      40.012  28.762  29.020  1.00  0.00     0.064 A 
ATOM     70  C   UNL A   1      39.476  28.588  30.304  1.00  0.00     0.173 A 
ATOM     71  C   UNL A   1      39.146  29.178  27.998  1.00  0.00     0.173 A 
ATOM     72  F   UNL A   1      40.258  28.174  31.312  1.00  0.00    -0.203 F 
ATOM     73  C   UNL A   1      38.120  28.793  30.547  1.00  0.00     0.198 A 
ATOM     74  C   UNL A   1      37.796  29.411  28.252  1.00  0.00     0.198 A 
ATOM     75  F   UNL A   1      39.606  29.360  26.752  1.00  0.00    -0.203 F 
ATOM     76  F   UNL A   1      37.620  28.567  31.771  1.00  0.00    -0.200 F 
ATOM     77  C   UNL A   1      37.282  29.209  29.524  1.00  0.00     0.200 A 
ATOM     78  F   UNL A   1      36.990  29.823  27.263  1.00  0.00    -0.200 F 
ATOM     79  F   UNL A   1      35.978  29.408  29.761  1.00  0.00    -0.200 F 
ENDBRANCH  55  69
BRANCH  56  80
ATOM     80  C   UNL A   1      49.500  26.759  26.465  1.00  0.00     0.064 A 
ATOM     81  C   UNL A   1      50.485  26.333  27.366  1.00  0.00     0.173 A 
ATOM     82  C   UNL A   1      49.862  26.889  25.116  1.00  0.00     0.173 A 
ATOM     83  F   UNL A   1      50.191  26.212  28.669  1.00  0.00    -0.203 F 
ATOM     84  C   UNL A   1      51.783  26.061  26.939  1.00  0.00     0.198 A 
ATOM     85  C   UNL A   1      51.154  26.591  24.686  1.00  0.00     0.198 A 
ATOM     86  F   UNL A   1      48.954  27.285  24.211  1.00  0.00    -0.203 F 
ATOM     87  F   UNL A   1      52.714  25.689  27.828  1.00  0.00    -0.200 F 
ATOM     88  C   UNL A   1      52.116  26.184  25.598  1.00  0.00     0.200 A 
ATOM     89  F   UNL A   1      51.466  26.695  23.387  1.00  0.00    -0.200 F 
ATOM     90  F   UNL A   1      53.361  25.912  25.187  1.00  0.00    -0.200 F 
ENDBRANCH  56  80
BRANCH  68  91
ATOM     91  C   UNL A   1      46.134  32.529  28.437  1.00  0.00     0.064 A 
ATOM     92  C   UNL A   1      46.086  33.464  27.394  1.00  0.00     0.173 A 
ATOM     93  C   UNL A   1      46.584  32.958  29.694  1.00  0.00     0.173 A 
ATOM     94  F   UNL A   1      45.676  33.091  26.172  1.00  0.00    -0.203 F 
ATOM     95  C   UNL A   1      46.493  34.778  27.597  1.00  0.00     0.198 A 
ATOM     96  C   UNL A   1      46.969  34.280  29.899  1.00  0.00     0.198 A 
ATOM     97  F   UNL A   1      46.642  32.100  30.722  1.00  0.00    -0.203 F 
ATOM     98  F   UNL A   1      46.478  35.649  26.578  1.00  0.00    -0.200 F 
ATOM     99  C   UNL A   1      46.929  35.187  28.851  1.00  0.00     0.200 A 
ATOM    100  F   UNL A   1      47.381  34.675  31.112  1.00  0.00    -0.200 F 
ATOM    101  F   UNL A   1      47.316  36.455  29.045  1.00  0.00    -0.200 F 
ENDBRANCH  68  91
ENDBRANCH  42  43
ENDBRANCH  34  37
ENDBRANCH  32  33
ENDBRANCH  31  32
ENDBRANCH  30  31
ENDBRANCH   1  30
TORSDOF 17
ENDMDL
MODEL 3
REMARK VINA RESULT:     -11.8      5.289     10.033
REMARK SMILES COc1ccc(CCNC(=O)[C@@]2(C)CC[C@@H](C(=O)NCCCCNC(=O)c3ccc(-c4c5nc(c(-c6c(F)c(F)c(F)c(F)c6F)c6ccc([nH]6)c(-c6c(F)c(F)c(F)c(F)c6F)c6nc(c(-c7c(F)c(F)c(F)c(F)c7F)c7ccc4[nH]7)C=C6)C=C5)cc3)C2(C)C)cc1OC
REMARK SMILES IDX 20 1 19 2 17 3 18 4 16 6 12 7 13 8 14 9 90 10 15 11 91 12
REMARK SMILES IDX 92 13 10 14 9 15 11 17 8 18 7 19 6 20 3 21 4 22 94 23 5 24
REMARK SMILES IDX 93 25 2 26 1 27 95 28 96 29 21 30 22 31 23 32 24 33 25 34
REMARK SMILES IDX 26 36 27 37 28 38 89 39 29 40 88 41 30 42 31 43 32 44 82 45
REMARK SMILES IDX 33 46 87 47 81 48 83 49 34 50 86 51 80 52 79 53 35 55 67 56
REMARK SMILES IDX 47 57 66 58 48 59 51 60 65 61 84 62 49 63 50 64 64 66 85 67
REMARK SMILES IDX 52 68 36 69 37 70 45 71 38 72 39 73 43 74 46 75 40 76 41 77
REMARK SMILES IDX 44 78 42 79 68 80 69 81 77 82 70 83 71 84 75 85 78 86 72 87
REMARK SMILES IDX 73 88 76 89 74 90 53 91 54 92 62 93 55 94 56 95 60 96 63 97
REMARK SMILES IDX 57 98 58 99 61 100 59 101
REMARK H PARENT 19 5 9 16 24 35 83 54 51 65
REMARK Flexibility Score: inf
ROOT
ATOM      1  C   UNL A   1      38.037  23.106  26.097  1.00  0.00     0.116 C 
ENDROOT
BRANCH   1   2
ATOM      2  N   UNL A   1      37.520  23.280  24.767  1.00  0.00    -0.356 N 
ATOM      3  C   UNL A   1      36.334  22.951  24.203  1.00  0.00     0.223 C 
ATOM      4  O   UNL A   1      36.229  23.225  23.000  1.00  0.00    -0.275 OA
ATOM      5  H   UNL A   1      38.146  23.720  24.149  1.00  0.00     0.163 HD
BRANCH   3   6
ATOM      6  C   UNL A   1      35.120  22.344  24.933  1.00  0.00     0.085 C 
ATOM      7  C   UNL A   1      32.634  22.833  24.806  1.00  0.00     0.052 C 
ATOM      8  C   UNL A   1      31.633  22.033  25.691  1.00  0.00     0.022 C 
ATOM      9  C   UNL A   1      33.097  21.875  23.692  1.00  0.00     0.018 C 
ATOM     10  C   UNL A   1      33.995  23.205  25.603  1.00  0.00    -0.010 C 
ATOM     11  C   UNL A   1      34.399  21.251  24.153  1.00  0.00     0.015 C 
ATOM     12  C   UNL A   1      34.327  24.706  25.653  1.00  0.00     0.013 C 
ATOM     13  C   UNL A   1      33.962  22.788  27.104  1.00  0.00     0.013 C 
BRANCH   7  14
ATOM     14  C   UNL A   1      31.808  24.094  24.402  1.00  0.00     0.226 C 
ATOM     15  N   UNL A   1      32.022  24.942  23.367  1.00  0.00    -0.355 N 
ATOM     16  H   UNL A   1      31.290  25.594  23.283  1.00  0.00     0.163 HD
ATOM     17  O   UNL A   1      30.794  24.373  25.060  1.00  0.00    -0.274 OA
BRANCH  15  18
ATOM     18  C   UNL A   1      33.042  25.151  22.344  1.00  0.00     0.120 C 
BRANCH  18  19
ATOM     19  C   UNL A   1      33.347  26.629  22.036  1.00  0.00     0.057 C 
BRANCH  19  20
ATOM     20  C   UNL A   1      33.025  27.628  23.127  1.00  0.00    -0.042 A 
ATOM     21  C   UNL A   1      32.329  29.473  25.149  1.00  0.00     0.160 A 
ATOM     22  C   UNL A   1      33.560  28.806  25.179  1.00  0.00     0.051 A 
ATOM     23  C   UNL A   1      31.437  29.243  24.100  1.00  0.00     0.160 A 
ATOM     24  C   UNL A   1      33.901  27.884  24.183  1.00  0.00     0.008 A 
ATOM     25  C   UNL A   1      31.788  28.301  23.120  1.00  0.00     0.054 A 
BRANCH  21  26
ATOM     26  O   UNL A   1      32.085  30.370  26.153  1.00  0.00    -0.493 OA
ATOM     27  C   UNL A   1      33.260  30.590  26.936  1.00  0.00     0.278 C 
ENDBRANCH  21  26
BRANCH  23  28
ATOM     28  O   UNL A   1      30.203  29.803  23.914  1.00  0.00    -0.493 OA
ATOM     29  C   UNL A   1      29.466  29.439  22.755  1.00  0.00     0.278 C 
ENDBRANCH  23  28
ENDBRANCH  19  20
ENDBRANCH  18  19
ENDBRANCH  15  18
ENDBRANCH   7  14
ENDBRANCH   3   6
ENDBRANCH   1   2
BRANCH   1  30
ATOM     30  C   UNL A   1      39.365  22.350  26.126  1.00  0.00     0.023 C 
BRANCH  30  31
ATOM     31  C   UNL A   1      39.347  20.919  25.606  1.00  0.00     0.023 C 
BRANCH  31  32
ATOM     32  C   UNL A   1      39.932  19.860  26.527  1.00  0.00     0.116 C 
BRANCH  32  33
ATOM     33  N   UNL A   1      40.964  19.032  25.933  1.00  0.00    -0.352 N 
ATOM     34  C   UNL A   1      42.312  19.244  26.068  1.00  0.00     0.251 C 
ATOM     35  H   UNL A   1      40.676  18.261  25.391  1.00  0.00     0.163 HD
ATOM     36  O   UNL A   1      43.119  18.329  26.070  1.00  0.00    -0.269 OA
BRANCH  34  37
ATOM     37  C   UNL A   1      42.753  20.632  26.206  1.00  0.00     0.039 A 
ATOM     38  C   UNL A   1      42.986  21.378  25.049  1.00  0.00     0.014 A 
ATOM     39  C   UNL A   1      42.808  21.203  27.472  1.00  0.00     0.014 A 
ATOM     40  C   UNL A   1      43.292  22.731  25.160  1.00  0.00     0.010 A 
ATOM     41  C   UNL A   1      43.031  22.567  27.574  1.00  0.00     0.010 A 
ATOM     42  C   UNL A   1      43.282  23.340  26.422  1.00  0.00    -0.014 A 
BRANCH  42  43
ATOM     43  C   UNL A   1      43.539  24.787  26.597  1.00  0.00     0.031 A 
ATOM     44  C   UNL A   1      44.920  25.307  26.331  1.00  0.00     0.074 A 
ATOM     45  C   UNL A   1      42.586  25.585  27.115  1.00  0.00     0.049 A 
ATOM     46  N   UNL A   1      45.474  26.428  26.709  1.00  0.00    -0.248 NA
ATOM     47  C   UNL A   1      45.817  24.410  25.585  1.00  0.00     0.031 C 
ATOM     48  C   UNL A   1      41.214  25.182  27.425  1.00  0.00     0.029 A 
ATOM     49  N   UNL A   1      42.644  26.898  27.508  1.00  0.00    -0.354 N 
ATOM     50  C   UNL A   1      46.802  26.337  26.317  1.00  0.00     0.074 A 
ATOM     51  C   UNL A   1      46.973  25.051  25.677  1.00  0.00     0.031 C 
ATOM     52  C   UNL A   1      40.561  26.223  27.966  1.00  0.00     0.029 A 
ATOM     53  C   UNL A   1      41.484  27.345  28.092  1.00  0.00     0.049 A 
ATOM     54  H   UNL A   1      43.440  27.465  27.385  1.00  0.00     0.167 HD
ATOM     55  C   UNL A   1      47.786  27.251  26.484  1.00  0.00     0.037 A 
ATOM     56  C   UNL A   1      41.213  28.516  28.696  1.00  0.00     0.037 A 
ATOM     57  C   UNL A   1      47.574  28.554  27.057  1.00  0.00     0.049 A 
ATOM     58  C   UNL A   1      42.302  29.548  28.792  1.00  0.00     0.074 A 
ATOM     59  C   UNL A   1      48.476  29.589  27.212  1.00  0.00     0.029 A 
ATOM     60  N   UNL A   1      46.356  29.004  27.550  1.00  0.00    -0.354 N 
ATOM     61  N   UNL A   1      43.557  29.461  28.422  1.00  0.00    -0.248 NA
ATOM     62  C   UNL A   1      41.941  30.840  29.391  1.00  0.00     0.031 C 
ATOM     63  C   UNL A   1      47.809  30.661  27.816  1.00  0.00     0.029 A 
ATOM     64  C   UNL A   1      46.482  30.304  28.006  1.00  0.00     0.049 A 
ATOM     65  H   UNL A   1      45.525  28.476  27.571  1.00  0.00     0.167 HD
ATOM     66  C   UNL A   1      44.132  30.685  28.726  1.00  0.00     0.074 A 
ATOM     67  C   UNL A   1      43.083  31.507  29.296  1.00  0.00     0.031 C 
ATOM     68  C   UNL A   1      45.413  31.095  28.556  1.00  0.00     0.037 A 
BRANCH  55  69
ATOM     69  C   UNL A   1      49.173  26.866  26.061  1.00  0.00     0.064 A 
ATOM     70  C   UNL A   1      50.083  26.274  26.949  1.00  0.00     0.173 A 
ATOM     71  C   UNL A   1      49.594  27.085  24.741  1.00  0.00     0.173 A 
ATOM     72  F   UNL A   1      49.737  26.059  28.227  1.00  0.00    -0.203 F 
ATOM     73  C   UNL A   1      51.373  25.945  26.540  1.00  0.00     0.198 A 
ATOM     74  C   UNL A   1      50.875  26.727  24.327  1.00  0.00     0.198 A 
ATOM     75  F   UNL A   1      48.764  27.648  23.850  1.00  0.00    -0.203 F 
ATOM     76  F   UNL A   1      52.243  25.432  27.421  1.00  0.00    -0.200 F 
ATOM     77  C   UNL A   1      51.766  26.166  25.229  1.00  0.00     0.200 A 
ATOM     78  F   UNL A   1      51.250  26.933  23.056  1.00  0.00    -0.200 F 
ATOM     79  F   UNL A   1      53.007  25.846  24.836  1.00  0.00    -0.200 F 
ENDBRANCH  55  69
BRANCH  56  80
ATOM     80  C   UNL A   1      39.858  28.769  29.250  1.00  0.00     0.064 A 
ATOM     81  C   UNL A   1      38.838  29.285  28.439  1.00  0.00     0.173 A 
ATOM     82  C   UNL A   1      39.547  28.481  30.588  1.00  0.00     0.173 A 
ATOM     83  F   UNL A   1      39.094  29.592  27.159  1.00  0.00    -0.203 F 
ATOM     84  C   UNL A   1      37.562  29.517  28.947  1.00  0.00     0.198 A 
ATOM     85  C   UNL A   1      38.262  28.689  31.087  1.00  0.00     0.198 A 
ATOM     86  F   UNL A   1      40.485  27.978  31.403  1.00  0.00    -0.203 F 
ATOM     87  F   UNL A   1      36.615  30.043  28.159  1.00  0.00    -0.200 F 
ATOM     88  C   UNL A   1      37.272  29.213  30.269  1.00  0.00     0.200 A 
ATOM     89  F   UNL A   1      37.983  28.379  32.360  1.00  0.00    -0.200 F 
ATOM     90  F   UNL A   1      36.042  29.426  30.754  1.00  0.00    -0.200 F 
ENDBRANCH  56  80
BRANCH  68  91
ATOM     91  C   UNL A   1      45.732  32.502  28.960  1.00  0.00     0.064 A 
ATOM     92  C   UNL A   1      46.208  32.804  30.243  1.00  0.00     0.173 A 
ATOM     93  C   UNL A   1      45.598  33.549  28.037  1.00  0.00     0.173 A 
ATOM     94  F   UNL A   1      46.336  31.834  31.161  1.00  0.00    -0.203 F 
ATOM     95  C   UNL A   1      46.519  34.113  30.596  1.00  0.00     0.198 A 
ATOM     96  C   UNL A   1      45.932  34.854  28.387  1.00  0.00     0.198 A 
ATOM     97  F   UNL A   1      45.151  33.305  26.796  1.00  0.00    -0.203 F 
ATOM     98  F   UNL A   1      46.935  34.390  31.840  1.00  0.00    -0.200 F 
ATOM     99  C   UNL A   1      46.387  35.136  29.666  1.00  0.00     0.200 A 
ATOM    100  F   UNL A   1      45.813  35.839  27.486  1.00  0.00    -0.200 F 
ATOM    101  F   UNL A   1      46.692  36.395  30.007  1.00  0.00    -0.200 F 
ENDBRANCH  68  91
ENDBRANCH  42  43
ENDBRANCH  34  37
ENDBRANCH  32  33
ENDBRANCH  31  32
ENDBRANCH  30  31
ENDBRANCH   1  30
TORSDOF 17
ENDMDL
