MODEL 1
REMARK VINA RESULT:     -13.3      0.000      0.000
REMARK SMILES COc1ccc(C(=O)Nc2cc(C(=O)NCCCCNC(=O)c3ccc(-c4c5nc(c(-c6c(F)c(F)c(F)c(F)c6F)c6ccc([nH]6)c(-c6c(F)c(F)c(F)c(F)c6F)c6nc(c(-c7c(F)c(F)c(F)c(F)c7F)c7ccc4[nH]7)C=C6)C=C5)cc3)c(Cl)cc2Cl)cc1Cl
REMARK SMILES IDX 17 1 16 2 15 3 13 4 14 5 12 7 10 8 11 9 89 10 88 11 90 12
REMARK SMILES IDX 86 13 87 14 9 15 7 16 8 17 6 19 3 20 4 21 92 22 5 23 91 24
REMARK SMILES IDX 93 25 2 26 1 27 18 28 19 29 20 30 21 31 22 33 23 34 24 35
REMARK SMILES IDX 85 36 25 37 84 38 26 39 27 40 28 41 78 42 29 43 83 44 77 45
REMARK SMILES IDX 79 46 30 47 82 48 76 49 75 50 31 52 63 53 43 54 62 55 44 56
REMARK SMILES IDX 47 57 61 58 80 59 45 60 46 61 60 63 81 64 48 65 32 66 33 67
REMARK SMILES IDX 41 68 34 69 35 70 39 71 42 72 36 73 37 74 40 75 38 76 64 77
REMARK SMILES IDX 65 78 73 79 66 80 67 81 71 82 74 83 68 84 69 85 72 86 70 87
REMARK SMILES IDX 49 88 50 89 58 90 51 91 52 92 56 93 59 94 53 95 54 96 57 97
REMARK SMILES IDX 55 98
REMARK H PARENT 15 6 9 18 20 32 79 51 47 62
REMARK Flexibility Score: inf
ROOT
ATOM      1  C   UNL A   1      31.621  30.820  26.144  1.00  0.00     0.023 C 
ENDROOT
BRANCH   1   2
ATOM      2  C   UNL A   1      32.846  30.075  26.671  1.00  0.00     0.116 C 
BRANCH   2   3
ATOM      3  N   UNL A   1      33.675  29.456  25.654  1.00  0.00    -0.352 N 
ATOM      4  C   UNL A   1      33.341  28.614  24.617  1.00  0.00     0.252 C 
ATOM      5  O   UNL A   1      34.216  28.282  23.819  1.00  0.00    -0.269 OA
ATOM      6  H   UNL A   1      34.633  29.674  25.715  1.00  0.00     0.163 HD
BRANCH   4   7
ATOM      7  C   UNL A   1      32.000  27.987  24.484  1.00  0.00     0.060 A 
ATOM      8  C   UNL A   1      30.446  26.363  25.470  1.00  0.00     0.061 A 
ATOM      9  C   UNL A   1      31.701  26.983  25.434  1.00  0.00     0.043 A 
ATOM     10  C   UNL A   1      29.505  26.710  24.488  1.00  0.00     0.066 A 
ATOM     11  C   UNL A   1      29.810  27.651  23.506  1.00  0.00     0.044 A 
ATOM     12  Cl  UNL A   1      27.919  26.014  24.484  1.00  0.00    -0.082 Cl
ATOM     13  C   UNL A   1      31.069  28.262  23.479  1.00  0.00     0.055 A 
ATOM     14  Cl  UNL A   1      31.416  29.231  22.093  1.00  0.00    -0.083 Cl
BRANCH   8  15
ATOM     15  N   UNL A   1      30.088  25.391  26.428  1.00  0.00    -0.321 N 
ATOM     16  C   UNL A   1      30.366  24.049  26.563  1.00  0.00     0.255 C 
ATOM     17  O   UNL A   1      29.685  23.377  27.339  1.00  0.00    -0.269 OA
ATOM     18  H   UNL A   1      29.520  25.746  27.150  1.00  0.00     0.170 HD
BRANCH  16  19
ATOM     19  C   UNL A   1      31.531  23.403  25.902  1.00  0.00     0.041 A 
ATOM     20  C   UNL A   1      33.761  22.123  24.728  1.00  0.00     0.137 A 
ATOM     21  C   UNL A   1      33.860  22.760  25.976  1.00  0.00     0.049 A 
ATOM     22  C   UNL A   1      32.534  22.168  24.055  1.00  0.00     0.083 A 
ATOM     23  C   UNL A   1      32.757  23.384  26.566  1.00  0.00     0.018 A 
ATOM     24  C   UNL A   1      31.457  22.869  24.614  1.00  0.00     0.038 A 
ATOM     25  Cl  UNL A   1      32.163  21.336  22.586  1.00  0.00    -0.080 Cl
BRANCH  20  26
ATOM     26  O   UNL A   1      34.930  21.511  24.373  1.00  0.00    -0.495 OA
ATOM     27  C   UNL A   1      35.841  21.112  25.383  1.00  0.00     0.278 C 
ENDBRANCH  20  26
ENDBRANCH  16  19
ENDBRANCH   8  15
ENDBRANCH   4   7
ENDBRANCH   2   3
ENDBRANCH   1   2
BRANCH   1  28
ATOM     28  C   UNL A   1      31.416  32.256  26.626  1.00  0.00     0.023 C 
BRANCH  28  29
ATOM     29  C   UNL A   1      32.608  32.952  27.279  1.00  0.00     0.116 C 
BRANCH  29  30
ATOM     30  N   UNL A   1      32.338  34.310  27.727  1.00  0.00    -0.352 N 
ATOM     31  C   UNL A   1      32.974  35.081  28.673  1.00  0.00     0.251 C 
ATOM     32  H   UNL A   1      31.577  34.748  27.281  1.00  0.00     0.163 HD
ATOM     33  O   UNL A   1      32.546  36.202  28.935  1.00  0.00    -0.269 OA
BRANCH  31  34
ATOM     34  C   UNL A   1      34.140  34.554  29.419  1.00  0.00     0.039 A 
ATOM     35  C   UNL A   1      33.926  33.969  30.671  1.00  0.00     0.014 A 
ATOM     36  C   UNL A   1      35.432  34.615  28.893  1.00  0.00     0.014 A 
ATOM     37  C   UNL A   1      34.985  33.350  31.341  1.00  0.00     0.010 A 
ATOM     38  C   UNL A   1      36.469  33.928  29.521  1.00  0.00     0.010 A 
ATOM     39  C   UNL A   1      36.254  33.274  30.745  1.00  0.00    -0.014 A 
BRANCH  39  40
ATOM     40  C   UNL A   1      37.356  32.491  31.365  1.00  0.00     0.031 A 
ATOM     41  C   UNL A   1      37.876  32.857  32.727  1.00  0.00     0.074 A 
ATOM     42  C   UNL A   1      37.949  31.504  30.663  1.00  0.00     0.049 A 
ATOM     43  N   UNL A   1      38.891  32.359  33.388  1.00  0.00    -0.248 NA
ATOM     44  C   UNL A   1      37.183  33.949  33.427  1.00  0.00     0.031 C 
ATOM     45  C   UNL A   1      37.577  31.086  29.310  1.00  0.00     0.029 A 
ATOM     46  N   UNL A   1      39.002  30.683  30.983  1.00  0.00    -0.354 N 
ATOM     47  C   UNL A   1      38.968  33.087  34.568  1.00  0.00     0.074 A 
ATOM     48  C   UNL A   1      37.931  34.094  34.510  1.00  0.00     0.031 C 
ATOM     49  C   UNL A   1      38.374  30.078  28.924  1.00  0.00     0.029 A 
ATOM     50  C   UNL A   1      39.341  29.803  29.983  1.00  0.00     0.049 A 
ATOM     51  H   UNL A   1      39.471  30.720  31.848  1.00  0.00     0.167 HD
ATOM     52  C   UNL A   1      39.813  32.917  35.613  1.00  0.00     0.037 A 
ATOM     53  C   UNL A   1      40.326  28.887  29.920  1.00  0.00     0.037 A 
ATOM     54  C   UNL A   1      40.824  31.895  35.682  1.00  0.00     0.049 A 
ATOM     55  C   UNL A   1      41.249  28.717  31.097  1.00  0.00     0.074 A 
ATOM     56  C   UNL A   1      41.681  31.598  36.728  1.00  0.00     0.029 A 
ATOM     57  N   UNL A   1      41.118  31.005  34.660  1.00  0.00    -0.354 N 
ATOM     58  N   UNL A   1      41.262  29.361  32.238  1.00  0.00    -0.248 NA
ATOM     59  C   UNL A   1      42.290  27.685  30.980  1.00  0.00     0.031 C 
ATOM     60  C   UNL A   1      42.524  30.558  36.322  1.00  0.00     0.029 A 
ATOM     61  C   UNL A   1      42.159  30.173  35.042  1.00  0.00     0.049 A 
ATOM     62  H   UNL A   1      40.657  30.969  33.791  1.00  0.00     0.167 HD
ATOM     63  C   UNL A   1      42.290  28.799  32.982  1.00  0.00     0.074 A 
ATOM     64  C   UNL A   1      42.867  27.749  32.171  1.00  0.00     0.031 C 
ATOM     65  C   UNL A   1      42.718  29.126  34.226  1.00  0.00     0.037 A 
BRANCH  52  66
ATOM     66  C   UNL A   1      39.676  33.857  36.777  1.00  0.00     0.064 A 
ATOM     67  C   UNL A   1      38.898  33.531  37.897  1.00  0.00     0.173 A 
ATOM     68  C   UNL A   1      40.365  35.080  36.790  1.00  0.00     0.173 A 
ATOM     69  F   UNL A   1      38.212  32.379  37.932  1.00  0.00    -0.203 F 
ATOM     70  C   UNL A   1      38.790  34.406  38.975  1.00  0.00     0.198 A 
ATOM     71  C   UNL A   1      40.280  35.938  37.882  1.00  0.00     0.198 A 
ATOM     72  F   UNL A   1      41.129  35.437  35.747  1.00  0.00    -0.203 F 
ATOM     73  F   UNL A   1      38.002  34.094  40.013  1.00  0.00    -0.200 F 
ATOM     74  C   UNL A   1      39.487  35.605  38.970  1.00  0.00     0.200 A 
ATOM     75  F   UNL A   1      40.964  37.090  37.881  1.00  0.00    -0.200 F 
ATOM     76  F   UNL A   1      39.389  36.443  40.011  1.00  0.00    -0.200 F 
ENDBRANCH  52  66
BRANCH  53  77
ATOM     77  C   UNL A   1      40.483  28.043  28.706  1.00  0.00     0.064 A 
ATOM     78  C   UNL A   1      41.268  28.472  27.627  1.00  0.00     0.173 A 
ATOM     79  C   UNL A   1      39.844  26.799  28.593  1.00  0.00     0.173 A 
ATOM     80  F   UNL A   1      41.881  29.664  27.679  1.00  0.00    -0.203 F 
ATOM     81  C   UNL A   1      41.391  27.702  26.473  1.00  0.00     0.198 A 
ATOM     82  C   UNL A   1      39.991  26.016  27.450  1.00  0.00     0.198 A 
ATOM     83  F   UNL A   1      39.085  26.339  29.597  1.00  0.00    -0.203 F 
ATOM     84  F   UNL A   1      42.108  28.159  25.438  1.00  0.00    -0.200 F 
ATOM     85  C   UNL A   1      40.757  26.471  26.387  1.00  0.00     0.200 A 
ATOM     86  F   UNL A   1      39.388  24.822  27.376  1.00  0.00    -0.200 F 
ATOM     87  F   UNL A   1      40.876  25.729  25.278  1.00  0.00    -0.200 F 
ENDBRANCH  53  77
BRANCH  65  88
ATOM     88  C   UNL A   1      43.845  28.316  34.802  1.00  0.00     0.064 A 
ATOM     89  C   UNL A   1      45.183  28.711  34.660  1.00  0.00     0.173 A 
ATOM     90  C   UNL A   1      43.577  27.152  35.538  1.00  0.00     0.173 A 
ATOM     91  F   UNL A   1      45.491  29.808  33.952  1.00  0.00    -0.203 F 
ATOM     92  C   UNL A   1      46.214  27.957  35.215  1.00  0.00     0.198 A 
ATOM     93  C   UNL A   1      44.608  26.417  36.116  1.00  0.00     0.198 A 
ATOM     94  F   UNL A   1      42.313  26.734  35.708  1.00  0.00    -0.203 F 
ATOM     95  F   UNL A   1      47.487  28.328  35.027  1.00  0.00    -0.200 F 
ATOM     96  C   UNL A   1      45.925  26.816  35.949  1.00  0.00     0.200 A 
ATOM     97  F   UNL A   1      44.326  25.323  36.836  1.00  0.00    -0.200 F 
ATOM     98  F   UNL A   1      46.918  26.095  36.487  1.00  0.00    -0.200 F 
ENDBRANCH  65  88
ENDBRANCH  39  40
ENDBRANCH  31  34
ENDBRANCH  29  30
ENDBRANCH  28  29
ENDBRANCH   1  28
TORSDOF 14
ENDMDL
MODEL 2
REMARK VINA RESULT:     -13.2      0.429      7.326
REMARK SMILES COc1ccc(C(=O)Nc2cc(C(=O)NCCCCNC(=O)c3ccc(-c4c5nc(c(-c6c(F)c(F)c(F)c(F)c6F)c6ccc([nH]6)c(-c6c(F)c(F)c(F)c(F)c6F)c6nc(c(-c7c(F)c(F)c(F)c(F)c7F)c7ccc4[nH]7)C=C6)C=C5)cc3)c(Cl)cc2Cl)cc1Cl
REMARK SMILES IDX 17 1 16 2 15 3 13 4 14 5 12 7 10 8 11 9 89 10 88 11 90 12
REMARK SMILES IDX 86 13 87 14 9 15 7 16 8 17 6 19 3 20 4 21 92 22 5 23 91 24
REMARK SMILES IDX 93 25 2 26 1 27 18 28 19 29 20 30 21 31 22 33 23 34 24 35
REMARK SMILES IDX 85 36 25 37 84 38 26 39 27 40 28 41 78 42 29 43 83 44 77 45
REMARK SMILES IDX 79 46 30 47 82 48 76 49 75 50 31 52 63 53 43 54 62 55 44 56
REMARK SMILES IDX 47 57 61 58 80 59 45 60 46 61 60 63 81 64 48 65 32 66 33 67
REMARK SMILES IDX 41 68 34 69 35 70 39 71 42 72 36 73 37 74 40 75 38 76 64 77
REMARK SMILES IDX 65 78 73 79 66 80 67 81 71 82 74 83 68 84 69 85 72 86 70 87
REMARK SMILES IDX 49 88 50 89 58 90 51 91 52 92 56 93 59 94 53 95 54 96 57 97
REMARK SMILES IDX 55 98
REMARK H PARENT 15 6 9 18 20 32 79 51 47 62
REMARK Flexibility Score: inf
ROOT
ATOM      1  C   UNL A   1      31.798  30.701  26.218  1.00  0.00     0.023 C 
ENDROOT
BRANCH   1   2
ATOM      2  C   UNL A   1      33.065  29.979  26.670  1.00  0.00     0.116 C 
BRANCH   2   3
ATOM      3  N   UNL A   1      33.854  29.394  25.602  1.00  0.00    -0.352 N 
ATOM      4  C   UNL A   1      33.476  28.607  24.537  1.00  0.00     0.252 C 
ATOM      5  O   UNL A   1      34.323  28.299  23.700  1.00  0.00    -0.269 OA
ATOM      6  H   UNL A   1      34.818  29.592  25.645  1.00  0.00     0.163 HD
BRANCH   4   7
ATOM      7  C   UNL A   1      32.121  28.010  24.414  1.00  0.00     0.060 A 
ATOM      8  C   UNL A   1      30.541  26.417  25.408  1.00  0.00     0.061 A 
ATOM      9  C   UNL A   1      31.809  27.010  25.363  1.00  0.00     0.043 A 
ATOM     10  C   UNL A   1      29.599  26.787  24.435  1.00  0.00     0.066 A 
ATOM     11  C   UNL A   1      29.916  27.724  23.453  1.00  0.00     0.044 A 
ATOM     12  Cl  UNL A   1      27.998  26.126  24.442  1.00  0.00    -0.082 Cl
ATOM     13  C   UNL A   1      31.188  28.308  23.417  1.00  0.00     0.055 A 
ATOM     14  Cl  UNL A   1      31.544  29.273  22.031  1.00  0.00    -0.083 Cl
BRANCH   8  15
ATOM     15  N   UNL A   1      30.169  25.450  26.366  1.00  0.00    -0.321 N 
ATOM     16  C   UNL A   1      30.447  24.110  26.514  1.00  0.00     0.255 C 
ATOM     17  O   UNL A   1      29.755  23.442  27.283  1.00  0.00    -0.269 OA
ATOM     18  H   UNL A   1      29.591  25.809  27.078  1.00  0.00     0.170 HD
BRANCH  16  19
ATOM     19  C   UNL A   1      31.622  23.460  25.873  1.00  0.00     0.041 A 
ATOM     20  C   UNL A   1      33.880  22.190  24.744  1.00  0.00     0.137 A 
ATOM     21  C   UNL A   1      33.998  23.016  25.874  1.00  0.00     0.049 A 
ATOM     22  C   UNL A   1      32.616  22.038  24.161  1.00  0.00     0.083 A 
ATOM     23  C   UNL A   1      32.882  23.637  26.443  1.00  0.00     0.018 A 
ATOM     24  C   UNL A   1      31.518  22.732  24.686  1.00  0.00     0.038 A 
ATOM     25  Cl  UNL A   1      32.232  20.966  22.861  1.00  0.00    -0.080 Cl
BRANCH  20  26
ATOM     26  O   UNL A   1      35.074  21.623  24.400  1.00  0.00    -0.495 OA
ATOM     27  C   UNL A   1      35.920  21.109  25.416  1.00  0.00     0.278 C 
ENDBRANCH  20  26
ENDBRANCH  16  19
ENDBRANCH   8  15
ENDBRANCH   4   7
ENDBRANCH   2   3
ENDBRANCH   1   2
BRANCH   1  28
ATOM     28  C   UNL A   1      31.496  32.053  26.865  1.00  0.00     0.023 C 
BRANCH  28  29
ATOM     29  C   UNL A   1      32.684  32.866  27.372  1.00  0.00     0.116 C 
BRANCH  29  30
ATOM     30  N   UNL A   1      32.363  34.240  27.727  1.00  0.00    -0.352 N 
ATOM     31  C   UNL A   1      32.977  35.103  28.607  1.00  0.00     0.251 C 
ATOM     32  H   UNL A   1      31.579  34.614  27.262  1.00  0.00     0.163 HD
ATOM     33  O   UNL A   1      32.506  36.221  28.795  1.00  0.00    -0.269 OA
BRANCH  31  34
ATOM     34  C   UNL A   1      34.172  34.678  29.371  1.00  0.00     0.039 A 
ATOM     35  C   UNL A   1      34.003  34.223  30.683  1.00  0.00     0.014 A 
ATOM     36  C   UNL A   1      35.449  34.707  28.807  1.00  0.00     0.014 A 
ATOM     37  C   UNL A   1      35.091  33.698  31.385  1.00  0.00     0.010 A 
ATOM     38  C   UNL A   1      36.516  34.110  29.475  1.00  0.00     0.010 A 
ATOM     39  C   UNL A   1      36.345  33.583  30.765  1.00  0.00    -0.014 A 
BRANCH  39  40
ATOM     40  C   UNL A   1      37.480  32.890  31.433  1.00  0.00     0.031 A 
ATOM     41  C   UNL A   1      38.143  31.711  30.776  1.00  0.00     0.074 A 
ATOM     42  C   UNL A   1      37.856  33.267  32.671  1.00  0.00     0.049 A 
ATOM     43  N   UNL A   1      39.076  30.919  31.243  1.00  0.00    -0.248 NA
ATOM     44  C   UNL A   1      37.672  31.355  29.429  1.00  0.00     0.031 C 
ATOM     45  C   UNL A   1      37.258  34.360  33.441  1.00  0.00     0.029 A 
ATOM     46  N   UNL A   1      38.821  32.764  33.509  1.00  0.00    -0.354 N 
ATOM     47  C   UNL A   1      39.290  29.965  30.257  1.00  0.00     0.074 A 
ATOM     48  C   UNL A   1      38.354  30.245  29.189  1.00  0.00     0.031 C 
ATOM     49  C   UNL A   1      37.878  34.455  34.627  1.00  0.00     0.029 A 
ATOM     50  C   UNL A   1      38.891  33.408  34.721  1.00  0.00     0.049 A 
ATOM     51  H   UNL A   1      39.407  32.011  33.265  1.00  0.00     0.167 HD
ATOM     52  C   UNL A   1      40.197  28.960  30.235  1.00  0.00     0.037 A 
ATOM     53  C   UNL A   1      39.674  33.174  35.792  1.00  0.00     0.037 A 
ATOM     54  C   UNL A   1      41.148  28.702  31.284  1.00  0.00     0.049 A 
ATOM     55  C   UNL A   1      40.677  32.053  35.739  1.00  0.00     0.074 A 
ATOM     56  C   UNL A   1      42.155  27.753  31.322  1.00  0.00     0.029 A 
ATOM     57  N   UNL A   1      41.206  29.394  32.485  1.00  0.00    -0.354 N 
ATOM     58  N   UNL A   1      40.920  31.205  34.770  1.00  0.00    -0.248 NA
ATOM     59  C   UNL A   1      41.519  31.861  36.928  1.00  0.00     0.031 C 
ATOM     60  C   UNL A   1      42.793  27.839  32.564  1.00  0.00     0.029 A 
ATOM     61  C   UNL A   1      42.218  28.877  33.280  1.00  0.00     0.049 A 
ATOM     62  H   UNL A   1      40.618  30.142  32.736  1.00  0.00     0.167 HD
ATOM     63  C   UNL A   1      41.957  30.399  35.219  1.00  0.00     0.074 A 
ATOM     64  C   UNL A   1      42.309  30.869  36.542  1.00  0.00     0.031 C 
ATOM     65  C   UNL A   1      42.562  29.361  34.592  1.00  0.00     0.037 A 
BRANCH  52  66
ATOM     66  C   UNL A   1      40.213  28.063  29.030  1.00  0.00     0.064 A 
ATOM     67  C   UNL A   1      40.951  28.387  27.882  1.00  0.00     0.173 A 
ATOM     68  C   UNL A   1      39.514  26.846  29.039  1.00  0.00     0.173 A 
ATOM     69  F   UNL A   1      41.629  29.543  27.818  1.00  0.00    -0.203 F 
ATOM     70  C   UNL A   1      40.966  27.540  26.776  1.00  0.00     0.198 A 
ATOM     71  C   UNL A   1      39.557  25.987  27.944  1.00  0.00     0.198 A 
ATOM     72  F   UNL A   1      38.799  26.485  30.114  1.00  0.00    -0.203 F 
ATOM     73  F   UNL A   1      41.640  27.893  25.673  1.00  0.00    -0.200 F 
ATOM     74  C   UNL A   1      40.276  26.338  26.811  1.00  0.00     0.200 A 
ATOM     75  F   UNL A   1      38.900  24.820  27.985  1.00  0.00    -0.200 F 
ATOM     76  F   UNL A   1      40.298  25.520  25.750  1.00  0.00    -0.200 F 
ENDBRANCH  52  66
BRANCH  53  77
ATOM     77  C   UNL A   1      39.557  34.030  37.002  1.00  0.00     0.064 A 
ATOM     78  C   UNL A   1      38.786  33.623  38.100  1.00  0.00     0.173 A 
ATOM     79  C   UNL A   1      40.200  35.274  37.082  1.00  0.00     0.173 A 
ATOM     80  F   UNL A   1      38.135  32.451  38.062  1.00  0.00    -0.203 F 
ATOM     81  C   UNL A   1      38.644  34.436  39.223  1.00  0.00     0.198 A 
ATOM     82  C   UNL A   1      40.081  36.074  38.217  1.00  0.00     0.198 A 
ATOM     83  F   UNL A   1      40.952  35.710  36.062  1.00  0.00    -0.203 F 
ATOM     84  F   UNL A   1      37.862  34.043  40.237  1.00  0.00    -0.200 F 
ATOM     85  C   UNL A   1      39.296  35.658  39.283  1.00  0.00     0.200 A 
ATOM     86  F   UNL A   1      40.723  37.248  38.278  1.00  0.00    -0.200 F 
ATOM     87  F   UNL A   1      39.162  36.440  40.363  1.00  0.00    -0.200 F 
ENDBRANCH  53  77
BRANCH  65  88
ATOM     88  C   UNL A   1      43.691  28.683  35.315  1.00  0.00     0.064 A 
ATOM     89  C   UNL A   1      43.465  27.625  36.206  1.00  0.00     0.173 A 
ATOM     90  C   UNL A   1      45.018  29.072  35.078  1.00  0.00     0.173 A 
ATOM     91  F   UNL A   1      42.213  27.226  36.476  1.00  0.00    -0.203 F 
ATOM     92  C   UNL A   1      44.525  26.997  36.855  1.00  0.00     0.198 A 
ATOM     93  C   UNL A   1      46.077  28.423  35.706  1.00  0.00     0.198 A 
ATOM     94  F   UNL A   1      45.289  30.076  34.230  1.00  0.00    -0.203 F 
ATOM     95  F   UNL A   1      44.283  26.019  37.738  1.00  0.00    -0.200 F 
ATOM     96  C   UNL A   1      45.830  27.391  36.598  1.00  0.00     0.200 A 
ATOM     97  F   UNL A   1      47.338  28.795  35.446  1.00  0.00    -0.200 F 
ATOM     98  F   UNL A   1      46.849  26.780  37.217  1.00  0.00    -0.200 F 
ENDBRANCH  65  88
ENDBRANCH  39  40
ENDBRANCH  31  34
ENDBRANCH  29  30
ENDBRANCH  28  29
ENDBRANCH   1  28
TORSDOF 14
ENDMDL
MODEL 3
REMARK VINA RESULT:     -13.2      0.135      1.563
REMARK SMILES COc1ccc(C(=O)Nc2cc(C(=O)NCCCCNC(=O)c3ccc(-c4c5nc(c(-c6c(F)c(F)c(F)c(F)c6F)c6ccc([nH]6)c(-c6c(F)c(F)c(F)c(F)c6F)c6nc(c(-c7c(F)c(F)c(F)c(F)c7F)c7ccc4[nH]7)C=C6)C=C5)cc3)c(Cl)cc2Cl)cc1Cl
REMARK SMILES IDX 17 1 16 2 15 3 13 4 14 5 12 7 10 8 11 9 89 10 88 11 90 12
REMARK SMILES IDX 86 13 87 14 9 15 7 16 8 17 6 19 3 20 4 21 92 22 5 23 91 24
REMARK SMILES IDX 93 25 2 26 1 27 18 28 19 29 20 30 21 31 22 33 23 34 24 35
REMARK SMILES IDX 85 36 25 37 84 38 26 39 27 40 28 41 78 42 29 43 83 44 77 45
REMARK SMILES IDX 79 46 30 47 82 48 76 49 75 50 31 52 63 53 43 54 62 55 44 56
REMARK SMILES IDX 47 57 61 58 80 59 45 60 46 61 60 63 81 64 48 65 32 66 33 67
REMARK SMILES IDX 41 68 34 69 35 70 39 71 42 72 36 73 37 74 40 75 38 76 64 77
REMARK SMILES IDX 65 78 73 79 66 80 67 81 71 82 74 83 68 84 69 85 72 86 70 87
REMARK SMILES IDX 49 88 50 89 58 90 51 91 52 92 56 93 59 94 53 95 54 96 57 97
REMARK SMILES IDX 55 98
REMARK H PARENT 15 6 9 18 20 32 79 51 47 62
REMARK Flexibility Score: inf
ROOT
ATOM      1  C   UNL A   1      31.570  30.863  26.176  1.00  0.00     0.023 C 
ENDROOT
BRANCH   1   2
ATOM      2  C   UNL A   1      32.823  30.139  26.664  1.00  0.00     0.116 C 
BRANCH   2   3
ATOM      3  N   UNL A   1      33.649  29.563  25.619  1.00  0.00    -0.352 N 
ATOM      4  C   UNL A   1      33.314  28.748  24.561  1.00  0.00     0.252 C 
ATOM      5  O   UNL A   1      34.184  28.454  23.742  1.00  0.00    -0.269 OA
ATOM      6  H   UNL A   1      34.604  29.795  25.673  1.00  0.00     0.163 HD
BRANCH   4   7
ATOM      7  C   UNL A   1      31.982  28.103  24.426  1.00  0.00     0.060 A 
ATOM      8  C   UNL A   1      30.447  26.461  25.411  1.00  0.00     0.061 A 
ATOM      9  C   UNL A   1      31.694  27.098  25.378  1.00  0.00     0.043 A 
ATOM     10  C   UNL A   1      29.503  26.794  24.427  1.00  0.00     0.066 A 
ATOM     11  C   UNL A   1      29.799  27.737  23.444  1.00  0.00     0.044 A 
ATOM     12  Cl  UNL A   1      27.927  26.078  24.421  1.00  0.00    -0.082 Cl
ATOM     13  C   UNL A   1      31.049  28.365  23.418  1.00  0.00     0.055 A 
ATOM     14  Cl  UNL A   1      31.387  29.335  22.032  1.00  0.00    -0.083 Cl
BRANCH   8  15
ATOM     15  N   UNL A   1      30.099  25.487  26.371  1.00  0.00    -0.321 N 
ATOM     16  C   UNL A   1      30.400  24.150  26.513  1.00  0.00     0.255 C 
ATOM     17  O   UNL A   1      29.725  23.469  27.286  1.00  0.00    -0.269 OA
ATOM     18  H   UNL A   1      29.520  25.834  27.088  1.00  0.00     0.170 HD
BRANCH  16  19
ATOM     19  C   UNL A   1      31.579  23.522  25.862  1.00  0.00     0.041 A 
ATOM     20  C   UNL A   1      33.847  22.287  24.711  1.00  0.00     0.137 A 
ATOM     21  C   UNL A   1      33.954  23.071  25.872  1.00  0.00     0.049 A 
ATOM     22  C   UNL A   1      32.589  22.160  24.110  1.00  0.00     0.083 A 
ATOM     23  C   UNL A   1      32.834  23.673  26.451  1.00  0.00     0.018 A 
ATOM     24  C   UNL A   1      31.487  22.837  24.648  1.00  0.00     0.038 A 
ATOM     25  Cl  UNL A   1      32.216  21.137  22.767  1.00  0.00    -0.080 Cl
BRANCH  20  26
ATOM     26  O   UNL A   1      35.044  21.729  24.359  1.00  0.00    -0.495 OA
ATOM     27  C   UNL A   1      35.453  20.517  24.970  1.00  0.00     0.278 C 
ENDBRANCH  20  26
ENDBRANCH  16  19
ENDBRANCH   8  15
ENDBRANCH   4   7
ENDBRANCH   2   3
ENDBRANCH   1   2
BRANCH   1  28
ATOM     28  C   UNL A   1      31.426  32.338  26.550  1.00  0.00     0.023 C 
BRANCH  28  29
ATOM     29  C   UNL A   1      32.594  32.991  27.283  1.00  0.00     0.116 C 
BRANCH  29  30
ATOM     30  N   UNL A   1      32.334  34.350  27.735  1.00  0.00    -0.352 N 
ATOM     31  C   UNL A   1      32.984  35.119  28.674  1.00  0.00     0.251 C 
ATOM     32  H   UNL A   1      31.569  34.791  27.299  1.00  0.00     0.163 HD
ATOM     33  O   UNL A   1      32.563  36.241  28.942  1.00  0.00    -0.269 OA
BRANCH  31  34
ATOM     34  C   UNL A   1      34.157  34.587  29.405  1.00  0.00     0.039 A 
ATOM     35  C   UNL A   1      33.963  34.041  30.678  1.00  0.00     0.014 A 
ATOM     36  C   UNL A   1      35.437  34.606  28.846  1.00  0.00     0.014 A 
ATOM     37  C   UNL A   1      35.024  33.418  31.339  1.00  0.00     0.010 A 
ATOM     38  C   UNL A   1      36.475  33.915  29.469  1.00  0.00     0.010 A 
ATOM     39  C   UNL A   1      36.276  33.299  30.714  1.00  0.00    -0.014 A 
BRANCH  39  40
ATOM     40  C   UNL A   1      37.377  32.509  31.329  1.00  0.00     0.031 A 
ATOM     41  C   UNL A   1      37.900  32.866  32.692  1.00  0.00     0.074 A 
ATOM     42  C   UNL A   1      37.966  31.524  30.621  1.00  0.00     0.049 A 
ATOM     43  N   UNL A   1      38.914  32.361  33.349  1.00  0.00    -0.248 NA
ATOM     44  C   UNL A   1      37.210  33.956  33.399  1.00  0.00     0.031 C 
ATOM     45  C   UNL A   1      37.591  31.115  29.266  1.00  0.00     0.029 A 
ATOM     46  N   UNL A   1      39.018  30.698  30.935  1.00  0.00    -0.354 N 
ATOM     47  C   UNL A   1      38.995  33.083  34.533  1.00  0.00     0.074 A 
ATOM     48  C   UNL A   1      37.960  34.093  34.482  1.00  0.00     0.031 C 
ATOM     49  C   UNL A   1      38.386  30.107  28.874  1.00  0.00     0.029 A 
ATOM     50  C   UNL A   1      39.353  29.824  29.930  1.00  0.00     0.049 A 
ATOM     51  H   UNL A   1      39.488  30.730  31.800  1.00  0.00     0.167 HD
ATOM     52  C   UNL A   1      39.840  32.906  35.576  1.00  0.00     0.037 A 
ATOM     53  C   UNL A   1      40.336  28.905  29.861  1.00  0.00     0.037 A 
ATOM     54  C   UNL A   1      40.849  31.881  35.638  1.00  0.00     0.049 A 
ATOM     55  C   UNL A   1      41.259  28.726  31.036  1.00  0.00     0.074 A 
ATOM     56  C   UNL A   1      41.706  31.575  36.682  1.00  0.00     0.029 A 
ATOM     57  N   UNL A   1      41.139  30.995  34.611  1.00  0.00    -0.354 N 
ATOM     58  N   UNL A   1      41.276  29.364  32.180  1.00  0.00    -0.248 NA
ATOM     59  C   UNL A   1      42.297  27.692  30.912  1.00  0.00     0.031 C 
ATOM     60  C   UNL A   1      42.546  30.535  36.269  1.00  0.00     0.029 A 
ATOM     61  C   UNL A   1      42.178  30.158  34.987  1.00  0.00     0.049 A 
ATOM     62  H   UNL A   1      40.676  30.965  33.743  1.00  0.00     0.167 HD
ATOM     63  C   UNL A   1      42.303  28.795  32.920  1.00  0.00     0.074 A 
ATOM     64  C   UNL A   1      42.877  27.748  32.102  1.00  0.00     0.031 C 
ATOM     65  C   UNL A   1      42.734  29.114  34.166  1.00  0.00     0.037 A 
BRANCH  52  66
ATOM     66  C   UNL A   1      39.708  33.839  36.745  1.00  0.00     0.064 A 
ATOM     67  C   UNL A   1      40.334  35.094  36.759  1.00  0.00     0.173 A 
ATOM     68  C   UNL A   1      38.911  33.491  37.848  1.00  0.00     0.173 A 
ATOM     69  F   UNL A   1      41.113  35.472  35.735  1.00  0.00    -0.203 F 
ATOM     70  C   UNL A   1      40.192  35.955  37.845  1.00  0.00     0.198 A 
ATOM     71  C   UNL A   1      38.746  34.366  38.917  1.00  0.00     0.198 A 
ATOM     72  F   UNL A   1      38.285  32.305  37.882  1.00  0.00    -0.203 F 
ATOM     73  F   UNL A   1      40.838  37.128  37.857  1.00  0.00    -0.200 F 
ATOM     74  C   UNL A   1      39.392  35.593  38.919  1.00  0.00     0.200 A 
ATOM     75  F   UNL A   1      37.963  34.021  39.948  1.00  0.00    -0.200 F 
ATOM     76  F   UNL A   1      39.250  36.426  39.960  1.00  0.00    -0.200 F 
ENDBRANCH  52  66
BRANCH  53  77
ATOM     77  C   UNL A   1      40.489  28.067  28.642  1.00  0.00     0.064 A 
ATOM     78  C   UNL A   1      39.858  26.819  28.542  1.00  0.00     0.173 A 
ATOM     79  C   UNL A   1      41.275  28.488  27.560  1.00  0.00     0.173 A 
ATOM     80  F   UNL A   1      39.112  26.364  29.560  1.00  0.00    -0.203 F 
ATOM     81  C   UNL A   1      40.025  26.015  27.417  1.00  0.00     0.198 A 
ATOM     82  C   UNL A   1      41.419  27.695  26.423  1.00  0.00     0.198 A 
ATOM     83  F   UNL A   1      41.898  29.675  27.602  1.00  0.00    -0.203 F 
ATOM     84  F   UNL A   1      39.449  24.805  27.370  1.00  0.00    -0.200 F 
ATOM     85  C   UNL A   1      40.800  26.456  26.356  1.00  0.00     0.200 A 
ATOM     86  F   UNL A   1      42.158  28.130  25.394  1.00  0.00    -0.200 F 
ATOM     87  F   UNL A   1      40.960  25.682  25.273  1.00  0.00    -0.200 F 
ENDBRANCH  53  77
BRANCH  65  88
ATOM     88  C   UNL A   1      43.859  28.298  34.735  1.00  0.00     0.064 A 
ATOM     89  C   UNL A   1      45.195  28.708  34.625  1.00  0.00     0.173 A 
ATOM     90  C   UNL A   1      43.590  27.112  35.435  1.00  0.00     0.173 A 
ATOM     91  F   UNL A   1      45.504  29.827  33.952  1.00  0.00    -0.203 F 
ATOM     92  C   UNL A   1      46.224  27.947  35.174  1.00  0.00     0.198 A 
ATOM     93  C   UNL A   1      44.619  26.370  36.008  1.00  0.00     0.198 A 
ATOM     94  F   UNL A   1      42.327  26.679  35.574  1.00  0.00    -0.203 F 
ATOM     95  F   UNL A   1      47.497  28.334  35.016  1.00  0.00    -0.200 F 
ATOM     96  C   UNL A   1      45.935  26.784  35.871  1.00  0.00     0.200 A 
ATOM     97  F   UNL A   1      44.336  25.253  36.694  1.00  0.00    -0.200 F 
ATOM     98  F   UNL A   1      46.926  26.057  36.405  1.00  0.00    -0.200 F 
ENDBRANCH  65  88
ENDBRANCH  39  40
ENDBRANCH  31  34
ENDBRANCH  29  30
ENDBRANCH  28  29
ENDBRANCH   1  28
TORSDOF 14
ENDMDL
