MODEL 1
REMARK VINA RESULT:     -11.4      0.000      0.000
REMARK SMILES C[C@H]1[C@H](C(=O)NCCCCNC(=O)c2ccc(-c3c4nc(c(-c5c(F)c(F)c(F)c(F)c5F)c5ccc([nH]5)c(-c5c(F)c(F)c(F)c(F)c5F)c5nc(c(-c6c(F)c(F)c(F)c(F)c6F)c6ccc3[nH]6)C=C5)C=C4)cc2)CCN1C(=O)CC[NH2+]C1CC1
REMARK SMILES IDX 7 1 6 2 4 3 5 4 3 6 1 7 2 8 79 9 77 10 78 11 80 12 81 13
REMARK SMILES IDX 82 14 83 15 84 16 85 19 86 20 87 21 8 22 9 23 10 24 11 25
REMARK SMILES IDX 12 26 13 28 14 29 15 30 76 31 16 32 75 33 17 34 18 35 19 36
REMARK SMILES IDX 69 37 20 38 74 39 68 40 70 41 21 42 73 43 67 44 66 45 22 47
REMARK SMILES IDX 54 48 34 49 53 50 35 51 38 52 52 53 71 54 36 55 37 56 51 58
REMARK SMILES IDX 72 59 39 60 23 61 24 62 32 63 25 64 26 65 30 66 33 67 27 68
REMARK SMILES IDX 28 69 31 70 29 71 55 72 56 73 64 74 57 75 58 76 62 77 65 78
REMARK SMILES IDX 59 79 60 80 63 81 61 82 40 83 41 84 49 85 42 86 43 87 47 88
REMARK SMILES IDX 50 89 44 90 45 91 48 92 46 93
REMARK H PARENT 6 5 84 17 84 18 11 27 70 46 38 57
REMARK Flexibility Score: inf
ROOT
ATOM      1  C   UNL A   1      31.795  29.653  26.946  1.00  0.00     0.116 C 
ENDROOT
BRANCH   1   2
ATOM      2  N   UNL A   1      33.163  29.485  27.393  1.00  0.00    -0.356 N 
ATOM      3  C   UNL A   1      34.153  28.669  26.953  1.00  0.00     0.225 C 
ATOM      4  O   UNL A   1      35.239  28.740  27.538  1.00  0.00    -0.275 OA
ATOM      5  H   UNL A   1      33.418  30.064  28.146  1.00  0.00     0.163 HD
BRANCH   3   6
ATOM      6  C   UNL A   1      33.971  27.671  25.822  1.00  0.00     0.102 C 
ATOM      7  C   UNL A   1      32.924  25.404  25.962  1.00  0.00     0.032 C 
ATOM      8  C   UNL A   1      32.642  26.908  25.925  1.00  0.00     0.094 C 
ATOM      9  N   UNL A   1      31.915  27.255  24.705  1.00  0.00    -0.339 N 
ATOM     10  C   UNL A   1      34.034  28.250  24.404  1.00  0.00     0.037 C 
ATOM     11  C   UNL A   1      32.845  27.648  23.665  1.00  0.00     0.120 C 
BRANCH   9  12
ATOM     12  C   UNL A   1      30.557  27.215  24.458  1.00  0.00     0.228 C 
ATOM     13  O   UNL A   1      29.854  26.299  24.888  1.00  0.00    -0.275 OA
BRANCH  12  14
ATOM     14  C   UNL A   1      29.933  28.294  23.588  1.00  0.00     0.161 C 
BRANCH  14  15
ATOM     15  C   UNL A   1      28.471  28.011  23.250  1.00  0.00     0.270 C 
BRANCH  15  16
ATOM     16  N   UNL A   1      27.877  29.132  22.513  1.00  0.00    -0.343 N 
ATOM     17  H   UNL A   1      26.878  29.156  22.716  1.00  0.00     0.346 HD
ATOM     18  H   UNL A   1      28.073  28.974  21.525  1.00  0.00     0.346 HD
BRANCH  16  19
ATOM     19  C   UNL A   1      28.448  30.438  22.855  1.00  0.00     0.182 C 
ATOM     20  C   UNL A   1      27.944  31.719  22.247  1.00  0.00     0.071 C 
ATOM     21  C   UNL A   1      27.606  31.389  23.669  1.00  0.00     0.071 C 
ENDBRANCH  16  19
ENDBRANCH  15  16
ENDBRANCH  14  15
ENDBRANCH  12  14
ENDBRANCH   9  12
ENDBRANCH   3   6
ENDBRANCH   1   2
BRANCH   1  22
ATOM     22  C   UNL A   1      31.626  30.895  26.076  1.00  0.00     0.023 C 
BRANCH  22  23
ATOM     23  C   UNL A   1      31.363  32.191  26.840  1.00  0.00     0.023 C 
BRANCH  23  24
ATOM     24  C   UNL A   1      32.607  32.944  27.297  1.00  0.00     0.116 C 
BRANCH  24  25
ATOM     25  N   UNL A   1      32.343  34.319  27.686  1.00  0.00    -0.352 N 
ATOM     26  C   UNL A   1      32.995  35.083  28.624  1.00  0.00     0.251 C 
ATOM     27  H   UNL A   1      31.601  34.762  27.214  1.00  0.00     0.163 HD
ATOM     28  O   UNL A   1      32.598  36.210  28.898  1.00  0.00    -0.269 OA
BRANCH  26  29
ATOM     29  C   UNL A   1      34.154  34.513  29.337  1.00  0.00     0.039 A 
ATOM     30  C   UNL A   1      33.934  33.823  30.532  1.00  0.00     0.014 A 
ATOM     31  C   UNL A   1      35.442  34.616  28.804  1.00  0.00     0.014 A 
ATOM     32  C   UNL A   1      34.998  33.173  31.156  1.00  0.00     0.010 A 
ATOM     33  C   UNL A   1      36.487  33.910  29.391  1.00  0.00     0.010 A 
ATOM     34  C   UNL A   1      36.274  33.179  30.570  1.00  0.00    -0.014 A 
BRANCH  34  35
ATOM     35  C   UNL A   1      37.399  32.423  31.171  1.00  0.00     0.031 A 
ATOM     36  C   UNL A   1      37.896  32.778  32.543  1.00  0.00     0.074 A 
ATOM     37  C   UNL A   1      38.016  31.465  30.453  1.00  0.00     0.049 A 
ATOM     38  N   UNL A   1      38.908  32.286  33.210  1.00  0.00    -0.248 NA
ATOM     39  C   UNL A   1      37.177  33.852  33.247  1.00  0.00     0.031 C 
ATOM     40  C   UNL A   1      37.659  31.066  29.090  1.00  0.00     0.029 A 
ATOM     41  N   UNL A   1      39.081  30.658  30.766  1.00  0.00    -0.354 N 
ATOM     42  C   UNL A   1      38.957  32.998  34.400  1.00  0.00     0.074 A 
ATOM     43  C   UNL A   1      37.906  33.991  34.344  1.00  0.00     0.031 C 
ATOM     44  C   UNL A   1      38.476  30.079  28.693  1.00  0.00     0.029 A 
ATOM     45  C   UNL A   1      39.435  29.797  29.757  1.00  0.00     0.049 A 
ATOM     46  H   UNL A   1      39.548  30.694  31.632  1.00  0.00     0.167 HD
ATOM     47  C   UNL A   1      39.789  32.824  35.454  1.00  0.00     0.037 A 
ATOM     48  C   UNL A   1      40.424  28.886  29.697  1.00  0.00     0.037 A 
ATOM     49  C   UNL A   1      40.812  31.814  35.519  1.00  0.00     0.049 A 
ATOM     50  C   UNL A   1      41.326  28.704  30.887  1.00  0.00     0.074 A 
ATOM     51  C   UNL A   1      41.662  31.512  36.569  1.00  0.00     0.029 A 
ATOM     52  N   UNL A   1      41.122  30.940  34.488  1.00  0.00    -0.354 N 
ATOM     53  N   UNL A   1      41.318  29.335  32.035  1.00  0.00    -0.248 NA
ATOM     54  C   UNL A   1      42.372  27.677  30.774  1.00  0.00     0.031 C 
ATOM     55  C   UNL A   1      42.513  30.480  36.158  1.00  0.00     0.029 A 
ATOM     56  C   UNL A   1      42.164  30.111  34.870  1.00  0.00     0.049 A 
ATOM     57  H   UNL A   1      40.670  30.914  33.613  1.00  0.00     0.167 HD
ATOM     58  C   UNL A   1      42.335  28.767  32.790  1.00  0.00     0.074 A 
ATOM     59  C   UNL A   1      42.931  27.729  31.975  1.00  0.00     0.031 C 
ATOM     60  C   UNL A   1      42.739  29.077  34.046  1.00  0.00     0.037 A 
BRANCH  47  61
ATOM     61  C   UNL A   1      39.620  33.742  36.629  1.00  0.00     0.064 A 
ATOM     62  C   UNL A   1      40.235  35.003  36.669  1.00  0.00     0.173 A 
ATOM     63  C   UNL A   1      38.810  33.372  37.713  1.00  0.00     0.173 A 
ATOM     64  F   UNL A   1      41.030  35.398  35.664  1.00  0.00    -0.203 F 
ATOM     65  C   UNL A   1      40.070  35.846  37.764  1.00  0.00     0.198 A 
ATOM     66  C   UNL A   1      38.624  34.231  38.794  1.00  0.00     0.198 A 
ATOM     67  F   UNL A   1      38.196  32.180  37.723  1.00  0.00    -0.203 F 
ATOM     68  F   UNL A   1      40.707  37.025  37.802  1.00  0.00    -0.200 F 
ATOM     69  C   UNL A   1      39.259  35.463  38.822  1.00  0.00     0.200 A 
ATOM     70  F   UNL A   1      37.831  33.863  39.810  1.00  0.00    -0.200 F 
ATOM     71  F   UNL A   1      39.096  36.278  39.873  1.00  0.00    -0.200 F 
ENDBRANCH  47  61
BRANCH  48  72
ATOM     72  C   UNL A   1      40.594  28.053  28.478  1.00  0.00     0.064 A 
ATOM     73  C   UNL A   1      39.979  26.797  28.376  1.00  0.00     0.173 A 
ATOM     74  C   UNL A   1      41.370  28.491  27.396  1.00  0.00     0.173 A 
ATOM     75  F   UNL A   1      39.243  26.328  29.395  1.00  0.00    -0.203 F 
ATOM     76  C   UNL A   1      40.151  26.002  27.245  1.00  0.00     0.198 A 
ATOM     77  C   UNL A   1      41.520  27.705  26.255  1.00  0.00     0.198 A 
ATOM     78  F   UNL A   1      41.973  29.687  27.443  1.00  0.00    -0.203 F 
ATOM     79  F   UNL A   1      39.587  24.787  27.191  1.00  0.00    -0.200 F 
ATOM     80  C   UNL A   1      40.917  26.459  26.183  1.00  0.00     0.200 A 
ATOM     81  F   UNL A   1      42.250  28.156  25.225  1.00  0.00    -0.200 F 
ATOM     82  F   UNL A   1      41.079  25.695  25.094  1.00  0.00    -0.200 F 
ENDBRANCH  48  72
BRANCH  60  83
ATOM     83  C   UNL A   1      43.859  28.266  34.627  1.00  0.00     0.064 A 
ATOM     84  C   UNL A   1      45.195  28.678  34.524  1.00  0.00     0.173 A 
ATOM     85  C   UNL A   1      43.587  27.082  35.330  1.00  0.00     0.173 A 
ATOM     86  F   UNL A   1      45.507  29.794  33.848  1.00  0.00    -0.203 F 
ATOM     87  C   UNL A   1      46.220  27.923  35.085  1.00  0.00     0.198 A 
ATOM     88  C   UNL A   1      44.612  26.345  35.913  1.00  0.00     0.198 A 
ATOM     89  F   UNL A   1      42.324  26.649  35.461  1.00  0.00    -0.203 F 
ATOM     90  F   UNL A   1      47.495  28.313  34.937  1.00  0.00    -0.200 F 
ATOM     91  C   UNL A   1      45.929  26.762  35.785  1.00  0.00     0.200 A 
ATOM     92  F   UNL A   1      44.327  25.230  36.599  1.00  0.00    -0.200 F 
ATOM     93  F   UNL A   1      46.917  26.040  36.330  1.00  0.00    -0.200 F 
ENDBRANCH  60  83
ENDBRANCH  34  35
ENDBRANCH  26  29
ENDBRANCH  24  25
ENDBRANCH  23  24
ENDBRANCH  22  23
ENDBRANCH   1  22
TORSDOF 16
ENDMDL
MODEL 2
REMARK VINA RESULT:     -11.4      4.114      7.343
REMARK SMILES C[C@H]1[C@H](C(=O)NCCCCNC(=O)c2ccc(-c3c4nc(c(-c5c(F)c(F)c(F)c(F)c5F)c5ccc([nH]5)c(-c5c(F)c(F)c(F)c(F)c5F)c5nc(c(-c6c(F)c(F)c(F)c(F)c6F)c6ccc3[nH]6)C=C5)C=C4)cc2)CCN1C(=O)CC[NH2+]C1CC1
REMARK SMILES IDX 7 1 6 2 4 3 5 4 3 6 1 7 2 8 79 9 77 10 78 11 80 12 81 13
REMARK SMILES IDX 82 14 83 15 84 16 85 19 86 20 87 21 8 22 9 23 10 24 11 25
REMARK SMILES IDX 12 26 13 28 14 29 15 30 76 31 16 32 75 33 17 34 18 35 19 36
REMARK SMILES IDX 69 37 20 38 74 39 68 40 70 41 21 42 73 43 67 44 66 45 22 47
REMARK SMILES IDX 54 48 34 49 53 50 35 51 38 52 52 53 71 54 36 55 37 56 51 58
REMARK SMILES IDX 72 59 39 60 23 61 24 62 32 63 25 64 26 65 30 66 33 67 27 68
REMARK SMILES IDX 28 69 31 70 29 71 55 72 56 73 64 74 57 75 58 76 62 77 65 78
REMARK SMILES IDX 59 79 60 80 63 81 61 82 40 83 41 84 49 85 42 86 43 87 47 88
REMARK SMILES IDX 50 89 44 90 45 91 48 92 46 93
REMARK H PARENT 6 5 84 17 84 18 11 27 70 46 38 57
REMARK Flexibility Score: inf
ROOT
ATOM      1  C   UNL A   1      36.845  34.400  29.781  1.00  0.00     0.116 C 
ENDROOT
BRANCH   1   2
ATOM      2  N   UNL A   1      38.172  34.626  30.316  1.00  0.00    -0.356 N 
ATOM      3  C   UNL A   1      38.760  34.195  31.460  1.00  0.00     0.225 C 
ATOM      4  O   UNL A   1      39.925  34.554  31.660  1.00  0.00    -0.275 OA
ATOM      5  H   UNL A   1      38.747  35.190  29.751  1.00  0.00     0.163 HD
BRANCH   3   6
ATOM      6  C   UNL A   1      38.047  33.338  32.493  1.00  0.00     0.102 C 
ATOM      7  C   UNL A   1      37.433  33.988  34.829  1.00  0.00     0.032 C 
ATOM      8  C   UNL A   1      37.069  34.153  33.351  1.00  0.00     0.094 C 
ATOM      9  N   UNL A   1      35.757  33.563  33.086  1.00  0.00    -0.339 N 
ATOM     10  C   UNL A   1      37.258  32.146  31.941  1.00  0.00     0.037 C 
ATOM     11  C   UNL A   1      35.908  32.190  32.647  1.00  0.00     0.120 C 
BRANCH   9  12
ATOM     12  C   UNL A   1      34.504  34.122  33.234  1.00  0.00     0.228 C 
ATOM     13  O   UNL A   1      33.483  33.495  32.946  1.00  0.00    -0.275 OA
BRANCH  12  14
ATOM     14  C   UNL A   1      34.390  35.563  33.705  1.00  0.00     0.161 C 
BRANCH  14  15
ATOM     15  C   UNL A   1      33.572  36.435  32.755  1.00  0.00     0.270 C 
BRANCH  15  16
ATOM     16  N   UNL A   1      34.037  36.280  31.371  1.00  0.00    -0.343 N 
ATOM     17  H   UNL A   1      34.439  35.349  31.271  1.00  0.00     0.346 HD
ATOM     18  H   UNL A   1      34.718  37.021  31.203  1.00  0.00     0.346 HD
BRANCH  16  19
ATOM     19  C   UNL A   1      32.982  36.438  30.367  1.00  0.00     0.182 C 
ATOM     20  C   UNL A   1      33.278  36.838  28.947  1.00  0.00     0.071 C 
ATOM     21  C   UNL A   1      32.902  35.421  29.256  1.00  0.00     0.071 C 
ENDBRANCH  16  19
ENDBRANCH  15  16
ENDBRANCH  14  15
ENDBRANCH  12  14
ENDBRANCH   9  12
ENDBRANCH   3   6
ENDBRANCH   1   2
BRANCH   1  22
ATOM     22  C   UNL A   1      36.861  33.443  28.594  1.00  0.00     0.023 C 
BRANCH  22  23
ATOM     23  C   UNL A   1      35.487  33.084  28.031  1.00  0.00     0.023 C 
BRANCH  23  24
ATOM     24  C   UNL A   1      34.590  32.276  28.960  1.00  0.00     0.116 C 
BRANCH  24  25
ATOM     25  N   UNL A   1      34.027  31.089  28.337  1.00  0.00    -0.352 N 
ATOM     26  C   UNL A   1      34.661  29.918  27.999  1.00  0.00     0.251 C 
ATOM     27  H   UNL A   1      33.065  31.130  28.132  1.00  0.00     0.163 HD
ATOM     28  O   UNL A   1      34.060  29.033  27.399  1.00  0.00    -0.269 OA
BRANCH  26  29
ATOM     29  C   UNL A   1      36.091  29.754  28.323  1.00  0.00     0.039 A 
ATOM     30  C   UNL A   1      36.445  29.328  29.605  1.00  0.00     0.014 A 
ATOM     31  C   UNL A   1      37.072  29.971  27.351  1.00  0.00     0.014 A 
ATOM     32  C   UNL A   1      37.780  29.049  29.893  1.00  0.00     0.010 A 
ATOM     33  C   UNL A   1      38.392  29.626  27.620  1.00  0.00     0.010 A 
ATOM     34  C   UNL A   1      38.758  29.159  28.892  1.00  0.00    -0.014 A 
BRANCH  34  35
ATOM     35  C   UNL A   1      40.169  28.785  29.152  1.00  0.00     0.031 A 
ATOM     36  C   UNL A   1      41.082  29.742  29.863  1.00  0.00     0.074 A 
ATOM     37  C   UNL A   1      40.643  27.613  28.687  1.00  0.00     0.049 A 
ATOM     38  N   UNL A   1      42.360  29.630  30.121  1.00  0.00    -0.248 NA
ATOM     39  C   UNL A   1      40.486  31.008  30.317  1.00  0.00     0.031 C 
ATOM     40  C   UNL A   1      39.868  26.624  27.937  1.00  0.00     0.029 A 
ATOM     41  N   UNL A   1      41.897  27.059  28.768  1.00  0.00    -0.354 N 
ATOM     42  C   UNL A   1      42.722  30.813  30.751  1.00  0.00     0.074 A 
ATOM     43  C   UNL A   1      41.543  31.650  30.791  1.00  0.00     0.031 C 
ATOM     44  C   UNL A   1      40.655  25.578  27.644  1.00  0.00     0.029 A 
ATOM     45  C   UNL A   1      41.998  25.835  28.155  1.00  0.00     0.049 A 
ATOM     46  H   UNL A   1      42.652  27.500  29.221  1.00  0.00     0.167 HD
ATOM     47  C   UNL A   1      43.924  31.159  31.270  1.00  0.00     0.037 A 
ATOM     48  C   UNL A   1      43.058  25.016  28.019  1.00  0.00     0.037 A 
ATOM     49  C   UNL A   1      45.086  30.310  31.256  1.00  0.00     0.049 A 
ATOM     50  C   UNL A   1      44.379  25.419  28.616  1.00  0.00     0.074 A 
ATOM     51  C   UNL A   1      46.331  30.541  31.814  1.00  0.00     0.029 A 
ATOM     52  N   UNL A   1      45.143  29.064  30.651  1.00  0.00    -0.354 N 
ATOM     53  N   UNL A   1      44.691  26.509  29.271  1.00  0.00    -0.248 NA
ATOM     54  C   UNL A   1      45.493  24.473  28.458  1.00  0.00     0.031 C 
ATOM     55  C   UNL A   1      47.154  29.450  31.514  1.00  0.00     0.029 A 
ATOM     56  C   UNL A   1      46.409  28.521  30.806  1.00  0.00     0.049 A 
ATOM     57  H   UNL A   1      44.396  28.629  30.179  1.00  0.00     0.167 HD
ATOM     58  C   UNL A   1      46.026  26.371  29.627  1.00  0.00     0.074 A 
ATOM     59  C   UNL A   1      46.461  25.084  29.127  1.00  0.00     0.031 C 
ATOM     60  C   UNL A   1      46.820  27.234  30.307  1.00  0.00     0.037 A 
BRANCH  47  61
ATOM     61  C   UNL A   1      44.039  32.514  31.904  1.00  0.00     0.064 A 
ATOM     62  C   UNL A   1      43.766  32.712  33.266  1.00  0.00     0.173 A 
ATOM     63  C   UNL A   1      44.456  33.621  31.151  1.00  0.00     0.173 A 
ATOM     64  F   UNL A   1      43.351  31.688  34.027  1.00  0.00    -0.203 F 
ATOM     65  C   UNL A   1      43.878  33.973  33.844  1.00  0.00     0.198 A 
ATOM     66  C   UNL A   1      44.594  34.876  31.738  1.00  0.00     0.198 A 
ATOM     67  F   UNL A   1      44.734  33.485  29.846  1.00  0.00    -0.203 F 
ATOM     68  F   UNL A   1      43.564  34.148  35.135  1.00  0.00    -0.200 F 
ATOM     69  C   UNL A   1      44.299  35.053  33.081  1.00  0.00     0.200 A 
ATOM     70  F   UNL A   1      45.012  35.916  31.003  1.00  0.00    -0.200 F 
ATOM     71  F   UNL A   1      44.411  36.266  33.639  1.00  0.00    -0.200 F 
ENDBRANCH  47  61
BRANCH  48  72
ATOM     72  C   UNL A   1      42.906  23.716  27.315  1.00  0.00     0.064 A 
ATOM     73  C   UNL A   1      42.385  22.597  27.978  1.00  0.00     0.173 A 
ATOM     74  C   UNL A   1      43.276  23.566  25.970  1.00  0.00     0.173 A 
ATOM     75  F   UNL A   1      42.036  22.687  29.270  1.00  0.00    -0.203 F 
ATOM     76  C   UNL A   1      42.260  21.370  27.330  1.00  0.00     0.198 A 
ATOM     77  C   UNL A   1      43.125  22.345  25.316  1.00  0.00     0.198 A 
ATOM     78  F   UNL A   1      43.774  24.609  25.291  1.00  0.00    -0.203 F 
ATOM     79  F   UNL A   1      41.799  20.305  28.000  1.00  0.00    -0.200 F 
ATOM     80  C   UNL A   1      42.625  21.246  25.998  1.00  0.00     0.200 A 
ATOM     81  F   UNL A   1      43.468  22.233  24.025  1.00  0.00    -0.200 F 
ATOM     82  F   UNL A   1      42.500  20.067  25.373  1.00  0.00    -0.200 F 
ENDBRANCH  48  72
BRANCH  60  83
ATOM     83  C   UNL A   1      48.231  26.800  30.576  1.00  0.00     0.064 A 
ATOM     84  C   UNL A   1      48.553  25.990  31.675  1.00  0.00     0.173 A 
ATOM     85  C   UNL A   1      49.265  27.166  29.701  1.00  0.00     0.173 A 
ATOM     86  F   UNL A   1      47.602  25.627  32.548  1.00  0.00    -0.203 F 
ATOM     87  C   UNL A   1      49.864  25.581  31.899  1.00  0.00     0.198 A 
ATOM     88  C   UNL A   1      50.569  26.732  29.914  1.00  0.00     0.198 A 
ATOM     89  F   UNL A   1      49.005  27.935  28.633  1.00  0.00    -0.203 F 
ATOM     90  F   UNL A   1      50.158  24.843  32.980  1.00  0.00    -0.200 F 
ATOM     91  C   UNL A   1      50.869  25.946  31.017  1.00  0.00     0.200 A 
ATOM     92  F   UNL A   1      51.537  27.075  29.053  1.00  0.00    -0.200 F 
ATOM     93  F   UNL A   1      52.130  25.545  31.231  1.00  0.00    -0.200 F 
ENDBRANCH  60  83
ENDBRANCH  34  35
ENDBRANCH  26  29
ENDBRANCH  24  25
ENDBRANCH  23  24
ENDBRANCH  22  23
ENDBRANCH   1  22
TORSDOF 16
ENDMDL
MODEL 3
REMARK VINA RESULT:     -11.4      1.333      3.419
REMARK SMILES C[C@H]1[C@H](C(=O)NCCCCNC(=O)c2ccc(-c3c4nc(c(-c5c(F)c(F)c(F)c(F)c5F)c5ccc([nH]5)c(-c5c(F)c(F)c(F)c(F)c5F)c5nc(c(-c6c(F)c(F)c(F)c(F)c6F)c6ccc3[nH]6)C=C5)C=C4)cc2)CCN1C(=O)CC[NH2+]C1CC1
REMARK SMILES IDX 7 1 6 2 4 3 5 4 3 6 1 7 2 8 79 9 77 10 78 11 80 12 81 13
REMARK SMILES IDX 82 14 83 15 84 16 85 19 86 20 87 21 8 22 9 23 10 24 11 25
REMARK SMILES IDX 12 26 13 28 14 29 15 30 76 31 16 32 75 33 17 34 18 35 19 36
REMARK SMILES IDX 69 37 20 38 74 39 68 40 70 41 21 42 73 43 67 44 66 45 22 47
REMARK SMILES IDX 54 48 34 49 53 50 35 51 38 52 52 53 71 54 36 55 37 56 51 58
REMARK SMILES IDX 72 59 39 60 23 61 24 62 32 63 25 64 26 65 30 66 33 67 27 68
REMARK SMILES IDX 28 69 31 70 29 71 55 72 56 73 64 74 57 75 58 76 62 77 65 78
REMARK SMILES IDX 59 79 60 80 63 81 61 82 40 83 41 84 49 85 42 86 43 87 47 88
REMARK SMILES IDX 50 89 44 90 45 91 48 92 46 93
REMARK H PARENT 6 5 84 17 84 18 11 27 70 46 38 57
REMARK Flexibility Score: inf
ROOT
ATOM      1  C   UNL A   1      32.608  29.767  26.981  1.00  0.00     0.116 C 
ENDROOT
BRANCH   1   2
ATOM      2  N   UNL A   1      32.019  28.459  27.187  1.00  0.00    -0.356 N 
ATOM      3  C   UNL A   1      31.480  27.574  26.312  1.00  0.00     0.225 C 
ATOM      4  O   UNL A   1      31.043  26.518  26.782  1.00  0.00    -0.275 OA
ATOM      5  H   UNL A   1      32.010  28.162  28.125  1.00  0.00     0.163 HD
BRANCH   3   6
ATOM      6  C   UNL A   1      31.363  27.841  24.821  1.00  0.00     0.102 C 
ATOM      7  C   UNL A   1      33.138  28.736  23.303  1.00  0.00     0.032 C 
ATOM      8  C   UNL A   1      32.653  27.498  24.063  1.00  0.00     0.094 C 
ATOM      9  N   UNL A   1      32.267  26.448  23.122  1.00  0.00    -0.339 N 
ATOM     10  C   UNL A   1      30.224  27.113  24.100  1.00  0.00     0.037 C 
ATOM     11  C   UNL A   1      30.849  26.531  22.837  1.00  0.00     0.120 C 
BRANCH   9  12
ATOM     12  C   UNL A   1      33.055  25.494  22.509  1.00  0.00     0.228 C 
ATOM     13  O   UNL A   1      33.728  25.763  21.512  1.00  0.00    -0.275 OA
BRANCH  12  14
ATOM     14  C   UNL A   1      33.044  24.072  23.044  1.00  0.00     0.161 C 
BRANCH  14  15
ATOM     15  C   UNL A   1      33.118  24.011  24.568  1.00  0.00     0.270 C 
BRANCH  15  16
ATOM     16  N   UNL A   1      34.312  23.278  25.006  1.00  0.00    -0.343 N 
ATOM     17  H   UNL A   1      34.352  22.397  24.494  1.00  0.00     0.346 HD
ATOM     18  H   UNL A   1      34.224  23.143  26.013  1.00  0.00     0.346 HD
BRANCH  16  19
ATOM     19  C   UNL A   1      35.568  23.999  24.782  1.00  0.00     0.182 C 
ATOM     20  C   UNL A   1      36.820  23.690  25.557  1.00  0.00     0.071 C 
ATOM     21  C   UNL A   1      36.706  23.255  24.128  1.00  0.00     0.071 C 
ENDBRANCH  16  19
ENDBRANCH  15  16
ENDBRANCH  14  15
ENDBRANCH  12  14
ENDBRANCH   9  12
ENDBRANCH   3   6
ENDBRANCH   1   2
BRANCH   1  22
ATOM     22  C   UNL A   1      31.684  30.694  26.197  1.00  0.00     0.023 C 
BRANCH  22  23
ATOM     23  C   UNL A   1      31.418  32.049  26.850  1.00  0.00     0.023 C 
BRANCH  23  24
ATOM     24  C   UNL A   1      32.658  32.849  27.225  1.00  0.00     0.116 C 
BRANCH  24  25
ATOM     25  N   UNL A   1      32.368  34.216  27.628  1.00  0.00    -0.352 N 
ATOM     26  C   UNL A   1      32.994  34.976  28.586  1.00  0.00     0.251 C 
ATOM     27  H   UNL A   1      31.626  34.654  27.150  1.00  0.00     0.163 HD
ATOM     28  O   UNL A   1      32.576  36.094  28.868  1.00  0.00    -0.269 OA
BRANCH  26  29
ATOM     29  C   UNL A   1      34.150  34.414  29.310  1.00  0.00     0.039 A 
ATOM     30  C   UNL A   1      33.919  33.668  30.468  1.00  0.00     0.014 A 
ATOM     31  C   UNL A   1      35.448  34.581  28.820  1.00  0.00     0.014 A 
ATOM     32  C   UNL A   1      34.985  33.027  31.097  1.00  0.00     0.010 A 
ATOM     33  C   UNL A   1      36.499  33.885  29.409  1.00  0.00     0.010 A 
ATOM     34  C   UNL A   1      36.277  33.099  30.550  1.00  0.00    -0.014 A 
BRANCH  34  35
ATOM     35  C   UNL A   1      37.408  32.354  31.153  1.00  0.00     0.031 A 
ATOM     36  C   UNL A   1      37.907  32.723  32.521  1.00  0.00     0.074 A 
ATOM     37  C   UNL A   1      38.029  31.395  30.440  1.00  0.00     0.049 A 
ATOM     38  N   UNL A   1      38.925  32.242  33.188  1.00  0.00    -0.248 NA
ATOM     39  C   UNL A   1      37.184  33.797  33.219  1.00  0.00     0.031 C 
ATOM     40  C   UNL A   1      37.671  30.984  29.082  1.00  0.00     0.029 A 
ATOM     41  N   UNL A   1      39.101  30.597  30.755  1.00  0.00    -0.354 N 
ATOM     42  C   UNL A   1      38.973  32.963  34.373  1.00  0.00     0.074 A 
ATOM     43  C   UNL A   1      37.915  33.949  34.313  1.00  0.00     0.031 C 
ATOM     44  C   UNL A   1      38.493  29.999  28.688  1.00  0.00     0.029 A 
ATOM     45  C   UNL A   1      39.457  29.731  29.751  1.00  0.00     0.049 A 
ATOM     46  H   UNL A   1      39.570  30.643  31.620  1.00  0.00     0.167 HD
ATOM     47  C   UNL A   1      39.808  32.802  35.426  1.00  0.00     0.037 A 
ATOM     48  C   UNL A   1      40.451  28.826  29.696  1.00  0.00     0.037 A 
ATOM     49  C   UNL A   1      40.839  31.799  35.495  1.00  0.00     0.049 A 
ATOM     50  C   UNL A   1      41.359  28.659  30.884  1.00  0.00     0.074 A 
ATOM     51  C   UNL A   1      41.694  31.510  36.544  1.00  0.00     0.029 A 
ATOM     52  N   UNL A   1      41.151  30.920  34.469  1.00  0.00    -0.354 N 
ATOM     53  N   UNL A   1      41.350  29.298  32.027  1.00  0.00    -0.248 NA
ATOM     54  C   UNL A   1      42.411  27.638  30.775  1.00  0.00     0.031 C 
ATOM     55  C   UNL A   1      42.550  30.481  36.139  1.00  0.00     0.029 A 
ATOM     56  C   UNL A   1      42.200  30.100  34.854  1.00  0.00     0.049 A 
ATOM     57  H   UNL A   1      40.697  30.884  33.596  1.00  0.00     0.167 HD
ATOM     58  C   UNL A   1      42.373  28.743  32.783  1.00  0.00     0.074 A 
ATOM     59  C   UNL A   1      42.974  27.703  31.974  1.00  0.00     0.031 C 
ATOM     60  C   UNL A   1      42.779  29.064  34.036  1.00  0.00     0.037 A 
BRANCH  47  61
ATOM     61  C   UNL A   1      39.637  33.728  36.594  1.00  0.00     0.064 A 
ATOM     62  C   UNL A   1      38.826  33.388  37.687  1.00  0.00     0.173 A 
ATOM     63  C   UNL A   1      40.313  34.956  36.635  1.00  0.00     0.173 A 
ATOM     64  F   UNL A   1      38.147  32.231  37.690  1.00  0.00    -0.203 F 
ATOM     65  C   UNL A   1      38.676  34.255  38.766  1.00  0.00     0.198 A 
ATOM     66  C   UNL A   1      40.184  35.808  37.729  1.00  0.00     0.198 A 
ATOM     67  F   UNL A   1      41.105  35.327  35.618  1.00  0.00    -0.203 F 
ATOM     68  F   UNL A   1      37.857  33.930  39.776  1.00  0.00    -0.200 F 
ATOM     69  C   UNL A   1      39.360  35.461  38.789  1.00  0.00     0.200 A 
ATOM     70  F   UNL A   1      40.855  36.969  37.756  1.00  0.00    -0.200 F 
ATOM     71  F   UNL A   1      39.219  36.293  39.830  1.00  0.00    -0.200 F 
ENDBRANCH  47  61
BRANCH  48  72
ATOM     72  C   UNL A   1      40.623  27.985  28.483  1.00  0.00     0.064 A 
ATOM     73  C   UNL A   1      41.403  28.430  27.406  1.00  0.00     0.173 A 
ATOM     74  C   UNL A   1      40.016  26.726  28.374  1.00  0.00     0.173 A 
ATOM     75  F   UNL A   1      41.987  29.636  27.456  1.00  0.00    -0.203 F 
ATOM     76  C   UNL A   1      41.551  27.655  26.257  1.00  0.00     0.198 A 
ATOM     77  C   UNL A   1      40.187  25.941  27.235  1.00  0.00     0.198 A 
ATOM     78  F   UNL A   1      39.266  26.254  29.380  1.00  0.00    -0.203 F 
ATOM     79  F   UNL A   1      42.266  28.123  25.224  1.00  0.00    -0.200 F 
ATOM     80  C   UNL A   1      40.948  26.409  26.175  1.00  0.00     0.200 A 
ATOM     81  F   UNL A   1      39.612  24.732  27.165  1.00  0.00    -0.200 F 
ATOM     82  F   UNL A   1      41.094  25.663  25.071  1.00  0.00    -0.200 F 
ENDBRANCH  48  72
BRANCH  60  83
ATOM     83  C   UNL A   1      43.905  28.264  34.619  1.00  0.00     0.064 A 
ATOM     84  C   UNL A   1      43.675  27.062  35.303  1.00  0.00     0.173 A 
ATOM     85  C   UNL A   1      45.234  28.685  34.455  1.00  0.00     0.173 A 
ATOM     86  F   UNL A   1      42.421  26.626  35.498  1.00  0.00    -0.203 F 
ATOM     87  C   UNL A   1      44.733  26.321  35.821  1.00  0.00     0.198 A 
ATOM     88  C   UNL A   1      46.290  27.928  34.951  1.00  0.00     0.198 A 
ATOM     89  F   UNL A   1      45.506  29.825  33.803  1.00  0.00    -0.203 F 
ATOM     90  F   UNL A   1      44.488  25.197  36.510  1.00  0.00    -0.200 F 
ATOM     91  C   UNL A   1      46.039  26.750  35.639  1.00  0.00     0.200 A 
ATOM     92  F   UNL A   1      47.552  28.337  34.763  1.00  0.00    -0.200 F 
ATOM     93  F   UNL A   1      47.057  26.032  36.133  1.00  0.00    -0.200 F 
ENDBRANCH  60  83
ENDBRANCH  34  35
ENDBRANCH  26  29
ENDBRANCH  24  25
ENDBRANCH  23  24
ENDBRANCH  22  23
ENDBRANCH   1  22
TORSDOF 16
ENDMDL
