MODEL 1
REMARK VINA RESULT:     -12.4      0.000      0.000
REMARK SMILES C[N@@H+]1CCC[C@H](NC(=O)N[C@@](C)(C(=O)NCCCCNC(=O)c2ccc(-c3c4nc(c(-c5c(F)c(F)c(F)c(F)c5F)c5ccc([nH]5)c(-c5c(F)c(F)c(F)c(F)c5F)c5nc(c(-c6c(F)c(F)c(F)c(F)c6F)c6ccc3[nH]6)C=C5)C=C4)cc2)C(F)(F)F)C1
REMARK SMILES IDX 17 1 16 2 15 3 13 4 14 5 11 7 12 8 10 9 7 10 8 11 9 13 6 15
REMARK SMILES IDX 1 16 2 17 3 18 90 19 4 21 5 22 86 23 87 24 88 25 89 26 18 27
REMARK SMILES IDX 19 28 20 29 21 30 22 32 23 33 24 34 85 35 25 36 84 37 26 38
REMARK SMILES IDX 27 39 28 40 78 41 29 42 83 43 77 44 79 45 30 46 82 47 76 48
REMARK SMILES IDX 75 49 31 51 63 52 43 53 62 54 44 55 47 56 61 57 80 58 45 59
REMARK SMILES IDX 46 60 60 62 81 63 48 64 32 65 33 66 41 67 34 68 35 69 39 70
REMARK SMILES IDX 42 71 36 72 37 73 40 74 38 75 64 76 65 77 73 78 66 79 67 80
REMARK SMILES IDX 71 81 74 82 68 83 69 84 72 85 70 86 49 87 50 88 58 89 51 90
REMARK SMILES IDX 52 91 56 92 59 93 53 94 54 95 57 96 55 97
REMARK H PARENT 15 6 7 12 10 14 2 20 20 31 79 50 47 61
REMARK Flexibility Score: inf
ROOT
ATOM      1  C   UNL A   1      31.846  30.397  26.626  1.00  0.00     0.023 C 
ENDROOT
BRANCH   1   2
ATOM      2  C   UNL A   1      32.718  29.849  25.502  1.00  0.00     0.116 C 
BRANCH   2   3
ATOM      3  N   UNL A   1      31.998  29.770  24.247  1.00  0.00    -0.354 N 
ATOM      4  C   UNL A   1      31.589  28.738  23.460  1.00  0.00     0.255 C 
ATOM      5  O   UNL A   1      30.905  29.094  22.495  1.00  0.00    -0.272 OA
ATOM      6  H   UNL A   1      31.753  30.652  23.887  1.00  0.00     0.163 HD
BRANCH   4   7
ATOM      7  C   UNL A   1      32.017  27.274  23.693  1.00  0.00     0.213 C 
ATOM      8  C   UNL A   1      31.214  26.270  22.836  1.00  0.00     0.056 C 
BRANCH   7   9
ATOM      9  N   UNL A   1      31.667  27.034  25.154  1.00  0.00    -0.316 N 
ATOM     10  N   UNL A   1      31.664  24.833  26.034  1.00  0.00    -0.330 N 
ATOM     11  C   UNL A   1      31.244  26.098  26.004  1.00  0.00     0.316 C 
ATOM     12  H   UNL A   1      31.133  24.223  26.595  1.00  0.00     0.165 HD
ATOM     13  O   UNL A   1      30.486  26.475  26.902  1.00  0.00    -0.249 OA
ATOM     14  H   UNL A   1      31.800  27.872  25.651  1.00  0.00     0.166 HD
BRANCH  10  15
ATOM     15  C   UNL A   1      32.784  24.238  25.360  1.00  0.00     0.139 C 
ATOM     16  C   UNL A   1      33.451  20.799  24.090  1.00  0.00     0.332 C 
ATOM     17  N   UNL A   1      33.642  22.212  24.362  1.00  0.00    -0.336 N 
ATOM     18  C   UNL A   1      35.031  22.570  24.664  1.00  0.00     0.262 C 
ATOM     19  C   UNL A   1      32.726  22.705  25.390  1.00  0.00     0.287 C 
ATOM     20  H   UNL A   1      33.413  22.687  23.489  1.00  0.00     0.347 HD
ATOM     21  C   UNL A   1      35.208  24.086  24.888  1.00  0.00     0.064 C 
ATOM     22  C   UNL A   1      34.165  24.678  25.848  1.00  0.00     0.037 C 
ENDBRANCH  10  15
ENDBRANCH   7   9
BRANCH   7  23
ATOM     23  C   UNL A   1      33.447  27.194  23.099  1.00  0.00     0.420 C 
ATOM     24  F   UNL A   1      33.720  28.043  22.097  1.00  0.00    -0.168 F 
ATOM     25  F   UNL A   1      34.371  27.359  24.076  1.00  0.00    -0.168 F 
ATOM     26  F   UNL A   1      33.680  25.944  22.603  1.00  0.00    -0.168 F 
ENDBRANCH   7  23
ENDBRANCH   4   7
ENDBRANCH   2   3
ENDBRANCH   1   2
BRANCH   1  27
ATOM     27  C   UNL A   1      31.683  31.916  26.641  1.00  0.00     0.023 C 
BRANCH  27  28
ATOM     28  C   UNL A   1      32.805  32.680  27.328  1.00  0.00     0.116 C 
BRANCH  28  29
ATOM     29  N   UNL A   1      32.450  34.057  27.636  1.00  0.00    -0.352 N 
ATOM     30  C   UNL A   1      33.002  34.895  28.572  1.00  0.00     0.251 C 
ATOM     31  H   UNL A   1      31.716  34.437  27.102  1.00  0.00     0.163 HD
ATOM     32  O   UNL A   1      32.513  35.997  28.794  1.00  0.00    -0.269 OA
BRANCH  30  33
ATOM     33  C   UNL A   1      34.177  34.435  29.335  1.00  0.00     0.039 A 
ATOM     34  C   UNL A   1      33.980  33.778  30.551  1.00  0.00     0.014 A 
ATOM     35  C   UNL A   1      35.463  34.604  28.814  1.00  0.00     0.014 A 
ATOM     36  C   UNL A   1      35.074  33.228  31.219  1.00  0.00     0.010 A 
ATOM     37  C   UNL A   1      36.538  33.986  29.440  1.00  0.00     0.010 A 
ATOM     38  C   UNL A   1      36.356  33.298  30.650  1.00  0.00    -0.014 A 
BRANCH  38  39
ATOM     39  C   UNL A   1      37.536  32.690  31.313  1.00  0.00     0.031 A 
ATOM     40  C   UNL A   1      38.261  31.564  30.633  1.00  0.00     0.074 A 
ATOM     41  C   UNL A   1      37.898  33.087  32.548  1.00  0.00     0.049 A 
ATOM     42  N   UNL A   1      39.222  30.800  31.088  1.00  0.00    -0.248 NA
ATOM     43  C   UNL A   1      37.822  31.228  29.269  1.00  0.00     0.031 C 
ATOM     44  C   UNL A   1      37.249  34.145  33.323  1.00  0.00     0.029 A 
ATOM     45  N   UNL A   1      38.892  32.630  33.377  1.00  0.00    -0.354 N 
ATOM     46  C   UNL A   1      39.479  29.882  30.079  1.00  0.00     0.074 A 
ATOM     47  C   UNL A   1      38.543  30.148  29.011  1.00  0.00     0.031 C 
ATOM     48  C   UNL A   1      37.870  34.265  34.507  1.00  0.00     0.029 A 
ATOM     49  C   UNL A   1      38.932  33.266  34.593  1.00  0.00     0.049 A 
ATOM     50  H   UNL A   1      39.518  31.914  33.123  1.00  0.00     0.167 HD
ATOM     51  C   UNL A   1      40.429  28.917  30.040  1.00  0.00     0.037 A 
ATOM     52  C   UNL A   1      39.726  33.056  35.660  1.00  0.00     0.037 A 
ATOM     53  C   UNL A   1      41.381  28.683  31.091  1.00  0.00     0.049 A 
ATOM     54  C   UNL A   1      40.775  31.976  35.591  1.00  0.00     0.074 A 
ATOM     55  C   UNL A   1      42.418  27.767  31.127  1.00  0.00     0.029 A 
ATOM     56  N   UNL A   1      41.414  29.375  32.292  1.00  0.00    -0.354 N 
ATOM     57  N   UNL A   1      41.047  31.149  34.611  1.00  0.00    -0.248 NA
ATOM     58  C   UNL A   1      41.631  31.806  36.773  1.00  0.00     0.031 C 
ATOM     59  C   UNL A   1      43.053  27.878  32.368  1.00  0.00     0.029 A 
ATOM     60  C   UNL A   1      42.445  28.898  33.082  1.00  0.00     0.049 A 
ATOM     61  H   UNL A   1      40.795  30.099  32.546  1.00  0.00     0.167 HD
ATOM     62  C   UNL A   1      42.127  30.390  35.040  1.00  0.00     0.074 A 
ATOM     63  C   UNL A   1      42.463  30.856  36.369  1.00  0.00     0.031 C 
ATOM     64  C   UNL A   1      42.784  29.398  34.391  1.00  0.00     0.037 A 
BRANCH  51  65
ATOM     65  C   UNL A   1      40.485  28.048  28.818  1.00  0.00     0.064 A 
ATOM     66  C   UNL A   1      41.249  28.402  27.696  1.00  0.00     0.173 A 
ATOM     67  C   UNL A   1      39.787  26.831  28.777  1.00  0.00     0.173 A 
ATOM     68  F   UNL A   1      41.924  29.562  27.678  1.00  0.00    -0.203 F 
ATOM     69  C   UNL A   1      41.290  27.587  26.569  1.00  0.00     0.198 A 
ATOM     70  C   UNL A   1      39.855  26.003  27.661  1.00  0.00     0.198 A 
ATOM     71  F   UNL A   1      39.043  26.442  29.824  1.00  0.00    -0.203 F 
ATOM     72  F   UNL A   1      41.984  27.972  25.489  1.00  0.00    -0.200 F 
ATOM     73  C   UNL A   1      40.599  26.384  26.555  1.00  0.00     0.200 A 
ATOM     74  F   UNL A   1      39.198  24.835  27.654  1.00  0.00    -0.200 F 
ATOM     75  F   UNL A   1      40.645  25.597  25.472  1.00  0.00    -0.200 F 
ENDBRANCH  51  65
BRANCH  52  76
ATOM     76  C   UNL A   1      39.580  33.898  36.876  1.00  0.00     0.064 A 
ATOM     77  C   UNL A   1      38.798  33.468  37.956  1.00  0.00     0.173 A 
ATOM     78  C   UNL A   1      40.207  35.147  36.982  1.00  0.00     0.173 A 
ATOM     79  F   UNL A   1      38.162  32.288  37.894  1.00  0.00    -0.203 F 
ATOM     80  C   UNL A   1      38.630  34.264  39.088  1.00  0.00     0.198 A 
ATOM     81  C   UNL A   1      40.062  35.931  38.125  1.00  0.00     0.198 A 
ATOM     82  F   UNL A   1      40.971  35.604  35.979  1.00  0.00    -0.203 F 
ATOM     83  F   UNL A   1      37.838  33.849  40.086  1.00  0.00    -0.200 F 
ATOM     84  C   UNL A   1      39.266  35.493  39.174  1.00  0.00     0.200 A 
ATOM     85  F   UNL A   1      40.690  37.112  38.211  1.00  0.00    -0.200 F 
ATOM     86  F   UNL A   1      39.107  36.258  40.262  1.00  0.00    -0.200 F 
ENDBRANCH  52  76
BRANCH  64  87
ATOM     87  C   UNL A   1      43.974  28.790  35.073  1.00  0.00     0.064 A 
ATOM     88  C   UNL A   1      45.265  29.313  34.912  1.00  0.00     0.173 A 
ATOM     89  C   UNL A   1      43.804  27.712  35.956  1.00  0.00     0.173 A 
ATOM     90  F   UNL A   1      45.480  30.333  34.069  1.00  0.00    -0.203 F 
ATOM     91  C   UNL A   1      46.345  28.766  35.601  1.00  0.00     0.198 A 
ATOM     92  C   UNL A   1      44.881  27.188  36.663  1.00  0.00     0.198 A 
ATOM     93  F   UNL A   1      42.585  27.182  36.148  1.00  0.00    -0.203 F 
ATOM     94  F   UNL A   1      47.578  29.258  35.406  1.00  0.00    -0.200 F 
ATOM     95  C   UNL A   1      46.151  27.713  36.482  1.00  0.00     0.200 A 
ATOM     96  F   UNL A   1      44.687  26.181  37.525  1.00  0.00    -0.200 F 
ATOM     97  F   UNL A   1      47.190  27.201  37.155  1.00  0.00    -0.200 F 
ENDBRANCH  64  87
ENDBRANCH  38  39
ENDBRANCH  30  33
ENDBRANCH  28  29
ENDBRANCH  27  28
ENDBRANCH   1  27
TORSDOF 14
ENDMDL
MODEL 2
REMARK VINA RESULT:     -12.3      1.146      1.565
REMARK SMILES C[N@@H+]1CCC[C@H](NC(=O)N[C@@](C)(C(=O)NCCCCNC(=O)c2ccc(-c3c4nc(c(-c5c(F)c(F)c(F)c(F)c5F)c5ccc([nH]5)c(-c5c(F)c(F)c(F)c(F)c5F)c5nc(c(-c6c(F)c(F)c(F)c(F)c6F)c6ccc3[nH]6)C=C5)C=C4)cc2)C(F)(F)F)C1
REMARK SMILES IDX 17 1 16 2 15 3 13 4 14 5 11 7 12 8 10 9 7 10 8 11 9 13 6 15
REMARK SMILES IDX 1 16 2 17 3 18 90 19 4 21 5 22 86 23 87 24 88 25 89 26 18 27
REMARK SMILES IDX 19 28 20 29 21 30 22 32 23 33 24 34 85 35 25 36 84 37 26 38
REMARK SMILES IDX 27 39 28 40 78 41 29 42 83 43 77 44 79 45 30 46 82 47 76 48
REMARK SMILES IDX 75 49 31 51 63 52 43 53 62 54 44 55 47 56 61 57 80 58 45 59
REMARK SMILES IDX 46 60 60 62 81 63 48 64 32 65 33 66 41 67 34 68 35 69 39 70
REMARK SMILES IDX 42 71 36 72 37 73 40 74 38 75 64 76 65 77 73 78 66 79 67 80
REMARK SMILES IDX 71 81 74 82 68 83 69 84 72 85 70 86 49 87 50 88 58 89 51 90
REMARK SMILES IDX 52 91 56 92 59 93 53 94 54 95 57 96 55 97
REMARK H PARENT 15 6 7 12 10 14 2 20 20 31 79 50 47 61
REMARK Flexibility Score: inf
ROOT
ATOM      1  C   UNL A   1      31.879  30.469  26.790  1.00  0.00     0.023 C 
ENDROOT
BRANCH   1   2
ATOM      2  C   UNL A   1      32.667  29.995  25.573  1.00  0.00     0.116 C 
BRANCH   2   3
ATOM      3  N   UNL A   1      31.799  29.660  24.462  1.00  0.00    -0.354 N 
ATOM      4  C   UNL A   1      31.454  28.491  23.857  1.00  0.00     0.255 C 
ATOM      5  O   UNL A   1      30.592  28.623  22.983  1.00  0.00    -0.272 OA
ATOM      6  H   UNL A   1      31.367  30.447  24.059  1.00  0.00     0.163 HD
BRANCH   4   7
ATOM      7  C   UNL A   1      32.140  27.144  24.165  1.00  0.00     0.213 C 
ATOM      8  C   UNL A   1      33.540  27.312  24.797  1.00  0.00     0.056 C 
BRANCH   7   9
ATOM      9  N   UNL A   1      32.316  26.516  22.790  1.00  0.00    -0.316 N 
ATOM     10  N   UNL A   1      33.536  24.500  22.544  1.00  0.00    -0.330 N 
ATOM     11  C   UNL A   1      33.079  25.670  22.099  1.00  0.00     0.316 C 
ATOM     12  H   UNL A   1      34.228  24.075  21.988  1.00  0.00     0.165 HD
ATOM     13  O   UNL A   1      33.278  25.953  20.914  1.00  0.00    -0.249 OA
ATOM     14  H   UNL A   1      31.611  26.860  22.195  1.00  0.00     0.166 HD
BRANCH  10  15
ATOM     15  C   UNL A   1      33.158  23.774  23.725  1.00  0.00     0.139 C 
ATOM     16  C   UNL A   1      35.065  21.656  26.125  1.00  0.00     0.332 C 
ATOM     17  N   UNL A   1      33.956  22.378  25.527  1.00  0.00    -0.336 N 
ATOM     18  C   UNL A   1      32.668  21.689  25.657  1.00  0.00     0.262 C 
ATOM     19  C   UNL A   1      34.226  22.753  24.140  1.00  0.00     0.287 C 
ATOM     20  H   UNL A   1      33.870  23.237  26.071  1.00  0.00     0.347 HD
ATOM     21  C   UNL A   1      31.505  22.512  25.065  1.00  0.00     0.064 C 
ATOM     22  C   UNL A   1      31.807  23.059  23.661  1.00  0.00     0.037 C 
ENDBRANCH  10  15
ENDBRANCH   7   9
BRANCH   7  23
ATOM     23  C   UNL A   1      31.295  26.536  25.314  1.00  0.00     0.420 C 
ATOM     24  F   UNL A   1      30.784  27.409  26.196  1.00  0.00    -0.168 F 
ATOM     25  F   UNL A   1      30.289  25.782  24.810  1.00  0.00    -0.168 F 
ATOM     26  F   UNL A   1      32.052  25.667  26.046  1.00  0.00    -0.168 F 
ENDBRANCH   7  23
ENDBRANCH   4   7
ENDBRANCH   2   3
ENDBRANCH   1   2
BRANCH   1  27
ATOM     27  C   UNL A   1      31.631  31.975  26.858  1.00  0.00     0.023 C 
BRANCH  27  28
ATOM     28  C   UNL A   1      32.828  32.809  27.288  1.00  0.00     0.116 C 
BRANCH  28  29
ATOM     29  N   UNL A   1      32.475  34.179  27.626  1.00  0.00    -0.352 N 
ATOM     30  C   UNL A   1      33.016  34.990  28.591  1.00  0.00     0.251 C 
ATOM     31  H   UNL A   1      31.751  34.576  27.090  1.00  0.00     0.163 HD
ATOM     32  O   UNL A   1      32.528  36.088  28.834  1.00  0.00    -0.269 OA
BRANCH  30  33
ATOM     33  C   UNL A   1      34.177  34.505  29.360  1.00  0.00     0.039 A 
ATOM     34  C   UNL A   1      33.959  33.850  30.573  1.00  0.00     0.014 A 
ATOM     35  C   UNL A   1      35.469  34.650  28.848  1.00  0.00     0.014 A 
ATOM     36  C   UNL A   1      35.039  33.276  31.246  1.00  0.00     0.010 A 
ATOM     37  C   UNL A   1      36.528  34.010  29.478  1.00  0.00     0.010 A 
ATOM     38  C   UNL A   1      36.325  33.323  30.685  1.00  0.00    -0.014 A 
BRANCH  38  39
ATOM     39  C   UNL A   1      37.489  32.690  31.354  1.00  0.00     0.031 A 
ATOM     40  C   UNL A   1      38.195  31.551  30.676  1.00  0.00     0.074 A 
ATOM     41  C   UNL A   1      37.851  33.078  32.591  1.00  0.00     0.049 A 
ATOM     42  N   UNL A   1      39.137  30.767  31.134  1.00  0.00    -0.248 NA
ATOM     43  C   UNL A   1      37.757  31.226  29.309  1.00  0.00     0.031 C 
ATOM     44  C   UNL A   1      37.220  34.148  33.365  1.00  0.00     0.029 A 
ATOM     45  N   UNL A   1      38.832  32.599  33.425  1.00  0.00    -0.354 N 
ATOM     46  C   UNL A   1      39.382  29.845  30.126  1.00  0.00     0.074 A 
ATOM     47  C   UNL A   1      38.457  30.131  29.053  1.00  0.00     0.031 C 
ATOM     48  C   UNL A   1      37.837  34.253  34.552  1.00  0.00     0.029 A 
ATOM     49  C   UNL A   1      38.878  33.233  34.643  1.00  0.00     0.049 A 
ATOM     50  H   UNL A   1      39.444  31.871  33.173  1.00  0.00     0.167 HD
ATOM     51  C   UNL A   1      40.312  28.861  30.090  1.00  0.00     0.037 A 
ATOM     52  C   UNL A   1      39.662  33.005  35.713  1.00  0.00     0.037 A 
ATOM     53  C   UNL A   1      41.253  28.606  31.146  1.00  0.00     0.049 A 
ATOM     54  C   UNL A   1      40.689  31.904  35.648  1.00  0.00     0.074 A 
ATOM     55  C   UNL A   1      42.271  27.670  31.187  1.00  0.00     0.029 A 
ATOM     56  N   UNL A   1      41.293  29.296  32.349  1.00  0.00    -0.354 N 
ATOM     57  N   UNL A   1      40.949  31.073  34.668  1.00  0.00    -0.248 NA
ATOM     58  C   UNL A   1      41.535  31.715  36.834  1.00  0.00     0.031 C 
ATOM     59  C   UNL A   1      42.902  27.766  32.431  1.00  0.00     0.029 A 
ATOM     60  C   UNL A   1      42.311  28.797  33.144  1.00  0.00     0.049 A 
ATOM     61  H   UNL A   1      40.688  30.032  32.600  1.00  0.00     0.167 HD
ATOM     62  C   UNL A   1      42.012  30.292  35.103  1.00  0.00     0.074 A 
ATOM     63  C   UNL A   1      42.350  30.749  36.434  1.00  0.00     0.031 C 
ATOM     64  C   UNL A   1      42.652  29.288  34.456  1.00  0.00     0.037 A 
BRANCH  51  65
ATOM     65  C   UNL A   1      40.357  27.993  28.867  1.00  0.00     0.064 A 
ATOM     66  C   UNL A   1      41.121  28.343  27.743  1.00  0.00     0.173 A 
ATOM     67  C   UNL A   1      39.650  26.782  28.828  1.00  0.00     0.173 A 
ATOM     68  F   UNL A   1      41.804  29.498  27.724  1.00  0.00    -0.203 F 
ATOM     69  C   UNL A   1      41.151  27.529  26.615  1.00  0.00     0.198 A 
ATOM     70  C   UNL A   1      39.708  25.954  27.710  1.00  0.00     0.198 A 
ATOM     71  F   UNL A   1      38.908  26.397  29.876  1.00  0.00    -0.203 F 
ATOM     72  F   UNL A   1      41.844  27.910  25.533  1.00  0.00    -0.200 F 
ATOM     73  C   UNL A   1      40.451  26.331  26.602  1.00  0.00     0.200 A 
ATOM     74  F   UNL A   1      39.043  24.791  27.705  1.00  0.00    -0.200 F 
ATOM     75  F   UNL A   1      40.487  25.545  25.518  1.00  0.00    -0.200 F 
ENDBRANCH  51  65
BRANCH  52  76
ATOM     76  C   UNL A   1      39.526  33.848  36.930  1.00  0.00     0.064 A 
ATOM     77  C   UNL A   1      38.735  33.428  38.008  1.00  0.00     0.173 A 
ATOM     78  C   UNL A   1      40.171  35.087  37.038  1.00  0.00     0.173 A 
ATOM     79  F   UNL A   1      38.081  32.258  37.944  1.00  0.00    -0.203 F 
ATOM     80  C   UNL A   1      38.577  34.226  39.141  1.00  0.00     0.198 A 
ATOM     81  C   UNL A   1      40.035  35.873  38.182  1.00  0.00     0.198 A 
ATOM     82  F   UNL A   1      40.944  35.534  36.037  1.00  0.00    -0.203 F 
ATOM     83  F   UNL A   1      37.777  33.821  40.137  1.00  0.00    -0.200 F 
ATOM     84  C   UNL A   1      39.231  35.445  39.229  1.00  0.00     0.200 A 
ATOM     85  F   UNL A   1      40.681  37.043  38.270  1.00  0.00    -0.200 F 
ATOM     86  F   UNL A   1      39.081  36.212  40.317  1.00  0.00    -0.200 F 
ENDBRANCH  52  76
BRANCH  64  87
ATOM     87  C   UNL A   1      43.826  28.655  35.142  1.00  0.00     0.064 A 
ATOM     88  C   UNL A   1      45.124  29.167  35.010  1.00  0.00     0.173 A 
ATOM     89  C   UNL A   1      43.632  27.563  36.003  1.00  0.00     0.173 A 
ATOM     90  F   UNL A   1      45.362  30.200  34.189  1.00  0.00    -0.203 F 
ATOM     91  C   UNL A   1      46.189  28.597  35.703  1.00  0.00     0.198 A 
ATOM     92  C   UNL A   1      44.693  27.015  36.715  1.00  0.00     0.198 A 
ATOM     93  F   UNL A   1      42.405  27.043  36.168  1.00  0.00    -0.203 F 
ATOM     94  F   UNL A   1      47.429  29.078  35.536  1.00  0.00    -0.200 F 
ATOM     95  C   UNL A   1      45.971  27.530  36.563  1.00  0.00     0.200 A 
ATOM     96  F   UNL A   1      44.477  25.994  37.556  1.00  0.00    -0.200 F 
ATOM     97  F   UNL A   1      46.995  26.994  37.241  1.00  0.00    -0.200 F 
ENDBRANCH  64  87
ENDBRANCH  38  39
ENDBRANCH  30  33
ENDBRANCH  28  29
ENDBRANCH  27  28
ENDBRANCH   1  27
TORSDOF 14
ENDMDL
MODEL 3
REMARK VINA RESULT:     -12.3      5.599     11.039
REMARK SMILES C[N@@H+]1CCC[C@H](NC(=O)N[C@@](C)(C(=O)NCCCCNC(=O)c2ccc(-c3c4nc(c(-c5c(F)c(F)c(F)c(F)c5F)c5ccc([nH]5)c(-c5c(F)c(F)c(F)c(F)c5F)c5nc(c(-c6c(F)c(F)c(F)c(F)c6F)c6ccc3[nH]6)C=C5)C=C4)cc2)C(F)(F)F)C1
REMARK SMILES IDX 17 1 16 2 15 3 13 4 14 5 11 7 12 8 10 9 7 10 8 11 9 13 6 15
REMARK SMILES IDX 1 16 2 17 3 18 90 19 4 21 5 22 86 23 87 24 88 25 89 26 18 27
REMARK SMILES IDX 19 28 20 29 21 30 22 32 23 33 24 34 85 35 25 36 84 37 26 38
REMARK SMILES IDX 27 39 28 40 78 41 29 42 83 43 77 44 79 45 30 46 82 47 76 48
REMARK SMILES IDX 75 49 31 51 63 52 43 53 62 54 44 55 47 56 61 57 80 58 45 59
REMARK SMILES IDX 46 60 60 62 81 63 48 64 32 65 33 66 41 67 34 68 35 69 39 70
REMARK SMILES IDX 42 71 36 72 37 73 40 74 38 75 64 76 65 77 73 78 66 79 67 80
REMARK SMILES IDX 71 81 74 82 68 83 69 84 72 85 70 86 49 87 50 88 58 89 51 90
REMARK SMILES IDX 52 91 56 92 59 93 53 94 54 95 57 96 55 97
REMARK H PARENT 15 6 7 12 10 14 2 20 20 31 79 50 47 61
REMARK Flexibility Score: inf
ROOT
ATOM      1  C   UNL A   1      37.003  21.195  24.681  1.00  0.00     0.023 C 
ENDROOT
BRANCH   1   2
ATOM      2  C   UNL A   1      36.045  21.604  25.795  1.00  0.00     0.116 C 
BRANCH   2   3
ATOM      3  N   UNL A   1      34.772  20.921  25.694  1.00  0.00    -0.354 N 
ATOM      4  C   UNL A   1      33.494  21.337  25.483  1.00  0.00     0.255 C 
ATOM      5  O   UNL A   1      32.685  20.412  25.368  1.00  0.00    -0.272 OA
ATOM      6  H   UNL A   1      34.848  19.945  25.801  1.00  0.00     0.163 HD
BRANCH   4   7
ATOM      7  C   UNL A   1      33.077  22.823  25.484  1.00  0.00     0.213 C 
ATOM      8  C   UNL A   1      33.973  23.699  26.388  1.00  0.00     0.056 C 
BRANCH   7   9
ATOM      9  N   UNL A   1      31.680  22.797  26.087  1.00  0.00    -0.316 N 
ATOM     10  N   UNL A   1      30.524  24.822  26.510  1.00  0.00    -0.330 N 
ATOM     11  C   UNL A   1      30.798  23.540  26.754  1.00  0.00     0.316 C 
ATOM     12  H   UNL A   1      29.986  25.278  27.196  1.00  0.00     0.165 HD
ATOM     13  O   UNL A   1      30.106  22.952  27.589  1.00  0.00    -0.249 OA
ATOM     14  H   UNL A   1      31.286  21.910  25.927  1.00  0.00     0.166 HD
BRANCH  10  15
ATOM     15  C   UNL A   1      30.906  25.627  25.383  1.00  0.00     0.139 C 
ATOM     16  C   UNL A   1      33.653  28.082  24.829  1.00  0.00     0.332 C 
ATOM     17  N   UNL A   1      32.507  27.235  24.555  1.00  0.00    -0.336 N 
ATOM     18  C   UNL A   1      31.530  27.844  23.647  1.00  0.00     0.262 C 
ATOM     19  C   UNL A   1      31.872  26.751  25.780  1.00  0.00     0.287 C 
ATOM     20  H   UNL A   1      32.883  26.426  24.060  1.00  0.00     0.347 HD
ATOM     21  C   UNL A   1      30.357  26.893  23.330  1.00  0.00     0.064 C 
ATOM     22  C   UNL A   1      29.755  26.240  24.584  1.00  0.00     0.037 C 
ENDBRANCH  10  15
ENDBRANCH   7   9
BRANCH   7  23
ATOM     23  C   UNL A   1      33.415  23.316  24.053  1.00  0.00     0.420 C 
ATOM     24  F   UNL A   1      32.415  23.905  23.379  1.00  0.00    -0.168 F 
ATOM     25  F   UNL A   1      34.477  24.157  24.083  1.00  0.00    -0.168 F 
ATOM     26  F   UNL A   1      33.820  22.267  23.278  1.00  0.00    -0.168 F 
ENDBRANCH   7  23
ENDBRANCH   4   7
ENDBRANCH   2   3
ENDBRANCH   1   2
BRANCH   1  27
ATOM     27  C   UNL A   1      37.898  19.998  25.000  1.00  0.00     0.023 C 
BRANCH  27  28
ATOM     28  C   UNL A   1      39.148  20.322  25.804  1.00  0.00     0.116 C 
BRANCH  28  29
ATOM     29  N   UNL A   1      40.070  19.201  25.896  1.00  0.00    -0.352 N 
ATOM     30  C   UNL A   1      41.425  19.222  26.112  1.00  0.00     0.251 C 
ATOM     31  H   UNL A   1      39.668  18.308  25.790  1.00  0.00     0.163 HD
ATOM     32  O   UNL A   1      42.087  18.192  26.047  1.00  0.00    -0.269 OA
BRANCH  30  33
ATOM     33  C   UNL A   1      42.083  20.513  26.389  1.00  0.00     0.039 A 
ATOM     34  C   UNL A   1      42.496  21.306  25.317  1.00  0.00     0.014 A 
ATOM     35  C   UNL A   1      42.232  20.956  27.706  1.00  0.00     0.014 A 
ATOM     36  C   UNL A   1      43.002  22.583  25.565  1.00  0.00     0.010 A 
ATOM     37  C   UNL A   1      42.661  22.255  27.944  1.00  0.00     0.010 A 
ATOM     38  C   UNL A   1      43.056  23.078  26.877  1.00  0.00    -0.014 A 
BRANCH  38  39
ATOM     39  C   UNL A   1      43.552  24.445  27.172  1.00  0.00     0.031 A 
ATOM     40  C   UNL A   1      42.594  25.477  27.695  1.00  0.00     0.074 A 
ATOM     41  C   UNL A   1      44.827  24.777  26.894  1.00  0.00     0.049 A 
ATOM     42  N   UNL A   1      42.777  26.759  27.887  1.00  0.00    -0.248 NA
ATOM     43  C   UNL A   1      41.234  25.012  28.010  1.00  0.00     0.031 C 
ATOM     44  C   UNL A   1      45.841  23.871  26.351  1.00  0.00     0.029 A 
ATOM     45  N   UNL A   1      45.483  25.977  27.011  1.00  0.00    -0.354 N 
ATOM     46  C   UNL A   1      41.553  27.252  28.317  1.00  0.00     0.074 A 
ATOM     47  C   UNL A   1      40.621  26.147  28.309  1.00  0.00     0.031 C 
ATOM     48  C   UNL A   1      46.992  24.544  26.197  1.00  0.00     0.029 A 
ATOM     49  C   UNL A   1      46.789  25.936  26.588  1.00  0.00     0.049 A 
ATOM     50  H   UNL A   1      45.057  26.791  27.367  1.00  0.00     0.167 HD
ATOM     51  C   UNL A   1      41.241  28.511  28.706  1.00  0.00     0.037 A 
ATOM     52  C   UNL A   1      47.710  26.915  26.511  1.00  0.00     0.037 A 
ATOM     53  C   UNL A   1      42.183  29.596  28.747  1.00  0.00     0.049 A 
ATOM     54  C   UNL A   1      47.337  28.308  26.950  1.00  0.00     0.074 A 
ATOM     55  C   UNL A   1      41.983  30.896  29.177  1.00  0.00     0.029 A 
ATOM     56  N   UNL A   1      43.507  29.505  28.346  1.00  0.00    -0.354 N 
ATOM     57  N   UNL A   1      46.192  28.753  27.406  1.00  0.00    -0.248 NA
ATOM     58  C   UNL A   1      48.388  29.332  26.869  1.00  0.00     0.031 C 
ATOM     59  C   UNL A   1      43.176  31.603  28.998  1.00  0.00     0.029 A 
ATOM     60  C   UNL A   1      44.133  30.729  28.507  1.00  0.00     0.049 A 
ATOM     61  H   UNL A   1      43.939  28.690  28.000  1.00  0.00     0.167 HD
ATOM     62  C   UNL A   1      46.394  30.094  27.705  1.00  0.00     0.074 A 
ATOM     63  C   UNL A   1      47.773  30.391  27.379  1.00  0.00     0.031 C 
ATOM     64  C   UNL A   1      45.517  30.997  28.206  1.00  0.00     0.037 A 
BRANCH  51  65
ATOM     65  C   UNL A   1      39.824  28.778  29.122  1.00  0.00     0.064 A 
ATOM     66  C   UNL A   1      39.406  28.625  30.452  1.00  0.00     0.173 A 
ATOM     67  C   UNL A   1      38.878  29.218  28.184  1.00  0.00     0.173 A 
ATOM     68  F   UNL A   1      40.268  28.193  31.386  1.00  0.00    -0.203 F 
ATOM     69  C   UNL A   1      38.087  28.874  30.823  1.00  0.00     0.198 A 
ATOM     70  C   UNL A   1      37.569  29.497  28.564  1.00  0.00     0.198 A 
ATOM     71  F   UNL A   1      39.226  29.385  26.899  1.00  0.00    -0.203 F 
ATOM     72  F   UNL A   1      37.698  28.669  32.089  1.00  0.00    -0.200 F 
ATOM     73  C   UNL A   1      37.172  29.317  29.880  1.00  0.00     0.200 A 
ATOM     74  F   UNL A   1      36.689  29.939  27.655  1.00  0.00    -0.200 F 
ATOM     75  F   UNL A   1      35.905  29.564  30.240  1.00  0.00    -0.200 F 
ENDBRANCH  51  65
BRANCH  52  76
ATOM     76  C   UNL A   1      49.080  26.613  26.021  1.00  0.00     0.064 A 
ATOM     77  C   UNL A   1      50.036  26.041  26.871  1.00  0.00     0.173 A 
ATOM     78  C   UNL A   1      49.466  26.897  24.703  1.00  0.00     0.173 A 
ATOM     79  F   UNL A   1      49.720  25.770  28.146  1.00  0.00    -0.203 F 
ATOM     80  C   UNL A   1      51.333  25.783  26.428  1.00  0.00     0.198 A 
ATOM     81  C   UNL A   1      50.755  26.613  24.253  1.00  0.00     0.198 A 
ATOM     82  F   UNL A   1      48.588  27.440  23.847  1.00  0.00    -0.203 F 
ATOM     83  F   UNL A   1      52.240  25.279  27.276  1.00  0.00    -0.200 F 
ATOM     84  C   UNL A   1      51.689  26.064  25.119  1.00  0.00     0.200 A 
ATOM     85  F   UNL A   1      51.091  26.873  22.982  1.00  0.00    -0.200 F 
ATOM     86  F   UNL A   1      52.935  25.816  24.693  1.00  0.00    -0.200 F 
ENDBRANCH  52  76
BRANCH  64  87
ATOM     87  C   UNL A   1      46.030  32.375  28.499  1.00  0.00     0.064 A 
ATOM     88  C   UNL A   1      45.954  33.409  27.554  1.00  0.00     0.173 A 
ATOM     89  C   UNL A   1      46.540  32.681  29.771  1.00  0.00     0.173 A 
ATOM     90  F   UNL A   1      45.488  33.163  26.321  1.00  0.00    -0.203 F 
ATOM     91  C   UNL A   1      46.385  34.695  27.870  1.00  0.00     0.198 A 
ATOM     92  C   UNL A   1      46.942  33.973  30.090  1.00  0.00     0.198 A 
ATOM     93  F   UNL A   1      46.625  31.726  30.711  1.00  0.00    -0.203 F 
ATOM     94  F   UNL A   1      46.336  35.661  26.941  1.00  0.00    -0.200 F 
ATOM     95  C   UNL A   1      46.867  34.979  29.139  1.00  0.00     0.200 A 
ATOM     96  F   UNL A   1      47.393  34.247  31.322  1.00  0.00    -0.200 F 
ATOM     97  F   UNL A   1      47.265  36.221  29.443  1.00  0.00    -0.200 F 
ENDBRANCH  64  87
ENDBRANCH  38  39
ENDBRANCH  30  33
ENDBRANCH  28  29
ENDBRANCH  27  28
ENDBRANCH   1  27
TORSDOF 14
ENDMDL
