MODEL 1
REMARK VINA RESULT:     -13.0      0.000      0.000
REMARK SMILES Cc1cc(NC(=O)CCC(=O)NCCCCNC(=O)c2ccc(-c3c4nc(c(-c5c(F)c(F)c(F)c(F)c5F)c5ccc([nH]5)c(-c5c(F)c(F)c(F)c(F)c5F)c5nc(c(-c6c(F)c(F)c(F)c(F)c6F)c6ccc3[nH]6)C=C5)C=C4)cc2)ccc1S(=O)(=O)[O-]
REMARK SMILES IDX 13 1 12 2 10 3 11 4 9 6 8 7 6 8 5 9 7 11 4 12 1 13 2 14 3 15
REMARK SMILES IDX 85 16 84 17 83 18 86 19 87 20 88 21 89 22 14 23 15 24 16 25
REMARK SMILES IDX 17 26 18 27 19 29 20 30 21 31 82 32 22 33 81 34 23 35 24 36
REMARK SMILES IDX 25 37 75 38 26 39 80 40 74 41 76 42 27 43 79 44 73 45 72 46
REMARK SMILES IDX 28 48 60 49 40 50 59 51 41 52 44 53 58 54 77 55 42 56 43 57
REMARK SMILES IDX 57 59 78 60 45 61 29 62 30 63 38 64 31 65 32 66 36 67 39 68
REMARK SMILES IDX 33 69 34 70 37 71 35 72 61 73 62 74 70 75 63 76 64 77 68 78
REMARK SMILES IDX 71 79 65 80 66 81 69 82 67 83 46 84 47 85 55 86 48 87 49 88
REMARK SMILES IDX 53 89 56 90 50 91 51 92 54 93 52 94
REMARK H PARENT 12 5 5 10 17 28 76 47 44 58
REMARK Flexibility Score: inf
ROOT
ATOM      1  C   UNL A   1      31.883  29.766  25.264  1.00  0.00     0.116 C 
ENDROOT
BRANCH   1   2
ATOM      2  N   UNL A   1      31.091  28.610  24.875  1.00  0.00    -0.356 N 
ATOM      3  C   UNL A   1      31.343  27.278  24.983  1.00  0.00     0.220 C 
ATOM      4  O   UNL A   1      30.418  26.492  24.770  1.00  0.00    -0.275 OA
ATOM      5  H   UNL A   1      30.225  28.829  24.461  1.00  0.00     0.163 HD
BRANCH   3   6
ATOM      6  C   UNL A   1      32.712  26.769  25.365  1.00  0.00     0.110 C 
BRANCH   6   7
ATOM      7  C   UNL A   1      33.839  27.036  24.372  1.00  0.00     0.110 C 
BRANCH   7   8
ATOM      8  C   UNL A   1      33.542  26.786  22.909  1.00  0.00     0.224 C 
ATOM      9  N   UNL A   1      33.336  25.551  22.371  1.00  0.00    -0.326 N 
ATOM     10  H   UNL A   1      33.052  25.576  21.429  1.00  0.00     0.169 HD
ATOM     11  O   UNL A   1      33.413  27.758  22.154  1.00  0.00    -0.275 OA
BRANCH   9  12
ATOM     12  C   UNL A   1      33.446  24.251  22.888  1.00  0.00     0.041 A 
ATOM     13  C   UNL A   1      36.043  21.957  24.408  1.00  0.00     0.046 C 
ATOM     14  C   UNL A   1      34.692  22.427  23.956  1.00  0.00    -0.032 A 
ATOM     15  C   UNL A   1      34.647  23.655  23.261  1.00  0.00     0.030 A 
ATOM     16  C   UNL A   1      33.478  21.792  24.247  1.00  0.00     0.057 A 
ATOM     17  C   UNL A   1      32.273  22.319  23.751  1.00  0.00     0.021 A 
ATOM     18  C   UNL A   1      32.264  23.528  23.054  1.00  0.00     0.027 A 
BRANCH  16  19
ATOM     19  S   UNL A   1      33.300  20.344  25.264  1.00  0.00     0.124 S 
ATOM     20  O   UNL A   1      33.728  20.693  26.598  1.00  0.00    -0.237 OA
ATOM     21  O   UNL A   1      31.972  19.813  25.017  1.00  0.00    -0.237 OA
ATOM     22  O   UNL A   1      34.296  19.204  24.721  1.00  0.00    -0.744 OA
ENDBRANCH  16  19
ENDBRANCH   9  12
ENDBRANCH   7   8
ENDBRANCH   6   7
ENDBRANCH   3   6
ENDBRANCH   1   2
BRANCH   1  23
ATOM     23  C   UNL A   1      31.947  30.028  26.775  1.00  0.00     0.023 C 
BRANCH  23  24
ATOM     24  C   UNL A   1      32.968  31.070  27.231  1.00  0.00     0.023 C 
BRANCH  24  25
ATOM     25  C   UNL A   1      34.235  30.477  27.824  1.00  0.00     0.116 C 
BRANCH  25  26
ATOM     26  N   UNL A   1      34.924  31.353  28.768  1.00  0.00    -0.352 N 
ATOM     27  C   UNL A   1      36.091  31.091  29.470  1.00  0.00     0.251 C 
ATOM     28  H   UNL A   1      34.512  32.233  28.925  1.00  0.00     0.163 HD
ATOM     29  O   UNL A   1      36.571  31.906  30.247  1.00  0.00    -0.269 OA
BRANCH  27  30
ATOM     30  C   UNL A   1      36.810  29.840  29.151  1.00  0.00     0.039 A 
ATOM     31  C   UNL A   1      37.220  29.040  30.221  1.00  0.00     0.014 A 
ATOM     32  C   UNL A   1      37.348  29.669  27.878  1.00  0.00     0.014 A 
ATOM     33  C   UNL A   1      38.357  28.251  30.071  1.00  0.00     0.010 A 
ATOM     34  C   UNL A   1      38.536  28.974  27.761  1.00  0.00     0.010 A 
ATOM     35  C   UNL A   1      39.078  28.326  28.878  1.00  0.00    -0.014 A 
BRANCH  35  36
ATOM     36  C   UNL A   1      40.447  27.833  28.749  1.00  0.00     0.031 A 
ATOM     37  C   UNL A   1      40.691  26.418  28.400  1.00  0.00     0.074 A 
ATOM     38  C   UNL A   1      41.493  28.674  28.917  1.00  0.00     0.049 A 
ATOM     39  N   UNL A   1      41.787  25.785  28.649  1.00  0.00    -0.248 NA
ATOM     40  C   UNL A   1      39.675  25.586  27.769  1.00  0.00     0.031 C 
ATOM     41  C   UNL A   1      42.901  28.407  28.629  1.00  0.00     0.029 A 
ATOM     42  N   UNL A   1      41.510  29.895  29.615  1.00  0.00    -0.354 N 
ATOM     43  C   UNL A   1      41.719  24.558  28.030  1.00  0.00     0.074 A 
ATOM     44  C   UNL A   1      40.370  24.474  27.516  1.00  0.00     0.031 C 
ATOM     45  C   UNL A   1      43.655  29.200  29.404  1.00  0.00     0.029 A 
ATOM     46  C   UNL A   1      42.756  29.914  30.293  1.00  0.00     0.049 A 
ATOM     47  H   UNL A   1      40.810  30.586  29.631  1.00  0.00     0.167 HD
ATOM     48  C   UNL A   1      42.841  23.787  27.946  1.00  0.00     0.037 A 
ATOM     49  C   UNL A   1      42.816  29.911  31.656  1.00  0.00     0.037 A 
ATOM     50  C   UNL A   1      43.957  24.379  28.676  1.00  0.00     0.049 A 
ATOM     51  C   UNL A   1      43.530  28.718  32.255  1.00  0.00     0.074 A 
ATOM     52  C   UNL A   1      45.039  25.168  28.322  1.00  0.00     0.029 A 
ATOM     53  N   UNL A   1      43.885  24.426  30.055  1.00  0.00    -0.354 N 
ATOM     54  N   UNL A   1      43.974  27.703  31.566  1.00  0.00    -0.248 NA
ATOM     55  C   UNL A   1      43.694  28.527  33.698  1.00  0.00     0.031 C 
ATOM     56  C   UNL A   1      45.593  25.719  29.513  1.00  0.00     0.029 A 
ATOM     57  C   UNL A   1      44.850  25.259  30.584  1.00  0.00     0.049 A 
ATOM     58  H   UNL A   1      43.227  23.928  30.593  1.00  0.00     0.167 HD
ATOM     59  C   UNL A   1      44.409  26.733  32.427  1.00  0.00     0.074 A 
ATOM     60  C   UNL A   1      44.218  27.292  33.751  1.00  0.00     0.031 C 
ATOM     61  C   UNL A   1      44.852  25.516  32.011  1.00  0.00     0.037 A 
BRANCH  48  62
ATOM     62  C   UNL A   1      42.980  22.597  27.028  1.00  0.00     0.064 A 
ATOM     63  C   UNL A   1      42.259  21.409  27.277  1.00  0.00     0.173 A 
ATOM     64  C   UNL A   1      43.840  22.544  25.916  1.00  0.00     0.173 A 
ATOM     65  F   UNL A   1      41.326  21.346  28.235  1.00  0.00    -0.203 F 
ATOM     66  C   UNL A   1      42.475  20.236  26.549  1.00  0.00     0.198 A 
ATOM     67  C   UNL A   1      44.106  21.354  25.231  1.00  0.00     0.198 A 
ATOM     68  F   UNL A   1      44.402  23.652  25.417  1.00  0.00    -0.203 F 
ATOM     69  F   UNL A   1      41.758  19.139  26.830  1.00  0.00    -0.200 F 
ATOM     70  C   UNL A   1      43.431  20.196  25.556  1.00  0.00     0.200 A 
ATOM     71  F   UNL A   1      45.021  21.341  24.252  1.00  0.00    -0.200 F 
ATOM     72  F   UNL A   1      43.678  19.057  24.895  1.00  0.00    -0.200 F 
ENDBRANCH  48  62
BRANCH  49  73
ATOM     73  C   UNL A   1      41.669  30.620  32.284  1.00  0.00     0.064 A 
ATOM     74  C   UNL A   1      41.640  32.028  32.228  1.00  0.00     0.173 A 
ATOM     75  C   UNL A   1      40.477  29.961  32.595  1.00  0.00     0.173 A 
ATOM     76  F   UNL A   1      42.757  32.713  31.933  1.00  0.00    -0.203 F 
ATOM     77  C   UNL A   1      40.444  32.732  32.344  1.00  0.00     0.198 A 
ATOM     78  C   UNL A   1      39.285  30.672  32.738  1.00  0.00     0.198 A 
ATOM     79  F   UNL A   1      40.431  28.622  32.643  1.00  0.00    -0.203 F 
ATOM     80  F   UNL A   1      40.428  34.058  32.148  1.00  0.00    -0.200 F 
ATOM     81  C   UNL A   1      39.263  32.050  32.573  1.00  0.00     0.200 A 
ATOM     82  F   UNL A   1      38.137  30.008  32.934  1.00  0.00    -0.200 F 
ATOM     83  F   UNL A   1      38.098  32.710  32.588  1.00  0.00    -0.200 F 
ENDBRANCH  49  73
BRANCH  61  84
ATOM     84  C   UNL A   1      45.329  24.466  32.960  1.00  0.00     0.064 A 
ATOM     85  C   UNL A   1      44.505  23.404  33.359  1.00  0.00     0.173 A 
ATOM     86  C   UNL A   1      46.586  24.563  33.586  1.00  0.00     0.173 A 
ATOM     87  F   UNL A   1      43.279  23.256  32.831  1.00  0.00    -0.203 F 
ATOM     88  C   UNL A   1      44.922  22.479  34.316  1.00  0.00     0.198 A 
ATOM     89  C   UNL A   1      46.983  23.665  34.573  1.00  0.00     0.198 A 
ATOM     90  F   UNL A   1      47.461  25.518  33.236  1.00  0.00    -0.203 F 
ATOM     91  F   UNL A   1      44.125  21.453  34.643  1.00  0.00    -0.200 F 
ATOM     92  C   UNL A   1      46.154  22.618  34.932  1.00  0.00     0.200 A 
ATOM     93  F   UNL A   1      48.173  23.817  35.171  1.00  0.00    -0.200 F 
ATOM     94  F   UNL A   1      46.545  21.742  35.868  1.00  0.00    -0.200 F 
ENDBRANCH  61  84
ENDBRANCH  35  36
ENDBRANCH  27  30
ENDBRANCH  25  26
ENDBRANCH  24  25
ENDBRANCH  23  24
ENDBRANCH   1  23
TORSDOF 15
ENDMDL
MODEL 2
REMARK VINA RESULT:     -12.6      2.082      3.425
REMARK SMILES Cc1cc(NC(=O)CCC(=O)NCCCCNC(=O)c2ccc(-c3c4nc(c(-c5c(F)c(F)c(F)c(F)c5F)c5ccc([nH]5)c(-c5c(F)c(F)c(F)c(F)c5F)c5nc(c(-c6c(F)c(F)c(F)c(F)c6F)c6ccc3[nH]6)C=C5)C=C4)cc2)ccc1S(=O)(=O)[O-]
REMARK SMILES IDX 13 1 12 2 10 3 11 4 9 6 8 7 6 8 5 9 7 11 4 12 1 13 2 14 3 15
REMARK SMILES IDX 85 16 84 17 83 18 86 19 87 20 88 21 89 22 14 23 15 24 16 25
REMARK SMILES IDX 17 26 18 27 19 29 20 30 21 31 82 32 22 33 81 34 23 35 24 36
REMARK SMILES IDX 25 37 75 38 26 39 80 40 74 41 76 42 27 43 79 44 73 45 72 46
REMARK SMILES IDX 28 48 60 49 40 50 59 51 41 52 44 53 58 54 77 55 42 56 43 57
REMARK SMILES IDX 57 59 78 60 45 61 29 62 30 63 38 64 31 65 32 66 36 67 39 68
REMARK SMILES IDX 33 69 34 70 37 71 35 72 61 73 62 74 70 75 63 76 64 77 68 78
REMARK SMILES IDX 71 79 65 80 66 81 69 82 67 83 46 84 47 85 55 86 48 87 49 88
REMARK SMILES IDX 53 89 56 90 50 91 51 92 54 93 52 94
REMARK H PARENT 12 5 5 10 17 28 76 47 44 58
REMARK Flexibility Score: inf
ROOT
ATOM      1  C   UNL A   1      32.029  27.308  26.514  1.00  0.00     0.116 C 
ENDROOT
BRANCH   1   2
ATOM      2  N   UNL A   1      33.180  26.574  26.014  1.00  0.00    -0.356 N 
ATOM      3  C   UNL A   1      33.420  25.238  25.930  1.00  0.00     0.220 C 
ATOM      4  O   UNL A   1      34.390  24.862  25.270  1.00  0.00    -0.275 OA
ATOM      5  H   UNL A   1      33.912  27.141  25.679  1.00  0.00     0.163 HD
BRANCH   3   6
ATOM      6  C   UNL A   1      32.520  24.238  26.614  1.00  0.00     0.110 C 
BRANCH   6   7
ATOM      7  C   UNL A   1      31.213  23.901  25.905  1.00  0.00     0.110 C 
BRANCH   7   8
ATOM      8  C   UNL A   1      31.295  23.567  24.430  1.00  0.00     0.224 C 
ATOM      9  N   UNL A   1      31.031  24.455  23.430  1.00  0.00    -0.326 N 
ATOM     10  H   UNL A   1      31.234  24.106  22.532  1.00  0.00     0.169 HD
ATOM     11  O   UNL A   1      31.686  22.441  24.096  1.00  0.00    -0.275 OA
BRANCH   9  12
ATOM     12  C   UNL A   1      30.529  25.765  23.421  1.00  0.00     0.041 A 
ATOM     13  C   UNL A   1      31.515  29.230  22.259  1.00  0.00     0.046 C 
ATOM     14  C   UNL A   1      30.651  28.143  22.829  1.00  0.00    -0.032 A 
ATOM     15  C   UNL A   1      31.253  26.879  23.006  1.00  0.00     0.030 A 
ATOM     16  C   UNL A   1      29.283  28.264  23.109  1.00  0.00     0.057 A 
ATOM     17  C   UNL A   1      28.581  27.179  23.660  1.00  0.00     0.021 A 
ATOM     18  C   UNL A   1      29.209  25.946  23.838  1.00  0.00     0.027 A 
BRANCH  16  19
ATOM     19  S   UNL A   1      28.296  29.707  22.780  1.00  0.00     0.124 S 
ATOM     20  O   UNL A   1      28.816  30.784  23.590  1.00  0.00    -0.237 OA
ATOM     21  O   UNL A   1      28.197  29.833  21.339  1.00  0.00    -0.237 OA
ATOM     22  O   UNL A   1      26.789  29.425  23.265  1.00  0.00    -0.744 OA
ENDBRANCH  16  19
ENDBRANCH   9  12
ENDBRANCH   7   8
ENDBRANCH   6   7
ENDBRANCH   3   6
ENDBRANCH   1   2
BRANCH   1  23
ATOM     23  C   UNL A   1      32.149  28.835  26.435  1.00  0.00     0.023 C 
BRANCH  23  24
ATOM     24  C   UNL A   1      32.843  29.515  27.615  1.00  0.00     0.023 C 
BRANCH  24  25
ATOM     25  C   UNL A   1      33.839  30.589  27.213  1.00  0.00     0.116 C 
BRANCH  25  26
ATOM     26  N   UNL A   1      34.277  31.446  28.312  1.00  0.00    -0.352 N 
ATOM     27  C   UNL A   1      35.332  31.233  29.184  1.00  0.00     0.251 C 
ATOM     28  H   UNL A   1      33.761  32.273  28.450  1.00  0.00     0.163 HD
ATOM     29  O   UNL A   1      35.597  32.024  30.079  1.00  0.00    -0.269 OA
BRANCH  27  30
ATOM     30  C   UNL A   1      36.213  30.076  28.917  1.00  0.00     0.039 A 
ATOM     31  C   UNL A   1      36.660  29.337  30.015  1.00  0.00     0.014 A 
ATOM     32  C   UNL A   1      36.833  29.965  27.675  1.00  0.00     0.014 A 
ATOM     33  C   UNL A   1      37.889  28.690  29.932  1.00  0.00     0.010 A 
ATOM     34  C   UNL A   1      38.100  29.418  27.626  1.00  0.00     0.010 A 
ATOM     35  C   UNL A   1      38.658  28.846  28.777  1.00  0.00    -0.014 A 
BRANCH  35  36
ATOM     36  C   UNL A   1      40.080  28.521  28.724  1.00  0.00     0.031 A 
ATOM     37  C   UNL A   1      40.515  27.183  28.268  1.00  0.00     0.074 A 
ATOM     38  C   UNL A   1      41.005  29.449  29.061  1.00  0.00     0.049 A 
ATOM     39  N   UNL A   1      41.655  26.652  28.552  1.00  0.00    -0.248 NA
ATOM     40  C   UNL A   1      39.655  26.315  27.475  1.00  0.00     0.031 C 
ATOM     41  C   UNL A   1      42.452  29.368  28.875  1.00  0.00     0.029 A 
ATOM     42  N   UNL A   1      40.825  30.586  29.869  1.00  0.00    -0.354 N 
ATOM     43  C   UNL A   1      41.779  25.495  27.819  1.00  0.00     0.074 A 
ATOM     44  C   UNL A   1      40.494  25.317  27.183  1.00  0.00     0.031 C 
ATOM     45  C   UNL A   1      43.046  30.156  29.784  1.00  0.00     0.029 A 
ATOM     46  C   UNL A   1      42.004  30.672  30.652  1.00  0.00     0.049 A 
ATOM     47  H   UNL A   1      40.049  31.192  29.886  1.00  0.00     0.167 HD
ATOM     48  C   UNL A   1      42.987  24.863  27.762  1.00  0.00     0.037 A 
ATOM     49  C   UNL A   1      41.959  30.536  32.009  1.00  0.00     0.037 A 
ATOM     50  C   UNL A   1      43.967  25.496  28.640  1.00  0.00     0.049 A 
ATOM     51  C   UNL A   1      42.759  29.373  32.555  1.00  0.00     0.074 A 
ATOM     52  C   UNL A   1      44.973  26.431  28.458  1.00  0.00     0.029 A 
ATOM     53  N   UNL A   1      43.783  25.394  30.006  1.00  0.00    -0.354 N 
ATOM     54  N   UNL A   1      43.371  28.489  31.817  1.00  0.00    -0.248 NA
ATOM     55  C   UNL A   1      42.833  29.055  33.983  1.00  0.00     0.031 C 
ATOM     56  C   UNL A   1      45.365  26.913  29.739  1.00  0.00     0.029 A 
ATOM     57  C   UNL A   1      44.601  26.268  30.693  1.00  0.00     0.049 A 
ATOM     58  H   UNL A   1      43.149  24.774  30.435  1.00  0.00     0.167 HD
ATOM     59  C   UNL A   1      43.849  27.489  32.619  1.00  0.00     0.074 A 
ATOM     60  C   UNL A   1      43.493  27.885  33.968  1.00  0.00     0.031 C 
ATOM     61  C   UNL A   1      44.462  26.376  32.132  1.00  0.00     0.037 A 
BRANCH  48  62
ATOM     62  C   UNL A   1      43.335  23.796  26.754  1.00  0.00     0.064 A 
ATOM     63  C   UNL A   1      42.942  22.456  26.961  1.00  0.00     0.173 A 
ATOM     64  C   UNL A   1      44.092  24.016  25.589  1.00  0.00     0.173 A 
ATOM     65  F   UNL A   1      42.130  22.114  27.969  1.00  0.00    -0.203 F 
ATOM     66  C   UNL A   1      43.376  21.414  26.138  1.00  0.00     0.198 A 
ATOM     67  C   UNL A   1      44.582  22.967  24.804  1.00  0.00     0.198 A 
ATOM     68  F   UNL A   1      44.331  25.254  25.137  1.00  0.00    -0.203 F 
ATOM     69  F   UNL A   1      42.967  20.160  26.383  1.00  0.00    -0.200 F 
ATOM     70  C   UNL A   1      44.231  21.663  25.086  1.00  0.00     0.200 A 
ATOM     71  F   UNL A   1      45.393  23.233  23.770  1.00  0.00    -0.200 F 
ATOM     72  F   UNL A   1      44.692  20.657  24.330  1.00  0.00    -0.200 F 
ENDBRANCH  48  62
BRANCH  49  73
ATOM     73  C   UNL A   1      40.692  31.048  32.597  1.00  0.00     0.064 A 
ATOM     74  C   UNL A   1      40.470  32.440  32.605  1.00  0.00     0.173 A 
ATOM     75  C   UNL A   1      39.587  30.217  32.802  1.00  0.00     0.173 A 
ATOM     76  F   UNL A   1      41.497  33.285  32.412  1.00  0.00    -0.203 F 
ATOM     77  C   UNL A   1      39.185  32.968  32.678  1.00  0.00     0.198 A 
ATOM     78  C   UNL A   1      38.301  30.751  32.904  1.00  0.00     0.198 A 
ATOM     79  F   UNL A   1      39.724  28.883  32.785  1.00  0.00    -0.203 F 
ATOM     80  F   UNL A   1      38.996  34.288  32.544  1.00  0.00    -0.200 F 
ATOM     81  C   UNL A   1      38.098  32.120  32.801  1.00  0.00     0.200 A 
ATOM     82  F   UNL A   1      37.248  29.928  32.996  1.00  0.00    -0.200 F 
ATOM     83  F   UNL A   1      36.854  32.615  32.774  1.00  0.00    -0.200 F 
ENDBRANCH  49  73
BRANCH  61  84
ATOM     84  C   UNL A   1      44.985  25.293  33.018  1.00  0.00     0.064 A 
ATOM     85  C   UNL A   1      44.127  24.486  33.779  1.00  0.00     0.173 A 
ATOM     86  C   UNL A   1      46.367  25.114  33.216  1.00  0.00     0.173 A 
ATOM     87  F   UNL A   1      42.795  24.613  33.670  1.00  0.00    -0.203 F 
ATOM     88  C   UNL A   1      44.624  23.539  34.674  1.00  0.00     0.198 A 
ATOM     89  C   UNL A   1      46.860  24.199  34.143  1.00  0.00     0.198 A 
ATOM     90  F   UNL A   1      47.265  25.808  32.500  1.00  0.00    -0.203 F 
ATOM     91  F   UNL A   1      43.775  22.756  35.355  1.00  0.00    -0.200 F 
ATOM     92  C   UNL A   1      45.989  23.406  34.866  1.00  0.00     0.200 A 
ATOM     93  F   UNL A   1      48.183  24.088  34.328  1.00  0.00    -0.200 F 
ATOM     94  F   UNL A   1      46.464  22.511  35.743  1.00  0.00    -0.200 F 
ENDBRANCH  61  84
ENDBRANCH  35  36
ENDBRANCH  27  30
ENDBRANCH  25  26
ENDBRANCH  24  25
ENDBRANCH  23  24
ENDBRANCH   1  23
TORSDOF 15
ENDMDL
MODEL 3
REMARK VINA RESULT:     -12.6      1.263      2.038
REMARK SMILES Cc1cc(NC(=O)CCC(=O)NCCCCNC(=O)c2ccc(-c3c4nc(c(-c5c(F)c(F)c(F)c(F)c5F)c5ccc([nH]5)c(-c5c(F)c(F)c(F)c(F)c5F)c5nc(c(-c6c(F)c(F)c(F)c(F)c6F)c6ccc3[nH]6)C=C5)C=C4)cc2)ccc1S(=O)(=O)[O-]
REMARK SMILES IDX 13 1 12 2 10 3 11 4 9 6 8 7 6 8 5 9 7 11 4 12 1 13 2 14 3 15
REMARK SMILES IDX 85 16 84 17 83 18 86 19 87 20 88 21 89 22 14 23 15 24 16 25
REMARK SMILES IDX 17 26 18 27 19 29 20 30 21 31 82 32 22 33 81 34 23 35 24 36
REMARK SMILES IDX 25 37 75 38 26 39 80 40 74 41 76 42 27 43 79 44 73 45 72 46
REMARK SMILES IDX 28 48 60 49 40 50 59 51 41 52 44 53 58 54 77 55 42 56 43 57
REMARK SMILES IDX 57 59 78 60 45 61 29 62 30 63 38 64 31 65 32 66 36 67 39 68
REMARK SMILES IDX 33 69 34 70 37 71 35 72 61 73 62 74 70 75 63 76 64 77 68 78
REMARK SMILES IDX 71 79 65 80 66 81 69 82 67 83 46 84 47 85 55 86 48 87 49 88
REMARK SMILES IDX 53 89 56 90 50 91 51 92 54 93 52 94
REMARK H PARENT 12 5 5 10 17 28 76 47 44 58
REMARK Flexibility Score: inf
ROOT
ATOM      1  C   UNL A   1      31.840  29.567  25.354  1.00  0.00     0.116 C 
ENDROOT
BRANCH   1   2
ATOM      2  N   UNL A   1      32.959  29.578  24.426  1.00  0.00    -0.356 N 
ATOM      3  C   UNL A   1      33.428  28.620  23.581  1.00  0.00     0.220 C 
ATOM      4  O   UNL A   1      34.268  28.948  22.740  1.00  0.00    -0.275 OA
ATOM      5  H   UNL A   1      33.465  30.422  24.406  1.00  0.00     0.163 HD
BRANCH   3   6
ATOM      6  C   UNL A   1      32.929  27.198  23.658  1.00  0.00     0.110 C 
BRANCH   6   7
ATOM      7  C   UNL A   1      31.743  26.842  22.768  1.00  0.00     0.110 C 
BRANCH   7   8
ATOM      8  C   UNL A   1      30.393  26.708  23.440  1.00  0.00     0.224 C 
ATOM      9  N   UNL A   1      30.014  25.631  24.185  1.00  0.00    -0.326 N 
ATOM     10  H   UNL A   1      29.148  25.750  24.636  1.00  0.00     0.169 HD
ATOM     11  O   UNL A   1      29.598  27.653  23.372  1.00  0.00    -0.275 OA
BRANCH   9  12
ATOM     12  C   UNL A   1      30.610  24.386  24.440  1.00  0.00     0.041 A 
ATOM     13  C   UNL A   1      32.085  21.450  22.560  1.00  0.00     0.046 C 
ATOM     14  C   UNL A   1      31.704  22.306  23.733  1.00  0.00    -0.032 A 
ATOM     15  C   UNL A   1      30.932  23.455  23.456  1.00  0.00     0.030 A 
ATOM     16  C   UNL A   1      32.128  22.102  25.052  1.00  0.00     0.057 A 
ATOM     17  C   UNL A   1      31.689  22.963  26.072  1.00  0.00     0.021 A 
ATOM     18  C   UNL A   1      30.913  24.083  25.768  1.00  0.00     0.027 A 
BRANCH  16  19
ATOM     19  S   UNL A   1      33.253  20.828  25.579  1.00  0.00     0.124 S 
ATOM     20  O   UNL A   1      32.571  19.563  25.444  1.00  0.00    -0.237 OA
ATOM     21  O   UNL A   1      34.516  21.075  24.910  1.00  0.00    -0.237 OA
ATOM     22  O   UNL A   1      33.577  21.037  27.140  1.00  0.00    -0.744 OA
ENDBRANCH  16  19
ENDBRANCH   9  12
ENDBRANCH   7   8
ENDBRANCH   6   7
ENDBRANCH   3   6
ENDBRANCH   1   2
BRANCH   1  23
ATOM     23  C   UNL A   1      32.227  29.649  26.837  1.00  0.00     0.023 C 
BRANCH  23  24
ATOM     24  C   UNL A   1      33.209  30.758  27.213  1.00  0.00     0.023 C 
BRANCH  24  25
ATOM     25  C   UNL A   1      34.513  30.254  27.809  1.00  0.00     0.116 C 
BRANCH  25  26
ATOM     26  N   UNL A   1      35.052  31.094  28.874  1.00  0.00    -0.352 N 
ATOM     27  C   UNL A   1      36.200  30.884  29.621  1.00  0.00     0.251 C 
ATOM     28  H   UNL A   1      34.539  31.907  29.089  1.00  0.00     0.163 HD
ATOM     29  O   UNL A   1      36.547  31.660  30.502  1.00  0.00    -0.269 OA
BRANCH  27  30
ATOM     30  C   UNL A   1      37.068  29.752  29.231  1.00  0.00     0.039 A 
ATOM     31  C   UNL A   1      37.404  28.825  30.220  1.00  0.00     0.014 A 
ATOM     32  C   UNL A   1      37.782  29.822  28.038  1.00  0.00     0.014 A 
ATOM     33  C   UNL A   1      38.618  28.152  30.122  1.00  0.00     0.010 A 
ATOM     34  C   UNL A   1      39.034  29.240  27.993  1.00  0.00     0.010 A 
ATOM     35  C   UNL A   1      39.481  28.464  29.070  1.00  0.00    -0.014 A 
BRANCH  35  36
ATOM     36  C   UNL A   1      40.894  28.095  29.070  1.00  0.00     0.031 A 
ATOM     37  C   UNL A   1      41.315  26.787  28.525  1.00  0.00     0.074 A 
ATOM     38  C   UNL A   1      41.824  28.959  29.538  1.00  0.00     0.049 A 
ATOM     39  N   UNL A   1      42.419  26.194  28.827  1.00  0.00    -0.248 NA
ATOM     40  C   UNL A   1      40.478  26.019  27.613  1.00  0.00     0.031 C 
ATOM     41  C   UNL A   1      43.277  28.843  29.428  1.00  0.00     0.029 A 
ATOM     42  N   UNL A   1      41.631  30.029  30.429  1.00  0.00    -0.354 N 
ATOM     43  C   UNL A   1      42.552  25.099  28.005  1.00  0.00     0.074 A 
ATOM     44  C   UNL A   1      41.302  25.021  27.284  1.00  0.00     0.031 C 
ATOM     45  C   UNL A   1      43.840  29.530  30.433  1.00  0.00     0.029 A 
ATOM     46  C   UNL A   1      42.763  30.007  31.283  1.00  0.00     0.049 A 
ATOM     47  H   UNL A   1      40.874  30.658  30.455  1.00  0.00     0.167 HD
ATOM     48  C   UNL A   1      43.742  24.433  27.962  1.00  0.00     0.037 A 
ATOM     49  C   UNL A   1      42.634  29.759  32.618  1.00  0.00     0.037 A 
ATOM     50  C   UNL A   1      44.686  24.955  28.945  1.00  0.00     0.049 A 
ATOM     51  C   UNL A   1      43.365  28.527  33.106  1.00  0.00     0.074 A 
ATOM     52  C   UNL A   1      45.729  25.865  28.902  1.00  0.00     0.029 A 
ATOM     53  N   UNL A   1      44.419  24.743  30.285  1.00  0.00    -0.354 N 
ATOM     54  N   UNL A   1      43.993  27.687  32.330  1.00  0.00    -0.248 NA
ATOM     55  C   UNL A   1      43.344  28.087  34.503  1.00  0.00     0.031 C 
ATOM     56  C   UNL A   1      46.058  26.224  30.240  1.00  0.00     0.029 A 
ATOM     57  C   UNL A   1      45.220  25.528  31.090  1.00  0.00     0.049 A 
ATOM     58  H   UNL A   1      43.742  24.112  30.622  1.00  0.00     0.167 HD
ATOM     59  C   UNL A   1      44.392  26.607  33.069  1.00  0.00     0.074 A 
ATOM     60  C   UNL A   1      43.968  26.900  34.424  1.00  0.00     0.031 C 
ATOM     61  C   UNL A   1      44.999  25.518  32.523  1.00  0.00     0.037 A 
BRANCH  48  62
ATOM     62  C   UNL A   1      44.116  23.443  26.887  1.00  0.00     0.064 A 
ATOM     63  C   UNL A   1      45.068  23.779  25.901  1.00  0.00     0.173 A 
ATOM     64  C   UNL A   1      43.542  22.167  26.742  1.00  0.00     0.173 A 
ATOM     65  F   UNL A   1      45.774  24.916  25.969  1.00  0.00    -0.203 F 
ATOM     66  C   UNL A   1      45.328  22.959  24.800  1.00  0.00     0.198 A 
ATOM     67  C   UNL A   1      43.750  21.376  25.608  1.00  0.00     0.198 A 
ATOM     68  F   UNL A   1      42.810  21.617  27.720  1.00  0.00    -0.203 F 
ATOM     69  F   UNL A   1      46.245  23.330  23.896  1.00  0.00    -0.200 F 
ATOM     70  C   UNL A   1      44.636  21.777  24.630  1.00  0.00     0.200 A 
ATOM     71  F   UNL A   1      43.086  20.219  25.473  1.00  0.00    -0.200 F 
ATOM     72  F   UNL A   1      44.844  21.017  23.547  1.00  0.00    -0.200 F 
ENDBRANCH  48  62
BRANCH  49  73
ATOM     73  C   UNL A   1      41.350  30.263  33.175  1.00  0.00     0.064 A 
ATOM     74  C   UNL A   1      41.180  31.656  33.314  1.00  0.00     0.173 A 
ATOM     75  C   UNL A   1      40.204  29.464  33.223  1.00  0.00     0.173 A 
ATOM     76  F   UNL A   1      42.247  32.470  33.275  1.00  0.00    -0.203 F 
ATOM     77  C   UNL A   1      39.912  32.229  33.361  1.00  0.00     0.198 A 
ATOM     78  C   UNL A   1      38.935  30.041  33.299  1.00  0.00     0.198 A 
ATOM     79  F   UNL A   1      40.293  28.135  33.076  1.00  0.00    -0.203 F 
ATOM     80  F   UNL A   1      39.782  33.563  33.353  1.00  0.00    -0.200 F 
ATOM     81  C   UNL A   1      38.790  31.421  33.327  1.00  0.00     0.200 A 
ATOM     82  F   UNL A   1      37.848  29.260  33.238  1.00  0.00    -0.200 F 
ATOM     83  F   UNL A   1      37.569  31.970  33.273  1.00  0.00    -0.200 F 
ENDBRANCH  49  73
BRANCH  61  84
ATOM     84  C   UNL A   1      45.435  24.346  33.340  1.00  0.00     0.064 A 
ATOM     85  C   UNL A   1      44.589  23.253  33.570  1.00  0.00     0.173 A 
ATOM     86  C   UNL A   1      46.673  24.344  34.012  1.00  0.00     0.173 A 
ATOM     87  F   UNL A   1      43.380  23.192  32.989  1.00  0.00    -0.203 F 
ATOM     88  C   UNL A   1      44.966  22.205  34.409  1.00  0.00     0.198 A 
ATOM     89  C   UNL A   1      47.029  23.318  34.884  1.00  0.00     0.198 A 
ATOM     90  F   UNL A   1      47.568  25.325  33.818  1.00  0.00    -0.203 F 
ATOM     91  F   UNL A   1      44.149  21.156  34.574  1.00  0.00    -0.200 F 
ATOM     92  C   UNL A   1      46.179  22.245  35.076  1.00  0.00     0.200 A 
ATOM     93  F   UNL A   1      48.200  23.375  35.533  1.00  0.00    -0.200 F 
ATOM     94  F   UNL A   1      46.531  21.249  35.900  1.00  0.00    -0.200 F 
ENDBRANCH  61  84
ENDBRANCH  35  36
ENDBRANCH  27  30
ENDBRANCH  25  26
ENDBRANCH  24  25
ENDBRANCH  23  24
ENDBRANCH   1  23
TORSDOF 15
ENDMDL
