MODEL 1
REMARK VINA RESULT:     -12.9      0.000      0.000
REMARK SMILES COc1cccc(N2/C(=[NH+]/C(=O)CCC(=O)NCCCCNC(=O)c3ccc(-c4c5nc(c(-c6c(F)c(F)c(F)c(F)c6F)c6ccc([nH]6)c(-c6c(F)c(F)c(F)c(F)c6F)c6nc(c(-c7c(F)c(F)c(F)c(F)c7F)c7ccc4[nH]7)C=C6)C=C5)cc3)S[C@@H]3CS(=O)(=O)C[C@H]32)c1
REMARK SMILES IDX 18 1 17 2 15 3 16 4 14 6 13 7 11 8 8 9 9 10 95 11 10 12
REMARK SMILES IDX 88 13 89 14 94 15 90 17 91 18 12 19 92 20 93 21 7 22 3 23
REMARK SMILES IDX 4 24 96 25 5 26 6 27 2 28 1 29 19 30 20 31 21 32 22 33 23 34
REMARK SMILES IDX 24 36 25 37 26 38 87 39 27 40 86 41 28 42 29 43 30 44 80 45
REMARK SMILES IDX 31 46 85 47 79 48 81 49 32 50 84 51 78 52 77 53 33 55 65 56
REMARK SMILES IDX 45 57 64 58 46 59 49 60 63 61 82 62 47 63 48 64 62 66 83 67
REMARK SMILES IDX 50 68 34 69 35 70 43 71 36 72 37 73 41 74 44 75 38 76 39 77
REMARK SMILES IDX 42 78 40 79 66 80 67 81 75 82 68 83 69 84 73 85 76 86 70 87
REMARK SMILES IDX 71 88 74 89 72 90 51 91 52 92 60 93 53 94 54 95 58 96 61 97
REMARK SMILES IDX 55 98 56 99 59 100 57 101
REMARK H PARENT 17 5 10 16 22 35 81 54 49 65
REMARK Flexibility Score: inf
ROOT
ATOM      1  C   UNL A   1      33.968  22.057  27.272  1.00  0.00     0.116 C 
ENDROOT
BRANCH   1   2
ATOM      2  N   UNL A   1      32.532  22.289  27.348  1.00  0.00    -0.356 N 
ATOM      3  C   UNL A   1      31.785  23.380  27.030  1.00  0.00     0.220 C 
ATOM      4  O   UNL A   1      30.573  23.331  27.246  1.00  0.00    -0.275 OA
ATOM      5  H   UNL A   1      32.012  21.525  27.688  1.00  0.00     0.163 HD
BRANCH   3   6
ATOM      6  C   UNL A   1      32.427  24.590  26.398  1.00  0.00     0.112 C 
BRANCH   6   7
ATOM      7  C   UNL A   1      32.290  24.546  24.880  1.00  0.00     0.138 C 
BRANCH   7   8
ATOM      8  C   UNL A   1      31.216  25.499  24.404  1.00  0.00     0.308 C 
ATOM      9  N   UNL A   1      30.819  29.160  24.589  1.00  0.00    -0.216 N 
ATOM     10  C   UNL A   1      30.771  27.795  24.226  1.00  0.00     0.319 C 
ATOM     11  C   UNL A   1      30.132  30.039  23.617  1.00  0.00     0.212 C 
ATOM     12  N   UNL A   1      31.394  26.810  24.792  1.00  0.00    -0.204 N 
ATOM     13  S   UNL A   1      29.711  27.627  22.773  1.00  0.00    -0.029 SA
ATOM     14  C   UNL A   1      28.950  29.202  23.114  1.00  0.00     0.120 C 
ATOM     15  C   UNL A   1      29.496  31.354  24.034  1.00  0.00     0.188 C 
ATOM     16  H   UNL A   1      32.019  27.005  25.526  1.00  0.00     0.316 HD
ATOM     17  C   UNL A   1      28.315  29.997  22.006  1.00  0.00     0.156 C 
ATOM     18  S   UNL A   1      28.154  31.580  22.832  1.00  0.00     0.155 S 
ATOM     19  O   UNL A   1      30.278  25.039  23.756  1.00  0.00    -0.247 OA
ATOM     20  O   UNL A   1      26.903  31.579  23.558  1.00  0.00    -0.229 OA
ATOM     21  O   UNL A   1      28.490  32.640  21.908  1.00  0.00    -0.229 OA
BRANCH   9  22
ATOM     22  C   UNL A   1      31.766  29.719  25.472  1.00  0.00     0.132 A 
ATOM     23  C   UNL A   1      33.976  29.718  26.563  1.00  0.00     0.123 A 
ATOM     24  C   UNL A   1      33.602  30.827  27.314  1.00  0.00     0.047 A 
ATOM     25  C   UNL A   1      33.053  29.172  25.663  1.00  0.00     0.098 A 
ATOM     26  C   UNL A   1      32.338  31.388  27.156  1.00  0.00     0.008 A 
ATOM     27  C   UNL A   1      31.434  30.843  26.237  1.00  0.00     0.052 A 
BRANCH  23  28
ATOM     28  O   UNL A   1      35.235  29.263  26.838  1.00  0.00    -0.497 OA
ATOM     29  C   UNL A   1      35.778  29.446  28.137  1.00  0.00     0.278 C 
ENDBRANCH  23  28
ENDBRANCH   9  22
ENDBRANCH   7   8
ENDBRANCH   6   7
ENDBRANCH   3   6
ENDBRANCH   1   2
BRANCH   1  30
ATOM     30  C   UNL A   1      34.390  21.249  26.042  1.00  0.00     0.023 C 
BRANCH  30  31
ATOM     31  C   UNL A   1      35.238  22.052  25.064  1.00  0.00     0.023 C 
BRANCH  31  32
ATOM     32  C   UNL A   1      36.601  22.563  25.495  1.00  0.00     0.116 C 
BRANCH  32  33
ATOM     33  N   UNL A   1      37.589  21.513  25.648  1.00  0.00    -0.352 N 
ATOM     34  C   UNL A   1      38.877  21.498  26.127  1.00  0.00     0.251 C 
ATOM     35  H   UNL A   1      37.271  20.631  25.348  1.00  0.00     0.163 HD
ATOM     36  O   UNL A   1      39.467  20.417  26.077  1.00  0.00    -0.269 OA
BRANCH  34  37
ATOM     37  C   UNL A   1      39.624  22.706  26.599  1.00  0.00     0.039 A 
ATOM     38  C   UNL A   1      39.303  23.936  25.998  1.00  0.00     0.014 A 
ATOM     39  C   UNL A   1      40.629  22.702  27.564  1.00  0.00     0.014 A 
ATOM     40  C   UNL A   1      39.893  25.138  26.410  1.00  0.00     0.010 A 
ATOM     41  C   UNL A   1      41.195  23.902  28.015  1.00  0.00     0.010 A 
ATOM     42  C   UNL A   1      40.842  25.129  27.433  1.00  0.00    -0.014 A 
BRANCH  42  43
ATOM     43  C   UNL A   1      41.631  26.342  27.765  1.00  0.00     0.031 A 
ATOM     44  C   UNL A   1      40.953  27.433  28.548  1.00  0.00     0.074 A 
ATOM     45  C   UNL A   1      42.904  26.497  27.360  1.00  0.00     0.049 A 
ATOM     46  N   UNL A   1      41.367  28.641  28.830  1.00  0.00    -0.248 NA
ATOM     47  C   UNL A   1      39.612  27.118  29.068  1.00  0.00     0.031 C 
ATOM     48  C   UNL A   1      43.689  25.501  26.634  1.00  0.00     0.029 A 
ATOM     49  N   UNL A   1      43.755  27.568  27.490  1.00  0.00    -0.354 N 
ATOM     50  C   UNL A   1      40.332  29.235  29.540  1.00  0.00     0.074 A 
ATOM     51  C   UNL A   1      39.257  28.270  29.612  1.00  0.00     0.031 C 
ATOM     52  C   UNL A   1      44.906  26.013  26.372  1.00  0.00     0.029 A 
ATOM     53  C   UNL A   1      44.968  27.387  26.870  1.00  0.00     0.049 A 
ATOM     54  H   UNL A   1      43.518  28.387  27.979  1.00  0.00     0.167 HD
ATOM     55  C   UNL A   1      40.284  30.470  30.092  1.00  0.00     0.037 A 
ATOM     56  C   UNL A   1      45.996  28.245  26.702  1.00  0.00     0.037 A 
ATOM     57  C   UNL A   1      41.359  31.423  30.029  1.00  0.00     0.049 A 
ATOM     58  C   UNL A   1      45.891  29.644  27.263  1.00  0.00     0.074 A 
ATOM     59  C   UNL A   1      41.417  32.695  30.570  1.00  0.00     0.029 A 
ATOM     60  N   UNL A   1      42.566  31.208  29.379  1.00  0.00    -0.354 N 
ATOM     61  N   UNL A   1      44.915  30.196  27.944  1.00  0.00    -0.248 NA
ATOM     62  C   UNL A   1      47.034  30.541  27.028  1.00  0.00     0.031 C 
ATOM     63  C   UNL A   1      42.634  33.272  30.197  1.00  0.00     0.029 A 
ATOM     64  C   UNL A   1      43.364  32.337  29.482  1.00  0.00     0.049 A 
ATOM     65  H   UNL A   1      42.818  30.377  28.914  1.00  0.00     0.167 HD
ATOM     66  C   UNL A   1      45.339  31.485  28.247  1.00  0.00     0.074 A 
ATOM     67  C   UNL A   1      46.665  31.630  27.687  1.00  0.00     0.031 C 
ATOM     68  C   UNL A   1      44.689  32.461  28.929  1.00  0.00     0.037 A 
BRANCH  55  69
ATOM     69  C   UNL A   1      39.013  30.868  30.782  1.00  0.00     0.064 A 
ATOM     70  C   UNL A   1      38.801  30.626  32.148  1.00  0.00     0.173 A 
ATOM     71  C   UNL A   1      37.992  31.511  30.066  1.00  0.00     0.173 A 
ATOM     72  F   UNL A   1      39.737  29.997  32.875  1.00  0.00    -0.203 F 
ATOM     73  C   UNL A   1      37.603  30.981  32.762  1.00  0.00     0.198 A 
ATOM     74  C   UNL A   1      36.809  31.897  30.691  1.00  0.00     0.198 A 
ATOM     75  F   UNL A   1      38.141  31.766  28.757  1.00  0.00    -0.203 F 
ATOM     76  F   UNL A   1      37.400  30.683  34.053  1.00  0.00    -0.200 F 
ATOM     77  C   UNL A   1      36.612  31.622  32.035  1.00  0.00     0.200 A 
ATOM     78  F   UNL A   1      35.858  32.526  29.988  1.00  0.00    -0.200 F 
ATOM     79  F   UNL A   1      35.460  31.966  32.627  1.00  0.00    -0.200 F 
ENDBRANCH  55  69
BRANCH  56  80
ATOM     80  C   UNL A   1      47.212  27.824  25.952  1.00  0.00     0.064 A 
ATOM     81  C   UNL A   1      47.230  27.817  24.549  1.00  0.00     0.173 A 
ATOM     82  C   UNL A   1      48.365  27.382  26.618  1.00  0.00     0.173 A 
ATOM     83  F   UNL A   1      46.143  28.202  23.863  1.00  0.00    -0.203 F 
ATOM     84  C   UNL A   1      48.343  27.361  23.844  1.00  0.00     0.198 A 
ATOM     85  C   UNL A   1      49.489  26.959  25.911  1.00  0.00     0.198 A 
ATOM     86  F   UNL A   1      48.401  27.363  27.958  1.00  0.00    -0.203 F 
ATOM     87  F   UNL A   1      48.311  27.311  22.505  1.00  0.00    -0.200 F 
ATOM     88  C   UNL A   1      49.474  26.939  24.525  1.00  0.00     0.200 A 
ATOM     89  F   UNL A   1      50.584  26.562  26.575  1.00  0.00    -0.200 F 
ATOM     90  F   UNL A   1      50.544  26.501  23.847  1.00  0.00    -0.200 F 
ENDBRANCH  56  80
BRANCH  68  91
ATOM     91  C   UNL A   1      45.416  33.759  29.153  1.00  0.00     0.064 A 
ATOM     92  C   UNL A   1      46.277  33.948  30.242  1.00  0.00     0.173 A 
ATOM     93  C   UNL A   1      45.288  34.808  28.228  1.00  0.00     0.173 A 
ATOM     94  F   UNL A   1      46.427  32.981  31.161  1.00  0.00    -0.203 F 
ATOM     95  C   UNL A   1      46.963  35.148  30.413  1.00  0.00     0.198 A 
ATOM     96  C   UNL A   1      46.002  35.993  28.383  1.00  0.00     0.198 A 
ATOM     97  F   UNL A   1      44.485  34.677  27.162  1.00  0.00    -0.203 F 
ATOM     98  F   UNL A   1      47.744  35.324  31.489  1.00  0.00    -0.200 F 
ATOM     99  C   UNL A   1      46.832  36.166  29.480  1.00  0.00     0.200 A 
ATOM    100  F   UNL A   1      45.889  36.966  27.470  1.00  0.00    -0.200 F 
ATOM    101  F   UNL A   1      47.504  37.314  29.640  1.00  0.00    -0.200 F 
ENDBRANCH  68  91
ENDBRANCH  42  43
ENDBRANCH  34  37
ENDBRANCH  32  33
ENDBRANCH  31  32
ENDBRANCH  30  31
ENDBRANCH   1  30
TORSDOF 15
ENDMDL
MODEL 2
REMARK VINA RESULT:     -12.7      5.212      9.623
REMARK SMILES COc1cccc(N2/C(=[NH+]/C(=O)CCC(=O)NCCCCNC(=O)c3ccc(-c4c5nc(c(-c6c(F)c(F)c(F)c(F)c6F)c6ccc([nH]6)c(-c6c(F)c(F)c(F)c(F)c6F)c6nc(c(-c7c(F)c(F)c(F)c(F)c7F)c7ccc4[nH]7)C=C6)C=C5)cc3)S[C@@H]3CS(=O)(=O)C[C@H]32)c1
REMARK SMILES IDX 18 1 17 2 15 3 16 4 14 6 13 7 11 8 8 9 9 10 95 11 10 12
REMARK SMILES IDX 88 13 89 14 94 15 90 17 91 18 12 19 92 20 93 21 7 22 3 23
REMARK SMILES IDX 4 24 96 25 5 26 6 27 2 28 1 29 19 30 20 31 21 32 22 33 23 34
REMARK SMILES IDX 24 36 25 37 26 38 87 39 27 40 86 41 28 42 29 43 30 44 80 45
REMARK SMILES IDX 31 46 85 47 79 48 81 49 32 50 84 51 78 52 77 53 33 55 65 56
REMARK SMILES IDX 45 57 64 58 46 59 49 60 63 61 82 62 47 63 48 64 62 66 83 67
REMARK SMILES IDX 50 68 34 69 35 70 43 71 36 72 37 73 41 74 44 75 38 76 39 77
REMARK SMILES IDX 42 78 40 79 66 80 67 81 75 82 68 83 69 84 73 85 76 86 70 87
REMARK SMILES IDX 71 88 74 89 72 90 51 91 52 92 60 93 53 94 54 95 58 96 61 97
REMARK SMILES IDX 55 98 56 99 59 100 57 101
REMARK H PARENT 17 5 10 16 22 35 81 54 49 65
REMARK Flexibility Score: inf
ROOT
ATOM      1  C   UNL A   1      34.115  33.657  28.259  1.00  0.00     0.116 C 
ENDROOT
BRANCH   1   2
ATOM      2  N   UNL A   1      35.194  32.705  28.034  1.00  0.00    -0.356 N 
ATOM      3  C   UNL A   1      35.179  31.352  27.904  1.00  0.00     0.220 C 
ATOM      4  O   UNL A   1      36.260  30.773  27.773  1.00  0.00    -0.275 OA
ATOM      5  H   UNL A   1      36.088  33.111  27.962  1.00  0.00     0.163 HD
BRANCH   3   6
ATOM      6  C   UNL A   1      33.873  30.598  27.886  1.00  0.00     0.112 C 
BRANCH   6   7
ATOM      7  C   UNL A   1      33.494  30.204  26.462  1.00  0.00     0.138 C 
BRANCH   7   8
ATOM      8  C   UNL A   1      33.562  28.704  26.279  1.00  0.00     0.308 C 
ATOM      9  N   UNL A   1      31.576  26.304  24.305  1.00  0.00    -0.216 N 
ATOM     10  C   UNL A   1      32.593  26.981  25.015  1.00  0.00     0.319 C 
ATOM     11  C   UNL A   1      32.043  25.042  23.691  1.00  0.00     0.212 C 
ATOM     12  N   UNL A   1      32.532  28.166  25.536  1.00  0.00    -0.204 N 
ATOM     13  S   UNL A   1      34.062  25.930  25.049  1.00  0.00    -0.029 SA
ATOM     14  C   UNL A   1      33.073  24.493  24.685  1.00  0.00     0.120 C 
ATOM     15  C   UNL A   1      31.107  23.870  23.453  1.00  0.00     0.188 C 
ATOM     16  H   UNL A   1      31.720  28.703  25.396  1.00  0.00     0.316 HD
ATOM     17  C   UNL A   1      33.692  23.290  24.026  1.00  0.00     0.156 C 
ATOM     18  S   UNL A   1      32.202  22.424  23.532  1.00  0.00     0.155 S 
ATOM     19  O   UNL A   1      34.484  28.095  26.817  1.00  0.00    -0.247 OA
ATOM     20  O   UNL A   1      31.774  21.603  24.644  1.00  0.00    -0.229 OA
ATOM     21  O   UNL A   1      32.386  21.868  22.210  1.00  0.00    -0.229 OA
BRANCH   9  22
ATOM     22  C   UNL A   1      30.403  26.914  23.814  1.00  0.00     0.132 A 
ATOM     23  C   UNL A   1      29.253  28.606  22.439  1.00  0.00     0.123 A 
ATOM     24  C   UNL A   1      28.027  28.159  22.920  1.00  0.00     0.047 A 
ATOM     25  C   UNL A   1      30.422  27.988  22.899  1.00  0.00     0.098 A 
ATOM     26  C   UNL A   1      27.971  27.106  23.829  1.00  0.00     0.008 A 
ATOM     27  C   UNL A   1      29.148  26.486  24.264  1.00  0.00     0.052 A 
BRANCH  23  28
ATOM     28  O   UNL A   1      29.157  29.657  21.571  1.00  0.00    -0.497 OA
ATOM     29  C   UNL A   1      28.068  30.562  21.685  1.00  0.00     0.278 C 
ENDBRANCH  23  28
ENDBRANCH   9  22
ENDBRANCH   7   8
ENDBRANCH   6   7
ENDBRANCH   3   6
ENDBRANCH   1   2
BRANCH   1  30
ATOM     30  C   UNL A   1      34.598  35.101  28.410  1.00  0.00     0.023 C 
BRANCH  30  31
ATOM     31  C   UNL A   1      33.469  36.080  28.706  1.00  0.00     0.023 C 
BRANCH  31  32
ATOM     32  C   UNL A   1      33.501  36.903  29.980  1.00  0.00     0.116 C 
BRANCH  32  33
ATOM     33  N   UNL A   1      32.480  36.524  30.938  1.00  0.00    -0.352 N 
ATOM     34  C   UNL A   1      32.482  35.692  32.032  1.00  0.00     0.251 C 
ATOM     35  H   UNL A   1      31.609  36.949  30.769  1.00  0.00     0.163 HD
ATOM     36  O   UNL A   1      31.405  35.557  32.617  1.00  0.00    -0.269 OA
BRANCH  34  37
ATOM     37  C   UNL A   1      33.655  34.881  32.484  1.00  0.00     0.039 A 
ATOM     38  C   UNL A   1      34.923  35.484  32.408  1.00  0.00     0.014 A 
ATOM     39  C   UNL A   1      33.593  33.568  32.947  1.00  0.00     0.014 A 
ATOM     40  C   UNL A   1      36.078  34.840  32.867  1.00  0.00     0.010 A 
ATOM     41  C   UNL A   1      34.735  32.929  33.449  1.00  0.00     0.010 A 
ATOM     42  C   UNL A   1      35.990  33.554  33.401  1.00  0.00    -0.014 A 
BRANCH  42  43
ATOM     43  C   UNL A   1      37.206  32.763  33.715  1.00  0.00     0.031 A 
ATOM     44  C   UNL A   1      37.921  33.050  35.007  1.00  0.00     0.074 A 
ATOM     45  C   UNL A   1      37.690  31.835  32.870  1.00  0.00     0.049 A 
ATOM     46  N   UNL A   1      39.075  32.612  35.439  1.00  0.00    -0.248 NA
ATOM     47  C   UNL A   1      37.243  33.975  35.930  1.00  0.00     0.031 C 
ATOM     48  C   UNL A   1      37.071  31.432  31.609  1.00  0.00     0.029 A 
ATOM     49  N   UNL A   1      38.833  31.076  32.942  1.00  0.00    -0.354 N 
ATOM     50  C   UNL A   1      39.270  33.224  36.670  1.00  0.00     0.074 A 
ATOM     51  C   UNL A   1      38.136  34.092  36.898  1.00  0.00     0.031 C 
ATOM     52  C   UNL A   1      37.849  30.505  31.020  1.00  0.00     0.029 A 
ATOM     53  C   UNL A   1      39.041  30.285  31.838  1.00  0.00     0.049 A 
ATOM     54  H   UNL A   1      39.446  31.098  33.711  1.00  0.00     0.167 HD
ATOM     55  C   UNL A   1      40.297  33.070  37.538  1.00  0.00     0.037 A 
ATOM     56  C   UNL A   1      40.089  29.499  31.516  1.00  0.00     0.037 A 
ATOM     57  C   UNL A   1      41.418  32.198  37.314  1.00  0.00     0.049 A 
ATOM     58  C   UNL A   1      41.259  29.399  32.466  1.00  0.00     0.074 A 
ATOM     59  C   UNL A   1      42.502  31.957  38.139  1.00  0.00     0.029 A 
ATOM     60  N   UNL A   1      41.600  31.424  36.176  1.00  0.00    -0.354 N 
ATOM     61  N   UNL A   1      41.432  29.970  33.634  1.00  0.00    -0.248 NA
ATOM     62  C   UNL A   1      42.382  28.544  32.050  1.00  0.00     0.031 C 
ATOM     63  C   UNL A   1      43.369  31.084  37.474  1.00  0.00     0.029 A 
ATOM     64  C   UNL A   1      42.795  30.728  36.266  1.00  0.00     0.049 A 
ATOM     65  H   UNL A   1      40.974  31.378  35.418  1.00  0.00     0.167 HD
ATOM     66  C   UNL A   1      42.660  29.518  34.105  1.00  0.00     0.074 A 
ATOM     67  C   UNL A   1      43.184  28.616  33.102  1.00  0.00     0.031 C 
ATOM     68  C   UNL A   1      43.297  29.822  35.264  1.00  0.00     0.037 A 
BRANCH  55  69
ATOM     69  C   UNL A   1      40.267  33.890  38.794  1.00  0.00     0.064 A 
ATOM     70  C   UNL A   1      39.612  33.449  39.954  1.00  0.00     0.173 A 
ATOM     71  C   UNL A   1      40.913  35.135  38.840  1.00  0.00     0.173 A 
ATOM     72  F   UNL A   1      38.963  32.275  39.958  1.00  0.00    -0.203 F 
ATOM     73  C   UNL A   1      39.575  34.238  41.100  1.00  0.00     0.198 A 
ATOM     74  C   UNL A   1      40.905  35.906  40.000  1.00  0.00     0.198 A 
ATOM     75  F   UNL A   1      41.553  35.606  37.760  1.00  0.00    -0.203 F 
ATOM     76  F   UNL A   1      38.890  33.824  42.176  1.00  0.00    -0.200 F 
ATOM     77  C   UNL A   1      40.227  35.462  41.125  1.00  0.00     0.200 A 
ATOM     78  F   UNL A   1      41.545  37.083  40.023  1.00  0.00    -0.200 F 
ATOM     79  F   UNL A   1      40.194  36.220  42.229  1.00  0.00    -0.200 F 
ENDBRANCH  55  69
BRANCH  56  80
ATOM     80  C   UNL A   1      40.102  28.755  30.225  1.00  0.00     0.064 A 
ATOM     81  C   UNL A   1      40.683  29.311  29.076  1.00  0.00     0.173 A 
ATOM     82  C   UNL A   1      39.500  27.494  30.103  1.00  0.00     0.173 A 
ATOM     83  F   UNL A   1      41.246  30.527  29.130  1.00  0.00    -0.203 F 
ATOM     84  C   UNL A   1      40.639  28.645  27.851  1.00  0.00     0.198 A 
ATOM     85  C   UNL A   1      39.487  26.815  28.886  1.00  0.00     0.198 A 
ATOM     86  F   UNL A   1      38.926  26.917  31.168  1.00  0.00    -0.203 F 
ATOM     87  F   UNL A   1      41.150  29.226  26.757  1.00  0.00    -0.200 F 
ATOM     88  C   UNL A   1      40.047  27.395  27.758  1.00  0.00     0.200 A 
ATOM     89  F   UNL A   1      38.923  25.601  28.804  1.00  0.00    -0.200 F 
ATOM     90  F   UNL A   1      40.005  26.756  26.582  1.00  0.00    -0.200 F 
ENDBRANCH  56  80
BRANCH  68  91
ATOM     91  C   UNL A   1      44.609  29.141  35.539  1.00  0.00     0.064 A 
ATOM     92  C   UNL A   1      45.830  29.681  35.111  1.00  0.00     0.173 A 
ATOM     93  C   UNL A   1      44.645  27.955  36.291  1.00  0.00     0.173 A 
ATOM     94  F   UNL A   1      45.851  30.806  34.380  1.00  0.00    -0.203 F 
ATOM     95  C   UNL A   1      47.035  29.048  35.404  1.00  0.00     0.198 A 
ATOM     96  C   UNL A   1      45.854  27.343  36.611  1.00  0.00     0.198 A 
ATOM     97  F   UNL A   1      43.507  27.400  36.734  1.00  0.00    -0.203 F 
ATOM     98  F   UNL A   1      48.187  29.557  34.943  1.00  0.00    -0.200 F 
ATOM     99  C   UNL A   1      47.048  27.885  36.160  1.00  0.00     0.200 A 
ATOM    100  F   UNL A   1      45.863  26.232  37.359  1.00  0.00    -0.200 F 
ATOM    101  F   UNL A   1      48.210  27.285  36.451  1.00  0.00    -0.200 F 
ENDBRANCH  68  91
ENDBRANCH  42  43
ENDBRANCH  34  37
ENDBRANCH  32  33
ENDBRANCH  31  32
ENDBRANCH  30  31
ENDBRANCH   1  30
TORSDOF 15
ENDMDL
MODEL 3
REMARK VINA RESULT:     -12.6      5.191      9.400
REMARK SMILES COc1cccc(N2/C(=[NH+]/C(=O)CCC(=O)NCCCCNC(=O)c3ccc(-c4c5nc(c(-c6c(F)c(F)c(F)c(F)c6F)c6ccc([nH]6)c(-c6c(F)c(F)c(F)c(F)c6F)c6nc(c(-c7c(F)c(F)c(F)c(F)c7F)c7ccc4[nH]7)C=C6)C=C5)cc3)S[C@@H]3CS(=O)(=O)C[C@H]32)c1
REMARK SMILES IDX 18 1 17 2 15 3 16 4 14 6 13 7 11 8 8 9 9 10 95 11 10 12
REMARK SMILES IDX 88 13 89 14 94 15 90 17 91 18 12 19 92 20 93 21 7 22 3 23
REMARK SMILES IDX 4 24 96 25 5 26 6 27 2 28 1 29 19 30 20 31 21 32 22 33 23 34
REMARK SMILES IDX 24 36 25 37 26 38 87 39 27 40 86 41 28 42 29 43 30 44 80 45
REMARK SMILES IDX 31 46 85 47 79 48 81 49 32 50 84 51 78 52 77 53 33 55 65 56
REMARK SMILES IDX 45 57 64 58 46 59 49 60 63 61 82 62 47 63 48 64 62 66 83 67
REMARK SMILES IDX 50 68 34 69 35 70 43 71 36 72 37 73 41 74 44 75 38 76 39 77
REMARK SMILES IDX 42 78 40 79 66 80 67 81 75 82 68 83 69 84 73 85 76 86 70 87
REMARK SMILES IDX 71 88 74 89 72 90 51 91 52 92 60 93 53 94 54 95 58 96 61 97
REMARK SMILES IDX 55 98 56 99 59 100 57 101
REMARK H PARENT 17 5 10 16 22 35 81 54 49 65
REMARK Flexibility Score: inf
ROOT
ATOM      1  C   UNL A   1      34.656  32.733  28.605  1.00  0.00     0.116 C 
ENDROOT
BRANCH   1   2
ATOM      2  N   UNL A   1      35.893  32.148  28.107  1.00  0.00    -0.356 N 
ATOM      3  C   UNL A   1      36.308  30.855  28.043  1.00  0.00     0.220 C 
ATOM      4  O   UNL A   1      37.444  30.635  27.619  1.00  0.00    -0.275 OA
ATOM      5  H   UNL A   1      36.540  32.802  27.754  1.00  0.00     0.163 HD
BRANCH   3   6
ATOM      6  C   UNL A   1      35.385  29.733  28.447  1.00  0.00     0.112 C 
BRANCH   6   7
ATOM      7  C   UNL A   1      35.083  28.825  27.259  1.00  0.00     0.138 C 
BRANCH   7   8
ATOM      8  C   UNL A   1      34.003  29.420  26.382  1.00  0.00     0.308 C 
ATOM      9  N   UNL A   1      31.395  27.947  24.231  1.00  0.00    -0.216 N 
ATOM     10  C   UNL A   1      32.160  28.778  25.080  1.00  0.00     0.319 C 
ATOM     11  C   UNL A   1      30.057  28.504  23.931  1.00  0.00     0.212 C 
ATOM     12  N   UNL A   1      33.301  28.503  25.629  1.00  0.00    -0.204 N 
ATOM     13  S   UNL A   1      31.256  30.321  25.335  1.00  0.00    -0.029 SA
ATOM     14  C   UNL A   1      30.279  30.020  23.875  1.00  0.00     0.120 C 
ATOM     15  C   UNL A   1      29.331  28.194  22.635  1.00  0.00     0.188 C 
ATOM     16  H   UNL A   1      33.681  27.604  25.503  1.00  0.00     0.316 HD
ATOM     17  C   UNL A   1      28.915  30.638  23.731  1.00  0.00     0.156 C 
ATOM     18  S   UNL A   1      28.288  29.656  22.368  1.00  0.00     0.155 S 
ATOM     19  O   UNL A   1      33.860  30.641  26.385  1.00  0.00    -0.247 OA
ATOM     20  O   UNL A   1      28.711  30.284  21.135  1.00  0.00    -0.229 OA
ATOM     21  O   UNL A   1      26.902  29.328  22.611  1.00  0.00    -0.229 OA
BRANCH   9  22
ATOM     22  C   UNL A   1      31.622  26.568  24.047  1.00  0.00     0.132 A 
ATOM     23  C   UNL A   1      32.929  24.690  23.128  1.00  0.00     0.123 A 
ATOM     24  C   UNL A   1      31.992  23.795  23.634  1.00  0.00     0.047 A 
ATOM     25  C   UNL A   1      32.728  26.061  23.330  1.00  0.00     0.098 A 
ATOM     26  C   UNL A   1      30.887  24.261  24.340  1.00  0.00     0.008 A 
ATOM     27  C   UNL A   1      30.710  25.633  24.551  1.00  0.00     0.052 A 
BRANCH  23  28
ATOM     28  O   UNL A   1      33.948  24.094  22.440  1.00  0.00    -0.497 OA
ATOM     29  C   UNL A   1      34.852  23.240  23.126  1.00  0.00     0.278 C 
ENDBRANCH  23  28
ENDBRANCH   9  22
ENDBRANCH   7   8
ENDBRANCH   6   7
ENDBRANCH   3   6
ENDBRANCH   1   2
BRANCH   1  30
ATOM     30  C   UNL A   1      34.648  34.263  28.571  1.00  0.00     0.023 C 
BRANCH  30  31
ATOM     31  C   UNL A   1      33.309  34.862  28.984  1.00  0.00     0.023 C 
BRANCH  31  32
ATOM     32  C   UNL A   1      33.247  36.294  29.480  1.00  0.00     0.116 C 
BRANCH  32  33
ATOM     33  N   UNL A   1      32.460  36.453  30.688  1.00  0.00    -0.352 N 
ATOM     34  C   UNL A   1      32.626  36.018  31.981  1.00  0.00     0.251 C 
ATOM     35  H   UNL A   1      31.639  36.979  30.552  1.00  0.00     0.163 HD
ATOM     36  O   UNL A   1      31.724  36.301  32.772  1.00  0.00    -0.269 OA
BRANCH  34  37
ATOM     37  C   UNL A   1      33.756  35.158  32.452  1.00  0.00     0.039 A 
ATOM     38  C   UNL A   1      35.049  35.707  32.397  1.00  0.00     0.014 A 
ATOM     39  C   UNL A   1      33.630  33.849  32.914  1.00  0.00     0.014 A 
ATOM     40  C   UNL A   1      36.169  35.014  32.874  1.00  0.00     0.010 A 
ATOM     41  C   UNL A   1      34.735  33.163  33.435  1.00  0.00     0.010 A 
ATOM     42  C   UNL A   1      36.016  33.733  33.406  1.00  0.00    -0.014 A 
BRANCH  42  43
ATOM     43  C   UNL A   1      37.192  32.890  33.741  1.00  0.00     0.031 A 
ATOM     44  C   UNL A   1      37.907  33.158  35.037  1.00  0.00     0.074 A 
ATOM     45  C   UNL A   1      37.642  31.934  32.909  1.00  0.00     0.049 A 
ATOM     46  N   UNL A   1      39.036  32.673  35.485  1.00  0.00    -0.248 NA
ATOM     47  C   UNL A   1      37.263  34.122  35.944  1.00  0.00     0.031 C 
ATOM     48  C   UNL A   1      37.018  31.547  31.646  1.00  0.00     0.029 A 
ATOM     49  N   UNL A   1      38.749  31.125  33.000  1.00  0.00    -0.354 N 
ATOM     50  C   UNL A   1      39.247  33.287  36.712  1.00  0.00     0.074 A 
ATOM     51  C   UNL A   1      38.151  34.208  36.920  1.00  0.00     0.031 C 
ATOM     52  C   UNL A   1      37.758  30.580  31.073  1.00  0.00     0.029 A 
ATOM     53  C   UNL A   1      38.931  30.314  31.905  1.00  0.00     0.049 A 
ATOM     54  H   UNL A   1      39.354  31.126  33.775  1.00  0.00     0.167 HD
ATOM     55  C   UNL A   1      40.257  33.095  37.592  1.00  0.00     0.037 A 
ATOM     56  C   UNL A   1      39.945  29.478  31.601  1.00  0.00     0.037 A 
ATOM     57  C   UNL A   1      41.339  32.171  37.387  1.00  0.00     0.049 A 
ATOM     58  C   UNL A   1      41.100  29.335  32.565  1.00  0.00     0.074 A 
ATOM     59  C   UNL A   1      42.403  31.889  38.225  1.00  0.00     0.029 A 
ATOM     60  N   UNL A   1      41.497  31.379  36.258  1.00  0.00    -0.354 N 
ATOM     61  N   UNL A   1      41.288  29.908  33.729  1.00  0.00    -0.248 NA
ATOM     62  C   UNL A   1      42.187  28.426  32.168  1.00  0.00     0.031 C 
ATOM     63  C   UNL A   1      43.236  30.971  37.578  1.00  0.00     0.029 A 
ATOM     64  C   UNL A   1      42.658  30.630  36.367  1.00  0.00     0.049 A 
ATOM     65  H   UNL A   1      40.876  31.353  35.494  1.00  0.00     0.167 HD
ATOM     66  C   UNL A   1      42.489  29.406  34.216  1.00  0.00     0.074 A 
ATOM     67  C   UNL A   1      42.981  28.471  33.227  1.00  0.00     0.031 C 
ATOM     68  C   UNL A   1      43.128  29.692  35.379  1.00  0.00     0.037 A 
BRANCH  55  69
ATOM     69  C   UNL A   1      40.252  33.928  38.840  1.00  0.00     0.064 A 
ATOM     70  C   UNL A   1      39.616  33.502  40.015  1.00  0.00     0.173 A 
ATOM     71  C   UNL A   1      40.904  35.171  38.862  1.00  0.00     0.173 A 
ATOM     72  F   UNL A   1      38.961  32.330  40.042  1.00  0.00    -0.203 F 
ATOM     73  C   UNL A   1      39.602  34.303  41.154  1.00  0.00     0.198 A 
ATOM     74  C   UNL A   1      40.919  35.953  40.013  1.00  0.00     0.198 A 
ATOM     75  F   UNL A   1      41.528  35.627  37.766  1.00  0.00    -0.203 F 
ATOM     76  F   UNL A   1      38.934  33.902  42.245  1.00  0.00    -0.200 F 
ATOM     77  C   UNL A   1      40.259  35.523  41.154  1.00  0.00     0.200 A 
ATOM     78  F   UNL A   1      41.564  37.127  40.014  1.00  0.00    -0.200 F 
ATOM     79  F   UNL A   1      40.248  36.292  42.251  1.00  0.00    -0.200 F 
ENDBRANCH  55  69
BRANCH  56  80
ATOM     80  C   UNL A   1      39.937  28.722  30.318  1.00  0.00     0.064 A 
ATOM     81  C   UNL A   1      39.360  27.446  30.234  1.00  0.00     0.173 A 
ATOM     82  C   UNL A   1      40.540  29.239  29.162  1.00  0.00     0.173 A 
ATOM     83  F   UNL A   1      38.796  26.892  31.318  1.00  0.00    -0.203 F 
ATOM     84  C   UNL A   1      39.409  26.708  29.051  1.00  0.00     0.198 A 
ATOM     85  C   UNL A   1      40.558  28.514  27.972  1.00  0.00     0.198 A 
ATOM     86  F   UNL A   1      41.111  30.451  29.186  1.00  0.00    -0.203 F 
ATOM     87  F   UNL A   1      38.901  25.469  29.016  1.00  0.00    -0.200 F 
ATOM     88  C   UNL A   1      40.002  27.246  27.919  1.00  0.00     0.200 A 
ATOM     89  F   UNL A   1      41.122  29.043  26.876  1.00  0.00    -0.200 F 
ATOM     90  F   UNL A   1      40.048  26.537  26.783  1.00  0.00    -0.200 F 
ENDBRANCH  56  80
BRANCH  68  91
ATOM     91  C   UNL A   1      44.405  28.954  35.673  1.00  0.00     0.064 A 
ATOM     92  C   UNL A   1      45.657  29.456  35.291  1.00  0.00     0.173 A 
ATOM     93  C   UNL A   1      44.375  27.753  36.399  1.00  0.00     0.173 A 
ATOM     94  F   UNL A   1      45.741  30.595  34.586  1.00  0.00    -0.203 F 
ATOM     95  C   UNL A   1      46.829  28.771  35.601  1.00  0.00     0.198 A 
ATOM     96  C   UNL A   1      45.550  27.088  36.738  1.00  0.00     0.198 A 
ATOM     97  F   UNL A   1      43.205  27.233  36.799  1.00  0.00    -0.203 F 
ATOM     98  F   UNL A   1      48.011  29.245  35.183  1.00  0.00    -0.200 F 
ATOM     99  C   UNL A   1      46.776  27.593  36.331  1.00  0.00     0.200 A 
ATOM    100  F   UNL A   1      45.496  25.961  37.461  1.00  0.00    -0.200 F 
ATOM    101  F   UNL A   1      47.906  26.942  36.640  1.00  0.00    -0.200 F 
ENDBRANCH  68  91
ENDBRANCH  42  43
ENDBRANCH  34  37
ENDBRANCH  32  33
ENDBRANCH  31  32
ENDBRANCH  30  31
ENDBRANCH   1  30
TORSDOF 15
ENDMDL
