MODEL 1
REMARK VINA RESULT:     -12.1      0.000      0.000
REMARK SMILES Cc1nn(C)cc1-c1ccnc2nc(CCC(=O)NCCCCNC(=O)c3ccc(-c4c5nc(c(-c6c(F)c(F)c(F)c(F)c6F)c6ccc([nH]6)c(-c6c(F)c(F)c(F)c(F)c6F)c6nc(c(-c7c(F)c(F)c(F)c(F)c7F)c7ccc4[nH]7)C=C6)C=C5)cc3)nn12
REMARK SMILES IDX 21 1 20 2 19 3 17 4 18 5 16 7 15 8 14 9 8 10 9 11 91 12
REMARK SMILES IDX 10 13 12 14 90 15 11 16 13 17 7 18 1 19 2 20 3 21 4 22 6 23
REMARK SMILES IDX 5 24 22 25 23 26 24 27 25 28 26 30 27 31 28 32 89 33 29 34
REMARK SMILES IDX 88 35 30 36 31 37 32 38 82 39 33 40 87 41 81 42 83 43 34 44
REMARK SMILES IDX 86 45 80 46 79 47 35 49 67 50 47 51 66 52 48 53 51 54 65 55
REMARK SMILES IDX 84 56 49 57 50 58 64 60 85 61 52 62 36 63 37 64 45 65 38 66
REMARK SMILES IDX 39 67 43 68 46 69 40 70 41 71 44 72 42 73 68 74 69 75 77 76
REMARK SMILES IDX 70 77 71 78 75 79 78 80 72 81 73 82 76 83 74 84 53 85 54 86
REMARK SMILES IDX 62 87 55 88 56 89 60 90 63 91 57 92 58 93 61 94 59 95
REMARK H PARENT 19 6 24 29 83 48 51 59
REMARK Flexibility Score: inf
ROOT
ATOM      1  C   UNL A   1      34.455  34.172  28.607  1.00  0.00     0.023 C 
ENDROOT
BRANCH   1   2
ATOM      2  C   UNL A   1      34.402  32.762  29.205  1.00  0.00     0.116 C 
BRANCH   2   3
ATOM      3  N   UNL A   1      35.276  31.811  28.539  1.00  0.00    -0.356 N 
ATOM      4  C   UNL A   1      34.985  30.786  27.694  1.00  0.00     0.220 C 
ATOM      5  O   UNL A   1      35.920  30.118  27.246  1.00  0.00    -0.275 OA
ATOM      6  H   UNL A   1      36.235  31.927  28.731  1.00  0.00     0.163 HD
BRANCH   4   7
ATOM      7  C   UNL A   1      33.559  30.520  27.279  1.00  0.00     0.108 C 
BRANCH   7   8
ATOM      8  C   UNL A   1      33.200  29.048  27.467  1.00  0.00     0.089 C 
BRANCH   8   9
ATOM      9  C   UNL A   1      32.917  28.361  26.177  1.00  0.00     0.153 A 
ATOM     10  C   UNL A   1      31.280  27.628  23.158  1.00  0.00     0.081 A 
ATOM     11  C   UNL A   1      31.786  26.819  22.203  1.00  0.00     0.049 A 
ATOM     12  N   UNL A   1      32.039  27.790  24.342  1.00  0.00    -0.196 N 
ATOM     13  C   UNL A   1      33.110  26.206  22.458  1.00  0.00     0.117 A 
ATOM     14  C   UNL A   1      33.287  27.149  24.494  1.00  0.00     0.252 A 
ATOM     15  N   UNL A   1      31.817  28.566  25.446  1.00  0.00    -0.149 NA
ATOM     16  N   UNL A   1      33.822  26.348  23.528  1.00  0.00    -0.220 NA
ATOM     17  N   UNL A   1      33.829  27.508  25.635  1.00  0.00    -0.194 NA
BRANCH  10  18
ATOM     18  C   UNL A   1      30.067  28.352  22.896  1.00  0.00     0.041 A 
ATOM     19  C   UNL A   1      28.186  26.792  23.864  1.00  0.00     0.069 C 
ATOM     20  C   UNL A   1      28.717  27.966  23.130  1.00  0.00     0.069 A 
ATOM     21  N   UNL A   1      27.851  28.821  22.566  1.00  0.00    -0.178 NA
ATOM     22  N   UNL A   1      28.634  29.761  22.010  1.00  0.00    -0.275 N 
ATOM     23  C   UNL A   1      29.963  29.551  22.224  1.00  0.00     0.119 A 
ATOM     24  C   UNL A   1      28.043  30.817  21.223  1.00  0.00     0.173 C 
ENDBRANCH  10  18
ENDBRANCH   8   9
ENDBRANCH   7   8
ENDBRANCH   4   7
ENDBRANCH   2   3
ENDBRANCH   1   2
BRANCH   1  25
ATOM     25  C   UNL A   1      33.130  34.919  28.749  1.00  0.00     0.023 C 
BRANCH  25  26
ATOM     26  C   UNL A   1      33.212  36.315  29.347  1.00  0.00     0.116 C 
BRANCH  26  27
ATOM     27  N   UNL A   1      32.460  36.452  30.585  1.00  0.00    -0.352 N 
ATOM     28  C   UNL A   1      32.613  35.947  31.856  1.00  0.00     0.251 C 
ATOM     29  H   UNL A   1      31.670  37.031  30.493  1.00  0.00     0.163 HD
ATOM     30  O   UNL A   1      31.709  36.194  32.661  1.00  0.00    -0.269 OA
BRANCH  28  31
ATOM     31  C   UNL A   1      33.754  35.096  32.317  1.00  0.00     0.039 A 
ATOM     32  C   UNL A   1      35.053  35.624  32.193  1.00  0.00     0.014 A 
ATOM     33  C   UNL A   1      33.633  33.793  32.792  1.00  0.00     0.014 A 
ATOM     34  C   UNL A   1      36.187  34.880  32.562  1.00  0.00     0.010 A 
ATOM     35  C   UNL A   1      34.751  33.089  33.259  1.00  0.00     0.010 A 
ATOM     36  C   UNL A   1      36.048  33.607  33.124  1.00  0.00    -0.014 A 
BRANCH  36  37
ATOM     37  C   UNL A   1      37.215  32.750  33.493  1.00  0.00     0.031 A 
ATOM     38  C   UNL A   1      37.931  32.993  34.801  1.00  0.00     0.074 A 
ATOM     39  C   UNL A   1      37.690  31.809  32.653  1.00  0.00     0.049 A 
ATOM     40  N   UNL A   1      39.088  32.542  35.219  1.00  0.00    -0.248 NA
ATOM     41  C   UNL A   1      37.265  33.897  35.755  1.00  0.00     0.031 C 
ATOM     42  C   UNL A   1      37.110  31.448  31.361  1.00  0.00     0.029 A 
ATOM     43  N   UNL A   1      38.797  30.996  32.757  1.00  0.00    -0.354 N 
ATOM     44  C   UNL A   1      39.305  33.139  36.456  1.00  0.00     0.074 A 
ATOM     45  C   UNL A   1      38.182  34.018  36.702  1.00  0.00     0.031 C 
ATOM     46  C   UNL A   1      37.856  30.482  30.797  1.00  0.00     0.029 A 
ATOM     47  C   UNL A   1      39.000  30.196  31.658  1.00  0.00     0.049 A 
ATOM     48  H   UNL A   1      39.387  30.990  33.545  1.00  0.00     0.167 HD
ATOM     49  C   UNL A   1      40.332  32.959  37.321  1.00  0.00     0.037 A 
ATOM     50  C   UNL A   1      40.008  29.350  31.365  1.00  0.00     0.037 A 
ATOM     51  C   UNL A   1      41.424  32.044  37.112  1.00  0.00     0.049 A 
ATOM     52  C   UNL A   1      41.154  29.187  32.332  1.00  0.00     0.074 A 
ATOM     53  C   UNL A   1      42.496  31.775  37.946  1.00  0.00     0.029 A 
ATOM     54  N   UNL A   1      41.572  31.234  35.998  1.00  0.00    -0.354 N 
ATOM     55  N   UNL A   1      41.348  29.758  33.496  1.00  0.00    -0.248 NA
ATOM     56  C   UNL A   1      42.228  28.260  31.938  1.00  0.00     0.031 C 
ATOM     57  C   UNL A   1      43.311  30.827  37.321  1.00  0.00     0.029 A 
ATOM     58  C   UNL A   1      42.721  30.469  36.120  1.00  0.00     0.049 A 
ATOM     59  H   UNL A   1      40.954  31.207  35.231  1.00  0.00     0.167 HD
ATOM     60  C   UNL A   1      42.535  29.229  33.989  1.00  0.00     0.074 A 
ATOM     61  C   UNL A   1      43.016  28.286  33.003  1.00  0.00     0.031 C 
ATOM     62  C   UNL A   1      43.170  29.502  35.154  1.00  0.00     0.037 A 
BRANCH  49  63
ATOM     63  C   UNL A   1      40.328  33.764  38.590  1.00  0.00     0.064 A 
ATOM     64  C   UNL A   1      41.065  34.950  38.710  1.00  0.00     0.173 A 
ATOM     65  C   UNL A   1      39.532  33.373  39.678  1.00  0.00     0.173 A 
ATOM     66  F   UNL A   1      41.851  35.362  37.704  1.00  0.00    -0.203 F 
ATOM     67  C   UNL A   1      41.027  35.703  39.881  1.00  0.00     0.198 A 
ATOM     68  C   UNL A   1      39.471  34.146  40.835  1.00  0.00     0.198 A 
ATOM     69  F   UNL A   1      38.801  32.250  39.614  1.00  0.00    -0.203 F 
ATOM     70  F   UNL A   1      41.777  36.807  39.991  1.00  0.00    -0.200 F 
ATOM     71  C   UNL A   1      40.223  35.305  40.938  1.00  0.00     0.200 A 
ATOM     72  F   UNL A   1      38.681  33.768  41.850  1.00  0.00    -0.200 F 
ATOM     73  F   UNL A   1      40.178  36.037  42.060  1.00  0.00    -0.200 F 
ENDBRANCH  49  63
BRANCH  50  74
ATOM     74  C   UNL A   1      39.998  28.579  30.091  1.00  0.00     0.064 A 
ATOM     75  C   UNL A   1      39.380  27.321  30.019  1.00  0.00     0.173 A 
ATOM     76  C   UNL A   1      40.648  29.052  28.942  1.00  0.00     0.173 A 
ATOM     77  F   UNL A   1      38.772  26.812  31.101  1.00  0.00    -0.203 F 
ATOM     78  C   UNL A   1      39.441  26.554  28.859  1.00  0.00     0.198 A 
ATOM     79  C   UNL A   1      40.679  28.296  27.771  1.00  0.00     0.198 A 
ATOM     80  F   UNL A   1      41.262  30.244  28.959  1.00  0.00    -0.203 F 
ATOM     81  F   UNL A   1      38.903  25.327  28.842  1.00  0.00    -0.200 F 
ATOM     82  C   UNL A   1      40.087  27.043  27.734  1.00  0.00     0.200 A 
ATOM     83  F   UNL A   1      41.299  28.775  26.684  1.00  0.00    -0.200 F 
ATOM     84  F   UNL A   1      40.155  26.300  26.622  1.00  0.00    -0.200 F 
ENDBRANCH  50  74
BRANCH  62  85
ATOM     85  C   UNL A   1      44.413  28.722  35.473  1.00  0.00     0.064 A 
ATOM     86  C   UNL A   1      45.688  29.173  35.103  1.00  0.00     0.173 A 
ATOM     87  C   UNL A   1      44.327  27.529  36.209  1.00  0.00     0.173 A 
ATOM     88  F   UNL A   1      45.825  30.301  34.389  1.00  0.00    -0.203 F 
ATOM     89  C   UNL A   1      46.829  28.447  35.438  1.00  0.00     0.198 A 
ATOM     90  C   UNL A   1      45.471  26.822  36.568  1.00  0.00     0.198 A 
ATOM     91  F   UNL A   1      43.132  27.059  36.595  1.00  0.00    -0.203 F 
ATOM     92  F   UNL A   1      48.034  28.875  35.037  1.00  0.00    -0.200 F 
ATOM     93  C   UNL A   1      46.720  27.278  36.176  1.00  0.00     0.200 A 
ATOM     94  F   UNL A   1      45.363  25.702  37.294  1.00  0.00    -0.200 F 
ATOM     95  F   UNL A   1      47.820  26.588  36.507  1.00  0.00    -0.200 F 
ENDBRANCH  62  85
ENDBRANCH  36  37
ENDBRANCH  28  31
ENDBRANCH  26  27
ENDBRANCH  25  26
ENDBRANCH   1  25
TORSDOF 14
ENDMDL
MODEL 2
REMARK VINA RESULT:     -11.8      4.197      6.900
REMARK SMILES Cc1nn(C)cc1-c1ccnc2nc(CCC(=O)NCCCCNC(=O)c3ccc(-c4c5nc(c(-c6c(F)c(F)c(F)c(F)c6F)c6ccc([nH]6)c(-c6c(F)c(F)c(F)c(F)c6F)c6nc(c(-c7c(F)c(F)c(F)c(F)c7F)c7ccc4[nH]7)C=C6)C=C5)cc3)nn12
REMARK SMILES IDX 21 1 20 2 19 3 17 4 18 5 16 7 15 8 14 9 8 10 9 11 91 12
REMARK SMILES IDX 10 13 12 14 90 15 11 16 13 17 7 18 1 19 2 20 3 21 4 22 6 23
REMARK SMILES IDX 5 24 22 25 23 26 24 27 25 28 26 30 27 31 28 32 89 33 29 34
REMARK SMILES IDX 88 35 30 36 31 37 32 38 82 39 33 40 87 41 81 42 83 43 34 44
REMARK SMILES IDX 86 45 80 46 79 47 35 49 67 50 47 51 66 52 48 53 51 54 65 55
REMARK SMILES IDX 84 56 49 57 50 58 64 60 85 61 52 62 36 63 37 64 45 65 38 66
REMARK SMILES IDX 39 67 43 68 46 69 40 70 41 71 44 72 42 73 68 74 69 75 77 76
REMARK SMILES IDX 70 77 71 78 75 79 78 80 72 81 73 82 76 83 74 84 53 85 54 86
REMARK SMILES IDX 62 87 55 88 56 89 60 90 63 91 57 92 58 93 61 94 59 95
REMARK H PARENT 19 6 24 29 83 48 51 59
REMARK Flexibility Score: inf
ROOT
ATOM      1  C   UNL A   1      33.064  29.215  24.825  1.00  0.00     0.023 C 
ENDROOT
BRANCH   1   2
ATOM      2  C   UNL A   1      31.536  29.324  24.826  1.00  0.00     0.116 C 
BRANCH   2   3
ATOM      3  N   UNL A   1      30.980  29.759  23.556  1.00  0.00    -0.356 N 
ATOM      4  C   UNL A   1      30.307  29.062  22.601  1.00  0.00     0.220 C 
ATOM      5  O   UNL A   1      29.922  29.670  21.599  1.00  0.00    -0.275 OA
ATOM      6  H   UNL A   1      31.112  30.713  23.353  1.00  0.00     0.163 HD
BRANCH   4   7
ATOM      7  C   UNL A   1      29.997  27.599  22.801  1.00  0.00     0.108 C 
BRANCH   7   8
ATOM      8  C   UNL A   1      31.253  26.746  22.632  1.00  0.00     0.089 C 
BRANCH   8   9
ATOM      9  C   UNL A   1      31.394  25.721  23.702  1.00  0.00     0.153 A 
ATOM     10  C   UNL A   1      32.969  23.393  25.806  1.00  0.00     0.081 A 
ATOM     11  C   UNL A   1      32.385  22.840  26.891  1.00  0.00     0.049 A 
ATOM     12  N   UNL A   1      32.189  24.282  25.029  1.00  0.00    -0.196 N 
ATOM     13  C   UNL A   1      30.994  23.245  27.198  1.00  0.00     0.117 A 
ATOM     14  C   UNL A   1      30.864  24.593  25.400  1.00  0.00     0.252 A 
ATOM     15  N   UNL A   1      32.510  25.020  23.923  1.00  0.00    -0.149 NA
ATOM     16  N   UNL A   1      30.267  24.062  26.506  1.00  0.00    -0.220 NA
ATOM     17  N   UNL A   1      30.375  25.489  24.573  1.00  0.00    -0.194 NA
BRANCH  10  18
ATOM     18  C   UNL A   1      34.360  23.137  25.549  1.00  0.00     0.041 A 
ATOM     19  C   UNL A   1      34.396  20.636  24.738  1.00  0.00     0.069 C 
ATOM     20  C   UNL A   1      34.997  21.926  25.158  1.00  0.00     0.069 A 
ATOM     21  N   UNL A   1      36.334  22.027  25.215  1.00  0.00    -0.178 NA
ATOM     22  N   UNL A   1      36.550  23.295  25.601  1.00  0.00    -0.275 N 
ATOM     23  C   UNL A   1      35.402  24.012  25.764  1.00  0.00     0.119 A 
ATOM     24  C   UNL A   1      37.895  23.750  25.860  1.00  0.00     0.173 C 
ENDBRANCH  10  18
ENDBRANCH   8   9
ENDBRANCH   7   8
ENDBRANCH   4   7
ENDBRANCH   2   3
ENDBRANCH   1   2
BRANCH   1  25
ATOM     25  C   UNL A   1      33.582  28.233  25.875  1.00  0.00     0.023 C 
BRANCH  25  26
ATOM     26  C   UNL A   1      33.283  28.585  27.323  1.00  0.00     0.116 C 
BRANCH  26  27
ATOM     27  N   UNL A   1      33.476  29.997  27.620  1.00  0.00    -0.352 N 
ATOM     28  C   UNL A   1      34.537  30.739  28.086  1.00  0.00     0.251 C 
ATOM     29  H   UNL A   1      32.672  30.539  27.450  1.00  0.00     0.163 HD
ATOM     30  O   UNL A   1      34.316  31.931  28.322  1.00  0.00    -0.269 OA
BRANCH  28  31
ATOM     31  C   UNL A   1      35.907  30.207  28.365  1.00  0.00     0.039 A 
ATOM     32  C   UNL A   1      36.122  29.574  29.604  1.00  0.00     0.014 A 
ATOM     33  C   UNL A   1      37.005  30.355  27.521  1.00  0.00     0.014 A 
ATOM     34  C   UNL A   1      37.387  29.081  29.968  1.00  0.00     0.010 A 
ATOM     35  C   UNL A   1      38.240  29.773  27.835  1.00  0.00     0.010 A 
ATOM     36  C   UNL A   1      38.460  29.154  29.074  1.00  0.00    -0.014 A 
BRANCH  36  37
ATOM     37  C   UNL A   1      39.837  28.690  29.421  1.00  0.00     0.031 A 
ATOM     38  C   UNL A   1      40.729  29.574  30.262  1.00  0.00     0.074 A 
ATOM     39  C   UNL A   1      40.330  27.530  28.943  1.00  0.00     0.049 A 
ATOM     40  N   UNL A   1      42.018  29.490  30.489  1.00  0.00    -0.248 NA
ATOM     41  C   UNL A   1      40.085  30.731  30.907  1.00  0.00     0.031 C 
ATOM     42  C   UNL A   1      39.597  26.564  28.126  1.00  0.00     0.029 A 
ATOM     43  N   UNL A   1      41.587  26.980  29.058  1.00  0.00    -0.354 N 
ATOM     44  C   UNL A   1      42.340  30.601  31.261  1.00  0.00     0.074 A 
ATOM     45  C   UNL A   1      41.124  31.367  31.427  1.00  0.00     0.031 C 
ATOM     46  C   UNL A   1      40.410  25.537  27.823  1.00  0.00     0.029 A 
ATOM     47  C   UNL A   1      41.738  25.798  28.373  1.00  0.00     0.049 A 
ATOM     48  H   UNL A   1      42.310  27.394  29.583  1.00  0.00     0.167 HD
ATOM     49  C   UNL A   1      43.534  30.945  31.802  1.00  0.00     0.037 A 
ATOM     50  C   UNL A   1      42.828  25.027  28.183  1.00  0.00     0.037 A 
ATOM     51  C   UNL A   1      44.736  30.160  31.691  1.00  0.00     0.049 A 
ATOM     52  C   UNL A   1      44.152  25.446  28.773  1.00  0.00     0.074 A 
ATOM     53  C   UNL A   1      45.986  30.416  32.229  1.00  0.00     0.029 A 
ATOM     54  N   UNL A   1      44.833  28.957  31.011  1.00  0.00    -0.354 N 
ATOM     55  N   UNL A   1      44.444  26.498  29.499  1.00  0.00    -0.248 NA
ATOM     56  C   UNL A   1      45.303  24.566  28.511  1.00  0.00     0.031 C 
ATOM     57  C   UNL A   1      46.849  29.385  31.847  1.00  0.00     0.029 A 
ATOM     58  C   UNL A   1      46.124  28.461  31.112  1.00  0.00     0.049 A 
ATOM     59  H   UNL A   1      44.095  28.520  30.527  1.00  0.00     0.167 HD
ATOM     60  C   UNL A   1      45.793  26.382  29.815  1.00  0.00     0.074 A 
ATOM     61  C   UNL A   1      46.263  25.155  29.209  1.00  0.00     0.031 C 
ATOM     62  C   UNL A   1      46.572  27.220  30.541  1.00  0.00     0.037 A 
BRANCH  49  63
ATOM     63  C   UNL A   1      43.606  32.229  32.579  1.00  0.00     0.064 A 
ATOM     64  C   UNL A   1      43.870  33.454  31.950  1.00  0.00     0.173 A 
ATOM     65  C   UNL A   1      43.352  32.241  33.959  1.00  0.00     0.173 A 
ATOM     66  F   UNL A   1      44.131  33.496  30.635  1.00  0.00    -0.203 F 
ATOM     67  C   UNL A   1      43.903  34.641  32.678  1.00  0.00     0.198 A 
ATOM     68  C   UNL A   1      43.354  33.434  34.678  1.00  0.00     0.198 A 
ATOM     69  F   UNL A   1      43.088  31.098  34.610  1.00  0.00    -0.203 F 
ATOM     70  F   UNL A   1      44.204  35.793  32.064  1.00  0.00    -0.200 F 
ATOM     71  C   UNL A   1      43.635  34.631  34.038  1.00  0.00     0.200 A 
ATOM     72  F   UNL A   1      43.080  33.425  35.990  1.00  0.00    -0.200 F 
ATOM     73  F   UNL A   1      43.655  35.776  34.734  1.00  0.00    -0.200 F 
ENDBRANCH  49  63
BRANCH  50  74
ATOM     74  C   UNL A   1      42.733  23.770  27.392  1.00  0.00     0.064 A 
ATOM     75  C   UNL A   1      42.286  22.580  27.988  1.00  0.00     0.173 A 
ATOM     76  C   UNL A   1      43.137  23.714  26.050  1.00  0.00     0.173 A 
ATOM     77  F   UNL A   1      41.919  22.576  29.278  1.00  0.00    -0.203 F 
ATOM     78  C   UNL A   1      42.277  21.380  27.282  1.00  0.00     0.198 A 
ATOM     79  C   UNL A   1      43.096  22.518  25.336  1.00  0.00     0.198 A 
ATOM     80  F   UNL A   1      43.581  24.820  25.435  1.00  0.00    -0.203 F 
ATOM     81  F   UNL A   1      41.913  20.247  27.898  1.00  0.00    -0.200 F 
ATOM     82  C   UNL A   1      42.679  21.350  25.956  1.00  0.00     0.200 A 
ATOM     83  F   UNL A   1      43.479  22.494  24.052  1.00  0.00    -0.200 F 
ATOM     84  F   UNL A   1      42.680  20.193  25.280  1.00  0.00    -0.200 F 
ENDBRANCH  50  74
BRANCH  62  85
ATOM     85  C   UNL A   1      47.994  26.810  30.793  1.00  0.00     0.064 A 
ATOM     86  C   UNL A   1      48.344  25.947  31.842  1.00  0.00     0.173 A 
ATOM     87  C   UNL A   1      49.016  27.246  29.935  1.00  0.00     0.173 A 
ATOM     88  F   UNL A   1      47.407  25.510  32.698  1.00  0.00    -0.203 F 
ATOM     89  C   UNL A   1      49.667  25.555  32.037  1.00  0.00     0.198 A 
ATOM     90  C   UNL A   1      50.332  26.829  30.115  1.00  0.00     0.198 A 
ATOM     91  F   UNL A   1      48.734  28.065  28.911  1.00  0.00    -0.203 F 
ATOM     92  F   UNL A   1      49.984  24.765  33.072  1.00  0.00    -0.200 F 
ATOM     93  C   UNL A   1      50.657  25.990  31.169  1.00  0.00     0.200 A 
ATOM     94  F   UNL A   1      51.284  27.238  29.265  1.00  0.00    -0.200 F 
ATOM     95  F   UNL A   1      51.927  25.603  31.352  1.00  0.00    -0.200 F 
ENDBRANCH  62  85
ENDBRANCH  36  37
ENDBRANCH  28  31
ENDBRANCH  26  27
ENDBRANCH  25  26
ENDBRANCH   1  25
TORSDOF 14
ENDMDL
MODEL 3
REMARK VINA RESULT:     -11.7      4.299      9.175
REMARK SMILES Cc1nn(C)cc1-c1ccnc2nc(CCC(=O)NCCCCNC(=O)c3ccc(-c4c5nc(c(-c6c(F)c(F)c(F)c(F)c6F)c6ccc([nH]6)c(-c6c(F)c(F)c(F)c(F)c6F)c6nc(c(-c7c(F)c(F)c(F)c(F)c7F)c7ccc4[nH]7)C=C6)C=C5)cc3)nn12
REMARK SMILES IDX 21 1 20 2 19 3 17 4 18 5 16 7 15 8 14 9 8 10 9 11 91 12
REMARK SMILES IDX 10 13 12 14 90 15 11 16 13 17 7 18 1 19 2 20 3 21 4 22 6 23
REMARK SMILES IDX 5 24 22 25 23 26 24 27 25 28 26 30 27 31 28 32 89 33 29 34
REMARK SMILES IDX 88 35 30 36 31 37 32 38 82 39 33 40 87 41 81 42 83 43 34 44
REMARK SMILES IDX 86 45 80 46 79 47 35 49 67 50 47 51 66 52 48 53 51 54 65 55
REMARK SMILES IDX 84 56 49 57 50 58 64 60 85 61 52 62 36 63 37 64 45 65 38 66
REMARK SMILES IDX 39 67 43 68 46 69 40 70 41 71 44 72 42 73 68 74 69 75 77 76
REMARK SMILES IDX 70 77 71 78 75 79 78 80 72 81 73 82 76 83 74 84 53 85 54 86
REMARK SMILES IDX 62 87 55 88 56 89 60 90 63 91 57 92 58 93 61 94 59 95
REMARK H PARENT 19 6 24 29 83 48 51 59
REMARK Flexibility Score: inf
ROOT
ATOM      1  C   UNL A   1      34.970  22.634  26.325  1.00  0.00     0.023 C 
ENDROOT
BRANCH   1   2
ATOM      2  C   UNL A   1      34.816  21.633  25.175  1.00  0.00     0.116 C 
BRANCH   2   3
ATOM      3  N   UNL A   1      33.504  21.655  24.551  1.00  0.00    -0.356 N 
ATOM      4  C   UNL A   1      33.046  22.360  23.482  1.00  0.00     0.220 C 
ATOM      5  O   UNL A   1      31.874  22.195  23.134  1.00  0.00    -0.275 OA
ATOM      6  H   UNL A   1      32.837  21.064  24.971  1.00  0.00     0.163 HD
BRANCH   4   7
ATOM      7  C   UNL A   1      33.972  23.273  22.717  1.00  0.00     0.108 C 
BRANCH   7   8
ATOM      8  C   UNL A   1      33.187  24.355  21.980  1.00  0.00     0.089 C 
BRANCH   8   9
ATOM      9  C   UNL A   1      32.973  25.571  22.812  1.00  0.00     0.153 A 
ATOM     10  C   UNL A   1      31.352  28.415  24.082  1.00  0.00     0.081 A 
ATOM     11  C   UNL A   1      31.759  29.089  25.179  1.00  0.00     0.049 A 
ATOM     12  N   UNL A   1      32.137  27.313  23.666  1.00  0.00    -0.196 N 
ATOM     13  C   UNL A   1      32.967  28.591  25.877  1.00  0.00     0.117 A 
ATOM     14  C   UNL A   1      33.282  26.926  24.395  1.00  0.00     0.252 A 
ATOM     15  N   UNL A   1      31.959  26.425  22.642  1.00  0.00    -0.149 NA
ATOM     16  N   UNL A   1      33.693  27.582  25.519  1.00  0.00    -0.220 NA
ATOM     17  N   UNL A   1      33.797  25.842  23.861  1.00  0.00    -0.194 NA
BRANCH  10  18
ATOM     18  C   UNL A   1      30.111  28.778  23.455  1.00  0.00     0.041 A 
ATOM     19  C   UNL A   1      28.559  26.702  23.893  1.00  0.00     0.069 C 
ATOM     20  C   UNL A   1      28.920  28.014  23.302  1.00  0.00     0.069 A 
ATOM     21  N   UNL A   1      28.046  28.615  22.481  1.00  0.00    -0.178 NA
ATOM     22  N   UNL A   1      28.653  29.765  22.142  1.00  0.00    -0.275 N 
ATOM     23  C   UNL A   1      29.867  29.930  22.738  1.00  0.00     0.119 A 
ATOM     24  C   UNL A   1      28.037  30.648  21.180  1.00  0.00     0.173 C 
ENDBRANCH  10  18
ENDBRANCH   8   9
ENDBRANCH   7   8
ENDBRANCH   4   7
ENDBRANCH   2   3
ENDBRANCH   1   2
BRANCH   1  25
ATOM     25  C   UNL A   1      35.997  23.724  26.019  1.00  0.00     0.023 C 
BRANCH  25  26
ATOM     26  C   UNL A   1      37.014  23.395  24.937  1.00  0.00     0.116 C 
BRANCH  26  27
ATOM     27  N   UNL A   1      38.128  22.595  25.424  1.00  0.00    -0.352 N 
ATOM     28  C   UNL A   1      39.229  22.864  26.203  1.00  0.00     0.251 C 
ATOM     29  H   UNL A   1      38.083  21.656  25.131  1.00  0.00     0.163 HD
ATOM     30  O   UNL A   1      40.046  21.947  26.341  1.00  0.00    -0.269 OA
BRANCH  28  31
ATOM     31  C   UNL A   1      39.529  24.179  26.851  1.00  0.00     0.039 A 
ATOM     32  C   UNL A   1      40.163  25.163  26.068  1.00  0.00     0.014 A 
ATOM     33  C   UNL A   1      39.294  24.478  28.191  1.00  0.00     0.014 A 
ATOM     34  C   UNL A   1      40.519  26.411  26.605  1.00  0.00     0.010 A 
ATOM     35  C   UNL A   1      39.552  25.757  28.700  1.00  0.00     0.010 A 
ATOM     36  C   UNL A   1      40.196  26.734  27.927  1.00  0.00    -0.014 A 
BRANCH  36  37
ATOM     37  C   UNL A   1      40.588  28.026  28.567  1.00  0.00     0.031 A 
ATOM     38  C   UNL A   1      42.016  28.226  29.020  1.00  0.00     0.074 A 
ATOM     39  C   UNL A   1      39.682  28.993  28.813  1.00  0.00     0.049 A 
ATOM     40  N   UNL A   1      42.527  29.151  29.796  1.00  0.00    -0.248 NA
ATOM     41  C   UNL A   1      42.996  27.226  28.562  1.00  0.00     0.031 C 
ATOM     42  C   UNL A   1      38.271  28.956  28.434  1.00  0.00     0.029 A 
ATOM     43  N   UNL A   1      39.817  30.194  29.473  1.00  0.00    -0.354 N 
ATOM     44  C   UNL A   1      43.868  28.819  29.952  1.00  0.00     0.074 A 
ATOM     45  C   UNL A   1      44.083  27.584  29.228  1.00  0.00     0.031 C 
ATOM     46  C   UNL A   1      37.673  30.084  28.856  1.00  0.00     0.029 A 
ATOM     47  C   UNL A   1      38.641  30.897  29.586  1.00  0.00     0.049 A 
ATOM     48  H   UNL A   1      40.675  30.518  29.831  1.00  0.00     0.167 HD
ATOM     49  C   UNL A   1      44.840  29.487  30.618  1.00  0.00     0.037 A 
ATOM     50  C   UNL A   1      38.367  32.049  30.230  1.00  0.00     0.037 A 
ATOM     51  C   UNL A   1      44.649  30.745  31.293  1.00  0.00     0.049 A 
ATOM     52  C   UNL A   1      39.460  32.761  30.988  1.00  0.00     0.074 A 
ATOM     53  C   UNL A   1      45.582  31.510  31.972  1.00  0.00     0.029 A 
ATOM     54  N   UNL A   1      43.448  31.432  31.356  1.00  0.00    -0.354 N 
ATOM     55  N   UNL A   1      40.722  32.436  31.130  1.00  0.00    -0.248 NA
ATOM     56  C   UNL A   1      39.085  34.004  31.682  1.00  0.00     0.031 C 
ATOM     57  C   UNL A   1      44.938  32.644  32.475  1.00  0.00     0.029 A 
ATOM     58  C   UNL A   1      43.615  32.610  32.067  1.00  0.00     0.049 A 
ATOM     59  H   UNL A   1      42.600  31.128  30.956  1.00  0.00     0.167 HD
ATOM     60  C   UNL A   1      41.297  33.451  31.886  1.00  0.00     0.074 A 
ATOM     61  C   UNL A   1      40.249  34.408  32.169  1.00  0.00     0.031 C 
ATOM     62  C   UNL A   1      42.578  33.576  32.309  1.00  0.00     0.037 A 
BRANCH  49  63
ATOM     63  C   UNL A   1      46.213  28.879  30.648  1.00  0.00     0.064 A 
ATOM     64  C   UNL A   1      46.594  27.973  31.648  1.00  0.00     0.173 A 
ATOM     65  C   UNL A   1      47.140  29.163  29.633  1.00  0.00     0.173 A 
ATOM     66  F   UNL A   1      45.750  27.676  32.648  1.00  0.00    -0.203 F 
ATOM     67  C   UNL A   1      47.860  27.392  31.646  1.00  0.00     0.198 A 
ATOM     68  C   UNL A   1      48.393  28.555  29.616  1.00  0.00     0.198 A 
ATOM     69  F   UNL A   1      46.826  30.017  28.648  1.00  0.00    -0.203 F 
ATOM     70  F   UNL A   1      48.217  26.566  32.638  1.00  0.00    -0.200 F 
ATOM     71  C   UNL A   1      48.754  27.676  30.626  1.00  0.00     0.200 A 
ATOM     72  F   UNL A   1      49.251  28.819  28.621  1.00  0.00    -0.200 F 
ATOM     73  F   UNL A   1      49.967  27.107  30.619  1.00  0.00    -0.200 F 
ENDBRANCH  49  63
BRANCH  50  74
ATOM     74  C   UNL A   1      36.992  32.620  30.201  1.00  0.00     0.064 A 
ATOM     75  C   UNL A   1      36.593  33.474  29.162  1.00  0.00     0.173 A 
ATOM     76  C   UNL A   1      36.073  32.374  31.231  1.00  0.00     0.173 A 
ATOM     77  F   UNL A   1      37.448  33.765  28.170  1.00  0.00    -0.203 F 
ATOM     78  C   UNL A   1      35.341  34.083  29.170  1.00  0.00     0.198 A 
ATOM     79  C   UNL A   1      34.808  32.959  31.221  1.00  0.00     0.198 A 
ATOM     80  F   UNL A   1      36.407  31.572  32.253  1.00  0.00    -0.203 F 
ATOM     81  F   UNL A   1      35.013  34.949  28.202  1.00  0.00    -0.200 F 
ATOM     82  C   UNL A   1      34.448  33.823  30.198  1.00  0.00     0.200 A 
ATOM     83  F   UNL A   1      33.945  32.700  32.213  1.00  0.00    -0.200 F 
ATOM     84  F   UNL A   1      33.247  34.417  30.212  1.00  0.00    -0.200 F 
ENDBRANCH  50  74
BRANCH  62  85
ATOM     85  C   UNL A   1      42.948  34.825  33.056  1.00  0.00     0.064 A 
ATOM     86  C   UNL A   1      43.353  35.994  32.395  1.00  0.00     0.173 A 
ATOM     87  C   UNL A   1      42.844  34.866  34.456  1.00  0.00     0.173 A 
ATOM     88  F   UNL A   1      43.480  36.004  31.059  1.00  0.00    -0.203 F 
ATOM     89  C   UNL A   1      43.661  37.150  33.108  1.00  0.00     0.198 A 
ATOM     90  C   UNL A   1      43.124  36.032  35.163  1.00  0.00     0.198 A 
ATOM     91  F   UNL A   1      42.453  33.778  35.136  1.00  0.00    -0.203 F 
ATOM     92  F   UNL A   1      44.087  38.242  32.459  1.00  0.00    -0.200 F 
ATOM     93  C   UNL A   1      43.539  37.170  34.490  1.00  0.00     0.200 A 
ATOM     94  F   UNL A   1      42.990  36.052  36.496  1.00  0.00    -0.200 F 
ATOM     95  F   UNL A   1      43.825  38.287  35.173  1.00  0.00    -0.200 F 
ENDBRANCH  62  85
ENDBRANCH  36  37
ENDBRANCH  28  31
ENDBRANCH  26  27
ENDBRANCH  25  26
ENDBRANCH   1  25
TORSDOF 14
ENDMDL
