MODEL 1
REMARK VINA RESULT:     -12.1      0.000      0.000
REMARK SMILES O=C(NCCCCNC(=O)c1ccc(C[NH2+][C@@H]2CCCC[C@H]2O)nc1)c1ccc(-c2c3nc(c(-c4c(F)c(F)c(F)c(F)c4F)c4ccc([nH]4)c(-c4c(F)c(F)c(F)c(F)c4F)c4nc(c(-c5c(F)c(F)c(F)c(F)c5F)c5ccc2[nH]5)C=C4)C=C3)cc1
REMARK SMILES IDX 6 1 5 2 4 3 3 4 1 5 2 6 26 8 27 9 88 10 28 11 87 12 29 13
REMARK SMILES IDX 30 14 31 15 81 16 32 17 86 18 80 19 82 20 33 21 85 22 79 23
REMARK SMILES IDX 78 24 34 26 66 27 46 28 65 29 47 30 50 31 64 32 83 33 48 34
REMARK SMILES IDX 49 35 63 37 84 38 51 39 35 40 36 41 44 42 37 43 38 44 42 45
REMARK SMILES IDX 45 46 39 47 40 48 43 49 41 50 67 51 68 52 76 53 69 54 70 55
REMARK SMILES IDX 74 56 77 57 71 58 72 59 75 60 73 61 52 62 53 63 61 64 54 65
REMARK SMILES IDX 55 66 59 67 62 68 56 69 57 70 60 71 58 72 7 73 8 74 9 75
REMARK SMILES IDX 10 77 11 78 12 79 25 80 13 81 24 82 14 83 15 84 16 85 17 88
REMARK SMILES IDX 18 89 22 90 19 91 21 92 20 93 23 94
REMARK H PARENT 3 7 82 25 50 36 8 76 16 86 16 87 23 95
REMARK Flexibility Score: inf
ROOT
ATOM      1  C   UNL A   1      32.745  26.632  26.422  1.00  0.00     0.023 C 
ENDROOT
BRANCH   1   2
ATOM      2  C   UNL A   1      32.205  28.052  26.554  1.00  0.00     0.023 C 
BRANCH   2   3
ATOM      3  C   UNL A   1      33.098  29.142  25.979  1.00  0.00     0.116 C 
BRANCH   3   4
ATOM      4  N   UNL A   1      32.669  30.490  26.320  1.00  0.00    -0.352 N 
ATOM      5  O   UNL A   1      32.744  32.471  27.410  1.00  0.00    -0.269 OA
ATOM      6  C   UNL A   1      33.284  31.402  27.147  1.00  0.00     0.251 C 
ATOM      7  H   UNL A   1      31.827  30.788  25.905  1.00  0.00     0.163 HD
BRANCH   6   8
ATOM      8  C   UNL A   1      34.592  31.062  27.748  1.00  0.00     0.039 A 
ATOM      9  C   UNL A   1      34.833  29.773  28.224  1.00  0.00     0.014 A 
ATOM     10  C   UNL A   1      35.567  32.055  27.878  1.00  0.00     0.014 A 
ATOM     11  C   UNL A   1      35.971  29.524  28.978  1.00  0.00     0.010 A 
ATOM     12  C   UNL A   1      36.759  31.774  28.555  1.00  0.00     0.010 A 
ATOM     13  C   UNL A   1      36.952  30.517  29.146  1.00  0.00    -0.014 A 
BRANCH  13  14
ATOM     14  C   UNL A   1      38.186  30.172  29.897  1.00  0.00     0.031 A 
ATOM     15  C   UNL A   1      38.405  30.635  31.309  1.00  0.00     0.074 A 
ATOM     16  C   UNL A   1      39.082  29.358  29.305  1.00  0.00     0.049 A 
ATOM     17  N   UNL A   1      39.385  30.340  32.129  1.00  0.00    -0.248 NA
ATOM     18  C   UNL A   1      37.406  31.551  31.880  1.00  0.00     0.031 C 
ATOM     19  C   UNL A   1      38.986  28.869  27.928  1.00  0.00     0.029 A 
ATOM     20  N   UNL A   1      40.220  28.767  29.789  1.00  0.00    -0.354 N 
ATOM     21  C   UNL A   1      39.129  31.041  33.300  1.00  0.00     0.074 A 
ATOM     22  C   UNL A   1      37.915  31.798  33.080  1.00  0.00     0.031 C 
ATOM     23  C   UNL A   1      39.979  28.000  27.699  1.00  0.00     0.029 A 
ATOM     24  C   UNL A   1      40.814  27.914  28.892  1.00  0.00     0.049 A 
ATOM     25  H   UNL A   1      40.575  28.936  30.691  1.00  0.00     0.167 HD
ATOM     26  C   UNL A   1      39.841  31.043  34.454  1.00  0.00     0.037 A 
ATOM     27  C   UNL A   1      41.912  27.146  29.013  1.00  0.00     0.037 A 
ATOM     28  C   UNL A   1      41.041  30.276  34.673  1.00  0.00     0.049 A 
ATOM     29  C   UNL A   1      42.661  27.149  30.313  1.00  0.00     0.074 A 
ATOM     30  C   UNL A   1      41.831  30.209  35.809  1.00  0.00     0.029 A 
ATOM     31  N   UNL A   1      41.623  29.436  33.735  1.00  0.00    -0.354 N 
ATOM     32  N   UNL A   1      42.399  27.808  31.415  1.00  0.00    -0.248 NA
ATOM     33  C   UNL A   1      43.859  26.302  30.386  1.00  0.00     0.031 C 
ATOM     34  C   UNL A   1      42.906  29.351  35.548  1.00  0.00     0.029 A 
ATOM     35  C   UNL A   1      42.765  28.854  34.263  1.00  0.00     0.049 A 
ATOM     36  H   UNL A   1      41.277  29.277  32.827  1.00  0.00     0.167 HD
ATOM     37  C   UNL A   1      43.400  27.463  32.309  1.00  0.00     0.074 A 
ATOM     38  C   UNL A   1      44.250  26.503  31.635  1.00  0.00     0.031 C 
ATOM     39  C   UNL A   1      43.606  27.912  33.571  1.00  0.00     0.037 A 
BRANCH  26  40
ATOM     40  C   UNL A   1      39.345  31.905  35.579  1.00  0.00     0.064 A 
ATOM     41  C   UNL A   1      38.439  31.418  36.532  1.00  0.00     0.173 A 
ATOM     42  C   UNL A   1      39.834  33.211  35.745  1.00  0.00     0.173 A 
ATOM     43  F   UNL A   1      37.935  30.181  36.412  1.00  0.00    -0.203 F 
ATOM     44  C   UNL A   1      38.031  32.209  37.603  1.00  0.00     0.198 A 
ATOM     45  C   UNL A   1      39.440  33.991  36.828  1.00  0.00     0.198 A 
ATOM     46  F   UNL A   1      40.706  33.722  34.864  1.00  0.00    -0.203 F 
ATOM     47  F   UNL A   1      37.142  31.732  38.485  1.00  0.00    -0.200 F 
ATOM     48  C   UNL A   1      38.537  33.491  37.755  1.00  0.00     0.200 A 
ATOM     49  F   UNL A   1      39.939  35.226  36.980  1.00  0.00    -0.200 F 
ATOM     50  F   UNL A   1      38.152  34.248  38.792  1.00  0.00    -0.200 F 
ENDBRANCH  26  40
BRANCH  27  51
ATOM     51  C   UNL A   1      42.357  26.316  27.865  1.00  0.00     0.064 A 
ATOM     52  C   UNL A   1      41.776  25.068  27.606  1.00  0.00     0.173 A 
ATOM     53  C   UNL A   1      43.357  26.768  26.992  1.00  0.00     0.173 A 
ATOM     54  F   UNL A   1      40.828  24.588  28.422  1.00  0.00    -0.203 F 
ATOM     55  C   UNL A   1      42.189  24.296  26.522  1.00  0.00     0.198 A 
ATOM     56  C   UNL A   1      43.749  26.010  25.892  1.00  0.00     0.198 A 
ATOM     57  F   UNL A   1      43.938  27.960  27.195  1.00  0.00    -0.203 F 
ATOM     58  F   UNL A   1      41.645  23.090  26.316  1.00  0.00    -0.200 F 
ATOM     59  C   UNL A   1      43.169  24.771  25.662  1.00  0.00     0.200 A 
ATOM     60  F   UNL A   1      44.681  26.481  25.055  1.00  0.00    -0.200 F 
ATOM     61  F   UNL A   1      43.558  24.034  24.613  1.00  0.00    -0.200 F 
ENDBRANCH  27  51
BRANCH  39  62
ATOM     62  C   UNL A   1      44.804  27.369  34.290  1.00  0.00     0.064 A 
ATOM     63  C   UNL A   1      46.045  28.021  34.232  1.00  0.00     0.173 A 
ATOM     64  C   UNL A   1      44.711  26.190  35.043  1.00  0.00     0.173 A 
ATOM     65  F   UNL A   1      46.185  29.143  33.510  1.00  0.00    -0.203 F 
ATOM     66  C   UNL A   1      47.159  27.492  34.877  1.00  0.00     0.198 A 
ATOM     67  C   UNL A   1      45.822  25.677  35.707  1.00  0.00     0.198 A 
ATOM     68  F   UNL A   1      43.545  25.532  35.130  1.00  0.00    -0.203 F 
ATOM     69  F   UNL A   1      48.347  28.102  34.764  1.00  0.00    -0.200 F 
ATOM     70  C   UNL A   1      47.046  26.324  35.616  1.00  0.00     0.200 A 
ATOM     71  F   UNL A   1      45.712  24.552  36.426  1.00  0.00    -0.200 F 
ATOM     72  F   UNL A   1      48.122  25.814  36.231  1.00  0.00    -0.200 F 
ENDBRANCH  39  62
ENDBRANCH  13  14
ENDBRANCH   6   8
ENDBRANCH   3   4
ENDBRANCH   2   3
ENDBRANCH   1   2
BRANCH   1  73
ATOM     73  C   UNL A   1      31.859  25.672  25.633  1.00  0.00     0.116 C 
BRANCH  73  74
ATOM     74  N   UNL A   1      30.750  25.152  26.422  1.00  0.00    -0.352 N 
ATOM     75  C   UNL A   1      30.506  23.855  26.799  1.00  0.00     0.252 C 
ATOM     76  H   UNL A   1      30.091  25.818  26.725  1.00  0.00     0.163 HD
ATOM     77  O   UNL A   1      29.467  23.542  27.370  1.00  0.00    -0.269 OA
BRANCH  75  78
ATOM     78  C   UNL A   1      31.506  22.835  26.475  1.00  0.00     0.058 A 
ATOM     79  C   UNL A   1      32.626  22.631  27.280  1.00  0.00     0.017 A 
ATOM     80  C   UNL A   1      31.387  22.136  25.292  1.00  0.00     0.125 A 
ATOM     81  C   UNL A   1      33.633  21.788  26.824  1.00  0.00     0.030 A 
ATOM     82  N   UNL A   1      32.353  21.313  24.831  1.00  0.00    -0.255 NA
ATOM     83  C   UNL A   1      33.474  21.157  25.591  1.00  0.00     0.094 A 
BRANCH  83  84
ATOM     84  C   UNL A   1      34.607  20.325  25.012  1.00  0.00     0.318 C 
BRANCH  84  85
ATOM     85  N   UNL A   1      35.901  20.736  25.547  1.00  0.00    -0.337 N 
ATOM     86  H   UNL A   1      36.329  19.923  25.989  1.00  0.00     0.346 HD
ATOM     87  H   UNL A   1      35.704  21.502  26.192  1.00  0.00     0.346 HD
BRANCH  85  88
ATOM     88  C   UNL A   1      36.853  21.271  24.567  1.00  0.00     0.211 C 
ATOM     89  C   UNL A   1      38.246  21.578  25.153  1.00  0.00     0.068 C 
ATOM     90  C   UNL A   1      36.250  22.577  23.981  1.00  0.00     0.172 C 
ATOM     91  C   UNL A   1      38.202  22.678  26.214  1.00  0.00     0.006 C 
ATOM     92  C   UNL A   1      36.201  23.699  25.028  1.00  0.00     0.038 C 
ATOM     93  C   UNL A   1      37.566  23.954  25.669  1.00  0.00     0.003 C 
BRANCH  90  94
ATOM     94  O   UNL A   1      37.023  22.998  22.853  1.00  0.00    -0.387 OA
ATOM     95  H   UNL A   1      36.541  22.791  22.036  1.00  0.00     0.211 HD
ENDBRANCH  90  94
ENDBRANCH  85  88
ENDBRANCH  84  85
ENDBRANCH  83  84
ENDBRANCH  75  78
ENDBRANCH  73  74
ENDBRANCH   1  73
TORSDOF 15
ENDMDL
MODEL 2
REMARK VINA RESULT:     -11.9      1.689      2.763
REMARK SMILES O=C(NCCCCNC(=O)c1ccc(C[NH2+][C@@H]2CCCC[C@H]2O)nc1)c1ccc(-c2c3nc(c(-c4c(F)c(F)c(F)c(F)c4F)c4ccc([nH]4)c(-c4c(F)c(F)c(F)c(F)c4F)c4nc(c(-c5c(F)c(F)c(F)c(F)c5F)c5ccc2[nH]5)C=C4)C=C3)cc1
REMARK SMILES IDX 6 1 5 2 4 3 3 4 1 5 2 6 26 8 27 9 88 10 28 11 87 12 29 13
REMARK SMILES IDX 30 14 31 15 81 16 32 17 86 18 80 19 82 20 33 21 85 22 79 23
REMARK SMILES IDX 78 24 34 26 66 27 46 28 65 29 47 30 50 31 64 32 83 33 48 34
REMARK SMILES IDX 49 35 63 37 84 38 51 39 35 40 36 41 44 42 37 43 38 44 42 45
REMARK SMILES IDX 45 46 39 47 40 48 43 49 41 50 67 51 68 52 76 53 69 54 70 55
REMARK SMILES IDX 74 56 77 57 71 58 72 59 75 60 73 61 52 62 53 63 61 64 54 65
REMARK SMILES IDX 55 66 59 67 62 68 56 69 57 70 60 71 58 72 7 73 8 74 9 75
REMARK SMILES IDX 10 77 11 78 12 79 25 80 13 81 24 82 14 83 15 84 16 85 17 88
REMARK SMILES IDX 18 89 22 90 19 91 21 92 20 93 23 94
REMARK H PARENT 3 7 82 25 50 36 8 76 16 86 16 87 23 95
REMARK Flexibility Score: inf
ROOT
ATOM      1  C   UNL A   1      32.877  26.788  24.791  1.00  0.00     0.023 C 
ENDROOT
BRANCH   1   2
ATOM      2  C   UNL A   1      32.430  27.999  25.605  1.00  0.00     0.023 C 
BRANCH   2   3
ATOM      3  C   UNL A   1      33.269  29.254  25.415  1.00  0.00     0.116 C 
BRANCH   3   4
ATOM      4  N   UNL A   1      32.658  30.454  25.966  1.00  0.00    -0.352 N 
ATOM      5  O   UNL A   1      32.443  32.197  27.392  1.00  0.00    -0.269 OA
ATOM      6  C   UNL A   1      33.125  31.269  26.972  1.00  0.00     0.251 C 
ATOM      7  H   UNL A   1      31.798  30.718  25.565  1.00  0.00     0.163 HD
BRANCH   6   8
ATOM      8  C   UNL A   1      34.447  30.987  27.573  1.00  0.00     0.039 A 
ATOM      9  C   UNL A   1      34.750  29.706  28.035  1.00  0.00     0.014 A 
ATOM     10  C   UNL A   1      35.371  32.025  27.716  1.00  0.00     0.014 A 
ATOM     11  C   UNL A   1      35.897  29.505  28.789  1.00  0.00     0.010 A 
ATOM     12  C   UNL A   1      36.574  31.795  28.393  1.00  0.00     0.010 A 
ATOM     13  C   UNL A   1      36.828  30.543  28.970  1.00  0.00    -0.014 A 
BRANCH  13  14
ATOM     14  C   UNL A   1      38.076  30.251  29.720  1.00  0.00     0.031 A 
ATOM     15  C   UNL A   1      38.274  30.718  31.135  1.00  0.00     0.074 A 
ATOM     16  C   UNL A   1      39.008  29.481  29.126  1.00  0.00     0.049 A 
ATOM     17  N   UNL A   1      39.266  30.464  31.953  1.00  0.00    -0.248 NA
ATOM     18  C   UNL A   1      37.235  31.586  31.708  1.00  0.00     0.031 C 
ATOM     19  C   UNL A   1      38.934  28.994  27.746  1.00  0.00     0.029 A 
ATOM     20  N   UNL A   1      40.171  28.939  29.608  1.00  0.00    -0.354 N 
ATOM     21  C   UNL A   1      38.979  31.148  33.127  1.00  0.00     0.074 A 
ATOM     22  C   UNL A   1      37.732  31.850  32.910  1.00  0.00     0.031 C 
ATOM     23  C   UNL A   1      39.966  28.171  27.514  1.00  0.00     0.029 A 
ATOM     24  C   UNL A   1      40.803  28.118  28.708  1.00  0.00     0.049 A 
ATOM     25  H   UNL A   1      40.518  29.121  30.511  1.00  0.00     0.167 HD
ATOM     26  C   UNL A   1      39.689  31.177  34.282  1.00  0.00     0.037 A 
ATOM     27  C   UNL A   1      41.934  27.399  28.826  1.00  0.00     0.037 A 
ATOM     28  C   UNL A   1      40.923  30.465  34.498  1.00  0.00     0.049 A 
ATOM     29  C   UNL A   1      42.683  27.431  30.126  1.00  0.00     0.074 A 
ATOM     30  C   UNL A   1      41.715  30.428  35.634  1.00  0.00     0.029 A 
ATOM     31  N   UNL A   1      41.542  29.655  33.556  1.00  0.00    -0.354 N 
ATOM     32  N   UNL A   1      42.391  28.073  31.230  1.00  0.00    -0.248 NA
ATOM     33  C   UNL A   1      43.917  26.639  30.195  1.00  0.00     0.031 C 
ATOM     34  C   UNL A   1      42.827  29.621  35.370  1.00  0.00     0.029 A 
ATOM     35  C   UNL A   1      42.709  29.123  34.083  1.00  0.00     0.049 A 
ATOM     36  H   UNL A   1      41.204  29.484  32.648  1.00  0.00     0.167 HD
ATOM     37  C   UNL A   1      43.406  27.770  32.123  1.00  0.00     0.074 A 
ATOM     38  C   UNL A   1      44.299  26.852  31.446  1.00  0.00     0.031 C 
ATOM     39  C   UNL A   1      43.592  28.223  33.387  1.00  0.00     0.037 A 
BRANCH  26  40
ATOM     40  C   UNL A   1      39.155  32.012  35.410  1.00  0.00     0.064 A 
ATOM     41  C   UNL A   1      38.378  31.450  36.433  1.00  0.00     0.173 A 
ATOM     42  C   UNL A   1      39.481  33.374  35.505  1.00  0.00     0.173 A 
ATOM     43  F   UNL A   1      38.031  30.156  36.383  1.00  0.00    -0.203 F 
ATOM     44  C   UNL A   1      37.936  32.224  37.504  1.00  0.00     0.198 A 
ATOM     45  C   UNL A   1      39.056  34.139  36.588  1.00  0.00     0.198 A 
ATOM     46  F   UNL A   1      40.226  33.958  34.555  1.00  0.00    -0.203 F 
ATOM     47  F   UNL A   1      37.170  31.672  38.455  1.00  0.00    -0.200 F 
ATOM     48  C   UNL A   1      38.281  33.564  37.585  1.00  0.00     0.200 A 
ATOM     49  F   UNL A   1      39.401  35.432  36.670  1.00  0.00    -0.200 F 
ATOM     50  F   UNL A   1      37.865  34.305  38.622  1.00  0.00    -0.200 F 
ENDBRANCH  26  40
BRANCH  27  51
ATOM     51  C   UNL A   1      42.416  26.595  27.675  1.00  0.00     0.064 A 
ATOM     52  C   UNL A   1      43.366  27.106  26.781  1.00  0.00     0.173 A 
ATOM     53  C   UNL A   1      41.952  25.288  27.461  1.00  0.00     0.173 A 
ATOM     54  F   UNL A   1      43.826  28.356  26.935  1.00  0.00    -0.203 F 
ATOM     55  C   UNL A   1      43.823  26.345  25.708  1.00  0.00     0.198 A 
ATOM     56  C   UNL A   1      42.432  24.518  26.406  1.00  0.00     0.198 A 
ATOM     57  F   UNL A   1      41.048  24.752  28.295  1.00  0.00    -0.203 F 
ATOM     58  F   UNL A   1      44.704  26.870  24.845  1.00  0.00    -0.200 F 
ATOM     59  C   UNL A   1      43.362  25.049  25.526  1.00  0.00     0.200 A 
ATOM     60  F   UNL A   1      41.998  23.261  26.246  1.00  0.00    -0.200 F 
ATOM     61  F   UNL A   1      43.811  24.313  24.500  1.00  0.00    -0.200 F 
ENDBRANCH  27  51
BRANCH  39  62
ATOM     62  C   UNL A   1      44.813  27.731  34.104  1.00  0.00     0.064 A 
ATOM     63  C   UNL A   1      46.025  28.435  34.044  1.00  0.00     0.173 A 
ATOM     64  C   UNL A   1      44.771  26.550  34.859  1.00  0.00     0.173 A 
ATOM     65  F   UNL A   1      46.116  29.561  33.321  1.00  0.00    -0.203 F 
ATOM     66  C   UNL A   1      47.162  27.954  34.687  1.00  0.00     0.198 A 
ATOM     67  C   UNL A   1      45.904  26.085  35.520  1.00  0.00     0.198 A 
ATOM     68  F   UNL A   1      43.634  25.843  34.948  1.00  0.00    -0.203 F 
ATOM     69  F   UNL A   1      48.322  28.613  34.572  1.00  0.00    -0.200 F 
ATOM     70  C   UNL A   1      47.100  26.783  35.427  1.00  0.00     0.200 A 
ATOM     71  F   UNL A   1      45.842  24.957  36.241  1.00  0.00    -0.200 F 
ATOM     72  F   UNL A   1      48.197  26.319  36.040  1.00  0.00    -0.200 F 
ENDBRANCH  39  62
ENDBRANCH  13  14
ENDBRANCH   6   8
ENDBRANCH   3   4
ENDBRANCH   2   3
ENDBRANCH   1   2
BRANCH   1  73
ATOM     73  C   UNL A   1      31.807  26.185  23.887  1.00  0.00     0.116 C 
BRANCH  73  74
ATOM     74  N   UNL A   1      32.230  26.095  22.496  1.00  0.00    -0.352 N 
ATOM     75  C   UNL A   1      32.918  25.081  21.877  1.00  0.00     0.252 C 
ATOM     76  H   UNL A   1      31.990  26.861  21.925  1.00  0.00     0.163 HD
ATOM     77  O   UNL A   1      33.309  25.190  20.720  1.00  0.00    -0.269 OA
BRANCH  75  78
ATOM     78  C   UNL A   1      33.207  23.867  22.642  1.00  0.00     0.058 A 
ATOM     79  C   UNL A   1      32.207  22.945  22.950  1.00  0.00     0.017 A 
ATOM     80  C   UNL A   1      34.474  23.689  23.158  1.00  0.00     0.125 A 
ATOM     81  C   UNL A   1      32.498  21.914  23.838  1.00  0.00     0.030 A 
ATOM     82  N   UNL A   1      34.777  22.695  24.021  1.00  0.00    -0.255 NA
ATOM     83  C   UNL A   1      33.786  21.826  24.366  1.00  0.00     0.094 A 
BRANCH  83  84
ATOM     84  C   UNL A   1      34.101  20.785  25.428  1.00  0.00     0.318 C 
BRANCH  84  85
ATOM     85  N   UNL A   1      34.205  19.448  24.854  1.00  0.00    -0.337 N 
ATOM     86  H   UNL A   1      34.698  18.856  25.522  1.00  0.00     0.346 HD
ATOM     87  H   UNL A   1      34.694  19.564  23.966  1.00  0.00     0.346 HD
BRANCH  85  88
ATOM     88  C   UNL A   1      32.932  18.795  24.528  1.00  0.00     0.211 C 
ATOM     89  C   UNL A   1      32.501  17.722  25.548  1.00  0.00     0.068 C 
ATOM     90  C   UNL A   1      33.078  18.136  23.129  1.00  0.00     0.172 C 
ATOM     91  C   UNL A   1      33.476  16.546  25.602  1.00  0.00     0.006 C 
ATOM     92  C   UNL A   1      34.050  16.947  23.160  1.00  0.00     0.038 C 
ATOM     93  C   UNL A   1      33.671  15.917  24.225  1.00  0.00     0.003 C 
BRANCH  90  94
ATOM     94  O   UNL A   1      31.796  17.704  22.665  1.00  0.00    -0.387 OA
ATOM     95  H   UNL A   1      31.673  17.985  21.744  1.00  0.00     0.211 HD
ENDBRANCH  90  94
ENDBRANCH  85  88
ENDBRANCH  84  85
ENDBRANCH  83  84
ENDBRANCH  75  78
ENDBRANCH  73  74
ENDBRANCH   1  73
TORSDOF 15
ENDMDL
MODEL 3
REMARK VINA RESULT:     -11.8      2.018      3.258
REMARK SMILES O=C(NCCCCNC(=O)c1ccc(C[NH2+][C@@H]2CCCC[C@H]2O)nc1)c1ccc(-c2c3nc(c(-c4c(F)c(F)c(F)c(F)c4F)c4ccc([nH]4)c(-c4c(F)c(F)c(F)c(F)c4F)c4nc(c(-c5c(F)c(F)c(F)c(F)c5F)c5ccc2[nH]5)C=C4)C=C3)cc1
REMARK SMILES IDX 6 1 5 2 4 3 3 4 1 5 2 6 26 8 27 9 88 10 28 11 87 12 29 13
REMARK SMILES IDX 30 14 31 15 81 16 32 17 86 18 80 19 82 20 33 21 85 22 79 23
REMARK SMILES IDX 78 24 34 26 66 27 46 28 65 29 47 30 50 31 64 32 83 33 48 34
REMARK SMILES IDX 49 35 63 37 84 38 51 39 35 40 36 41 44 42 37 43 38 44 42 45
REMARK SMILES IDX 45 46 39 47 40 48 43 49 41 50 67 51 68 52 76 53 69 54 70 55
REMARK SMILES IDX 74 56 77 57 71 58 72 59 75 60 73 61 52 62 53 63 61 64 54 65
REMARK SMILES IDX 55 66 59 67 62 68 56 69 57 70 60 71 58 72 7 73 8 74 9 75
REMARK SMILES IDX 10 77 11 78 12 79 25 80 13 81 24 82 14 83 15 84 16 85 17 88
REMARK SMILES IDX 18 89 22 90 19 91 21 92 20 93 23 94
REMARK H PARENT 3 7 82 25 50 36 8 76 16 86 16 87 23 95
REMARK Flexibility Score: inf
ROOT
ATOM      1  C   UNL A   1      31.743  30.473  26.624  1.00  0.00     0.023 C 
ENDROOT
BRANCH   1   2
ATOM      2  C   UNL A   1      31.514  31.977  26.732  1.00  0.00     0.023 C 
BRANCH   2   3
ATOM      3  C   UNL A   1      32.691  32.776  27.270  1.00  0.00     0.116 C 
BRANCH   3   4
ATOM      4  N   UNL A   1      32.354  34.145  27.629  1.00  0.00    -0.352 N 
ATOM      5  O   UNL A   1      32.486  36.062  28.822  1.00  0.00    -0.269 OA
ATOM      6  C   UNL A   1      32.949  34.957  28.567  1.00  0.00     0.251 C 
ATOM      7  H   UNL A   1      31.600  34.543  27.136  1.00  0.00     0.163 HD
BRANCH   6   8
ATOM      8  C   UNL A   1      34.138  34.463  29.297  1.00  0.00     0.039 A 
ATOM      9  C   UNL A   1      35.413  34.633  28.759  1.00  0.00     0.014 A 
ATOM     10  C   UNL A   1      33.968  33.784  30.506  1.00  0.00     0.014 A 
ATOM     11  C   UNL A   1      36.492  33.980  29.337  1.00  0.00     0.010 A 
ATOM     12  C   UNL A   1      35.074  33.207  31.140  1.00  0.00     0.010 A 
ATOM     13  C   UNL A   1      36.339  33.267  30.539  1.00  0.00    -0.014 A 
BRANCH  13  14
ATOM     14  C   UNL A   1      37.542  32.651  31.155  1.00  0.00     0.031 A 
ATOM     15  C   UNL A   1      37.995  33.019  32.540  1.00  0.00     0.074 A 
ATOM     16  C   UNL A   1      38.182  31.686  30.468  1.00  0.00     0.049 A 
ATOM     17  N   UNL A   1      38.967  32.503  33.251  1.00  0.00    -0.248 NA
ATOM     18  C   UNL A   1      37.273  34.107  33.217  1.00  0.00     0.031 C 
ATOM     19  C   UNL A   1      37.848  31.266  29.105  1.00  0.00     0.029 A 
ATOM     20  N   UNL A   1      39.213  30.856  30.827  1.00  0.00    -0.354 N 
ATOM     21  C   UNL A   1      38.984  33.208  34.447  1.00  0.00     0.074 A 
ATOM     22  C   UNL A   1      37.941  34.207  34.359  1.00  0.00     0.031 C 
ATOM     23  C   UNL A   1      38.608  30.216  28.768  1.00  0.00     0.029 A 
ATOM     24  C   UNL A   1      39.522  29.924  29.868  1.00  0.00     0.049 A 
ATOM     25  H   UNL A   1      39.685  30.922  31.688  1.00  0.00     0.167 HD
ATOM     26  C   UNL A   1      39.793  33.029  35.521  1.00  0.00     0.037 A 
ATOM     27  C   UNL A   1      40.439  28.940  29.868  1.00  0.00     0.037 A 
ATOM     28  C   UNL A   1      40.820  32.023  35.608  1.00  0.00     0.049 A 
ATOM     29  C   UNL A   1      41.300  28.750  31.083  1.00  0.00     0.074 A 
ATOM     30  C   UNL A   1      41.688  31.760  36.655  1.00  0.00     0.029 A 
ATOM     31  N   UNL A   1      41.115  31.106  34.609  1.00  0.00    -0.354 N 
ATOM     32  N   UNL A   1      41.294  29.419  32.210  1.00  0.00    -0.248 NA
ATOM     33  C   UNL A   1      42.293  27.671  31.025  1.00  0.00     0.031 C 
ATOM     34  C   UNL A   1      42.527  30.705  36.278  1.00  0.00     0.029 A 
ATOM     35  C   UNL A   1      42.157  30.284  35.012  1.00  0.00     0.049 A 
ATOM     36  H   UNL A   1      40.654  31.049  33.741  1.00  0.00     0.167 HD
ATOM     37  C   UNL A   1      42.284  28.847  32.993  1.00  0.00     0.074 A 
ATOM     38  C   UNL A   1      42.842  27.750  32.228  1.00  0.00     0.031 C 
ATOM     39  C   UNL A   1      42.706  29.208  34.230  1.00  0.00     0.037 A 
BRANCH  26  40
ATOM     40  C   UNL A   1      39.605  33.943  36.696  1.00  0.00     0.064 A 
ATOM     41  C   UNL A   1      38.822  33.570  37.798  1.00  0.00     0.173 A 
ATOM     42  C   UNL A   1      40.270  35.179  36.752  1.00  0.00     0.173 A 
ATOM     43  F   UNL A   1      38.158  32.405  37.790  1.00  0.00    -0.203 F 
ATOM     44  C   UNL A   1      38.703  34.404  38.908  1.00  0.00     0.198 A 
ATOM     45  C   UNL A   1      40.165  35.999  37.872  1.00  0.00     0.198 A 
ATOM     46  F   UNL A   1      41.036  35.580  35.727  1.00  0.00    -0.203 F 
ATOM     47  F   UNL A   1      37.925  34.039  39.937  1.00  0.00    -0.200 F 
ATOM     48  C   UNL A   1      39.379  35.613  38.947  1.00  0.00     0.200 A 
ATOM     49  F   UNL A   1      40.830  37.163  37.913  1.00  0.00    -0.200 F 
ATOM     50  F   UNL A   1      39.273  36.409  40.020  1.00  0.00    -0.200 F 
ENDBRANCH  26  40
BRANCH  27  51
ATOM     51  C   UNL A   1      40.582  28.069  28.675  1.00  0.00     0.064 A 
ATOM     52  C   UNL A   1      39.897  26.851  28.582  1.00  0.00     0.173 A 
ATOM     53  C   UNL A   1      41.391  28.450  27.594  1.00  0.00     0.173 A 
ATOM     54  F   UNL A   1      39.125  26.437  29.597  1.00  0.00    -0.203 F 
ATOM     55  C   UNL A   1      40.025  26.040  27.456  1.00  0.00     0.198 A 
ATOM     56  C   UNL A   1      41.495  27.654  26.458  1.00  0.00     0.198 A 
ATOM     57  F   UNL A   1      42.061  29.612  27.634  1.00  0.00    -0.203 F 
ATOM     58  F   UNL A   1      39.389  24.862  27.406  1.00  0.00    -0.200 F 
ATOM     59  C   UNL A   1      40.818  26.446  26.392  1.00  0.00     0.200 A 
ATOM     60  F   UNL A   1      42.246  28.059  25.426  1.00  0.00    -0.200 F 
ATOM     61  F   UNL A   1      40.932  25.671  25.305  1.00  0.00    -0.200 F 
ENDBRANCH  27  51
BRANCH  39  62
ATOM     62  C   UNL A   1      43.829  28.407  34.817  1.00  0.00     0.064 A 
ATOM     63  C   UNL A   1      43.582  27.248  35.568  1.00  0.00     0.173 A 
ATOM     64  C   UNL A   1      45.162  28.799  34.626  1.00  0.00     0.173 A 
ATOM     65  F   UNL A   1      42.322  26.844  35.790  1.00  0.00    -0.203 F 
ATOM     66  C   UNL A   1      44.630  26.528  36.135  1.00  0.00     0.198 A 
ATOM     67  C   UNL A   1      46.208  28.063  35.175  1.00  0.00     0.198 A 
ATOM     68  F   UNL A   1      45.449  29.899  33.913  1.00  0.00    -0.203 F 
ATOM     69  F   UNL A   1      44.368  25.456  36.893  1.00  0.00    -0.200 F 
ATOM     70  C   UNL A   1      45.941  26.934  35.935  1.00  0.00     0.200 A 
ATOM     71  F   UNL A   1      47.476  28.451  34.977  1.00  0.00    -0.200 F 
ATOM     72  F   UNL A   1      46.947  26.243  36.489  1.00  0.00    -0.200 F 
ENDBRANCH  39  62
ENDBRANCH  13  14
ENDBRANCH   6   8
ENDBRANCH   3   4
ENDBRANCH   2   3
ENDBRANCH   1   2
BRANCH   1  73
ATOM     73  C   UNL A   1      32.257  29.991  25.271  1.00  0.00     0.116 C 
BRANCH  73  74
ATOM     74  N   UNL A   1      31.183  29.624  24.358  1.00  0.00    -0.352 N 
ATOM     75  C   UNL A   1      30.734  28.369  24.030  1.00  0.00     0.252 C 
ATOM     76  H   UNL A   1      30.717  30.373  23.921  1.00  0.00     0.163 HD
ATOM     77  O   UNL A   1      29.891  28.202  23.156  1.00  0.00    -0.269 OA
BRANCH  75  78
ATOM     78  C   UNL A   1      31.309  27.218  24.729  1.00  0.00     0.058 A 
ATOM     79  C   UNL A   1      32.319  26.447  24.155  1.00  0.00     0.017 A 
ATOM     80  C   UNL A   1      30.764  26.830  25.935  1.00  0.00     0.125 A 
ATOM     81  C   UNL A   1      32.691  25.260  24.778  1.00  0.00     0.030 A 
ATOM     82  N   UNL A   1      31.110  25.681  26.556  1.00  0.00    -0.255 NA
ATOM     83  C   UNL A   1      32.058  24.898  25.967  1.00  0.00     0.094 A 
BRANCH  83  84
ATOM     84  C   UNL A   1      32.356  23.552  26.606  1.00  0.00     0.318 C 
BRANCH  84  85
ATOM     85  N   UNL A   1      32.936  22.619  25.646  1.00  0.00    -0.337 N 
ATOM     86  H   UNL A   1      33.214  23.151  24.821  1.00  0.00     0.346 HD
ATOM     87  H   UNL A   1      32.214  21.922  25.464  1.00  0.00     0.346 HD
BRANCH  85  88
ATOM     88  C   UNL A   1      34.107  21.870  26.116  1.00  0.00     0.211 C 
ATOM     89  C   UNL A   1      35.148  22.737  26.853  1.00  0.00     0.068 C 
ATOM     90  C   UNL A   1      34.778  21.212  24.880  1.00  0.00     0.172 C 
ATOM     91  C   UNL A   1      35.770  23.797  25.945  1.00  0.00     0.006 C 
ATOM     92  C   UNL A   1      35.416  22.259  23.955  1.00  0.00     0.038 C 
ATOM     93  C   UNL A   1      36.392  23.172  24.699  1.00  0.00     0.003 C 
BRANCH  90  94
ATOM     94  O   UNL A   1      35.771  20.278  25.314  1.00  0.00    -0.387 OA
ATOM     95  H   UNL A   1      36.346  20.047  24.566  1.00  0.00     0.211 HD
ENDBRANCH  90  94
ENDBRANCH  85  88
ENDBRANCH  84  85
ENDBRANCH  83  84
ENDBRANCH  75  78
ENDBRANCH  73  74
ENDBRANCH   1  73
TORSDOF 15
ENDMDL
