MODEL 1
REMARK VINA RESULT:     -11.9      0.000      0.000
REMARK SMILES Cc1ccc(C)n1-c1ccccc1S[C@H](C)C(=O)NCCCCNC(=O)c1ccc(-c2c3nc(c(-c4c(F)c(F)c(F)c(F)c4F)c4ccc([nH]4)c(-c4c(F)c(F)c(F)c(F)c4F)c4nc(c(-c5c(F)c(F)c(F)c(F)c5F)c5ccc2[nH]5)C=C4)C=C3)cc1
REMARK SMILES IDX 21 1 20 2 19 3 17 4 18 5 15 7 16 8 14 9 13 10 8 11 9 12
REMARK SMILES IDX 10 13 12 14 11 15 7 16 1 17 2 18 3 19 4 20 5 21 6 22 22 23
REMARK SMILES IDX 23 24 24 25 25 26 26 28 27 29 28 30 89 31 29 32 88 33 30 34
REMARK SMILES IDX 31 35 32 36 82 37 33 38 87 39 81 40 83 41 34 42 86 43 80 44
REMARK SMILES IDX 79 45 35 47 67 48 47 49 66 50 48 51 51 52 65 53 84 54 49 55
REMARK SMILES IDX 50 56 64 58 85 59 52 60 36 61 37 62 45 63 38 64 39 65 43 66
REMARK SMILES IDX 46 67 40 68 41 69 44 70 42 71 68 72 69 73 77 74 70 75 71 76
REMARK SMILES IDX 75 77 78 78 72 79 73 80 76 81 74 82 53 83 54 84 62 85 55 86
REMARK SMILES IDX 56 87 60 88 63 89 57 90 58 91 61 92 59 93
REMARK H PARENT 19 6 24 27 83 46 51 57
REMARK Flexibility Score: inf
ROOT
ATOM      1  C   UNL A   1      35.532  30.783  27.617  1.00  0.00     0.023 C 
ENDROOT
BRANCH   1   2
ATOM      2  C   UNL A   1      35.052  29.377  27.923  1.00  0.00     0.116 C 
BRANCH   2   3
ATOM      3  N   UNL A   1      33.636  29.151  27.927  1.00  0.00    -0.355 N 
ATOM      4  C   UNL A   1      32.970  28.202  27.196  1.00  0.00     0.233 C 
ATOM      5  O   UNL A   1      31.787  28.006  27.494  1.00  0.00    -0.274 OA
ATOM      6  H   UNL A   1      33.093  29.731  28.508  1.00  0.00     0.163 HD
BRANCH   4   7
ATOM      7  C   UNL A   1      33.606  27.477  25.992  1.00  0.00     0.137 C 
ATOM      8  C   UNL A   1      33.694  25.965  26.125  1.00  0.00     0.030 C 
BRANCH   7   9
ATOM      9  S   UNL A   1      33.226  28.216  24.340  1.00  0.00    -0.111 SA
BRANCH   9  10
ATOM     10  C   UNL A   1      31.470  28.539  24.067  1.00  0.00     0.032 A 
ATOM     11  C   UNL A   1      30.632  27.512  23.562  1.00  0.00     0.059 A 
ATOM     12  C   UNL A   1      29.351  27.811  23.053  1.00  0.00     0.028 A 
ATOM     13  C   UNL A   1      28.867  29.113  23.088  1.00  0.00     0.002 A 
ATOM     14  C   UNL A   1      30.871  29.791  24.264  1.00  0.00     0.017 A 
ATOM     15  C   UNL A   1      29.607  30.092  23.732  1.00  0.00     0.001 A 
BRANCH  11  16
ATOM     16  N   UNL A   1      30.990  26.130  23.642  1.00  0.00    -0.317 N 
ATOM     17  C   UNL A   1      29.788  25.587  25.855  1.00  0.00     0.065 C 
ATOM     18  C   UNL A   1      30.631  25.250  24.668  1.00  0.00     0.020 A 
ATOM     19  C   UNL A   1      31.140  24.002  24.363  1.00  0.00     0.023 A 
ATOM     20  C   UNL A   1      31.739  24.079  23.097  1.00  0.00     0.023 A 
ATOM     21  C   UNL A   1      31.624  25.381  22.648  1.00  0.00     0.020 A 
ATOM     22  C   UNL A   1      32.152  25.922  21.362  1.00  0.00     0.065 C 
ENDBRANCH  11  16
ENDBRANCH   9  10
ENDBRANCH   7   9
ENDBRANCH   4   7
ENDBRANCH   2   3
ENDBRANCH   1   2
BRANCH   1  23
ATOM     23  C   UNL A   1      34.631  31.958  28.001  1.00  0.00     0.023 C 
BRANCH  23  24
ATOM     24  C   UNL A   1      35.243  33.363  28.062  1.00  0.00     0.116 C 
BRANCH  24  25
ATOM     25  N   UNL A   1      35.037  34.063  29.304  1.00  0.00    -0.352 N 
ATOM     26  C   UNL A   1      35.556  33.735  30.548  1.00  0.00     0.251 C 
ATOM     27  H   UNL A   1      34.463  34.863  29.265  1.00  0.00     0.163 HD
ATOM     28  O   UNL A   1      35.211  34.396  31.510  1.00  0.00    -0.269 OA
BRANCH  26  29
ATOM     29  C   UNL A   1      36.392  32.487  30.760  1.00  0.00     0.039 A 
ATOM     30  C   UNL A   1      37.636  32.524  30.184  1.00  0.00     0.014 A 
ATOM     31  C   UNL A   1      36.044  31.264  31.369  1.00  0.00     0.014 A 
ATOM     32  C   UNL A   1      38.496  31.399  30.265  1.00  0.00     0.010 A 
ATOM     33  C   UNL A   1      36.911  30.057  31.327  1.00  0.00     0.010 A 
ATOM     34  C   UNL A   1      38.187  30.059  30.734  1.00  0.00    -0.014 A 
BRANCH  34  35
ATOM     35  C   UNL A   1      39.227  28.833  30.225  1.00  0.00     0.031 A 
ATOM     36  C   UNL A   1      40.113  28.698  31.413  1.00  0.00     0.074 A 
ATOM     37  C   UNL A   1      39.743  28.040  29.178  1.00  0.00     0.049 A 
ATOM     38  N   UNL A   1      40.784  29.759  31.750  1.00  0.00    -0.248 NA
ATOM     39  C   UNL A   1      39.957  27.704  32.477  1.00  0.00     0.031 C 
ATOM     40  C   UNL A   1      39.424  28.064  27.738  1.00  0.00     0.029 A 
ATOM     41  N   UNL A   1      40.754  26.994  29.153  1.00  0.00    -0.354 N 
ATOM     42  C   UNL A   1      41.303  29.536  32.993  1.00  0.00     0.074 A 
ATOM     43  C   UNL A   1      40.644  28.317  33.453  1.00  0.00     0.031 C 
ATOM     44  C   UNL A   1      40.051  27.059  27.045  1.00  0.00     0.029 A 
ATOM     45  C   UNL A   1      40.934  26.264  27.907  1.00  0.00     0.049 A 
ATOM     46  H   UNL A   1      41.296  26.787  29.949  1.00  0.00     0.167 HD
ATOM     47  C   UNL A   1      42.583  29.971  33.141  1.00  0.00     0.037 A 
ATOM     48  C   UNL A   1      41.783  25.197  27.555  1.00  0.00     0.037 A 
ATOM     49  C   UNL A   1      43.492  28.880  32.932  1.00  0.00     0.049 A 
ATOM     50  C   UNL A   1      42.962  25.344  28.411  1.00  0.00     0.074 A 
ATOM     51  C   UNL A   1      43.448  27.556  33.327  1.00  0.00     0.029 A 
ATOM     52  N   UNL A   1      44.266  28.923  31.794  1.00  0.00    -0.354 N 
ATOM     53  N   UNL A   1      43.876  26.222  28.130  1.00  0.00    -0.248 NA
ATOM     54  C   UNL A   1      43.280  24.429  29.501  1.00  0.00     0.031 C 
ATOM     55  C   UNL A   1      43.640  26.844  32.124  1.00  0.00     0.029 A 
ATOM     56  C   UNL A   1      44.238  27.686  31.196  1.00  0.00     0.049 A 
ATOM     57  H   UNL A   1      44.759  29.710  31.464  1.00  0.00     0.167 HD
ATOM     58  C   UNL A   1      44.561  26.321  29.290  1.00  0.00     0.074 A 
ATOM     59  C   UNL A   1      44.371  25.047  29.962  1.00  0.00     0.031 C 
ATOM     60  C   UNL A   1      44.608  27.568  29.812  1.00  0.00     0.037 A 
BRANCH  47  61
ATOM     61  C   UNL A   1      42.768  31.376  32.600  1.00  0.00     0.064 A 
ATOM     62  C   UNL A   1      42.911  32.430  33.506  1.00  0.00     0.173 A 
ATOM     63  C   UNL A   1      42.603  31.723  31.238  1.00  0.00     0.173 A 
ATOM     64  F   UNL A   1      43.138  32.172  34.803  1.00  0.00    -0.203 F 
ATOM     65  C   UNL A   1      42.816  33.759  33.087  1.00  0.00     0.198 A 
ATOM     66  C   UNL A   1      42.418  33.042  30.837  1.00  0.00     0.198 A 
ATOM     67  F   UNL A   1      42.610  30.780  30.279  1.00  0.00    -0.203 F 
ATOM     68  F   UNL A   1      42.997  34.751  33.969  1.00  0.00    -0.200 F 
ATOM     69  C   UNL A   1      42.522  34.061  31.764  1.00  0.00     0.200 A 
ATOM     70  F   UNL A   1      42.138  33.320  29.555  1.00  0.00    -0.200 F 
ATOM     71  F   UNL A   1      42.371  35.336  31.378  1.00  0.00    -0.200 F 
ENDBRANCH  47  61
BRANCH  48  72
ATOM     72  C   UNL A   1      42.151  24.076  26.499  1.00  0.00     0.064 A 
ATOM     73  C   UNL A   1      43.112  24.313  25.440  1.00  0.00     0.173 A 
ATOM     74  C   UNL A   1      41.984  22.709  26.770  1.00  0.00     0.173 A 
ATOM     75  F   UNL A   1      43.376  25.548  24.993  1.00  0.00    -0.203 F 
ATOM     76  C   UNL A   1      43.904  23.315  24.838  1.00  0.00     0.198 A 
ATOM     77  C   UNL A   1      42.753  21.697  26.124  1.00  0.00     0.198 A 
ATOM     78  F   UNL A   1      41.141  22.323  27.736  1.00  0.00    -0.203 F 
ATOM     79  F   UNL A   1      44.874  23.650  23.970  1.00  0.00    -0.200 F 
ATOM     80  C   UNL A   1      43.736  22.002  25.195  1.00  0.00     0.200 A 
ATOM     81  F   UNL A   1      42.587  20.410  26.467  1.00  0.00    -0.200 F 
ATOM     82  F   UNL A   1      44.530  21.050  24.675  1.00  0.00    -0.200 F 
ENDBRANCH  48  72
BRANCH  60  83
ATOM     83  C   UNL A   1      44.866  28.712  28.844  1.00  0.00     0.064 A 
ATOM     84  C   UNL A   1      43.924  29.355  28.001  1.00  0.00     0.173 A 
ATOM     85  C   UNL A   1      46.196  29.127  28.695  1.00  0.00     0.173 A 
ATOM     86  F   UNL A   1      42.604  29.153  28.114  1.00  0.00    -0.203 F 
ATOM     87  C   UNL A   1      44.316  30.268  27.015  1.00  0.00     0.198 A 
ATOM     88  C   UNL A   1      46.576  30.082  27.753  1.00  0.00     0.198 A 
ATOM     89  F   UNL A   1      47.149  28.612  29.488  1.00  0.00    -0.203 F 
ATOM     90  F   UNL A   1      43.403  30.796  26.186  1.00  0.00    -0.200 F 
ATOM     91  C   UNL A   1      45.642  30.629  26.892  1.00  0.00     0.200 A 
ATOM     92  F   UNL A   1      47.857  30.467  27.685  1.00  0.00    -0.200 F 
ATOM     93  F   UNL A   1      46.021  31.515  25.960  1.00  0.00    -0.200 F 
ENDBRANCH  60  83
ENDBRANCH  34  35
ENDBRANCH  26  29
ENDBRANCH  24  25
ENDBRANCH  23  24
ENDBRANCH   1  23
TORSDOF 14
ENDMDL
MODEL 2
REMARK VINA RESULT:     -11.9      3.539      8.817
REMARK SMILES Cc1ccc(C)n1-c1ccccc1S[C@H](C)C(=O)NCCCCNC(=O)c1ccc(-c2c3nc(c(-c4c(F)c(F)c(F)c(F)c4F)c4ccc([nH]4)c(-c4c(F)c(F)c(F)c(F)c4F)c4nc(c(-c5c(F)c(F)c(F)c(F)c5F)c5ccc2[nH]5)C=C4)C=C3)cc1
REMARK SMILES IDX 21 1 20 2 19 3 17 4 18 5 15 7 16 8 14 9 13 10 8 11 9 12
REMARK SMILES IDX 10 13 12 14 11 15 7 16 1 17 2 18 3 19 4 20 5 21 6 22 22 23
REMARK SMILES IDX 23 24 24 25 25 26 26 28 27 29 28 30 89 31 29 32 88 33 30 34
REMARK SMILES IDX 31 35 32 36 82 37 33 38 87 39 81 40 83 41 34 42 86 43 80 44
REMARK SMILES IDX 79 45 35 47 67 48 47 49 66 50 48 51 51 52 65 53 84 54 49 55
REMARK SMILES IDX 50 56 64 58 85 59 52 60 36 61 37 62 45 63 38 64 39 65 43 66
REMARK SMILES IDX 46 67 40 68 41 69 44 70 42 71 68 72 69 73 77 74 70 75 71 76
REMARK SMILES IDX 75 77 78 78 72 79 73 80 76 81 74 82 53 83 54 84 62 85 55 86
REMARK SMILES IDX 56 87 60 88 63 89 57 90 58 91 61 92 59 93
REMARK H PARENT 19 6 24 27 83 46 51 57
REMARK Flexibility Score: inf
ROOT
ATOM      1  C   UNL A   1      39.523  23.525  27.093  1.00  0.00     0.023 C 
ENDROOT
BRANCH   1   2
ATOM      2  C   UNL A   1      38.213  23.995  26.490  1.00  0.00     0.116 C 
BRANCH   2   3
ATOM      3  N   UNL A   1      37.790  23.373  25.269  1.00  0.00    -0.355 N 
ATOM      4  C   UNL A   1      36.550  23.481  24.697  1.00  0.00     0.233 C 
ATOM      5  O   UNL A   1      36.437  23.063  23.539  1.00  0.00    -0.274 OA
ATOM      6  H   UNL A   1      38.452  22.816  24.798  1.00  0.00     0.163 HD
BRANCH   4   7
ATOM      7  C   UNL A   1      35.317  23.998  25.468  1.00  0.00     0.137 C 
ATOM      8  C   UNL A   1      34.629  25.203  24.848  1.00  0.00     0.030 C 
BRANCH   7   9
ATOM      9  S   UNL A   1      34.289  22.687  26.272  1.00  0.00    -0.111 SA
BRANCH   9  10
ATOM     10  C   UNL A   1      33.885  21.302  25.186  1.00  0.00     0.032 A 
ATOM     11  C   UNL A   1      32.697  21.332  24.413  1.00  0.00     0.059 A 
ATOM     12  C   UNL A   1      32.201  20.160  23.805  1.00  0.00     0.028 A 
ATOM     13  C   UNL A   1      32.901  18.964  23.909  1.00  0.00     0.002 A 
ATOM     14  C   UNL A   1      34.655  20.134  25.100  1.00  0.00     0.017 A 
ATOM     15  C   UNL A   1      34.147  18.961  24.517  1.00  0.00     0.001 A 
BRANCH  11  16
ATOM     16  N   UNL A   1      32.008  22.552  24.123  1.00  0.00    -0.317 N 
ATOM     17  C   UNL A   1      30.566  22.650  26.256  1.00  0.00     0.065 C 
ATOM     18  C   UNL A   1      31.040  23.156  24.932  1.00  0.00     0.020 A 
ATOM     19  C   UNL A   1      30.642  24.330  24.323  1.00  0.00     0.023 A 
ATOM     20  C   UNL A   1      31.431  24.510  23.177  1.00  0.00     0.023 A 
ATOM     21  C   UNL A   1      32.284  23.427  23.071  1.00  0.00     0.020 A 
ATOM     22  C   UNL A   1      33.276  23.188  21.984  1.00  0.00     0.065 C 
ENDBRANCH  11  16
ENDBRANCH   9  10
ENDBRANCH   7   9
ENDBRANCH   4   7
ENDBRANCH   2   3
ENDBRANCH   1   2
BRANCH   1  23
ATOM     23  C   UNL A   1      40.079  22.170  26.654  1.00  0.00     0.023 C 
BRANCH  23  24
ATOM     24  C   UNL A   1      41.135  21.489  27.536  1.00  0.00     0.116 C 
BRANCH  24  25
ATOM     25  N   UNL A   1      42.411  21.278  26.903  1.00  0.00    -0.352 N 
ATOM     26  C   UNL A   1      43.306  22.248  26.475  1.00  0.00     0.251 C 
ATOM     27  H   UNL A   1      42.677  20.341  26.758  1.00  0.00     0.163 HD
ATOM     28  O   UNL A   1      44.308  21.888  25.884  1.00  0.00    -0.269 OA
BRANCH  26  29
ATOM     29  C   UNL A   1      42.986  23.727  26.570  1.00  0.00     0.039 A 
ATOM     30  C   UNL A   1      42.898  24.215  27.850  1.00  0.00     0.014 A 
ATOM     31  C   UNL A   1      42.666  24.646  25.550  1.00  0.00     0.014 A 
ATOM     32  C   UNL A   1      42.552  25.572  28.076  1.00  0.00     0.010 A 
ATOM     33  C   UNL A   1      42.179  26.025  25.819  1.00  0.00     0.010 A 
ATOM     34  C   UNL A   1      42.067  26.551  27.119  1.00  0.00    -0.014 A 
BRANCH  34  35
ATOM     35  C   UNL A   1      41.256  27.883  27.761  1.00  0.00     0.031 A 
ATOM     36  C   UNL A   1      42.344  28.897  27.784  1.00  0.00     0.074 A 
ATOM     37  C   UNL A   1      40.129  28.407  28.429  1.00  0.00     0.049 A 
ATOM     38  N   UNL A   1      43.386  28.604  28.504  1.00  0.00    -0.248 NA
ATOM     39  C   UNL A   1      42.571  29.918  26.758  1.00  0.00     0.031 C 
ATOM     40  C   UNL A   1      38.932  27.711  28.940  1.00  0.00     0.029 A 
ATOM     41  N   UNL A   1      39.789  29.755  28.860  1.00  0.00    -0.354 N 
ATOM     42  C   UNL A   1      44.369  29.495  28.181  1.00  0.00     0.074 A 
ATOM     43  C   UNL A   1      43.863  30.189  26.999  1.00  0.00     0.031 C 
ATOM     44  C   UNL A   1      37.991  28.578  29.435  1.00  0.00     0.029 A 
ATOM     45  C   UNL A   1      38.451  29.971  29.392  1.00  0.00     0.049 A 
ATOM     46  H   UNL A   1      40.438  30.492  28.794  1.00  0.00     0.167 HD
ATOM     47  C   UNL A   1      45.073  29.949  29.253  1.00  0.00     0.037 A 
ATOM     48  C   UNL A   1      37.801  31.129  29.861  1.00  0.00     0.037 A 
ATOM     49  C   UNL A   1      44.536  31.209  29.684  1.00  0.00     0.049 A 
ATOM     50  C   UNL A   1      38.868  31.986  30.383  1.00  0.00     0.074 A 
ATOM     51  C   UNL A   1      44.085  32.309  28.978  1.00  0.00     0.029 A 
ATOM     52  N   UNL A   1      43.879  31.225  30.894  1.00  0.00    -0.354 N 
ATOM     53  N   UNL A   1      39.389  31.754  31.549  1.00  0.00    -0.248 NA
ATOM     54  C   UNL A   1      39.287  33.226  29.740  1.00  0.00     0.031 C 
ATOM     55  C   UNL A   1      42.794  32.534  29.503  1.00  0.00     0.029 A 
ATOM     56  C   UNL A   1      42.706  31.926  30.748  1.00  0.00     0.049 A 
ATOM     57  H   UNL A   1      44.198  30.804  31.726  1.00  0.00     0.167 HD
ATOM     58  C   UNL A   1      40.533  32.470  31.512  1.00  0.00     0.074 A 
ATOM     59  C   UNL A   1      40.287  33.545  30.566  1.00  0.00     0.031 C 
ATOM     60  C   UNL A   1      41.658  31.746  31.715  1.00  0.00     0.037 A 
BRANCH  47  61
ATOM     61  C   UNL A   1      45.494  28.820  30.173  1.00  0.00     0.064 A 
ATOM     62  C   UNL A   1      46.827  28.403  30.157  1.00  0.00     0.173 A 
ATOM     63  C   UNL A   1      44.583  28.018  30.903  1.00  0.00     0.173 A 
ATOM     64  F   UNL A   1      47.755  29.151  29.540  1.00  0.00    -0.203 F 
ATOM     65  C   UNL A   1      47.217  27.210  30.769  1.00  0.00     0.198 A 
ATOM     66  C   UNL A   1      44.956  26.788  31.434  1.00  0.00     0.198 A 
ATOM     67  F   UNL A   1      43.315  28.419  31.101  1.00  0.00    -0.203 F 
ATOM     68  F   UNL A   1      48.508  26.853  30.775  1.00  0.00    -0.200 F 
ATOM     69  C   UNL A   1      46.275  26.383  31.365  1.00  0.00     0.200 A 
ATOM     70  F   UNL A   1      44.035  26.000  32.008  1.00  0.00    -0.200 F 
ATOM     71  F   UNL A   1      46.643  25.209  31.898  1.00  0.00    -0.200 F 
ENDBRANCH  47  61
BRANCH  48  72
ATOM     72  C   UNL A   1      36.442  31.811  30.302  1.00  0.00     0.064 A 
ATOM     73  C   UNL A   1      35.980  31.770  31.676  1.00  0.00     0.173 A 
ATOM     74  C   UNL A   1      35.863  32.864  29.577  1.00  0.00     0.173 A 
ATOM     75  F   UNL A   1      36.373  30.808  32.521  1.00  0.00    -0.203 F 
ATOM     76  C   UNL A   1      35.159  32.747  32.275  1.00  0.00     0.198 A 
ATOM     77  C   UNL A   1      34.993  33.823  30.175  1.00  0.00     0.198 A 
ATOM     78  F   UNL A   1      36.199  33.049  28.295  1.00  0.00    -0.203 F 
ATOM     79  F   UNL A   1      34.906  32.703  33.594  1.00  0.00    -0.200 F 
ATOM     80  C   UNL A   1      34.677  33.788  31.525  1.00  0.00     0.200 A 
ATOM     81  F   UNL A   1      34.516  34.840  29.441  1.00  0.00    -0.200 F 
ATOM     82  F   UNL A   1      33.948  34.759  32.100  1.00  0.00    -0.200 F 
ENDBRANCH  48  72
BRANCH  60  83
ATOM     83  C   UNL A   1      41.617  30.705  32.823  1.00  0.00     0.064 A 
ATOM     84  C   UNL A   1      41.108  29.384  32.744  1.00  0.00     0.173 A 
ATOM     85  C   UNL A   1      42.049  31.115  34.092  1.00  0.00     0.173 A 
ATOM     86  F   UNL A   1      40.772  28.812  31.580  1.00  0.00    -0.203 F 
ATOM     87  C   UNL A   1      40.951  28.584  33.881  1.00  0.00     0.198 A 
ATOM     88  C   UNL A   1      41.948  30.291  35.213  1.00  0.00     0.198 A 
ATOM     89  F   UNL A   1      42.596  32.329  34.251  1.00  0.00    -0.203 F 
ATOM     90  F   UNL A   1      40.392  27.368  33.776  1.00  0.00    -0.200 F 
ATOM     91  C   UNL A   1      41.371  29.038  35.114  1.00  0.00     0.200 A 
ATOM     92  F   UNL A   1      42.415  30.723  36.392  1.00  0.00    -0.200 F 
ATOM     93  F   UNL A   1      41.238  28.269  36.204  1.00  0.00    -0.200 F 
ENDBRANCH  60  83
ENDBRANCH  34  35
ENDBRANCH  26  29
ENDBRANCH  24  25
ENDBRANCH  23  24
ENDBRANCH   1  23
TORSDOF 14
ENDMDL
MODEL 3
REMARK VINA RESULT:     -11.8      3.209      8.539
REMARK SMILES Cc1ccc(C)n1-c1ccccc1S[C@H](C)C(=O)NCCCCNC(=O)c1ccc(-c2c3nc(c(-c4c(F)c(F)c(F)c(F)c4F)c4ccc([nH]4)c(-c4c(F)c(F)c(F)c(F)c4F)c4nc(c(-c5c(F)c(F)c(F)c(F)c5F)c5ccc2[nH]5)C=C4)C=C3)cc1
REMARK SMILES IDX 21 1 20 2 19 3 17 4 18 5 15 7 16 8 14 9 13 10 8 11 9 12
REMARK SMILES IDX 10 13 12 14 11 15 7 16 1 17 2 18 3 19 4 20 5 21 6 22 22 23
REMARK SMILES IDX 23 24 24 25 25 26 26 28 27 29 28 30 89 31 29 32 88 33 30 34
REMARK SMILES IDX 31 35 32 36 82 37 33 38 87 39 81 40 83 41 34 42 86 43 80 44
REMARK SMILES IDX 79 45 35 47 67 48 47 49 66 50 48 51 51 52 65 53 84 54 49 55
REMARK SMILES IDX 50 56 64 58 85 59 52 60 36 61 37 62 45 63 38 64 39 65 43 66
REMARK SMILES IDX 46 67 40 68 41 69 44 70 42 71 68 72 69 73 77 74 70 75 71 76
REMARK SMILES IDX 75 77 78 78 72 79 73 80 76 81 74 82 53 83 54 84 62 85 55 86
REMARK SMILES IDX 56 87 60 88 63 89 57 90 58 91 61 92 59 93
REMARK H PARENT 19 6 24 27 83 46 51 57
REMARK Flexibility Score: inf
ROOT
ATOM      1  C   UNL A   1      35.367  24.427  25.758  1.00  0.00     0.023 C 
ENDROOT
BRANCH   1   2
ATOM      2  C   UNL A   1      34.093  24.830  25.040  1.00  0.00     0.116 C 
BRANCH   2   3
ATOM      3  N   UNL A   1      34.176  25.049  23.626  1.00  0.00    -0.355 N 
ATOM      4  C   UNL A   1      33.116  25.175  22.766  1.00  0.00     0.233 C 
ATOM      5  O   UNL A   1      33.373  25.581  21.627  1.00  0.00    -0.274 OA
ATOM      6  H   UNL A   1      35.078  25.115  23.236  1.00  0.00     0.163 HD
BRANCH   4   7
ATOM      7  C   UNL A   1      31.683  24.741  23.139  1.00  0.00     0.137 C 
ATOM      8  C   UNL A   1      31.443  23.240  23.130  1.00  0.00     0.030 C 
BRANCH   7   9
ATOM      9  S   UNL A   1      30.860  25.779  24.431  1.00  0.00    -0.111 SA
BRANCH   9  10
ATOM     10  C   UNL A   1      30.474  27.457  23.887  1.00  0.00     0.032 A 
ATOM     11  C   UNL A   1      31.126  28.564  24.487  1.00  0.00     0.059 A 
ATOM     12  C   UNL A   1      30.634  29.874  24.311  1.00  0.00     0.028 A 
ATOM     13  C   UNL A   1      29.530  30.108  23.500  1.00  0.00     0.002 A 
ATOM     14  C   UNL A   1      29.496  27.756  22.928  1.00  0.00     0.017 A 
ATOM     15  C   UNL A   1      28.990  29.056  22.775  1.00  0.00     0.001 A 
BRANCH  11  16
ATOM     16  N   UNL A   1      32.359  28.425  25.200  1.00  0.00    -0.317 N 
ATOM     17  C   UNL A   1      33.952  28.793  23.209  1.00  0.00     0.065 C 
ATOM     18  C   UNL A   1      33.639  28.514  24.643  1.00  0.00     0.020 A 
ATOM     19  C   UNL A   1      34.562  28.358  25.659  1.00  0.00     0.023 A 
ATOM     20  C   UNL A   1      33.858  28.266  26.870  1.00  0.00     0.023 A 
ATOM     21  C   UNL A   1      32.507  28.331  26.585  1.00  0.00     0.020 A 
ATOM     22  C   UNL A   1      31.391  28.238  27.570  1.00  0.00     0.065 C 
ENDBRANCH  11  16
ENDBRANCH   9  10
ENDBRANCH   7   9
ENDBRANCH   4   7
ENDBRANCH   2   3
ENDBRANCH   1   2
BRANCH   1  23
ATOM     23  C   UNL A   1      36.011  23.087  25.397  1.00  0.00     0.023 C 
BRANCH  23  24
ATOM     24  C   UNL A   1      37.436  23.087  24.828  1.00  0.00     0.116 C 
BRANCH  24  25
ATOM     25  N   UNL A   1      38.307  22.077  25.371  1.00  0.00    -0.352 N 
ATOM     26  C   UNL A   1      39.355  22.264  26.261  1.00  0.00     0.251 C 
ATOM     27  H   UNL A   1      38.140  21.152  25.078  1.00  0.00     0.163 HD
ATOM     28  O   UNL A   1      40.041  21.302  26.555  1.00  0.00    -0.269 OA
BRANCH  26  29
ATOM     29  C   UNL A   1      39.765  23.645  26.733  1.00  0.00     0.039 A 
ATOM     30  C   UNL A   1      39.126  24.078  27.867  1.00  0.00     0.014 A 
ATOM     31  C   UNL A   1      40.623  24.585  26.127  1.00  0.00     0.014 A 
ATOM     32  C   UNL A   1      39.382  25.376  28.381  1.00  0.00     0.010 A 
ATOM     33  C   UNL A   1      40.774  25.983  26.612  1.00  0.00     0.010 A 
ATOM     34  C   UNL A   1      40.124  26.461  27.764  1.00  0.00    -0.014 A 
BRANCH  34  35
ATOM     35  C   UNL A   1      39.813  28.009  28.357  1.00  0.00     0.031 A 
ATOM     36  C   UNL A   1      41.133  28.665  28.150  1.00  0.00     0.074 A 
ATOM     37  C   UNL A   1      38.982  28.879  29.095  1.00  0.00     0.049 A 
ATOM     38  N   UNL A   1      42.142  28.129  28.771  1.00  0.00    -0.248 NA
ATOM     39  C   UNL A   1      41.489  29.508  27.007  1.00  0.00     0.031 C 
ATOM     40  C   UNL A   1      37.723  28.592  29.809  1.00  0.00     0.029 A 
ATOM     41  N   UNL A   1      39.094  30.292  29.423  1.00  0.00    -0.354 N 
ATOM     42  C   UNL A   1      43.279  28.675  28.247  1.00  0.00     0.074 A 
ATOM     43  C   UNL A   1      42.826  29.408  27.068  1.00  0.00     0.031 C 
ATOM     44  C   UNL A   1      37.139  29.725  30.319  1.00  0.00     0.029 A 
ATOM     45  C   UNL A   1      37.958  30.919  30.082  1.00  0.00     0.049 A 
ATOM     46  H   UNL A   1      39.907  30.804  29.208  1.00  0.00     0.167 HD
ATOM     47  C   UNL A   1      44.224  28.974  29.179  1.00  0.00     0.037 A 
ATOM     48  C   UNL A   1      37.729  32.244  30.503  1.00  0.00     0.037 A 
ATOM     49  C   UNL A   1      44.125  30.361  29.539  1.00  0.00     0.049 A 
ATOM     50  C   UNL A   1      39.053  32.787  30.808  1.00  0.00     0.074 A 
ATOM     51  C   UNL A   1      43.903  31.496  28.782  1.00  0.00     0.029 A 
ATOM     52  N   UNL A   1      43.675  30.643  30.809  1.00  0.00    -0.354 N 
ATOM     53  N   UNL A   1      39.647  32.490  31.923  1.00  0.00    -0.248 NA
ATOM     54  C   UNL A   1      39.707  33.809  29.999  1.00  0.00     0.031 C 
ATOM     55  C   UNL A   1      42.814  32.118  29.428  1.00  0.00     0.029 A 
ATOM     56  C   UNL A   1      42.735  31.642  30.730  1.00  0.00     0.049 A 
ATOM     57  H   UNL A   1      43.977  30.202  31.637  1.00  0.00     0.167 HD
ATOM     58  C   UNL A   1      40.929  32.840  31.681  1.00  0.00     0.074 A 
ATOM     59  C   UNL A   1      40.862  33.877  30.666  1.00  0.00     0.031 C 
ATOM     60  C   UNL A   1      41.824  31.837  31.825  1.00  0.00     0.037 A 
BRANCH  47  61
ATOM     61  C   UNL A   1      44.439  27.833  30.153  1.00  0.00     0.064 A 
ATOM     62  C   UNL A   1      44.584  26.538  29.649  1.00  0.00     0.173 A 
ATOM     63  C   UNL A   1      44.298  27.959  31.557  1.00  0.00     0.173 A 
ATOM     64  F   UNL A   1      44.788  26.350  28.336  1.00  0.00    -0.203 F 
ATOM     65  C   UNL A   1      44.515  25.425  30.489  1.00  0.00     0.198 A 
ATOM     66  C   UNL A   1      44.140  26.848  32.378  1.00  0.00     0.198 A 
ATOM     67  F   UNL A   1      44.305  29.168  32.145  1.00  0.00    -0.203 F 
ATOM     68  F   UNL A   1      44.698  24.197  29.986  1.00  0.00    -0.200 F 
ATOM     69  C   UNL A   1      44.246  25.579  31.842  1.00  0.00     0.200 A 
ATOM     70  F   UNL A   1      43.883  27.012  33.684  1.00  0.00    -0.200 F 
ATOM     71  F   UNL A   1      44.120  24.505  32.635  1.00  0.00    -0.200 F 
ENDBRANCH  47  61
BRANCH  48  72
ATOM     72  C   UNL A   1      36.689  33.316  31.028  1.00  0.00     0.064 A 
ATOM     73  C   UNL A   1      35.836  34.058  30.120  1.00  0.00     0.173 A 
ATOM     74  C   UNL A   1      36.176  33.284  32.334  1.00  0.00     0.173 A 
ATOM     75  F   UNL A   1      36.173  34.251  28.838  1.00  0.00    -0.203 F 
ATOM     76  C   UNL A   1      34.566  34.572  30.454  1.00  0.00     0.198 A 
ATOM     77  C   UNL A   1      34.913  33.848  32.679  1.00  0.00     0.198 A 
ATOM     78  F   UNL A   1      36.839  32.623  33.291  1.00  0.00    -0.203 F 
ATOM     79  F   UNL A   1      33.784  35.115  29.504  1.00  0.00    -0.200 F 
ATOM     80  C   UNL A   1      34.095  34.452  31.735  1.00  0.00     0.200 A 
ATOM     81  F   UNL A   1      34.451  33.736  33.934  1.00  0.00    -0.200 F 
ATOM     82  F   UNL A   1      32.860  34.880  32.048  1.00  0.00    -0.200 F 
ENDBRANCH  48  72
BRANCH  60  83
ATOM     83  C   UNL A   1      41.652  30.925  33.031  1.00  0.00     0.064 A 
ATOM     84  C   UNL A   1      41.967  31.217  34.382  1.00  0.00     0.173 A 
ATOM     85  C   UNL A   1      41.214  29.618  32.778  1.00  0.00     0.173 A 
ATOM     86  F   UNL A   1      42.280  32.453  34.796  1.00  0.00    -0.203 F 
ATOM     87  C   UNL A   1      41.942  30.232  35.376  1.00  0.00     0.198 A 
ATOM     88  C   UNL A   1      41.131  28.655  33.783  1.00  0.00     0.198 A 
ATOM     89  F   UNL A   1      40.841  29.267  31.538  1.00  0.00    -0.203 F 
ATOM     90  F   UNL A   1      42.324  30.530  36.628  1.00  0.00    -0.200 F 
ATOM     91  C   UNL A   1      41.525  28.952  35.075  1.00  0.00     0.200 A 
ATOM     92  F   UNL A   1      40.667  27.433  33.488  1.00  0.00    -0.200 F 
ATOM     93  F   UNL A   1      41.484  28.009  36.026  1.00  0.00    -0.200 F 
ENDBRANCH  60  83
ENDBRANCH  34  35
ENDBRANCH  26  29
ENDBRANCH  24  25
ENDBRANCH  23  24
ENDBRANCH   1  23
TORSDOF 14
ENDMDL
