MODEL 1
REMARK VINA RESULT:     -11.8      0.000      0.000
REMARK SMILES CC[C@@H](Sc1cccc(N)c1)C(=O)NCCCCNC(=O)c1ccc(-c2c3nc(c(-c4c(F)c(F)c(F)c(F)c4F)c4ccc([nH]4)c(-c4c(F)c(F)c(F)c(F)c4F)c4nc(c(-c5c(F)c(F)c(F)c(F)c5F)c5ccc2[nH]5)C=C4)C=C3)cc1
REMARK SMILES IDX 16 1 15 2 14 3 12 4 13 5 3 7 2 8 1 9 4 10 5 11 6 12 11 13
REMARK SMILES IDX 7 14 9 15 8 16 10 17 17 20 18 21 19 22 20 23 21 25 22 26
REMARK SMILES IDX 23 27 84 28 24 29 83 30 25 31 26 32 27 33 77 34 28 35 82 36
REMARK SMILES IDX 76 37 78 38 29 39 81 40 75 41 74 42 30 44 62 45 42 46 61 47
REMARK SMILES IDX 43 48 46 49 60 50 79 51 44 52 45 53 59 55 80 56 47 57 31 58
REMARK SMILES IDX 32 59 40 60 33 61 34 62 38 63 41 64 35 65 36 66 39 67 37 68
REMARK SMILES IDX 63 69 64 70 72 71 65 72 66 73 70 74 73 75 67 76 68 77 71 78
REMARK SMILES IDX 69 79 48 80 49 81 57 82 50 83 51 84 55 85 58 86 52 87 53 88
REMARK SMILES IDX 56 89 54 90
REMARK H PARENT 14 6 10 18 10 19 19 24 78 43 46 54
REMARK Flexibility Score: inf
ROOT
ATOM      1  C   UNL A   1      32.080  30.383  26.843  1.00  0.00     0.023 C 
ENDROOT
BRANCH   1   2
ATOM      2  C   UNL A   1      31.870  29.695  25.500  1.00  0.00     0.116 C 
BRANCH   2   3
ATOM      3  N   UNL A   1      31.253  28.378  25.581  1.00  0.00    -0.355 N 
ATOM      4  C   UNL A   1      30.796  27.563  24.569  1.00  0.00     0.233 C 
ATOM      5  O   UNL A   1      30.438  26.422  24.876  1.00  0.00    -0.274 OA
ATOM      6  H   UNL A   1      31.146  28.020  26.491  1.00  0.00     0.163 HD
BRANCH   4   7
ATOM      7  C   UNL A   1      30.624  28.091  23.120  1.00  0.00     0.140 C 
BRANCH   7   8
ATOM      8  C   UNL A   1      31.475  27.134  22.255  1.00  0.00     0.021 C 
ATOM      9  C   UNL A   1      32.976  27.145  22.398  1.00  0.00     0.005 C 
ENDBRANCH   7   8
BRANCH   7  10
ATOM     10  S   UNL A   1      28.793  28.336  22.861  1.00  0.00    -0.113 SA
BRANCH  10  11
ATOM     11  C   UNL A   1      28.481  30.077  22.687  1.00  0.00     0.010 A 
ATOM     12  C   UNL A   1      28.923  30.990  23.641  1.00  0.00     0.015 A 
ATOM     13  C   UNL A   1      28.068  30.565  21.437  1.00  0.00     0.040 A 
ATOM     14  C   UNL A   1      28.884  32.361  23.395  1.00  0.00     0.003 A 
ATOM     15  C   UNL A   1      28.114  31.933  21.143  1.00  0.00     0.032 A 
ATOM     16  C   UNL A   1      28.474  32.829  22.151  1.00  0.00     0.025 A 
BRANCH  15  17
ATOM     17  N   UNL A   1      27.728  32.407  19.898  1.00  0.00    -0.399 N 
ATOM     18  H   UNL A   1      27.262  33.272  19.823  1.00  0.00     0.156 HD
ATOM     19  H   UNL A   1      27.919  31.879  19.090  1.00  0.00     0.156 HD
ENDBRANCH  15  17
ENDBRANCH  10  11
ENDBRANCH   7  10
ENDBRANCH   4   7
ENDBRANCH   2   3
ENDBRANCH   1   2
BRANCH   1  20
ATOM     20  C   UNL A   1      31.751  31.867  26.878  1.00  0.00     0.023 C 
BRANCH  20  21
ATOM     21  C   UNL A   1      32.903  32.779  27.278  1.00  0.00     0.116 C 
BRANCH  21  22
ATOM     22  N   UNL A   1      32.487  34.128  27.635  1.00  0.00    -0.352 N 
ATOM     23  C   UNL A   1      32.997  34.969  28.596  1.00  0.00     0.251 C 
ATOM     24  H   UNL A   1      31.735  34.491  27.113  1.00  0.00     0.163 HD
ATOM     25  O   UNL A   1      32.462  36.047  28.829  1.00  0.00    -0.269 OA
BRANCH  23  26
ATOM     26  C   UNL A   1      34.174  34.543  29.382  1.00  0.00     0.039 A 
ATOM     27  C   UNL A   1      33.974  33.990  30.650  1.00  0.00     0.014 A 
ATOM     28  C   UNL A   1      35.460  34.641  28.849  1.00  0.00     0.014 A 
ATOM     29  C   UNL A   1      35.058  33.457  31.347  1.00  0.00     0.010 A 
ATOM     30  C   UNL A   1      36.525  34.034  29.506  1.00  0.00     0.010 A 
ATOM     31  C   UNL A   1      36.334  33.432  30.760  1.00  0.00    -0.014 A 
BRANCH  31  32
ATOM     32  C   UNL A   1      37.484  32.779  31.433  1.00  0.00     0.031 A 
ATOM     33  C   UNL A   1      38.175  31.618  30.777  1.00  0.00     0.074 A 
ATOM     34  C   UNL A   1      37.848  33.176  32.667  1.00  0.00     0.049 A 
ATOM     35  N   UNL A   1      39.132  30.854  31.240  1.00  0.00    -0.248 NA
ATOM     36  C   UNL A   1      37.708  31.245  29.433  1.00  0.00     0.031 C 
ATOM     37  C   UNL A   1      37.217  34.253  33.432  1.00  0.00     0.029 A 
ATOM     38  N   UNL A   1      38.828  32.706  33.505  1.00  0.00    -0.354 N 
ATOM     39  C   UNL A   1      39.363  29.902  30.257  1.00  0.00     0.074 A 
ATOM     40  C   UNL A   1      38.412  30.149  29.195  1.00  0.00     0.031 C 
ATOM     41  C   UNL A   1      37.836  34.373  34.617  1.00  0.00     0.029 A 
ATOM     42  C   UNL A   1      38.883  33.358  34.712  1.00  0.00     0.049 A 
ATOM     43  H   UNL A   1      39.437  31.970  33.263  1.00  0.00     0.167 HD
ATOM     44  C   UNL A   1      40.298  28.923  30.233  1.00  0.00     0.037 A 
ATOM     45  C   UNL A   1      39.680  33.156  35.779  1.00  0.00     0.037 A 
ATOM     46  C   UNL A   1      41.263  28.702  31.277  1.00  0.00     0.049 A 
ATOM     47  C   UNL A   1      40.717  32.069  35.722  1.00  0.00     0.074 A 
ATOM     48  C   UNL A   1      42.298  27.785  31.314  1.00  0.00     0.029 A 
ATOM     49  N   UNL A   1      41.307  29.405  32.471  1.00  0.00    -0.354 N 
ATOM     50  N   UNL A   1      40.978  31.223  34.755  1.00  0.00    -0.248 NA
ATOM     51  C   UNL A   1      41.579  31.913  36.902  1.00  0.00     0.031 C 
ATOM     52  C   UNL A   1      42.944  27.905  32.549  1.00  0.00     0.029 A 
ATOM     53  C   UNL A   1      42.341  28.928  33.262  1.00  0.00     0.049 A 
ATOM     54  H   UNL A   1      40.696  30.136  32.721  1.00  0.00     0.167 HD
ATOM     55  C   UNL A   1      42.046  30.453  35.197  1.00  0.00     0.074 A 
ATOM     56  C   UNL A   1      42.395  30.942  36.514  1.00  0.00     0.031 C 
ATOM     57  C   UNL A   1      42.679  29.433  34.568  1.00  0.00     0.037 A 
BRANCH  44  58
ATOM     58  C   UNL A   1      40.326  28.021  29.033  1.00  0.00     0.064 A 
ATOM     59  C   UNL A   1      41.077  28.339  27.891  1.00  0.00     0.173 A 
ATOM     60  C   UNL A   1      39.618  26.811  29.036  1.00  0.00     0.173 A 
ATOM     61  F   UNL A   1      41.762  29.492  27.833  1.00  0.00    -0.203 F 
ATOM     62  C   UNL A   1      41.093  27.494  26.785  1.00  0.00     0.198 A 
ATOM     63  C   UNL A   1      39.660  25.953  27.940  1.00  0.00     0.198 A 
ATOM     64  F   UNL A   1      38.888  26.456  30.104  1.00  0.00    -0.203 F 
ATOM     65  F   UNL A   1      41.774  27.844  25.686  1.00  0.00    -0.200 F 
ATOM     66  C   UNL A   1      40.390  26.299  26.813  1.00  0.00     0.200 A 
ATOM     67  F   UNL A   1      38.991  24.792  27.973  1.00  0.00    -0.200 F 
ATOM     68  F   UNL A   1      40.411  25.484  25.750  1.00  0.00    -0.200 F 
ENDBRANCH  44  58
BRANCH  45  69
ATOM     69  C   UNL A   1      39.541  34.016  36.982  1.00  0.00     0.064 A 
ATOM     70  C   UNL A   1      38.780  33.595  38.082  1.00  0.00     0.173 A 
ATOM     71  C   UNL A   1      40.163  35.270  37.061  1.00  0.00     0.173 A 
ATOM     72  F   UNL A   1      38.150  32.412  38.045  1.00  0.00    -0.203 F 
ATOM     73  C   UNL A   1      38.630  34.404  39.206  1.00  0.00     0.198 A 
ATOM     74  C   UNL A   1      40.035  36.067  38.197  1.00  0.00     0.198 A 
ATOM     75  F   UNL A   1      40.908  35.716  36.038  1.00  0.00    -0.203 F 
ATOM     76  F   UNL A   1      37.860  33.996  40.225  1.00  0.00    -0.200 F 
ATOM     77  C   UNL A   1      39.262  35.637  39.264  1.00  0.00     0.200 A 
ATOM     78  F   UNL A   1      40.658  37.251  38.256  1.00  0.00    -0.200 F 
ATOM     79  F   UNL A   1      39.121  36.413  40.348  1.00  0.00    -0.200 F 
ENDBRANCH  45  69
BRANCH  57  80
ATOM     80  C   UNL A   1      43.837  28.799  35.280  1.00  0.00     0.064 A 
ATOM     81  C   UNL A   1      45.150  29.259  35.104  1.00  0.00     0.173 A 
ATOM     82  C   UNL A   1      43.625  27.747  36.184  1.00  0.00     0.173 A 
ATOM     83  F   UNL A   1      45.406  30.252  34.238  1.00  0.00    -0.203 F 
ATOM     84  C   UNL A   1      46.211  28.676  35.791  1.00  0.00     0.198 A 
ATOM     85  C   UNL A   1      44.684  27.185  36.891  1.00  0.00     0.198 A 
ATOM     86  F   UNL A   1      42.387  27.274  36.393  1.00  0.00    -0.203 F 
ATOM     87  F   UNL A   1      47.462  29.103  35.576  1.00  0.00    -0.200 F 
ATOM     88  C   UNL A   1      45.976  27.646  36.690  1.00  0.00     0.200 A 
ATOM     89  F   UNL A   1      44.453  26.199  37.769  1.00  0.00    -0.200 F 
ATOM     90  F   UNL A   1      46.997  27.091  37.357  1.00  0.00    -0.200 F 
ENDBRANCH  57  80
ENDBRANCH  31  32
ENDBRANCH  23  26
ENDBRANCH  21  22
ENDBRANCH  20  21
ENDBRANCH   1  20
TORSDOF 15
ENDMDL
MODEL 2
REMARK VINA RESULT:     -11.7      6.637     11.981
REMARK SMILES CC[C@@H](Sc1cccc(N)c1)C(=O)NCCCCNC(=O)c1ccc(-c2c3nc(c(-c4c(F)c(F)c(F)c(F)c4F)c4ccc([nH]4)c(-c4c(F)c(F)c(F)c(F)c4F)c4nc(c(-c5c(F)c(F)c(F)c(F)c5F)c5ccc2[nH]5)C=C4)C=C3)cc1
REMARK SMILES IDX 16 1 15 2 14 3 12 4 13 5 3 7 2 8 1 9 4 10 5 11 6 12 11 13
REMARK SMILES IDX 7 14 9 15 8 16 10 17 17 20 18 21 19 22 20 23 21 25 22 26
REMARK SMILES IDX 23 27 84 28 24 29 83 30 25 31 26 32 27 33 77 34 28 35 82 36
REMARK SMILES IDX 76 37 78 38 29 39 81 40 75 41 74 42 30 44 62 45 42 46 61 47
REMARK SMILES IDX 43 48 46 49 60 50 79 51 44 52 45 53 59 55 80 56 47 57 31 58
REMARK SMILES IDX 32 59 40 60 33 61 34 62 38 63 41 64 35 65 36 66 39 67 37 68
REMARK SMILES IDX 63 69 64 70 72 71 65 72 66 73 70 74 73 75 67 76 68 77 71 78
REMARK SMILES IDX 69 79 48 80 49 81 57 82 50 83 51 84 55 85 58 86 52 87 53 88
REMARK SMILES IDX 56 89 54 90
REMARK H PARENT 14 6 10 18 10 19 19 24 78 43 46 54
REMARK Flexibility Score: inf
ROOT
ATOM      1  C   UNL A   1      36.925  21.024  24.955  1.00  0.00     0.023 C 
ENDROOT
BRANCH   1   2
ATOM      2  C   UNL A   1      37.089  22.455  24.459  1.00  0.00     0.116 C 
BRANCH   2   3
ATOM      3  N   UNL A   1      36.172  22.840  23.395  1.00  0.00    -0.355 N 
ATOM      4  C   UNL A   1      34.945  23.462  23.479  1.00  0.00     0.233 C 
ATOM      5  O   UNL A   1      34.413  23.815  22.423  1.00  0.00    -0.274 OA
ATOM      6  H   UNL A   1      36.472  22.623  22.483  1.00  0.00     0.163 HD
BRANCH   4   7
ATOM      7  C   UNL A   1      34.204  23.606  24.835  1.00  0.00     0.140 C 
BRANCH   7   8
ATOM      8  C   UNL A   1      34.671  24.972  25.388  1.00  0.00     0.021 C 
ATOM      9  C   UNL A   1      33.751  26.162  25.295  1.00  0.00     0.005 C 
ENDBRANCH   7   8
BRANCH   7  10
ATOM     10  S   UNL A   1      32.413  23.205  24.503  1.00  0.00    -0.113 SA
BRANCH  10  11
ATOM     11  C   UNL A   1      32.258  21.444  24.324  1.00  0.00     0.010 A 
ATOM     12  C   UNL A   1      32.224  20.846  23.066  1.00  0.00     0.015 A 
ATOM     13  C   UNL A   1      32.488  20.630  25.444  1.00  0.00     0.040 A 
ATOM     14  C   UNL A   1      32.335  19.464  22.925  1.00  0.00     0.003 A 
ATOM     15  C   UNL A   1      32.697  19.252  25.307  1.00  0.00     0.032 A 
ATOM     16  C   UNL A   1      32.564  18.671  24.045  1.00  0.00     0.025 A 
BRANCH  15  17
ATOM     17  N   UNL A   1      32.949  18.456  26.415  1.00  0.00    -0.399 N 
ATOM     18  H   UNL A   1      32.726  18.783  27.316  1.00  0.00     0.156 HD
ATOM     19  H   UNL A   1      33.351  17.565  26.299  1.00  0.00     0.156 HD
ENDBRANCH  15  17
ENDBRANCH  10  11
ENDBRANCH   7  10
ENDBRANCH   4   7
ENDBRANCH   2   3
ENDBRANCH   1   2
BRANCH   1  20
ATOM     20  C   UNL A   1      38.137  20.124  24.773  1.00  0.00     0.023 C 
BRANCH  20  21
ATOM     21  C   UNL A   1      39.258  20.332  25.782  1.00  0.00     0.116 C 
BRANCH  21  22
ATOM     22  N   UNL A   1      40.171  19.202  25.885  1.00  0.00    -0.352 N 
ATOM     23  C   UNL A   1      41.520  19.198  26.155  1.00  0.00     0.251 C 
ATOM     24  H   UNL A   1      39.766  18.316  25.743  1.00  0.00     0.163 HD
ATOM     25  O   UNL A   1      42.161  18.153  26.111  1.00  0.00    -0.269 OA
BRANCH  23  26
ATOM     26  C   UNL A   1      42.204  20.472  26.455  1.00  0.00     0.039 A 
ATOM     27  C   UNL A   1      42.701  21.236  25.396  1.00  0.00     0.014 A 
ATOM     28  C   UNL A   1      42.308  20.933  27.769  1.00  0.00     0.014 A 
ATOM     29  C   UNL A   1      43.225  22.504  25.648  1.00  0.00     0.010 A 
ATOM     30  C   UNL A   1      42.751  22.229  28.009  1.00  0.00     0.010 A 
ATOM     31  C   UNL A   1      43.211  23.029  26.951  1.00  0.00    -0.014 A 
BRANCH  31  32
ATOM     32  C   UNL A   1      43.666  24.413  27.235  1.00  0.00     0.031 A 
ATOM     33  C   UNL A   1      42.690  25.431  27.753  1.00  0.00     0.074 A 
ATOM     34  C   UNL A   1      44.930  24.772  26.944  1.00  0.00     0.049 A 
ATOM     35  N   UNL A   1      42.865  26.710  27.970  1.00  0.00    -0.248 NA
ATOM     36  C   UNL A   1      41.327  24.956  28.034  1.00  0.00     0.031 C 
ATOM     37  C   UNL A   1      45.954  23.889  26.382  1.00  0.00     0.029 A 
ATOM     38  N   UNL A   1      45.567  25.982  27.064  1.00  0.00    -0.354 N 
ATOM     39  C   UNL A   1      41.633  27.192  28.391  1.00  0.00     0.074 A 
ATOM     40  C   UNL A   1      40.706  26.082  28.348  1.00  0.00     0.031 C 
ATOM     41  C   UNL A   1      47.094  24.582  26.224  1.00  0.00     0.029 A 
ATOM     42  C   UNL A   1      46.871  25.965  26.637  1.00  0.00     0.049 A 
ATOM     43  H   UNL A   1      45.129  26.788  27.424  1.00  0.00     0.167 HD
ATOM     44  C   UNL A   1      41.310  28.442  28.798  1.00  0.00     0.037 A 
ATOM     45  C   UNL A   1      47.783  26.955  26.575  1.00  0.00     0.037 A 
ATOM     46  C   UNL A   1      42.243  29.534  28.870  1.00  0.00     0.049 A 
ATOM     47  C   UNL A   1      47.402  28.332  27.043  1.00  0.00     0.074 A 
ATOM     48  C   UNL A   1      42.033  30.819  29.339  1.00  0.00     0.029 A 
ATOM     49  N   UNL A   1      43.566  29.470  28.459  1.00  0.00    -0.354 N 
ATOM     50  N   UNL A   1      46.254  28.759  27.511  1.00  0.00    -0.248 NA
ATOM     51  C   UNL A   1      48.445  29.365  26.982  1.00  0.00     0.031 C 
ATOM     52  C   UNL A   1      43.217  31.544  29.172  1.00  0.00     0.029 A 
ATOM     53  C   UNL A   1      44.179  30.699  28.644  1.00  0.00     0.049 A 
ATOM     54  H   UNL A   1      44.006  28.669  28.091  1.00  0.00     0.167 HD
ATOM     55  C   UNL A   1      46.443  30.099  27.824  1.00  0.00     0.074 A 
ATOM     56  C   UNL A   1      47.820  30.411  27.505  1.00  0.00     0.031 C 
ATOM     57  C   UNL A   1      45.555  30.989  28.329  1.00  0.00     0.037 A 
BRANCH  44  58
ATOM     58  C   UNL A   1      39.887  28.693  29.202  1.00  0.00     0.064 A 
ATOM     59  C   UNL A   1      38.934  29.165  28.287  1.00  0.00     0.173 A 
ATOM     60  C   UNL A   1      39.463  28.431  30.513  1.00  0.00     0.173 A 
ATOM     61  F   UNL A   1      39.291  29.442  27.023  1.00  0.00    -0.203 F 
ATOM     62  C   UNL A   1      37.617  29.394  28.676  1.00  0.00     0.198 A 
ATOM     63  C   UNL A   1      38.138  28.633  30.892  1.00  0.00     0.198 A 
ATOM     64  F   UNL A   1      40.332  27.974  31.427  1.00  0.00    -0.203 F 
ATOM     65  F   UNL A   1      36.738  29.894  27.798  1.00  0.00    -0.200 F 
ATOM     66  C   UNL A   1      37.219  29.122  29.976  1.00  0.00     0.200 A 
ATOM     67  F   UNL A   1      37.751  28.357  32.146  1.00  0.00    -0.200 F 
ATOM     68  F   UNL A   1      35.949  29.338  30.348  1.00  0.00    -0.200 F 
ENDBRANCH  44  58
BRANCH  45  69
ATOM     69  C   UNL A   1      49.152  26.673  26.071  1.00  0.00     0.064 A 
ATOM     70  C   UNL A   1      49.504  26.967  24.746  1.00  0.00     0.173 A 
ATOM     71  C   UNL A   1      50.134  26.107  26.896  1.00  0.00     0.173 A 
ATOM     72  F   UNL A   1      48.592  27.490  23.913  1.00  0.00    -0.203 F 
ATOM     73  C   UNL A   1      50.779  26.687  24.260  1.00  0.00     0.198 A 
ATOM     74  C   UNL A   1      51.417  25.853  26.417  1.00  0.00     0.198 A 
ATOM     75  F   UNL A   1      49.850  25.812  28.174  1.00  0.00    -0.203 F 
ATOM     76  F   UNL A   1      51.075  26.937  22.977  1.00  0.00    -0.200 F 
ATOM     77  C   UNL A   1      51.736  26.136  25.098  1.00  0.00     0.200 A 
ATOM     78  F   UNL A   1      52.344  25.333  27.233  1.00  0.00    -0.200 F 
ATOM     79  F   UNL A   1      52.965  25.870  24.631  1.00  0.00    -0.200 F 
ENDBRANCH  45  69
BRANCH  57  80
ATOM     80  C   UNL A   1      46.052  32.378  28.601  1.00  0.00     0.064 A 
ATOM     81  C   UNL A   1      46.641  32.721  29.828  1.00  0.00     0.173 A 
ATOM     82  C   UNL A   1      45.979  33.366  27.608  1.00  0.00     0.173 A 
ATOM     83  F   UNL A   1      46.719  31.815  30.815  1.00  0.00    -0.203 F 
ATOM     84  C   UNL A   1      47.120  34.007  30.056  1.00  0.00     0.198 A 
ATOM     85  C   UNL A   1      46.486  34.643  27.829  1.00  0.00     0.198 A 
ATOM     86  F   UNL A   1      45.430  33.087  26.416  1.00  0.00    -0.203 F 
ATOM     87  F   UNL A   1      47.641  34.325  31.249  1.00  0.00    -0.200 F 
ATOM     88  C   UNL A   1      47.049  34.965  29.054  1.00  0.00     0.200 A 
ATOM     89  F   UNL A   1      46.428  35.563  26.856  1.00  0.00    -0.200 F 
ATOM     90  F   UNL A   1      47.519  36.201  29.273  1.00  0.00    -0.200 F 
ENDBRANCH  57  80
ENDBRANCH  31  32
ENDBRANCH  23  26
ENDBRANCH  21  22
ENDBRANCH  20  21
ENDBRANCH   1  20
TORSDOF 15
ENDMDL
MODEL 3
REMARK VINA RESULT:     -11.7      0.896      2.006
REMARK SMILES CC[C@@H](Sc1cccc(N)c1)C(=O)NCCCCNC(=O)c1ccc(-c2c3nc(c(-c4c(F)c(F)c(F)c(F)c4F)c4ccc([nH]4)c(-c4c(F)c(F)c(F)c(F)c4F)c4nc(c(-c5c(F)c(F)c(F)c(F)c5F)c5ccc2[nH]5)C=C4)C=C3)cc1
REMARK SMILES IDX 16 1 15 2 14 3 12 4 13 5 3 7 2 8 1 9 4 10 5 11 6 12 11 13
REMARK SMILES IDX 7 14 9 15 8 16 10 17 17 20 18 21 19 22 20 23 21 25 22 26
REMARK SMILES IDX 23 27 84 28 24 29 83 30 25 31 26 32 27 33 77 34 28 35 82 36
REMARK SMILES IDX 76 37 78 38 29 39 81 40 75 41 74 42 30 44 62 45 42 46 61 47
REMARK SMILES IDX 43 48 46 49 60 50 79 51 44 52 45 53 59 55 80 56 47 57 31 58
REMARK SMILES IDX 32 59 40 60 33 61 34 62 38 63 41 64 35 65 36 66 39 67 37 68
REMARK SMILES IDX 63 69 64 70 72 71 65 72 66 73 70 74 73 75 67 76 68 77 71 78
REMARK SMILES IDX 69 79 48 80 49 81 57 82 50 83 51 84 55 85 58 86 52 87 53 88
REMARK SMILES IDX 56 89 54 90
REMARK H PARENT 14 6 10 18 10 19 19 24 78 43 46 54
REMARK Flexibility Score: inf
ROOT
ATOM      1  C   UNL A   1      31.845  30.371  26.758  1.00  0.00     0.023 C 
ENDROOT
BRANCH   1   2
ATOM      2  C   UNL A   1      33.288  29.883  26.763  1.00  0.00     0.116 C 
BRANCH   2   3
ATOM      3  N   UNL A   1      33.442  28.438  26.668  1.00  0.00    -0.355 N 
ATOM      4  C   UNL A   1      33.265  27.609  25.582  1.00  0.00     0.233 C 
ATOM      5  O   UNL A   1      33.594  26.425  25.709  1.00  0.00    -0.274 OA
ATOM      6  H   UNL A   1      33.711  27.988  27.501  1.00  0.00     0.163 HD
BRANCH   4   7
ATOM      7  C   UNL A   1      32.569  28.109  24.288  1.00  0.00     0.140 C 
BRANCH   7   8
ATOM      8  C   UNL A   1      33.699  28.160  23.236  1.00  0.00     0.021 C 
ATOM      9  C   UNL A   1      33.632  27.252  22.033  1.00  0.00     0.005 C 
ENDBRANCH   7   8
BRANCH   7  10
ATOM     10  S   UNL A   1      31.034  27.071  24.079  1.00  0.00    -0.113 SA
BRANCH  10  11
ATOM     11  C   UNL A   1      29.789  28.064  23.291  1.00  0.00     0.010 A 
ATOM     12  C   UNL A   1      28.434  27.781  23.445  1.00  0.00     0.015 A 
ATOM     13  C   UNL A   1      30.154  29.317  22.774  1.00  0.00     0.040 A 
ATOM     14  C   UNL A   1      27.460  28.684  23.025  1.00  0.00     0.003 A 
ATOM     15  C   UNL A   1      29.187  30.271  22.437  1.00  0.00     0.032 A 
ATOM     16  C   UNL A   1      27.838  29.922  22.516  1.00  0.00     0.025 A 
BRANCH  15  17
ATOM     17  N   UNL A   1      29.555  31.517  21.950  1.00  0.00    -0.399 N 
ATOM     18  H   UNL A   1      30.393  31.620  21.444  1.00  0.00     0.156 HD
ATOM     19  H   UNL A   1      28.978  32.298  22.111  1.00  0.00     0.156 HD
ENDBRANCH  15  17
ENDBRANCH  10  11
ENDBRANCH   7  10
ENDBRANCH   4   7
ENDBRANCH   2   3
ENDBRANCH   1   2
BRANCH   1  20
ATOM     20  C   UNL A   1      31.663  31.879  26.698  1.00  0.00     0.023 C 
BRANCH  20  21
ATOM     21  C   UNL A   1      32.787  32.694  27.322  1.00  0.00     0.116 C 
BRANCH  21  22
ATOM     22  N   UNL A   1      32.416  34.070  27.625  1.00  0.00    -0.352 N 
ATOM     23  C   UNL A   1      32.967  34.936  28.540  1.00  0.00     0.251 C 
ATOM     24  H   UNL A   1      31.666  34.431  27.100  1.00  0.00     0.163 HD
ATOM     25  O   UNL A   1      32.466  36.039  28.734  1.00  0.00    -0.269 OA
BRANCH  23  26
ATOM     26  C   UNL A   1      34.144  34.511  29.325  1.00  0.00     0.039 A 
ATOM     27  C   UNL A   1      33.944  33.931  30.581  1.00  0.00     0.014 A 
ATOM     28  C   UNL A   1      35.432  34.638  28.803  1.00  0.00     0.014 A 
ATOM     29  C   UNL A   1      35.031  33.399  31.275  1.00  0.00     0.010 A 
ATOM     30  C   UNL A   1      36.501  34.032  29.454  1.00  0.00     0.010 A 
ATOM     31  C   UNL A   1      36.310  33.404  30.695  1.00  0.00    -0.014 A 
BRANCH  31  32
ATOM     32  C   UNL A   1      37.466  32.753  31.362  1.00  0.00     0.031 A 
ATOM     33  C   UNL A   1      38.159  31.597  30.701  1.00  0.00     0.074 A 
ATOM     34  C   UNL A   1      37.832  33.147  32.597  1.00  0.00     0.049 A 
ATOM     35  N   UNL A   1      39.120  30.835  31.159  1.00  0.00    -0.248 NA
ATOM     36  C   UNL A   1      37.689  31.226  29.357  1.00  0.00     0.031 C 
ATOM     37  C   UNL A   1      37.198  34.219  33.366  1.00  0.00     0.029 A 
ATOM     38  N   UNL A   1      38.816  32.679  33.430  1.00  0.00    -0.354 N 
ATOM     39  C   UNL A   1      39.352  29.887  30.173  1.00  0.00     0.074 A 
ATOM     40  C   UNL A   1      38.398  30.134  29.114  1.00  0.00     0.031 C 
ATOM     41  C   UNL A   1      37.821  34.338  34.550  1.00  0.00     0.029 A 
ATOM     42  C   UNL A   1      38.872  33.328  34.639  1.00  0.00     0.049 A 
ATOM     43  H   UNL A   1      39.427  31.946  33.184  1.00  0.00     0.167 HD
ATOM     44  C   UNL A   1      40.291  28.912  30.142  1.00  0.00     0.037 A 
ATOM     45  C   UNL A   1      39.672  33.125  35.703  1.00  0.00     0.037 A 
ATOM     46  C   UNL A   1      41.260  28.691  31.183  1.00  0.00     0.049 A 
ATOM     47  C   UNL A   1      40.714  32.043  35.640  1.00  0.00     0.074 A 
ATOM     48  C   UNL A   1      42.300  27.779  31.214  1.00  0.00     0.029 A 
ATOM     49  N   UNL A   1      41.306  29.391  32.379  1.00  0.00    -0.354 N 
ATOM     50  N   UNL A   1      40.976  31.201  34.670  1.00  0.00    -0.248 NA
ATOM     51  C   UNL A   1      41.580  31.887  36.817  1.00  0.00     0.031 C 
ATOM     52  C   UNL A   1      42.948  27.898  32.448  1.00  0.00     0.029 A 
ATOM     53  C   UNL A   1      42.343  28.917  33.166  1.00  0.00     0.049 A 
ATOM     54  H   UNL A   1      40.692  30.119  32.633  1.00  0.00     0.167 HD
ATOM     55  C   UNL A   1      42.048  30.434  35.106  1.00  0.00     0.074 A 
ATOM     56  C   UNL A   1      42.399  30.921  36.424  1.00  0.00     0.031 C 
ATOM     57  C   UNL A   1      42.683  29.419  34.472  1.00  0.00     0.037 A 
BRANCH  44  58
ATOM     58  C   UNL A   1      40.320  28.014  28.940  1.00  0.00     0.064 A 
ATOM     59  C   UNL A   1      41.052  28.346  27.790  1.00  0.00     0.173 A 
ATOM     60  C   UNL A   1      39.630  26.793  28.948  1.00  0.00     0.173 A 
ATOM     61  F   UNL A   1      41.719  29.509  27.727  1.00  0.00    -0.203 F 
ATOM     62  C   UNL A   1      41.068  27.505  26.682  1.00  0.00     0.198 A 
ATOM     63  C   UNL A   1      39.673  25.938  27.849  1.00  0.00     0.198 A 
ATOM     64  F   UNL A   1      38.918  26.424  30.024  1.00  0.00    -0.203 F 
ATOM     65  F   UNL A   1      41.731  27.868  25.576  1.00  0.00    -0.200 F 
ATOM     66  C   UNL A   1      40.384  26.299  26.714  1.00  0.00     0.200 A 
ATOM     67  F   UNL A   1      39.022  24.767  27.887  1.00  0.00    -0.200 F 
ATOM     68  F   UNL A   1      40.405  25.486  25.649  1.00  0.00    -0.200 F 
ENDBRANCH  44  58
BRANCH  45  69
ATOM     69  C   UNL A   1      39.534  33.981  36.909  1.00  0.00     0.064 A 
ATOM     70  C   UNL A   1      40.166  35.231  36.980  1.00  0.00     0.173 A 
ATOM     71  C   UNL A   1      38.772  33.574  38.013  1.00  0.00     0.173 A 
ATOM     72  F   UNL A   1      40.923  35.655  35.957  1.00  0.00    -0.203 F 
ATOM     73  C   UNL A   1      40.057  36.030  38.115  1.00  0.00     0.198 A 
ATOM     74  C   UNL A   1      38.641  34.386  39.137  1.00  0.00     0.198 A 
ATOM     75  F   UNL A   1      38.142  32.389  37.993  1.00  0.00    -0.203 F 
ATOM     76  F   UNL A   1      40.709  37.200  38.173  1.00  0.00    -0.200 F 
ATOM     77  C   UNL A   1      39.290  35.609  39.191  1.00  0.00     0.200 A 
ATOM     78  F   UNL A   1      37.887  33.983  40.169  1.00  0.00    -0.200 F 
ATOM     79  F   UNL A   1      39.183  36.381  40.281  1.00  0.00    -0.200 F 
ENDBRANCH  45  69
BRANCH  57  80
ATOM     80  C   UNL A   1      43.846  28.787  35.179  1.00  0.00     0.064 A 
ATOM     81  C   UNL A   1      43.677  27.692  36.039  1.00  0.00     0.173 A 
ATOM     82  C   UNL A   1      45.150  29.255  34.958  1.00  0.00     0.173 A 
ATOM     83  F   UNL A   1      42.448  27.218  36.295  1.00  0.00    -0.203 F 
ATOM     84  C   UNL A   1      44.770  27.101  36.667  1.00  0.00     0.198 A 
ATOM     85  C   UNL A   1      46.243  28.644  35.566  1.00  0.00     0.198 A 
ATOM     86  F   UNL A   1      45.365  30.297  34.140  1.00  0.00    -0.203 F 
ATOM     87  F   UNL A   1      44.582  26.083  37.517  1.00  0.00    -0.200 F 
ATOM     88  C   UNL A   1      46.052  27.573  36.424  1.00  0.00     0.200 A 
ATOM     89  F   UNL A   1      47.482  29.093  35.320  1.00  0.00    -0.200 F 
ATOM     90  F   UNL A   1      47.104  26.997  37.023  1.00  0.00    -0.200 F 
ENDBRANCH  57  80
ENDBRANCH  31  32
ENDBRANCH  23  26
ENDBRANCH  21  22
ENDBRANCH  20  21
ENDBRANCH   1  20
TORSDOF 15
ENDMDL
