MODEL 1
REMARK VINA RESULT:     -12.0      0.000      0.000
REMARK SMILES CC(C)[NH2+][C@@]1(C(=O)NCCCCNC(=O)c2ccc(-c3c4nc(c(-c5c(F)c(F)c(F)c(F)c5F)c5ccc([nH]5)c(-c5c(F)c(F)c(F)c(F)c5F)c5nc(c(-c6c(F)c(F)c(F)c(F)c6F)c6ccc3[nH]6)C=C5)C=C4)cc2)CC[C@@H](Sc2cccs2)C1
REMARK SMILES IDX 10 1 9 2 8 3 6 4 7 5 5 7 79 8 88 9 80 10 81 11 4 12 2 15
REMARK SMILES IDX 1 16 3 17 82 18 83 19 84 20 87 21 85 22 86 23 11 24 12 25
REMARK SMILES IDX 13 26 14 27 15 29 16 30 17 31 78 32 18 33 77 34 19 35 20 36
REMARK SMILES IDX 21 37 71 38 22 39 76 40 70 41 72 42 23 43 75 44 69 45 68 46
REMARK SMILES IDX 24 48 56 49 36 50 55 51 37 52 40 53 54 54 73 55 38 56 39 57
REMARK SMILES IDX 53 59 74 60 41 61 25 62 26 63 34 64 27 65 28 66 32 67 35 68
REMARK SMILES IDX 29 69 30 70 33 71 31 72 57 73 58 74 66 75 59 76 60 77 64 78
REMARK SMILES IDX 67 79 61 80 62 81 65 82 63 83 42 84 43 85 51 86 44 87 45 88
REMARK SMILES IDX 49 89 52 90 46 91 47 92 50 93 48 94
REMARK H PARENT 8 6 4 13 4 14 13 28 72 47 40 58
REMARK Flexibility Score: inf
ROOT
ATOM      1  C   UNL A   1      31.887  30.350  26.834  1.00  0.00     0.023 C 
ENDROOT
BRANCH   1   2
ATOM      2  C   UNL A   1      33.294  29.839  26.533  1.00  0.00     0.116 C 
BRANCH   2   3
ATOM      3  N   UNL A   1      33.565  29.719  25.123  1.00  0.00    -0.351 N 
ATOM      4  C   UNL A   1      33.318  28.733  24.213  1.00  0.00     0.281 C 
ATOM      5  O   UNL A   1      33.576  29.058  23.046  1.00  0.00    -0.268 OA
ATOM      6  H   UNL A   1      34.020  30.503  24.740  1.00  0.00     0.163 HD
BRANCH   4   7
ATOM      7  C   UNL A   1      32.802  27.280  24.594  1.00  0.00     0.176 C 
ATOM      8  C   UNL A   1      33.517  26.620  25.782  1.00  0.00     0.080 C 
ATOM      9  C   UNL A   1      33.008  26.324  23.396  1.00  0.00     0.094 C 
ATOM     10  C   UNL A   1      34.343  25.439  25.282  1.00  0.00     0.022 C 
ATOM     11  C   UNL A   1      34.063  25.289  23.791  1.00  0.00     0.059 C 
BRANCH   7  12
ATOM     12  N   UNL A   1      31.328  27.340  24.823  1.00  0.00    -0.332 N 
ATOM     13  H   UNL A   1      31.073  26.519  25.372  1.00  0.00     0.347 HD
ATOM     14  H   UNL A   1      31.180  28.244  25.274  1.00  0.00     0.347 HD
BRANCH  12  15
ATOM     15  C   UNL A   1      30.440  27.372  23.652  1.00  0.00     0.176 C 
ATOM     16  C   UNL A   1      29.267  26.430  23.946  1.00  0.00     0.075 C 
ATOM     17  C   UNL A   1      29.878  28.778  23.393  1.00  0.00     0.075 C 
ENDBRANCH  12  15
ENDBRANCH   7  12
BRANCH  11  18
ATOM     18  S   UNL A   1      33.658  23.592  23.233  1.00  0.00    -0.112 SA
BRANCH  18  19
ATOM     19  C   UNL A   1      34.952  22.633  23.931  1.00  0.00     0.060 A 
ATOM     20  C   UNL A   1      36.293  22.704  23.627  1.00  0.00     0.027 A 
ATOM     21  S   UNL A   1      34.638  21.447  25.127  1.00  0.00    -0.137 S 
ATOM     22  C   UNL A   1      37.052  21.703  24.301  1.00  0.00     0.013 A 
ATOM     23  C   UNL A   1      36.269  20.933  25.131  1.00  0.00     0.066 A 
ENDBRANCH  18  19
ENDBRANCH  11  18
ENDBRANCH   4   7
ENDBRANCH   2   3
ENDBRANCH   1   2
BRANCH   1  24
ATOM     24  C   UNL A   1      31.723  31.863  26.706  1.00  0.00     0.023 C 
BRANCH  24  25
ATOM     25  C   UNL A   1      32.813  32.701  27.368  1.00  0.00     0.116 C 
BRANCH  25  26
ATOM     26  N   UNL A   1      32.417  34.068  27.680  1.00  0.00    -0.352 N 
ATOM     27  C   UNL A   1      32.980  34.920  28.605  1.00  0.00     0.251 C 
ATOM     28  H   UNL A   1      31.656  34.426  27.168  1.00  0.00     0.163 HD
ATOM     29  O   UNL A   1      32.512  36.030  28.810  1.00  0.00    -0.269 OA
BRANCH  27  30
ATOM     30  C   UNL A   1      34.137  34.440  29.389  1.00  0.00     0.039 A 
ATOM     31  C   UNL A   1      33.904  33.742  30.576  1.00  0.00     0.014 A 
ATOM     32  C   UNL A   1      35.432  34.591  28.891  1.00  0.00     0.014 A 
ATOM     33  C   UNL A   1      34.971  33.114  31.219  1.00  0.00     0.010 A 
ATOM     34  C   UNL A   1      36.478  33.899  29.490  1.00  0.00     0.010 A 
ATOM     35  C   UNL A   1      36.255  33.145  30.654  1.00  0.00    -0.014 A 
BRANCH  35  36
ATOM     36  C   UNL A   1      37.383  32.387  31.252  1.00  0.00     0.031 A 
ATOM     37  C   UNL A   1      37.896  32.757  32.614  1.00  0.00     0.074 A 
ATOM     38  C   UNL A   1      37.997  31.427  30.533  1.00  0.00     0.049 A 
ATOM     39  N   UNL A   1      38.925  32.281  33.269  1.00  0.00    -0.248 NA
ATOM     40  C   UNL A   1      37.179  33.831  33.319  1.00  0.00     0.031 C 
ATOM     41  C   UNL A   1      37.634  31.020  29.175  1.00  0.00     0.029 A 
ATOM     42  N   UNL A   1      39.069  30.627  30.842  1.00  0.00    -0.354 N 
ATOM     43  C   UNL A   1      38.990  33.012  34.447  1.00  0.00     0.074 A 
ATOM     44  C   UNL A   1      37.933  33.998  34.394  1.00  0.00     0.031 C 
ATOM     45  C   UNL A   1      38.453  30.033  28.776  1.00  0.00     0.029 A 
ATOM     46  C   UNL A   1      39.419  29.760  29.836  1.00  0.00     0.049 A 
ATOM     47  H   UNL A   1      39.544  30.671  31.705  1.00  0.00     0.167 HD
ATOM     48  C   UNL A   1      39.840  32.858  35.490  1.00  0.00     0.037 A 
ATOM     49  C   UNL A   1      40.409  28.849  29.776  1.00  0.00     0.037 A 
ATOM     50  C   UNL A   1      40.862  31.849  35.556  1.00  0.00     0.049 A 
ATOM     51  C   UNL A   1      41.322  28.677  30.960  1.00  0.00     0.074 A 
ATOM     52  C   UNL A   1      41.724  31.560  36.600  1.00  0.00     0.029 A 
ATOM     53  N   UNL A   1      41.160  30.959  34.534  1.00  0.00    -0.354 N 
ATOM     54  N   UNL A   1      41.326  29.323  32.101  1.00  0.00    -0.248 NA
ATOM     55  C   UNL A   1      42.361  27.644  30.851  1.00  0.00     0.031 C 
ATOM     56  C   UNL A   1      42.566  30.519  36.197  1.00  0.00     0.029 A 
ATOM     57  C   UNL A   1      42.202  30.131  34.917  1.00  0.00     0.049 A 
ATOM     58  H   UNL A   1      40.698  30.923  33.665  1.00  0.00     0.167 HD
ATOM     59  C   UNL A   1      42.347  28.760  32.854  1.00  0.00     0.074 A 
ATOM     60  C   UNL A   1      42.931  27.709  32.046  1.00  0.00     0.031 C 
ATOM     61  C   UNL A   1      42.763  29.084  34.102  1.00  0.00     0.037 A 
BRANCH  48  62
ATOM     62  C   UNL A   1      39.687  33.797  36.650  1.00  0.00     0.064 A 
ATOM     63  C   UNL A   1      38.899  33.468  37.763  1.00  0.00     0.173 A 
ATOM     64  C   UNL A   1      40.355  35.030  36.660  1.00  0.00     0.173 A 
ATOM     65  F   UNL A   1      38.228  32.306  37.795  1.00  0.00    -0.203 F 
ATOM     66  C   UNL A   1      38.759  34.352  38.830  1.00  0.00     0.198 A 
ATOM     67  C   UNL A   1      40.237  35.899  37.742  1.00  0.00     0.198 A 
ATOM     68  F   UNL A   1      41.124  35.392  35.623  1.00  0.00    -0.203 F 
ATOM     69  F   UNL A   1      37.958  34.038  39.857  1.00  0.00    -0.200 F 
ATOM     70  C   UNL A   1      39.433  35.563  38.821  1.00  0.00     0.200 A 
ATOM     71  F   UNL A   1      40.898  37.065  37.738  1.00  0.00    -0.200 F 
ATOM     72  F   UNL A   1      39.301  36.412  39.850  1.00  0.00    -0.200 F 
ENDBRANCH  48  62
BRANCH  49  73
ATOM     73  C   UNL A   1      40.569  28.004  28.564  1.00  0.00     0.064 A 
ATOM     74  C   UNL A   1      41.345  28.442  27.482  1.00  0.00     0.173 A 
ATOM     75  C   UNL A   1      39.954  26.749  28.460  1.00  0.00     0.173 A 
ATOM     76  F   UNL A   1      41.937  29.645  27.527  1.00  0.00    -0.203 F 
ATOM     77  C   UNL A   1      41.482  27.668  26.333  1.00  0.00     0.198 A 
ATOM     78  C   UNL A   1      40.112  25.963  27.320  1.00  0.00     0.198 A 
ATOM     79  F   UNL A   1      39.205  26.282  29.470  1.00  0.00    -0.203 F 
ATOM     80  F   UNL A   1      42.194  28.129  25.296  1.00  0.00    -0.200 F 
ATOM     81  C   UNL A   1      40.871  26.425  26.255  1.00  0.00     0.200 A 
ATOM     82  F   UNL A   1      39.529  24.758  27.253  1.00  0.00    -0.200 F 
ATOM     83  F   UNL A   1      41.004  25.678  25.151  1.00  0.00    -0.200 F 
ENDBRANCH  49  73
BRANCH  61  84
ATOM     84  C   UNL A   1      43.882  28.273  34.685  1.00  0.00     0.064 A 
ATOM     85  C   UNL A   1      43.640  27.080  35.380  1.00  0.00     0.173 A 
ATOM     86  C   UNL A   1      45.215  28.673  34.506  1.00  0.00     0.173 A 
ATOM     87  F   UNL A   1      42.382  26.665  35.591  1.00  0.00    -0.203 F 
ATOM     88  C   UNL A   1      44.692  26.327  35.894  1.00  0.00     0.198 A 
ATOM     89  C   UNL A   1      46.265  27.904  34.997  1.00  0.00     0.198 A 
ATOM     90  F   UNL A   1      45.498  29.805  33.843  1.00  0.00    -0.203 F 
ATOM     91  F   UNL A   1      44.437  25.211  36.591  1.00  0.00    -0.200 F 
ATOM     92  C   UNL A   1      46.004  26.735  35.695  1.00  0.00     0.200 A 
ATOM     93  F   UNL A   1      47.531  28.293  34.794  1.00  0.00    -0.200 F 
ATOM     94  F   UNL A   1      47.015  26.004  36.184  1.00  0.00    -0.200 F 
ENDBRANCH  61  84
ENDBRANCH  35  36
ENDBRANCH  27  30
ENDBRANCH  25  26
ENDBRANCH  24  25
ENDBRANCH   1  24
TORSDOF 15
ENDMDL
MODEL 2
REMARK VINA RESULT:     -12.0      0.368      1.664
REMARK SMILES CC(C)[NH2+][C@@]1(C(=O)NCCCCNC(=O)c2ccc(-c3c4nc(c(-c5c(F)c(F)c(F)c(F)c5F)c5ccc([nH]5)c(-c5c(F)c(F)c(F)c(F)c5F)c5nc(c(-c6c(F)c(F)c(F)c(F)c6F)c6ccc3[nH]6)C=C5)C=C4)cc2)CC[C@@H](Sc2cccs2)C1
REMARK SMILES IDX 10 1 9 2 8 3 6 4 7 5 5 7 79 8 88 9 80 10 81 11 4 12 2 15
REMARK SMILES IDX 1 16 3 17 82 18 83 19 84 20 87 21 85 22 86 23 11 24 12 25
REMARK SMILES IDX 13 26 14 27 15 29 16 30 17 31 78 32 18 33 77 34 19 35 20 36
REMARK SMILES IDX 21 37 71 38 22 39 76 40 70 41 72 42 23 43 75 44 69 45 68 46
REMARK SMILES IDX 24 48 56 49 36 50 55 51 37 52 40 53 54 54 73 55 38 56 39 57
REMARK SMILES IDX 53 59 74 60 41 61 25 62 26 63 34 64 27 65 28 66 32 67 35 68
REMARK SMILES IDX 29 69 30 70 33 71 31 72 57 73 58 74 66 75 59 76 60 77 64 78
REMARK SMILES IDX 67 79 61 80 62 81 65 82 63 83 42 84 43 85 51 86 44 87 45 88
REMARK SMILES IDX 49 89 52 90 46 91 47 92 50 93 48 94
REMARK H PARENT 8 6 4 13 4 14 13 28 72 47 40 58
REMARK Flexibility Score: inf
ROOT
ATOM      1  C   UNL A   1      31.849  30.351  26.876  1.00  0.00     0.023 C 
ENDROOT
BRANCH   1   2
ATOM      2  C   UNL A   1      33.254  29.816  26.612  1.00  0.00     0.116 C 
BRANCH   2   3
ATOM      3  N   UNL A   1      33.571  29.718  25.210  1.00  0.00    -0.351 N 
ATOM      4  C   UNL A   1      33.343  28.751  24.274  1.00  0.00     0.281 C 
ATOM      5  O   UNL A   1      33.643  29.095  23.123  1.00  0.00    -0.268 OA
ATOM      6  H   UNL A   1      34.046  30.504  24.856  1.00  0.00     0.163 HD
BRANCH   4   7
ATOM      7  C   UNL A   1      32.799  27.298  24.611  1.00  0.00     0.176 C 
ATOM      8  C   UNL A   1      33.495  26.592  25.784  1.00  0.00     0.080 C 
ATOM      9  C   UNL A   1      32.995  26.372  23.388  1.00  0.00     0.094 C 
ATOM     10  C   UNL A   1      34.303  25.411  25.257  1.00  0.00     0.022 C 
ATOM     11  C   UNL A   1      34.029  25.308  23.760  1.00  0.00     0.059 C 
BRANCH   7  12
ATOM     12  N   UNL A   1      31.324  27.378  24.833  1.00  0.00    -0.332 N 
ATOM     13  H   UNL A   1      31.042  26.517  25.300  1.00  0.00     0.347 HD
ATOM     14  H   UNL A   1      31.197  28.239  25.367  1.00  0.00     0.347 HD
BRANCH  12  15
ATOM     15  C   UNL A   1      30.450  27.546  23.664  1.00  0.00     0.176 C 
ATOM     16  C   UNL A   1      29.220  26.658  23.885  1.00  0.00     0.075 C 
ATOM     17  C   UNL A   1      29.975  28.998  23.503  1.00  0.00     0.075 C 
ENDBRANCH  12  15
ENDBRANCH   7  12
BRANCH  11  18
ATOM     18  S   UNL A   1      33.597  23.635  23.152  1.00  0.00    -0.112 SA
BRANCH  18  19
ATOM     19  C   UNL A   1      34.884  22.637  23.809  1.00  0.00     0.060 A 
ATOM     20  C   UNL A   1      34.748  21.566  24.664  1.00  0.00     0.027 A 
ATOM     21  S   UNL A   1      36.526  22.929  23.419  1.00  0.00    -0.137 S 
ATOM     22  C   UNL A   1      36.008  21.051  25.087  1.00  0.00     0.013 A 
ATOM     23  C   UNL A   1      37.061  21.719  24.503  1.00  0.00     0.066 A 
ENDBRANCH  18  19
ENDBRANCH  11  18
ENDBRANCH   4   7
ENDBRANCH   2   3
ENDBRANCH   1   2
BRANCH   1  24
ATOM     24  C   UNL A   1      31.701  31.859  26.688  1.00  0.00     0.023 C 
BRANCH  24  25
ATOM     25  C   UNL A   1      32.809  32.710  27.302  1.00  0.00     0.116 C 
BRANCH  25  26
ATOM     26  N   UNL A   1      32.415  34.077  27.620  1.00  0.00    -0.352 N 
ATOM     27  C   UNL A   1      32.981  34.927  28.545  1.00  0.00     0.251 C 
ATOM     28  H   UNL A   1      31.652  34.436  27.111  1.00  0.00     0.163 HD
ATOM     29  O   UNL A   1      32.514  36.036  28.754  1.00  0.00    -0.269 OA
BRANCH  27  30
ATOM     30  C   UNL A   1      34.140  34.444  29.323  1.00  0.00     0.039 A 
ATOM     31  C   UNL A   1      33.913  33.774  30.527  1.00  0.00     0.014 A 
ATOM     32  C   UNL A   1      35.432  34.564  28.805  1.00  0.00     0.014 A 
ATOM     33  C   UNL A   1      34.978  33.142  31.169  1.00  0.00     0.010 A 
ATOM     34  C   UNL A   1      36.474  33.868  29.405  1.00  0.00     0.010 A 
ATOM     35  C   UNL A   1      36.255  33.142  30.586  1.00  0.00    -0.014 A 
BRANCH  35  36
ATOM     36  C   UNL A   1      37.378  32.377  31.185  1.00  0.00     0.031 A 
ATOM     37  C   UNL A   1      37.877  32.730  32.557  1.00  0.00     0.074 A 
ATOM     38  C   UNL A   1      38.003  31.429  30.460  1.00  0.00     0.049 A 
ATOM     39  N   UNL A   1      38.900  32.247  33.216  1.00  0.00    -0.248 NA
ATOM     40  C   UNL A   1      37.151  33.792  33.270  1.00  0.00     0.031 C 
ATOM     41  C   UNL A   1      37.654  31.040  29.092  1.00  0.00     0.029 A 
ATOM     42  N   UNL A   1      39.073  30.627  30.768  1.00  0.00    -0.354 N 
ATOM     43  C   UNL A   1      38.952  32.962  34.404  1.00  0.00     0.074 A 
ATOM     44  C   UNL A   1      37.893  33.946  34.355  1.00  0.00     0.031 C 
ATOM     45  C   UNL A   1      38.479  30.060  28.688  1.00  0.00     0.029 A 
ATOM     46  C   UNL A   1      39.435  29.775  29.754  1.00  0.00     0.049 A 
ATOM     47  H   UNL A   1      39.539  30.660  31.636  1.00  0.00     0.167 HD
ATOM     48  C   UNL A   1      39.792  32.795  35.454  1.00  0.00     0.037 A 
ATOM     49  C   UNL A   1      40.428  28.868  29.691  1.00  0.00     0.037 A 
ATOM     50  C   UNL A   1      40.816  31.788  35.516  1.00  0.00     0.049 A 
ATOM     51  C   UNL A   1      41.329  28.681  30.881  1.00  0.00     0.074 A 
ATOM     52  C   UNL A   1      41.668  31.486  36.565  1.00  0.00     0.029 A 
ATOM     53  N   UNL A   1      41.126  30.913  34.484  1.00  0.00    -0.354 N 
ATOM     54  N   UNL A   1      41.321  29.311  32.031  1.00  0.00    -0.248 NA
ATOM     55  C   UNL A   1      42.372  27.652  30.768  1.00  0.00     0.031 C 
ATOM     56  C   UNL A   1      42.517  30.453  36.155  1.00  0.00     0.029 A 
ATOM     57  C   UNL A   1      42.167  30.082  34.866  1.00  0.00     0.049 A 
ATOM     58  H   UNL A   1      40.673  30.888  33.611  1.00  0.00     0.167 HD
ATOM     59  C   UNL A   1      42.335  28.740  32.786  1.00  0.00     0.074 A 
ATOM     60  C   UNL A   1      42.930  27.702  31.970  1.00  0.00     0.031 C 
ATOM     61  C   UNL A   1      42.738  29.048  34.043  1.00  0.00     0.037 A 
BRANCH  48  62
ATOM     62  C   UNL A   1      39.626  33.717  36.625  1.00  0.00     0.064 A 
ATOM     63  C   UNL A   1      38.825  33.372  37.724  1.00  0.00     0.173 A 
ATOM     64  C   UNL A   1      40.292  34.951  36.660  1.00  0.00     0.173 A 
ATOM     65  F   UNL A   1      38.155  32.210  37.732  1.00  0.00    -0.203 F 
ATOM     66  C   UNL A   1      38.672  34.241  38.802  1.00  0.00     0.198 A 
ATOM     67  C   UNL A   1      40.161  35.804  37.753  1.00  0.00     0.198 A 
ATOM     68  F   UNL A   1      41.073  35.329  35.637  1.00  0.00    -0.203 F 
ATOM     69  F   UNL A   1      37.860  33.912  39.815  1.00  0.00    -0.200 F 
ATOM     70  C   UNL A   1      39.346  35.453  38.818  1.00  0.00     0.200 A 
ATOM     71  F   UNL A   1      40.821  36.971  37.772  1.00  0.00    -0.200 F 
ATOM     72  F   UNL A   1      39.202  36.287  39.857  1.00  0.00    -0.200 F 
ENDBRANCH  48  62
BRANCH  49  73
ATOM     73  C   UNL A   1      40.602  28.040  28.469  1.00  0.00     0.064 A 
ATOM     74  C   UNL A   1      40.017  26.770  28.374  1.00  0.00     0.173 A 
ATOM     75  C   UNL A   1      41.354  28.495  27.376  1.00  0.00     0.173 A 
ATOM     76  F   UNL A   1      39.306  26.283  29.402  1.00  0.00    -0.203 F 
ATOM     77  C   UNL A   1      40.194  25.977  27.242  1.00  0.00     0.198 A 
ATOM     78  C   UNL A   1      41.509  27.712  26.234  1.00  0.00     0.198 A 
ATOM     79  F   UNL A   1      41.931  29.706  27.415  1.00  0.00    -0.203 F 
ATOM     80  F   UNL A   1      39.659  24.750  27.196  1.00  0.00    -0.200 F 
ATOM     81  C   UNL A   1      40.935  26.452  26.170  1.00  0.00     0.200 A 
ATOM     82  F   UNL A   1      42.216  28.179  25.196  1.00  0.00    -0.200 F 
ATOM     83  F   UNL A   1      41.103  25.691  25.080  1.00  0.00    -0.200 F 
ENDBRANCH  49  73
BRANCH  61  84
ATOM     84  C   UNL A   1      43.853  28.232  34.626  1.00  0.00     0.064 A 
ATOM     85  C   UNL A   1      45.184  28.671  34.586  1.00  0.00     0.173 A 
ATOM     86  C   UNL A   1      43.579  27.017  35.274  1.00  0.00     0.173 A 
ATOM     87  F   UNL A   1      45.497  29.818  33.965  1.00  0.00    -0.203 F 
ATOM     88  C   UNL A   1      46.204  27.913  35.154  1.00  0.00     0.198 A 
ATOM     89  C   UNL A   1      44.598  26.275  35.864  1.00  0.00     0.198 A 
ATOM     90  F   UNL A   1      42.321  26.557  35.343  1.00  0.00    -0.203 F 
ATOM     91  F   UNL A   1      47.475  28.331  35.068  1.00  0.00    -0.200 F 
ATOM     92  C   UNL A   1      45.909  26.720  35.799  1.00  0.00     0.200 A 
ATOM     93  F   UNL A   1      44.310  25.130  36.496  1.00  0.00    -0.200 F 
ATOM     94  F   UNL A   1      46.892  25.996  36.352  1.00  0.00    -0.200 F 
ENDBRANCH  61  84
ENDBRANCH  35  36
ENDBRANCH  27  30
ENDBRANCH  25  26
ENDBRANCH  24  25
ENDBRANCH   1  24
TORSDOF 15
ENDMDL
MODEL 3
REMARK VINA RESULT:     -11.7      5.853     10.068
REMARK SMILES CC(C)[NH2+][C@@]1(C(=O)NCCCCNC(=O)c2ccc(-c3c4nc(c(-c5c(F)c(F)c(F)c(F)c5F)c5ccc([nH]5)c(-c5c(F)c(F)c(F)c(F)c5F)c5nc(c(-c6c(F)c(F)c(F)c(F)c6F)c6ccc3[nH]6)C=C5)C=C4)cc2)CC[C@@H](Sc2cccs2)C1
REMARK SMILES IDX 10 1 9 2 8 3 6 4 7 5 5 7 79 8 88 9 80 10 81 11 4 12 2 15
REMARK SMILES IDX 1 16 3 17 82 18 83 19 84 20 87 21 85 22 86 23 11 24 12 25
REMARK SMILES IDX 13 26 14 27 15 29 16 30 17 31 78 32 18 33 77 34 19 35 20 36
REMARK SMILES IDX 21 37 71 38 22 39 76 40 70 41 72 42 23 43 75 44 69 45 68 46
REMARK SMILES IDX 24 48 56 49 36 50 55 51 37 52 40 53 54 54 73 55 38 56 39 57
REMARK SMILES IDX 53 59 74 60 41 61 25 62 26 63 34 64 27 65 28 66 32 67 35 68
REMARK SMILES IDX 29 69 30 70 33 71 31 72 57 73 58 74 66 75 59 76 60 77 64 78
REMARK SMILES IDX 67 79 61 80 62 81 65 82 63 83 42 84 43 85 51 86 44 87 45 88
REMARK SMILES IDX 49 89 52 90 46 91 47 92 50 93 48 94
REMARK H PARENT 8 6 4 13 4 14 13 28 72 47 40 58
REMARK Flexibility Score: inf
ROOT
ATOM      1  C   UNL A   1      37.470  21.618  24.591  1.00  0.00     0.023 C 
ENDROOT
BRANCH   1   2
ATOM      2  C   UNL A   1      37.091  22.733  25.562  1.00  0.00     0.116 C 
BRANCH   2   3
ATOM      3  N   UNL A   1      36.125  22.322  26.550  1.00  0.00    -0.351 N 
ATOM      4  C   UNL A   1      34.763  22.382  26.595  1.00  0.00     0.281 C 
ATOM      5  O   UNL A   1      34.272  21.790  27.566  1.00  0.00    -0.268 OA
ATOM      6  H   UNL A   1      36.528  21.919  27.353  1.00  0.00     0.163 HD
BRANCH   4   7
ATOM      7  C   UNL A   1      33.873  23.176  25.547  1.00  0.00     0.176 C 
ATOM      8  C   UNL A   1      34.317  24.619  25.268  1.00  0.00     0.080 C 
ATOM      9  C   UNL A   1      32.420  23.276  26.067  1.00  0.00     0.094 C 
ATOM     10  C   UNL A   1      33.279  25.585  25.831  1.00  0.00     0.022 C 
ATOM     11  C   UNL A   1      32.126  24.746  26.371  1.00  0.00     0.059 C 
BRANCH   7  12
ATOM     12  N   UNL A   1      33.802  22.384  24.282  1.00  0.00    -0.332 N 
ATOM     13  H   UNL A   1      33.824  23.048  23.508  1.00  0.00     0.347 HD
ATOM     14  H   UNL A   1      34.593  21.742  24.343  1.00  0.00     0.347 HD
BRANCH  12  15
ATOM     15  C   UNL A   1      32.642  21.508  24.070  1.00  0.00     0.176 C 
ATOM     16  C   UNL A   1      32.181  21.706  22.622  1.00  0.00     0.075 C 
ATOM     17  C   UNL A   1      32.994  20.026  24.267  1.00  0.00     0.075 C 
ENDBRANCH  12  15
ENDBRANCH   7  12
BRANCH  11  18
ATOM     18  S   UNL A   1      30.453  25.274  25.843  1.00  0.00    -0.112 SA
BRANCH  18  19
ATOM     19  C   UNL A   1      30.744  25.955  24.251  1.00  0.00     0.060 A 
ATOM     20  C   UNL A   1      31.095  25.271  23.108  1.00  0.00     0.027 A 
ATOM     21  S   UNL A   1      30.611  27.638  23.964  1.00  0.00    -0.137 S 
ATOM     22  C   UNL A   1      31.362  26.147  22.016  1.00  0.00     0.013 A 
ATOM     23  C   UNL A   1      31.161  27.467  22.353  1.00  0.00     0.066 A 
ENDBRANCH  18  19
ENDBRANCH  11  18
ENDBRANCH   4   7
ENDBRANCH   2   3
ENDBRANCH   1   2
BRANCH   1  24
ATOM     24  C   UNL A   1      38.036  20.365  25.257  1.00  0.00     0.023 C 
BRANCH  24  25
ATOM     25  C   UNL A   1      39.398  20.533  25.924  1.00  0.00     0.116 C 
BRANCH  25  26
ATOM     26  N   UNL A   1      40.231  19.339  25.906  1.00  0.00    -0.352 N 
ATOM     27  C   UNL A   1      41.588  19.251  26.128  1.00  0.00     0.251 C 
ATOM     28  H   UNL A   1      39.768  18.491  25.712  1.00  0.00     0.163 HD
ATOM     29  O   UNL A   1      42.179  18.186  26.026  1.00  0.00    -0.269 OA
BRANCH  27  30
ATOM     30  C   UNL A   1      42.329  20.490  26.442  1.00  0.00     0.039 A 
ATOM     31  C   UNL A   1      42.889  21.224  25.396  1.00  0.00     0.014 A 
ATOM     32  C   UNL A   1      42.372  20.968  27.754  1.00  0.00     0.014 A 
ATOM     33  C   UNL A   1      43.416  22.490  25.654  1.00  0.00     0.010 A 
ATOM     34  C   UNL A   1      42.824  22.260  27.994  1.00  0.00     0.010 A 
ATOM     35  C   UNL A   1      43.341  23.037  26.945  1.00  0.00    -0.014 A 
BRANCH  35  36
ATOM     36  C   UNL A   1      43.783  24.427  27.223  1.00  0.00     0.031 A 
ATOM     37  C   UNL A   1      42.799  25.437  27.740  1.00  0.00     0.074 A 
ATOM     38  C   UNL A   1      45.044  24.798  26.927  1.00  0.00     0.049 A 
ATOM     39  N   UNL A   1      42.964  26.718  27.957  1.00  0.00    -0.248 NA
ATOM     40  C   UNL A   1      41.439  24.951  28.015  1.00  0.00     0.031 C 
ATOM     41  C   UNL A   1      46.075  23.926  26.360  1.00  0.00     0.029 A 
ATOM     42  N   UNL A   1      45.671  26.013  27.051  1.00  0.00    -0.354 N 
ATOM     43  C   UNL A   1      41.726  27.190  28.370  1.00  0.00     0.074 A 
ATOM     44  C   UNL A   1      40.808  26.073  28.322  1.00  0.00     0.031 C 
ATOM     45  C   UNL A   1      47.209  24.627  26.206  1.00  0.00     0.029 A 
ATOM     46  C   UNL A   1      46.979  26.005  26.631  1.00  0.00     0.049 A 
ATOM     47  H   UNL A   1      45.224  26.816  27.406  1.00  0.00     0.167 HD
ATOM     48  C   UNL A   1      41.392  28.438  28.777  1.00  0.00     0.037 A 
ATOM     49  C   UNL A   1      47.887  26.998  26.592  1.00  0.00     0.037 A 
ATOM     50  C   UNL A   1      42.318  29.534  28.863  1.00  0.00     0.049 A 
ATOM     51  C   UNL A   1      47.499  28.368  27.077  1.00  0.00     0.074 A 
ATOM     52  C   UNL A   1      42.096  30.816  29.336  1.00  0.00     0.029 A 
ATOM     53  N   UNL A   1      43.647  29.477  28.469  1.00  0.00    -0.354 N 
ATOM     54  N   UNL A   1      46.345  28.786  27.538  1.00  0.00    -0.248 NA
ATOM     55  C   UNL A   1      48.542  29.403  27.045  1.00  0.00     0.031 C 
ATOM     56  C   UNL A   1      43.282  31.545  29.195  1.00  0.00     0.029 A 
ATOM     57  C   UNL A   1      44.254  30.705  28.673  1.00  0.00     0.049 A 
ATOM     58  H   UNL A   1      44.092  28.681  28.099  1.00  0.00     0.167 HD
ATOM     59  C   UNL A   1      46.528  30.120  27.874  1.00  0.00     0.074 A 
ATOM     60  C   UNL A   1      47.909  30.438  27.577  1.00  0.00     0.031 C 
ATOM     61  C   UNL A   1      45.632  31.001  28.382  1.00  0.00     0.037 A 
BRANCH  48  62
ATOM     62  C   UNL A   1      39.964  28.676  29.173  1.00  0.00     0.064 A 
ATOM     63  C   UNL A   1      39.015  29.147  28.253  1.00  0.00     0.173 A 
ATOM     64  C   UNL A   1      39.534  28.408  30.480  1.00  0.00     0.173 A 
ATOM     65  F   UNL A   1      39.380  29.432  26.994  1.00  0.00    -0.203 F 
ATOM     66  C   UNL A   1      37.695  29.372  28.635  1.00  0.00     0.198 A 
ATOM     67  C   UNL A   1      38.206  28.605  30.852  1.00  0.00     0.198 A 
ATOM     68  F   UNL A   1      40.400  27.953  31.399  1.00  0.00    -0.203 F 
ATOM     69  F   UNL A   1      36.820  29.872  27.753  1.00  0.00    -0.200 F 
ATOM     70  C   UNL A   1      37.291  29.094  29.932  1.00  0.00     0.200 A 
ATOM     71  F   UNL A   1      37.814  28.326  32.103  1.00  0.00    -0.200 F 
ATOM     72  F   UNL A   1      36.019  29.307  30.298  1.00  0.00    -0.200 F 
ENDBRANCH  48  62
BRANCH  49  73
ATOM     73  C   UNL A   1      49.265  26.726  26.107  1.00  0.00     0.064 A 
ATOM     74  C   UNL A   1      49.637  27.037  24.792  1.00  0.00     0.173 A 
ATOM     75  C   UNL A   1      50.235  26.151  26.941  1.00  0.00     0.173 A 
ATOM     76  F   UNL A   1      48.737  27.570  23.951  1.00  0.00    -0.203 F 
ATOM     77  C   UNL A   1      50.919  26.764  24.321  1.00  0.00     0.198 A 
ATOM     78  C   UNL A   1      51.526  25.902  26.477  1.00  0.00     0.198 A 
ATOM     79  F   UNL A   1      49.931  25.839  28.209  1.00  0.00    -0.203 F 
ATOM     80  F   UNL A   1      51.235  27.032  23.047  1.00  0.00    -0.200 F 
ATOM     81  C   UNL A   1      51.865  26.203  25.166  1.00  0.00     0.200 A 
ATOM     82  F   UNL A   1      52.440  25.370  27.300  1.00  0.00    -0.200 F 
ATOM     83  F   UNL A   1      53.099  25.942  24.715  1.00  0.00    -0.200 F 
ENDBRANCH  49  73
BRANCH  61  84
ATOM     84  C   UNL A   1      46.125  32.385  28.681  1.00  0.00     0.064 A 
ATOM     85  C   UNL A   1      46.044  33.415  27.733  1.00  0.00     0.173 A 
ATOM     86  C   UNL A   1      46.643  32.695  29.948  1.00  0.00     0.173 A 
ATOM     87  F   UNL A   1      45.571  33.164  26.503  1.00  0.00    -0.203 F 
ATOM     88  C   UNL A   1      46.483  34.701  28.035  1.00  0.00     0.198 A 
ATOM     89  C   UNL A   1      47.055  33.988  30.256  1.00  0.00     0.198 A 
ATOM     90  F   UNL A   1      46.736  31.745  30.891  1.00  0.00    -0.203 F 
ATOM     91  F   UNL A   1      46.435  35.661  27.100  1.00  0.00    -0.200 F 
ATOM     92  C   UNL A   1      46.981  34.988  29.298  1.00  0.00     0.200 A 
ATOM     93  F   UNL A   1      47.525  34.266  31.479  1.00  0.00    -0.200 F 
ATOM     94  F   UNL A   1      47.396  36.229  29.589  1.00  0.00    -0.200 F 
ENDBRANCH  61  84
ENDBRANCH  35  36
ENDBRANCH  27  30
ENDBRANCH  25  26
ENDBRANCH  24  25
ENDBRANCH   1  24
TORSDOF 15
ENDMDL
