MODEL 1
REMARK VINA RESULT:     -13.1      0.000      0.000
REMARK SMILES Cc1ccccc1OCC(=O)c1nc(C)c(C(=O)NCCCCNC(=O)c2ccc(-c3c4nc(c(-c5c(F)c(F)c(F)c(F)c5F)c5ccc([nH]5)c(-c5c(F)c(F)c(F)c(F)c5F)c5nc(c(-c6c(F)c(F)c(F)c(F)c6F)c6ccc3[nH]6)C=C5)C=C4)cc2)s1
REMARK SMILES IDX 20 1 19 2 17 3 18 4 16 6 12 7 13 8 90 9 14 10 15 11 10 12
REMARK SMILES IDX 11 13 9 14 8 15 7 16 1 17 2 18 3 19 4 20 6 21 5 22 21 23
REMARK SMILES IDX 22 24 23 25 24 26 25 27 26 29 27 30 28 31 89 32 29 33 88 34
REMARK SMILES IDX 30 35 31 36 32 37 82 38 33 39 87 40 81 41 83 42 34 43 86 44
REMARK SMILES IDX 80 45 79 46 35 48 67 49 47 50 66 51 48 52 51 53 65 54 84 55
REMARK SMILES IDX 49 56 50 57 64 59 85 60 52 61 36 62 37 63 45 64 38 65 39 66
REMARK SMILES IDX 43 67 46 68 40 69 41 70 44 71 42 72 68 73 69 74 77 75 70 76
REMARK SMILES IDX 71 77 75 78 78 79 72 80 73 81 76 82 74 83 53 84 54 85 62 86
REMARK SMILES IDX 55 87 56 88 60 89 63 90 57 91 58 92 61 93 59 94
REMARK H PARENT 19 5 24 28 83 47 51 58
REMARK Flexibility Score: inf
ROOT
ATOM      1  C   UNL A   1      35.366  21.276  25.748  1.00  0.00     0.116 C 
ENDROOT
BRANCH   1   2
ATOM      2  N   UNL A   1      34.140  20.533  25.590  1.00  0.00    -0.351 N 
ATOM      3  C   UNL A   1      32.893  20.813  25.097  1.00  0.00     0.263 C 
ATOM      4  O   UNL A   1      32.153  19.819  25.151  1.00  0.00    -0.268 OA
ATOM      5  H   UNL A   1      34.219  19.606  25.912  1.00  0.00     0.163 HD
BRANCH   3   6
ATOM      6  C   UNL A   1      32.431  22.097  24.565  1.00  0.00     0.115 A 
ATOM      7  C   UNL A   1      31.063  24.164  24.478  1.00  0.00     0.164 A 
ATOM      8  N   UNL A   1      31.888  24.099  23.461  1.00  0.00    -0.237 NA
ATOM      9  S   UNL A   1      31.169  22.847  25.536  1.00  0.00    -0.105 S 
ATOM     10  C   UNL A   1      32.689  22.962  23.502  1.00  0.00     0.062 A 
ATOM     11  C   UNL A   1      33.649  22.945  22.373  1.00  0.00     0.068 C 
BRANCH   7  12
ATOM     12  C   UNL A   1      30.183  25.316  24.641  1.00  0.00     0.228 C 
ATOM     13  O   UNL A   1      29.615  25.853  23.681  1.00  0.00    -0.288 OA
BRANCH  12  14
ATOM     14  C   UNL A   1      30.023  25.971  26.014  1.00  0.00     0.313 C 
BRANCH  14  15
ATOM     15  O   UNL A   1      31.111  26.166  26.876  1.00  0.00    -0.485 OA
BRANCH  15  16
ATOM     16  C   UNL A   1      32.033  27.158  26.743  1.00  0.00     0.122 A 
ATOM     17  C   UNL A   1      34.035  25.991  25.572  1.00  0.00     0.048 C 
ATOM     18  C   UNL A   1      33.316  27.162  26.178  1.00  0.00    -0.009 A 
ATOM     19  C   UNL A   1      34.016  28.391  26.122  1.00  0.00     0.007 A 
ATOM     20  C   UNL A   1      33.490  29.570  26.650  1.00  0.00     0.001 A 
ATOM     21  C   UNL A   1      31.525  28.356  27.284  1.00  0.00     0.047 A 
ATOM     22  C   UNL A   1      32.242  29.550  27.245  1.00  0.00     0.004 A 
ENDBRANCH  15  16
ENDBRANCH  14  15
ENDBRANCH  12  14
ENDBRANCH   7  12
ENDBRANCH   3   6
ENDBRANCH   1   2
BRANCH   1  23
ATOM     23  C   UNL A   1      36.346  21.027  24.592  1.00  0.00     0.023 C 
BRANCH  23  24
ATOM     24  C   UNL A   1      37.815  20.892  25.001  1.00  0.00     0.023 C 
BRANCH  24  25
ATOM     25  C   UNL A   1      38.319  22.101  25.779  1.00  0.00     0.116 C 
BRANCH  25  26
ATOM     26  N   UNL A   1      39.729  22.069  26.143  1.00  0.00    -0.352 N 
ATOM     27  C   UNL A   1      40.582  23.104  26.504  1.00  0.00     0.251 C 
ATOM     28  H   UNL A   1      40.143  21.176  26.130  1.00  0.00     0.163 HD
ATOM     29  O   UNL A   1      41.773  22.882  26.652  1.00  0.00    -0.269 OA
BRANCH  27  30
ATOM     30  C   UNL A   1      40.033  24.445  26.853  1.00  0.00     0.039 A 
ATOM     31  C   UNL A   1      40.479  25.559  26.125  1.00  0.00     0.014 A 
ATOM     32  C   UNL A   1      39.271  24.639  27.996  1.00  0.00     0.014 A 
ATOM     33  C   UNL A   1      40.397  26.830  26.692  1.00  0.00     0.010 A 
ATOM     34  C   UNL A   1      39.324  25.862  28.627  1.00  0.00     0.010 A 
ATOM     35  C   UNL A   1      39.938  26.950  28.001  1.00  0.00    -0.014 A 
BRANCH  35  36
ATOM     36  C   UNL A   1      40.169  28.111  28.852  1.00  0.00     0.031 A 
ATOM     37  C   UNL A   1      39.157  29.187  28.956  1.00  0.00     0.074 A 
ATOM     38  C   UNL A   1      41.222  28.099  29.702  1.00  0.00     0.049 A 
ATOM     39  N   UNL A   1      39.407  30.360  29.435  1.00  0.00    -0.248 NA
ATOM     40  C   UNL A   1      37.772  29.040  28.516  1.00  0.00     0.031 C 
ATOM     41  C   UNL A   1      41.413  28.937  30.884  1.00  0.00     0.029 A 
ATOM     42  N   UNL A   1      42.442  27.409  29.569  1.00  0.00    -0.354 N 
ATOM     43  C   UNL A   1      38.209  31.003  29.622  1.00  0.00     0.074 A 
ATOM     44  C   UNL A   1      37.220  30.161  28.993  1.00  0.00     0.031 C 
ATOM     45  C   UNL A   1      42.717  28.961  31.196  1.00  0.00     0.029 A 
ATOM     46  C   UNL A   1      43.420  28.261  30.140  1.00  0.00     0.049 A 
ATOM     47  H   UNL A   1      42.586  26.524  29.165  1.00  0.00     0.167 HD
ATOM     48  C   UNL A   1      38.164  32.123  30.396  1.00  0.00     0.037 A 
ATOM     49  C   UNL A   1      44.432  28.793  29.395  1.00  0.00     0.037 A 
ATOM     50  C   UNL A   1      39.486  32.492  30.882  1.00  0.00     0.049 A 
ATOM     51  C   UNL A   1      44.461  30.302  29.382  1.00  0.00     0.074 A 
ATOM     52  C   UNL A   1      40.148  32.257  32.076  1.00  0.00     0.029 A 
ATOM     53  N   UNL A   1      40.449  32.914  29.973  1.00  0.00    -0.354 N 
ATOM     54  N   UNL A   1      43.438  31.048  29.698  1.00  0.00    -0.248 NA
ATOM     55  C   UNL A   1      45.627  31.092  29.001  1.00  0.00     0.031 C 
ATOM     56  C   UNL A   1      41.525  32.518  31.874  1.00  0.00     0.029 A 
ATOM     57  C   UNL A   1      41.696  32.924  30.563  1.00  0.00     0.049 A 
ATOM     58  H   UNL A   1      40.266  33.169  29.040  1.00  0.00     0.167 HD
ATOM     59  C   UNL A   1      43.774  32.372  29.568  1.00  0.00     0.074 A 
ATOM     60  C   UNL A   1      45.160  32.346  29.142  1.00  0.00     0.031 C 
ATOM     61  C   UNL A   1      42.868  33.363  29.823  1.00  0.00     0.037 A 
BRANCH  48  62
ATOM     62  C   UNL A   1      36.882  32.722  30.907  1.00  0.00     0.064 A 
ATOM     63  C   UNL A   1      36.086  33.552  30.091  1.00  0.00     0.173 A 
ATOM     64  C   UNL A   1      36.404  32.530  32.216  1.00  0.00     0.173 A 
ATOM     65  F   UNL A   1      36.391  33.775  28.807  1.00  0.00    -0.203 F 
ATOM     66  C   UNL A   1      34.949  34.206  30.572  1.00  0.00     0.198 A 
ATOM     67  C   UNL A   1      35.296  33.226  32.713  1.00  0.00     0.198 A 
ATOM     68  F   UNL A   1      36.983  31.643  33.038  1.00  0.00    -0.203 F 
ATOM     69  F   UNL A   1      34.233  34.986  29.749  1.00  0.00    -0.200 F 
ATOM     70  C   UNL A   1      34.573  34.069  31.891  1.00  0.00     0.200 A 
ATOM     71  F   UNL A   1      34.939  33.079  33.996  1.00  0.00    -0.200 F 
ATOM     72  F   UNL A   1      33.510  34.733  32.366  1.00  0.00    -0.200 F 
ENDBRANCH  48  62
BRANCH  49  73
ATOM     73  C   UNL A   1      44.864  27.901  28.292  1.00  0.00     0.064 A 
ATOM     74  C   UNL A   1      45.662  26.788  28.625  1.00  0.00     0.173 A 
ATOM     75  C   UNL A   1      44.178  27.864  27.072  1.00  0.00     0.173 A 
ATOM     76  F   UNL A   1      46.334  26.775  29.787  1.00  0.00    -0.203 F 
ATOM     77  C   UNL A   1      45.665  25.638  27.840  1.00  0.00     0.198 A 
ATOM     78  C   UNL A   1      44.195  26.711  26.281  1.00  0.00     0.198 A 
ATOM     79  F   UNL A   1      43.383  28.881  26.711  1.00  0.00    -0.203 F 
ATOM     80  F   UNL A   1      46.333  24.551  28.252  1.00  0.00    -0.200 F 
ATOM     81  C   UNL A   1      44.904  25.589  26.685  1.00  0.00     0.200 A 
ATOM     82  F   UNL A   1      43.435  26.650  25.177  1.00  0.00    -0.200 F 
ATOM     83  F   UNL A   1      44.816  24.448  25.988  1.00  0.00    -0.200 F 
ENDBRANCH  49  73
BRANCH  61  84
ATOM     84  C   UNL A   1      42.997  34.840  29.508  1.00  0.00     0.064 A 
ATOM     85  C   UNL A   1      43.271  35.834  30.459  1.00  0.00     0.173 A 
ATOM     86  C   UNL A   1      42.997  35.284  28.157  1.00  0.00     0.173 A 
ATOM     87  F   UNL A   1      43.414  35.541  31.756  1.00  0.00    -0.203 F 
ATOM     88  C   UNL A   1      43.475  37.171  30.097  1.00  0.00     0.198 A 
ATOM     89  C   UNL A   1      43.263  36.604  27.798  1.00  0.00     0.198 A 
ATOM     90  F   UNL A   1      42.769  34.445  27.136  1.00  0.00    -0.203 F 
ATOM     91  F   UNL A   1      43.695  38.087  31.051  1.00  0.00    -0.200 F 
ATOM     92  C   UNL A   1      43.487  37.552  28.769  1.00  0.00     0.200 A 
ATOM     93  F   UNL A   1      43.325  36.941  26.501  1.00  0.00    -0.200 F 
ATOM     94  F   UNL A   1      43.737  38.823  28.427  1.00  0.00    -0.200 F 
ENDBRANCH  61  84
ENDBRANCH  35  36
ENDBRANCH  27  30
ENDBRANCH  25  26
ENDBRANCH  24  25
ENDBRANCH  23  24
ENDBRANCH   1  23
TORSDOF 15
ENDMDL
MODEL 2
REMARK VINA RESULT:     -12.9      3.407      9.725
REMARK SMILES Cc1ccccc1OCC(=O)c1nc(C)c(C(=O)NCCCCNC(=O)c2ccc(-c3c4nc(c(-c5c(F)c(F)c(F)c(F)c5F)c5ccc([nH]5)c(-c5c(F)c(F)c(F)c(F)c5F)c5nc(c(-c6c(F)c(F)c(F)c(F)c6F)c6ccc3[nH]6)C=C5)C=C4)cc2)s1
REMARK SMILES IDX 20 1 19 2 17 3 18 4 16 6 12 7 13 8 90 9 14 10 15 11 10 12
REMARK SMILES IDX 11 13 9 14 8 15 7 16 1 17 2 18 3 19 4 20 6 21 5 22 21 23
REMARK SMILES IDX 22 24 23 25 24 26 25 27 26 29 27 30 28 31 89 32 29 33 88 34
REMARK SMILES IDX 30 35 31 36 32 37 82 38 33 39 87 40 81 41 83 42 34 43 86 44
REMARK SMILES IDX 80 45 79 46 35 48 67 49 47 50 66 51 48 52 51 53 65 54 84 55
REMARK SMILES IDX 49 56 50 57 64 59 85 60 52 61 36 62 37 63 45 64 38 65 39 66
REMARK SMILES IDX 43 67 46 68 40 69 41 70 44 71 42 72 68 73 69 74 77 75 70 76
REMARK SMILES IDX 71 77 75 78 78 79 72 80 73 81 76 82 74 83 53 84 54 85 62 86
REMARK SMILES IDX 55 87 56 88 60 89 63 90 57 91 58 92 61 93 59 94
REMARK H PARENT 19 5 24 28 83 47 51 58
REMARK Flexibility Score: inf
ROOT
ATOM      1  C   UNL A   1      32.398  29.698  24.752  1.00  0.00     0.116 C 
ENDROOT
BRANCH   1   2
ATOM      2  N   UNL A   1      31.554  29.484  23.602  1.00  0.00    -0.351 N 
ATOM      3  C   UNL A   1      31.088  28.384  22.933  1.00  0.00     0.263 C 
ATOM      4  O   UNL A   1      30.354  28.708  21.988  1.00  0.00    -0.268 OA
ATOM      5  H   UNL A   1      31.240  30.329  23.205  1.00  0.00     0.163 HD
BRANCH   3   6
ATOM      6  C   UNL A   1      31.384  26.983  23.241  1.00  0.00     0.115 A 
ATOM      7  C   UNL A   1      32.237  24.692  22.822  1.00  0.00     0.164 A 
ATOM      8  N   UNL A   1      31.698  24.785  24.012  1.00  0.00    -0.237 NA
ATOM      9  S   UNL A   1      32.200  26.132  21.933  1.00  0.00    -0.105 S 
ATOM     10  C   UNL A   1      31.237  26.069  24.286  1.00  0.00     0.062 A 
ATOM     11  C   UNL A   1      30.684  26.159  25.658  1.00  0.00     0.068 C 
BRANCH   7  12
ATOM     12  C   UNL A   1      32.833  23.436  22.379  1.00  0.00     0.228 C 
ATOM     13  O   UNL A   1      33.419  23.331  21.293  1.00  0.00    -0.288 OA
BRANCH  12  14
ATOM     14  C   UNL A   1      32.653  22.165  23.210  1.00  0.00     0.313 C 
BRANCH  14  15
ATOM     15  O   UNL A   1      33.679  21.651  24.014  1.00  0.00    -0.485 OA
BRANCH  15  16
ATOM     16  C   UNL A   1      34.658  22.400  24.592  1.00  0.00     0.122 A 
ATOM     17  C   UNL A   1      33.503  23.425  26.679  1.00  0.00     0.048 C 
ATOM     18  C   UNL A   1      34.661  23.185  25.753  1.00  0.00    -0.009 A 
ATOM     19  C   UNL A   1      35.876  23.797  26.141  1.00  0.00     0.007 A 
ATOM     20  C   UNL A   1      37.042  23.680  25.383  1.00  0.00     0.001 A 
ATOM     21  C   UNL A   1      35.841  22.306  23.832  1.00  0.00     0.047 A 
ATOM     22  C   UNL A   1      37.021  22.940  24.215  1.00  0.00     0.004 A 
ENDBRANCH  15  16
ENDBRANCH  14  15
ENDBRANCH  12  14
ENDBRANCH   7  12
ENDBRANCH   3   6
ENDBRANCH   1   2
BRANCH   1  23
ATOM     23  C   UNL A   1      31.582  29.978  26.024  1.00  0.00     0.023 C 
BRANCH  23  24
ATOM     24  C   UNL A   1      32.406  30.139  27.303  1.00  0.00     0.023 C 
BRANCH  24  25
ATOM     25  C   UNL A   1      33.871  30.446  27.022  1.00  0.00     0.116 C 
BRANCH  25  26
ATOM     26  N   UNL A   1      34.494  31.409  27.920  1.00  0.00    -0.352 N 
ATOM     27  C   UNL A   1      35.548  31.248  28.811  1.00  0.00     0.251 C 
ATOM     28  H   UNL A   1      34.109  32.315  27.892  1.00  0.00     0.163 HD
ATOM     29  O   UNL A   1      35.841  32.157  29.571  1.00  0.00    -0.269 OA
BRANCH  27  30
ATOM     30  C   UNL A   1      36.410  30.033  28.745  1.00  0.00     0.039 A 
ATOM     31  C   UNL A   1      36.656  29.326  29.931  1.00  0.00     0.014 A 
ATOM     32  C   UNL A   1      37.131  29.721  27.602  1.00  0.00     0.014 A 
ATOM     33  C   UNL A   1      37.793  28.522  30.030  1.00  0.00     0.010 A 
ATOM     34  C   UNL A   1      38.330  29.057  27.738  1.00  0.00     0.010 A 
ATOM     35  C   UNL A   1      38.692  28.503  28.968  1.00  0.00    -0.014 A 
BRANCH  35  36
ATOM     36  C   UNL A   1      40.077  28.059  29.069  1.00  0.00     0.031 A 
ATOM     37  C   UNL A   1      40.488  26.735  28.550  1.00  0.00     0.074 A 
ATOM     38  C   UNL A   1      41.022  28.948  29.456  1.00  0.00     0.049 A 
ATOM     39  N   UNL A   1      41.598  26.156  28.865  1.00  0.00    -0.248 NA
ATOM     40  C   UNL A   1      39.673  25.937  27.636  1.00  0.00     0.031 C 
ATOM     41  C   UNL A   1      42.465  28.848  29.252  1.00  0.00     0.029 A 
ATOM     42  N   UNL A   1      40.869  30.081  30.277  1.00  0.00    -0.354 N 
ATOM     43  C   UNL A   1      41.772  25.089  28.018  1.00  0.00     0.074 A 
ATOM     44  C   UNL A   1      40.527  24.964  27.299  1.00  0.00     0.031 C 
ATOM     45  C   UNL A   1      43.087  29.648  30.130  1.00  0.00     0.029 A 
ATOM     46  C   UNL A   1      42.071  30.173  31.021  1.00  0.00     0.049 A 
ATOM     47  H   UNL A   1      40.091  30.682  30.326  1.00  0.00     0.167 HD
ATOM     48  C   UNL A   1      42.996  24.499  27.928  1.00  0.00     0.037 A 
ATOM     49  C   UNL A   1      42.087  30.043  32.379  1.00  0.00     0.037 A 
ATOM     50  C   UNL A   1      43.955  25.111  28.838  1.00  0.00     0.049 A 
ATOM     51  C   UNL A   1      42.949  28.910  32.881  1.00  0.00     0.074 A 
ATOM     52  C   UNL A   1      44.926  26.083  28.665  1.00  0.00     0.029 A 
ATOM     53  N   UNL A   1      43.767  24.979  30.208  1.00  0.00    -0.354 N 
ATOM     54  N   UNL A   1      43.331  27.908  32.138  1.00  0.00    -0.248 NA
ATOM     55  C   UNL A   1      43.437  28.802  34.252  1.00  0.00     0.031 C 
ATOM     56  C   UNL A   1      45.308  26.556  29.944  1.00  0.00     0.029 A 
ATOM     57  C   UNL A   1      44.579  25.861  30.892  1.00  0.00     0.049 A 
ATOM     58  H   UNL A   1      43.144  24.346  30.631  1.00  0.00     0.167 HD
ATOM     59  C   UNL A   1      44.083  27.039  32.887  1.00  0.00     0.074 A 
ATOM     60  C   UNL A   1      44.131  27.651  34.201  1.00  0.00     0.031 C 
ATOM     61  C   UNL A   1      44.592  25.891  32.345  1.00  0.00     0.037 A 
BRANCH  48  62
ATOM     62  C   UNL A   1      43.372  23.539  26.832  1.00  0.00     0.064 A 
ATOM     63  C   UNL A   1      42.979  22.185  26.878  1.00  0.00     0.173 A 
ATOM     64  C   UNL A   1      44.149  23.900  25.717  1.00  0.00     0.173 A 
ATOM     65  F   UNL A   1      42.189  21.717  27.853  1.00  0.00    -0.203 F 
ATOM     66  C   UNL A   1      43.401  21.250  25.931  1.00  0.00     0.198 A 
ATOM     67  C   UNL A   1      44.616  22.955  24.797  1.00  0.00     0.198 A 
ATOM     68  F   UNL A   1      44.454  25.184  25.476  1.00  0.00    -0.203 F 
ATOM     69  F   UNL A   1      42.998  19.975  26.029  1.00  0.00    -0.200 F 
ATOM     70  C   UNL A   1      44.246  21.628  24.908  1.00  0.00     0.200 A 
ATOM     71  F   UNL A   1      45.433  23.338  23.806  1.00  0.00    -0.200 F 
ATOM     72  F   UNL A   1      44.691  20.723  24.027  1.00  0.00    -0.200 F 
ENDBRANCH  48  62
BRANCH  49  73
ATOM     73  C   UNL A   1      40.849  30.550  33.019  1.00  0.00     0.064 A 
ATOM     74  C   UNL A   1      40.657  31.945  33.058  1.00  0.00     0.173 A 
ATOM     75  C   UNL A   1      39.720  29.736  33.170  1.00  0.00     0.173 A 
ATOM     76  F   UNL A   1      41.708  32.767  32.912  1.00  0.00    -0.203 F 
ATOM     77  C   UNL A   1      39.380  32.499  33.108  1.00  0.00     0.198 A 
ATOM     78  C   UNL A   1      38.441  30.298  33.233  1.00  0.00     0.198 A 
ATOM     79  F   UNL A   1      39.836  28.401  33.117  1.00  0.00    -0.203 F 
ATOM     80  F   UNL A   1      39.225  33.827  33.013  1.00  0.00    -0.200 F 
ATOM     81  C   UNL A   1      38.271  31.673  33.162  1.00  0.00     0.200 A 
ATOM     82  F   UNL A   1      37.364  29.499  33.255  1.00  0.00    -0.200 F 
ATOM     83  F   UNL A   1      37.040  32.198  33.097  1.00  0.00    -0.200 F 
ENDBRANCH  49  73
BRANCH  61  84
ATOM     84  C   UNL A   1      45.230  24.726  33.075  1.00  0.00     0.064 A 
ATOM     85  C   UNL A   1      46.501  24.760  33.667  1.00  0.00     0.173 A 
ATOM     86  C   UNL A   1      44.478  23.548  33.334  1.00  0.00     0.173 A 
ATOM     87  F   UNL A   1      47.275  25.850  33.602  1.00  0.00    -0.203 F 
ATOM     88  C   UNL A   1      47.003  23.686  34.412  1.00  0.00     0.198 A 
ATOM     89  C   UNL A   1      44.957  22.507  34.129  1.00  0.00     0.198 A 
ATOM     90  F   UNL A   1      43.239  23.378  32.851  1.00  0.00    -0.203 F 
ATOM     91  F   UNL A   1      48.240  23.756  34.922  1.00  0.00    -0.200 F 
ATOM     92  C   UNL A   1      46.226  22.569  34.656  1.00  0.00     0.200 A 
ATOM     93  F   UNL A   1      44.166  21.458  34.398  1.00  0.00    -0.200 F 
ATOM     94  F   UNL A   1      46.692  21.568  35.414  1.00  0.00    -0.200 F 
ENDBRANCH  61  84
ENDBRANCH  35  36
ENDBRANCH  27  30
ENDBRANCH  25  26
ENDBRANCH  24  25
ENDBRANCH  23  24
ENDBRANCH   1  23
TORSDOF 15
ENDMDL
MODEL 3
REMARK VINA RESULT:     -12.8      1.223      2.136
REMARK SMILES Cc1ccccc1OCC(=O)c1nc(C)c(C(=O)NCCCCNC(=O)c2ccc(-c3c4nc(c(-c5c(F)c(F)c(F)c(F)c5F)c5ccc([nH]5)c(-c5c(F)c(F)c(F)c(F)c5F)c5nc(c(-c6c(F)c(F)c(F)c(F)c6F)c6ccc3[nH]6)C=C5)C=C4)cc2)s1
REMARK SMILES IDX 20 1 19 2 17 3 18 4 16 6 12 7 13 8 90 9 14 10 15 11 10 12
REMARK SMILES IDX 11 13 9 14 8 15 7 16 1 17 2 18 3 19 4 20 6 21 5 22 21 23
REMARK SMILES IDX 22 24 23 25 24 26 25 27 26 29 27 30 28 31 89 32 29 33 88 34
REMARK SMILES IDX 30 35 31 36 32 37 82 38 33 39 87 40 81 41 83 42 34 43 86 44
REMARK SMILES IDX 80 45 79 46 35 48 67 49 47 50 66 51 48 52 51 53 65 54 84 55
REMARK SMILES IDX 49 56 50 57 64 59 85 60 52 61 36 62 37 63 45 64 38 65 39 66
REMARK SMILES IDX 43 67 46 68 40 69 41 70 44 71 42 72 68 73 69 74 77 75 70 76
REMARK SMILES IDX 71 77 75 78 78 79 72 80 73 81 76 82 74 83 53 84 54 85 62 86
REMARK SMILES IDX 55 87 56 88 60 89 63 90 57 91 58 92 61 93 59 94
REMARK H PARENT 19 5 24 28 83 47 51 58
REMARK Flexibility Score: inf
ROOT
ATOM      1  C   UNL A   1      35.580  21.219  25.995  1.00  0.00     0.116 C 
ENDROOT
BRANCH   1   2
ATOM      2  N   UNL A   1      34.257  20.906  25.514  1.00  0.00    -0.351 N 
ATOM      3  C   UNL A   1      33.313  21.567  24.774  1.00  0.00     0.263 C 
ATOM      4  O   UNL A   1      32.309  20.864  24.591  1.00  0.00    -0.268 OA
ATOM      5  H   UNL A   1      33.963  20.005  25.781  1.00  0.00     0.163 HD
BRANCH   3   6
ATOM      6  C   UNL A   1      33.415  22.928  24.241  1.00  0.00     0.115 A 
ATOM      7  C   UNL A   1      32.970  24.797  22.672  1.00  0.00     0.164 A 
ATOM      8  N   UNL A   1      33.799  25.161  23.619  1.00  0.00    -0.237 NA
ATOM      9  S   UNL A   1      32.451  23.190  22.791  1.00  0.00    -0.105 S 
ATOM     10  C   UNL A   1      34.043  24.140  24.532  1.00  0.00     0.062 A 
ATOM     11  C   UNL A   1      34.937  24.597  25.621  1.00  0.00     0.068 C 
BRANCH   7  12
ATOM     12  C   UNL A   1      32.545  25.753  21.655  1.00  0.00     0.228 C 
ATOM     13  O   UNL A   1      33.026  25.760  20.514  1.00  0.00    -0.288 OA
BRANCH  12  14
ATOM     14  C   UNL A   1      31.555  26.862  22.012  1.00  0.00     0.313 C 
BRANCH  14  15
ATOM     15  O   UNL A   1      30.715  26.778  23.131  1.00  0.00    -0.485 OA
BRANCH  15  16
ATOM     16  C   UNL A   1      31.004  27.299  24.355  1.00  0.00     0.122 A 
ATOM     17  C   UNL A   1      30.841  25.259  25.952  1.00  0.00     0.048 C 
ATOM     18  C   UNL A   1      31.091  26.701  25.620  1.00  0.00    -0.009 A 
ATOM     19  C   UNL A   1      31.492  27.507  26.712  1.00  0.00     0.007 A 
ATOM     20  C   UNL A   1      31.752  28.871  26.572  1.00  0.00     0.001 A 
ATOM     21  C   UNL A   1      31.257  28.680  24.237  1.00  0.00     0.047 A 
ATOM     22  C   UNL A   1      31.622  29.463  25.329  1.00  0.00     0.004 A 
ENDBRANCH  15  16
ENDBRANCH  14  15
ENDBRANCH  12  14
ENDBRANCH   7  12
ENDBRANCH   3   6
ENDBRANCH   1   2
BRANCH   1  23
ATOM     23  C   UNL A   1      36.676  20.675  25.064  1.00  0.00     0.023 C 
BRANCH  23  24
ATOM     24  C   UNL A   1      37.775  21.676  24.700  1.00  0.00     0.023 C 
BRANCH  24  25
ATOM     25  C   UNL A   1      38.141  22.592  25.861  1.00  0.00     0.116 C 
BRANCH  25  26
ATOM     26  N   UNL A   1      39.512  22.478  26.342  1.00  0.00    -0.352 N 
ATOM     27  C   UNL A   1      40.397  23.463  26.762  1.00  0.00     0.251 C 
ATOM     28  H   UNL A   1      39.866  21.560  26.374  1.00  0.00     0.163 HD
ATOM     29  O   UNL A   1      41.554  23.169  27.012  1.00  0.00    -0.269 OA
BRANCH  27  30
ATOM     30  C   UNL A   1      39.907  24.842  27.047  1.00  0.00     0.039 A 
ATOM     31  C   UNL A   1      40.397  25.898  26.265  1.00  0.00     0.014 A 
ATOM     32  C   UNL A   1      39.162  25.123  28.183  1.00  0.00     0.014 A 
ATOM     33  C   UNL A   1      40.373  27.198  26.770  1.00  0.00     0.010 A 
ATOM     34  C   UNL A   1      39.271  26.372  28.754  1.00  0.00     0.010 A 
ATOM     35  C   UNL A   1      39.928  27.401  28.074  1.00  0.00    -0.014 A 
BRANCH  35  36
ATOM     36  C   UNL A   1      40.213  28.590  28.866  1.00  0.00     0.031 A 
ATOM     37  C   UNL A   1      39.188  29.643  29.049  1.00  0.00     0.074 A 
ATOM     38  C   UNL A   1      41.349  28.628  29.602  1.00  0.00     0.049 A 
ATOM     39  N   UNL A   1      39.454  30.834  29.470  1.00  0.00    -0.248 NA
ATOM     40  C   UNL A   1      37.770  29.449  28.760  1.00  0.00     0.031 C 
ATOM     41  C   UNL A   1      41.638  29.502  30.736  1.00  0.00     0.029 A 
ATOM     42  N   UNL A   1      42.567  27.966  29.359  1.00  0.00    -0.354 N 
ATOM     43  C   UNL A   1      38.264  31.452  29.765  1.00  0.00     0.074 A 
ATOM     44  C   UNL A   1      37.239  30.568  29.265  1.00  0.00     0.031 C 
ATOM     45  C   UNL A   1      42.967  29.568  30.909  1.00  0.00     0.029 A 
ATOM     46  C   UNL A   1      43.575  28.856  29.803  1.00  0.00     0.049 A 
ATOM     47  H   UNL A   1      42.693  27.073  28.964  1.00  0.00     0.167 HD
ATOM     48  C   UNL A   1      38.269  32.591  30.512  1.00  0.00     0.037 A 
ATOM     49  C   UNL A   1      44.489  29.393  28.943  1.00  0.00     0.037 A 
ATOM     50  C   UNL A   1      39.624  33.007  30.847  1.00  0.00     0.049 A 
ATOM     51  C   UNL A   1      44.474  30.902  28.890  1.00  0.00     0.074 A 
ATOM     52  C   UNL A   1      40.412  32.822  31.970  1.00  0.00     0.029 A 
ATOM     53  N   UNL A   1      40.474  33.428  29.832  1.00  0.00    -0.354 N 
ATOM     54  N   UNL A   1      43.470  31.630  29.293  1.00  0.00    -0.248 NA
ATOM     55  C   UNL A   1      45.573  31.710  28.369  1.00  0.00     0.031 C 
ATOM     56  C   UNL A   1      41.753  33.111  31.619  1.00  0.00     0.029 A 
ATOM     57  C   UNL A   1      41.776  33.485  30.288  1.00  0.00     0.049 A 
ATOM     58  H   UNL A   1      40.189  33.652  28.918  1.00  0.00     0.167 HD
ATOM     59  C   UNL A   1      43.753  32.958  29.095  1.00  0.00     0.074 A 
ATOM     60  C   UNL A   1      45.088  32.955  28.527  1.00  0.00     0.031 C 
ATOM     61  C   UNL A   1      42.852  33.933  29.419  1.00  0.00     0.037 A 
BRANCH  48  62
ATOM     62  C   UNL A   1      37.031  33.172  31.139  1.00  0.00     0.064 A 
ATOM     63  C   UNL A   1      36.738  32.968  32.504  1.00  0.00     0.173 A 
ATOM     64  C   UNL A   1      36.078  33.922  30.427  1.00  0.00     0.173 A 
ATOM     65  F   UNL A   1      37.586  32.322  33.315  1.00  0.00    -0.203 F 
ATOM     66  C   UNL A   1      35.547  33.405  33.088  1.00  0.00     0.198 A 
ATOM     67  C   UNL A   1      34.862  34.314  30.997  1.00  0.00     0.198 A 
ATOM     68  F   UNL A   1      36.314  34.316  29.167  1.00  0.00    -0.203 F 
ATOM     69  F   UNL A   1      35.322  33.179  34.390  1.00  0.00    -0.200 F 
ATOM     70  C   UNL A   1      34.594  34.050  32.326  1.00  0.00     0.200 A 
ATOM     71  F   UNL A   1      33.948  34.943  30.245  1.00  0.00    -0.200 F 
ATOM     72  F   UNL A   1      33.431  34.427  32.873  1.00  0.00    -0.200 F 
ENDBRANCH  48  62
BRANCH  49  73
ATOM     73  C   UNL A   1      44.829  28.482  27.823  1.00  0.00     0.064 A 
ATOM     74  C   UNL A   1      45.667  27.386  28.104  1.00  0.00     0.173 A 
ATOM     75  C   UNL A   1      44.034  28.412  26.672  1.00  0.00     0.173 A 
ATOM     76  F   UNL A   1      46.445  27.404  29.199  1.00  0.00    -0.203 F 
ATOM     77  C   UNL A   1      45.613  26.219  27.346  1.00  0.00     0.198 A 
ATOM     78  C   UNL A   1      43.992  27.242  25.908  1.00  0.00     0.198 A 
ATOM     79  F   UNL A   1      43.196  29.413  26.367  1.00  0.00    -0.203 F 
ATOM     80  F   UNL A   1      46.329  25.148  27.717  1.00  0.00    -0.200 F 
ATOM     81  C   UNL A   1      44.749  26.137  26.267  1.00  0.00     0.200 A 
ATOM     82  F   UNL A   1      43.134  27.150  24.880  1.00  0.00    -0.200 F 
ATOM     83  F   UNL A   1      44.612  24.980  25.605  1.00  0.00    -0.200 F 
ENDBRANCH  49  73
BRANCH  61  84
ATOM     84  C   UNL A   1      42.906  35.403  29.055  1.00  0.00     0.064 A 
ATOM     85  C   UNL A   1      42.182  35.989  28.006  1.00  0.00     0.173 A 
ATOM     86  C   UNL A   1      43.604  36.319  29.888  1.00  0.00     0.173 A 
ATOM     87  F   UNL A   1      41.388  35.261  27.211  1.00  0.00    -0.203 F 
ATOM     88  C   UNL A   1      42.195  37.370  27.775  1.00  0.00     0.198 A 
ATOM     89  C   UNL A   1      43.564  37.699  29.692  1.00  0.00     0.198 A 
ATOM     90  F   UNL A   1      44.326  35.910  30.942  1.00  0.00    -0.203 F 
ATOM     91  F   UNL A   1      41.516  37.872  26.735  1.00  0.00    -0.200 F 
ATOM     92  C   UNL A   1      42.871  38.224  28.625  1.00  0.00     0.200 A 
ATOM     93  F   UNL A   1      44.181  38.513  30.560  1.00  0.00    -0.200 F 
ATOM     94  F   UNL A   1      42.836  39.549  28.429  1.00  0.00    -0.200 F 
ENDBRANCH  61  84
ENDBRANCH  35  36
ENDBRANCH  27  30
ENDBRANCH  25  26
ENDBRANCH  24  25
ENDBRANCH  23  24
ENDBRANCH   1  23
TORSDOF 15
ENDMDL
