MODEL 1
REMARK VINA RESULT:     -11.4      0.000      0.000
REMARK SMILES CCC(CC)(NC(=O)CC1([NH3+])CCCC1)C(=O)NCCCCNC(=O)c1ccc(-c2c3nc(c(-c4c(F)c(F)c(F)c(F)c4F)c4ccc([nH]4)c(-c4c(F)c(F)c(F)c(F)c4F)c4nc(c(-c5c(F)c(F)c(F)c(F)c5F)c5ccc2[nH]5)C=C4)C=C3)cc1
REMARK SMILES IDX 19 1 18 2 16 3 17 4 3 6 2 7 1 8 4 9 5 10 6 11 7 12 8 14 9 15
REMARK SMILES IDX 10 16 12 17 15 18 13 19 14 20 11 21 20 25 21 26 22 27 23 28
REMARK SMILES IDX 24 29 25 31 26 32 27 33 88 34 28 35 87 36 29 37 30 38 31 39
REMARK SMILES IDX 81 40 32 41 86 42 80 43 82 44 33 45 85 46 79 47 78 48 34 50
REMARK SMILES IDX 66 51 46 52 65 53 47 54 50 55 64 56 83 57 48 58 49 59 63 61
REMARK SMILES IDX 84 62 51 63 35 64 36 65 44 66 37 67 38 68 42 69 45 70 39 71
REMARK SMILES IDX 40 72 43 73 41 74 67 75 68 76 76 77 69 78 70 79 74 80 77 81
REMARK SMILES IDX 71 82 72 83 75 84 73 85 52 86 53 87 61 88 54 89 55 90 59 91
REMARK SMILES IDX 62 92 56 93 57 94 60 95 58 96
REMARK H PARENT 18 5 6 13 11 22 11 23 11 24 23 30 82 49 50 60
REMARK Flexibility Score: inf
ROOT
ATOM      1  C   UNL A   1      36.548  22.319  25.459  1.00  0.00     0.116 C 
ENDROOT
BRANCH   1   2
ATOM      2  N   UNL A   1      35.687  21.744  26.486  1.00  0.00    -0.354 N 
ATOM      3  C   UNL A   1      34.382  22.003  26.840  1.00  0.00     0.245 C 
ATOM      4  O   UNL A   1      33.879  21.188  27.618  1.00  0.00    -0.272 OA
ATOM      5  H   UNL A   1      36.119  21.042  27.024  1.00  0.00     0.163 HD
BRANCH   3   6
ATOM      6  C   UNL A   1      33.567  23.147  26.145  1.00  0.00     0.118 C 
BRANCH   6   7
ATOM      7  C   UNL A   1      34.229  24.553  26.051  1.00  0.00     0.035 C 
ATOM      8  C   UNL A   1      34.300  25.224  24.688  1.00  0.00     0.007 C 
ENDBRANCH   6   7
BRANCH   6   9
ATOM      9  C   UNL A   1      32.281  23.262  27.041  1.00  0.00     0.035 C 
ATOM     10  C   UNL A   1      31.048  23.901  26.415  1.00  0.00     0.007 C 
ENDBRANCH   6   9
BRANCH   6  11
ATOM     11  N   UNL A   1      33.231  22.742  24.752  1.00  0.00    -0.342 N 
ATOM     12  C   UNL A   1      32.995  21.494  24.239  1.00  0.00     0.227 C 
ATOM     13  H   UNL A   1      33.170  23.482  24.104  1.00  0.00     0.164 HD
ATOM     14  O   UNL A   1      33.247  21.332  23.040  1.00  0.00    -0.275 OA
BRANCH  12  15
ATOM     15  C   UNL A   1      32.279  20.389  25.018  1.00  0.00     0.168 C 
BRANCH  15  16
ATOM     16  C   UNL A   1      32.920  19.005  25.110  1.00  0.00     0.103 C 
ATOM     17  C   UNL A   1      32.245  18.005  24.150  1.00  0.00     0.069 C 
ATOM     18  C   UNL A   1      34.368  18.971  24.612  1.00  0.00     0.069 C 
ATOM     19  C   UNL A   1      33.248  16.860  24.049  1.00  0.00     0.007 C 
ATOM     20  C   UNL A   1      34.619  17.531  24.151  1.00  0.00     0.007 C 
BRANCH  16  21
ATOM     21  N   UNL A   1      32.819  18.462  26.462  1.00  0.00    -0.352 N 
ATOM     22  H   UNL A   1      31.876  18.102  26.615  1.00  0.00     0.344 HD
ATOM     23  H   UNL A   1      33.015  19.199  27.140  1.00  0.00     0.344 HD
ATOM     24  H   UNL A   1      33.494  17.706  26.577  1.00  0.00     0.344 HD
ENDBRANCH  16  21
ENDBRANCH  15  16
ENDBRANCH  12  15
ENDBRANCH   6  11
ENDBRANCH   3   6
ENDBRANCH   1   2
BRANCH   1  25
ATOM     25  C   UNL A   1      37.068  21.334  24.410  1.00  0.00     0.023 C 
BRANCH  25  26
ATOM     26  C   UNL A   1      37.847  20.137  24.946  1.00  0.00     0.023 C 
BRANCH  26  27
ATOM     27  C   UNL A   1      39.014  20.498  25.847  1.00  0.00     0.116 C 
BRANCH  27  28
ATOM     28  N   UNL A   1      40.010  19.440  25.917  1.00  0.00    -0.352 N 
ATOM     29  C   UNL A   1      41.358  19.531  26.138  1.00  0.00     0.251 C 
ATOM     30  H   UNL A   1      39.665  18.527  25.788  1.00  0.00     0.163 HD
ATOM     31  O   UNL A   1      42.079  18.549  25.989  1.00  0.00    -0.269 OA
BRANCH  29  32
ATOM     32  C   UNL A   1      41.943  20.827  26.533  1.00  0.00     0.039 A 
ATOM     33  C   UNL A   1      42.296  21.740  25.539  1.00  0.00     0.014 A 
ATOM     34  C   UNL A   1      42.122  21.142  27.883  1.00  0.00     0.014 A 
ATOM     35  C   UNL A   1      42.779  22.996  25.903  1.00  0.00     0.010 A 
ATOM     36  C   UNL A   1      42.510  22.425  28.244  1.00  0.00     0.010 A 
ATOM     37  C   UNL A   1      42.857  23.360  27.257  1.00  0.00    -0.014 A 
BRANCH  37  38
ATOM     38  C   UNL A   1      43.318  24.708  27.666  1.00  0.00     0.031 A 
ATOM     39  C   UNL A   1      42.311  25.764  28.028  1.00  0.00     0.074 A 
ATOM     40  C   UNL A   1      44.634  24.994  27.653  1.00  0.00     0.049 A 
ATOM     41  N   UNL A   1      42.505  27.017  28.352  1.00  0.00    -0.248 NA
ATOM     42  C   UNL A   1      40.894  25.369  27.991  1.00  0.00     0.031 C 
ATOM     43  C   UNL A   1      45.699  24.063  27.272  1.00  0.00     0.029 A 
ATOM     44  N   UNL A   1      45.301  26.153  27.961  1.00  0.00    -0.354 N 
ATOM     45  C   UNL A   1      41.240  27.559  28.538  1.00  0.00     0.074 A 
ATOM     46  C   UNL A   1      40.285  26.520  28.232  1.00  0.00     0.031 C 
ATOM     47  C   UNL A   1      46.886  24.677  27.400  1.00  0.00     0.029 A 
ATOM     48  C   UNL A   1      46.664  26.055  27.828  1.00  0.00     0.049 A 
ATOM     49  H   UNL A   1      44.845  26.976  28.251  1.00  0.00     0.167 HD
ATOM     50  C   UNL A   1      40.910  28.804  28.954  1.00  0.00     0.037 A 
ATOM     51  C   UNL A   1      47.625  26.978  28.023  1.00  0.00     0.037 A 
ATOM     52  C   UNL A   1      41.871  29.822  29.282  1.00  0.00     0.049 A 
ATOM     53  C   UNL A   1      47.227  28.359  28.472  1.00  0.00     0.074 A 
ATOM     54  C   UNL A   1      41.645  31.094  29.776  1.00  0.00     0.029 A 
ATOM     55  N   UNL A   1      43.245  29.685  29.144  1.00  0.00    -0.354 N 
ATOM     56  N   UNL A   1      46.032  28.837  28.721  1.00  0.00    -0.248 NA
ATOM     57  C   UNL A   1      48.314  29.326  28.674  1.00  0.00     0.031 C 
ATOM     58  C   UNL A   1      42.877  31.748  29.879  1.00  0.00     0.029 A 
ATOM     59  C   UNL A   1      43.877  30.861  29.514  1.00  0.00     0.049 A 
ATOM     60  H   UNL A   1      43.702  28.872  28.829  1.00  0.00     0.167 HD
ATOM     61  C   UNL A   1      46.224  30.147  29.140  1.00  0.00     0.074 A 
ATOM     62  C   UNL A   1      47.653  30.381  29.126  1.00  0.00     0.031 C 
ATOM     63  C   UNL A   1      45.302  31.072  29.504  1.00  0.00     0.037 A 
BRANCH  50  64
ATOM     64  C   UNL A   1      39.449  29.133  29.076  1.00  0.00     0.064 A 
ATOM     65  C   UNL A   1      38.686  29.533  27.968  1.00  0.00     0.173 A 
ATOM     66  C   UNL A   1      38.795  29.013  30.311  1.00  0.00     0.173 A 
ATOM     67  F   UNL A   1      39.262  29.676  26.766  1.00  0.00    -0.203 F 
ATOM     68  C   UNL A   1      37.331  29.830  28.100  1.00  0.00     0.198 A 
ATOM     69  C   UNL A   1      37.433  29.277  30.432  1.00  0.00     0.198 A 
ATOM     70  F   UNL A   1      39.476  28.631  31.403  1.00  0.00    -0.203 F 
ATOM     71  F   UNL A   1      36.636  30.262  27.038  1.00  0.00    -0.200 F 
ATOM     72  C   UNL A   1      36.704  29.694  29.328  1.00  0.00     0.200 A 
ATOM     73  F   UNL A   1      36.826  29.130  31.618  1.00  0.00    -0.200 F 
ATOM     74  F   UNL A   1      35.398  29.969  29.452  1.00  0.00    -0.200 F 
ENDBRANCH  50  64
BRANCH  51  75
ATOM     75  C   UNL A   1      49.054  26.623  27.819  1.00  0.00     0.064 A 
ATOM     76  C   UNL A   1      49.614  26.598  26.533  1.00  0.00     0.173 A 
ATOM     77  C   UNL A   1      49.887  26.292  28.898  1.00  0.00     0.173 A 
ATOM     78  F   UNL A   1      48.854  26.890  25.467  1.00  0.00    -0.203 F 
ATOM     79  C   UNL A   1      50.942  26.228  26.332  1.00  0.00     0.198 A 
ATOM     80  C   UNL A   1      51.225  25.953  28.698  1.00  0.00     0.198 A 
ATOM     81  F   UNL A   1      49.405  26.307  30.149  1.00  0.00    -0.203 F 
ATOM     82  F   UNL A   1      51.433  26.159  25.088  1.00  0.00    -0.200 F 
ATOM     83  C   UNL A   1      51.748  25.910  27.414  1.00  0.00     0.200 A 
ATOM     84  F   UNL A   1      52.004  25.664  29.749  1.00  0.00    -0.200 F 
ATOM     85  F   UNL A   1      53.025  25.556  27.221  1.00  0.00    -0.200 F 
ENDBRANCH  51  75
BRANCH  63  86
ATOM     86  C   UNL A   1      45.811  32.409  29.959  1.00  0.00     0.064 A 
ATOM     87  C   UNL A   1      45.943  33.491  29.075  1.00  0.00     0.173 A 
ATOM     88  C   UNL A   1      46.132  32.622  31.308  1.00  0.00     0.173 A 
ATOM     89  F   UNL A   1      45.663  33.337  27.772  1.00  0.00    -0.203 F 
ATOM     90  C   UNL A   1      46.405  34.726  29.520  1.00  0.00     0.198 A 
ATOM     91  C   UNL A   1      46.559  33.869  31.757  1.00  0.00     0.198 A 
ATOM     92  F   UNL A   1      46.015  31.623  32.197  1.00  0.00    -0.203 F 
ATOM     93  F   UNL A   1      46.576  35.730  28.648  1.00  0.00    -0.200 F 
ATOM     94  C   UNL A   1      46.705  34.916  30.861  1.00  0.00     0.200 A 
ATOM     95  F   UNL A   1      46.830  34.054  33.056  1.00  0.00    -0.200 F 
ATOM     96  F   UNL A   1      47.140  36.109  31.290  1.00  0.00    -0.200 F 
ENDBRANCH  63  86
ENDBRANCH  37  38
ENDBRANCH  29  32
ENDBRANCH  27  28
ENDBRANCH  26  27
ENDBRANCH  25  26
ENDBRANCH   1  25
TORSDOF 17
ENDMDL
MODEL 2
REMARK VINA RESULT:     -11.3      0.916      7.425
REMARK SMILES CCC(CC)(NC(=O)CC1([NH3+])CCCC1)C(=O)NCCCCNC(=O)c1ccc(-c2c3nc(c(-c4c(F)c(F)c(F)c(F)c4F)c4ccc([nH]4)c(-c4c(F)c(F)c(F)c(F)c4F)c4nc(c(-c5c(F)c(F)c(F)c(F)c5F)c5ccc2[nH]5)C=C4)C=C3)cc1
REMARK SMILES IDX 19 1 18 2 16 3 17 4 3 6 2 7 1 8 4 9 5 10 6 11 7 12 8 14 9 15
REMARK SMILES IDX 10 16 12 17 15 18 13 19 14 20 11 21 20 25 21 26 22 27 23 28
REMARK SMILES IDX 24 29 25 31 26 32 27 33 88 34 28 35 87 36 29 37 30 38 31 39
REMARK SMILES IDX 81 40 32 41 86 42 80 43 82 44 33 45 85 46 79 47 78 48 34 50
REMARK SMILES IDX 66 51 46 52 65 53 47 54 50 55 64 56 83 57 48 58 49 59 63 61
REMARK SMILES IDX 84 62 51 63 35 64 36 65 44 66 37 67 38 68 42 69 45 70 39 71
REMARK SMILES IDX 40 72 43 73 41 74 67 75 68 76 76 77 69 78 70 79 74 80 77 81
REMARK SMILES IDX 71 82 72 83 75 84 73 85 52 86 53 87 61 88 54 89 55 90 59 91
REMARK SMILES IDX 62 92 56 93 57 94 60 95 58 96
REMARK H PARENT 18 5 6 13 11 22 11 23 11 24 23 30 82 49 50 60
REMARK Flexibility Score: inf
ROOT
ATOM      1  C   UNL A   1      36.481  22.181  25.471  1.00  0.00     0.116 C 
ENDROOT
BRANCH   1   2
ATOM      2  N   UNL A   1      35.625  21.615  26.507  1.00  0.00    -0.354 N 
ATOM      3  C   UNL A   1      34.325  21.885  26.873  1.00  0.00     0.245 C 
ATOM      4  O   UNL A   1      33.823  21.076  27.657  1.00  0.00    -0.272 OA
ATOM      5  H   UNL A   1      36.056  20.910  27.043  1.00  0.00     0.163 HD
BRANCH   3   6
ATOM      6  C   UNL A   1      33.513  23.034  26.183  1.00  0.00     0.118 C 
BRANCH   6   7
ATOM      7  C   UNL A   1      34.163  24.448  26.128  1.00  0.00     0.035 C 
ATOM      8  C   UNL A   1      34.379  25.087  24.765  1.00  0.00     0.007 C 
ENDBRANCH   6   7
BRANCH   6   9
ATOM      9  C   UNL A   1      32.208  23.120  27.055  1.00  0.00     0.035 C 
ATOM     10  C   UNL A   1      30.948  23.642  26.378  1.00  0.00     0.007 C 
ENDBRANCH   6   9
BRANCH   6  11
ATOM     11  N   UNL A   1      33.209  22.653  24.776  1.00  0.00    -0.342 N 
ATOM     12  C   UNL A   1      32.983  21.413  24.238  1.00  0.00     0.227 C 
ATOM     13  H   UNL A   1      33.164  23.402  24.139  1.00  0.00     0.164 HD
ATOM     14  O   UNL A   1      33.263  21.269  23.042  1.00  0.00    -0.275 OA
BRANCH  12  15
ATOM     15  C   UNL A   1      32.248  20.296  24.982  1.00  0.00     0.168 C 
BRANCH  15  16
ATOM     16  C   UNL A   1      32.916  18.930  25.127  1.00  0.00     0.103 C 
ATOM     17  C   UNL A   1      32.255  17.878  24.215  1.00  0.00     0.069 C 
ATOM     18  C   UNL A   1      34.362  18.903  24.621  1.00  0.00     0.069 C 
ATOM     19  C   UNL A   1      33.280  16.749  24.155  1.00  0.00     0.007 C 
ATOM     20  C   UNL A   1      34.637  17.450  24.219  1.00  0.00     0.007 C 
BRANCH  16  21
ATOM     21  N   UNL A   1      32.834  18.443  26.502  1.00  0.00    -0.352 N 
ATOM     22  H   UNL A   1      32.490  19.188  27.107  1.00  0.00     0.344 HD
ATOM     23  H   UNL A   1      33.761  18.152  26.815  1.00  0.00     0.344 HD
ATOM     24  H   UNL A   1      32.196  17.648  26.544  1.00  0.00     0.344 HD
ENDBRANCH  16  21
ENDBRANCH  15  16
ENDBRANCH  12  15
ENDBRANCH   6  11
ENDBRANCH   3   6
ENDBRANCH   1   2
BRANCH   1  25
ATOM     25  C   UNL A   1      37.009  21.183  24.438  1.00  0.00     0.023 C 
BRANCH  25  26
ATOM     26  C   UNL A   1      37.850  20.034  24.987  1.00  0.00     0.023 C 
BRANCH  26  27
ATOM     27  C   UNL A   1      38.981  20.466  25.903  1.00  0.00     0.116 C 
BRANCH  27  28
ATOM     28  N   UNL A   1      40.034  19.466  25.994  1.00  0.00    -0.352 N 
ATOM     29  C   UNL A   1      41.383  19.639  26.150  1.00  0.00     0.251 C 
ATOM     30  H   UNL A   1      39.733  18.530  25.936  1.00  0.00     0.163 HD
ATOM     31  O   UNL A   1      42.149  18.687  26.030  1.00  0.00    -0.269 OA
BRANCH  29  32
ATOM     32  C   UNL A   1      41.913  20.985  26.440  1.00  0.00     0.039 A 
ATOM     33  C   UNL A   1      42.198  21.842  25.376  1.00  0.00     0.014 A 
ATOM     34  C   UNL A   1      42.108  21.402  27.759  1.00  0.00     0.014 A 
ATOM     35  C   UNL A   1      42.629  23.142  25.640  1.00  0.00     0.010 A 
ATOM     36  C   UNL A   1      42.441  22.724  28.021  1.00  0.00     0.010 A 
ATOM     37  C   UNL A   1      42.720  23.603  26.964  1.00  0.00    -0.014 A 
BRANCH  37  38
ATOM     38  C   UNL A   1      43.124  24.996  27.267  1.00  0.00     0.031 A 
ATOM     39  C   UNL A   1      44.531  25.443  26.989  1.00  0.00     0.074 A 
ATOM     40  C   UNL A   1      42.242  25.834  27.845  1.00  0.00     0.049 A 
ATOM     41  N   UNL A   1      45.098  26.596  27.237  1.00  0.00    -0.248 NA
ATOM     42  C   UNL A   1      45.433  24.454  26.378  1.00  0.00     0.031 C 
ATOM     43  C   UNL A   1      40.864  25.494  28.206  1.00  0.00     0.029 A 
ATOM     44  N   UNL A   1      42.375  27.141  28.239  1.00  0.00    -0.354 N 
ATOM     45  C   UNL A   1      46.419  26.463  26.831  1.00  0.00     0.074 A 
ATOM     46  C   UNL A   1      46.588  25.101  26.378  1.00  0.00     0.031 C 
ATOM     47  C   UNL A   1      40.270  26.575  28.737  1.00  0.00     0.029 A 
ATOM     48  C   UNL A   1      41.236  27.667  28.796  1.00  0.00     0.049 A 
ATOM     49  H   UNL A   1      43.209  27.654  28.130  1.00  0.00     0.167 HD
ATOM     50  C   UNL A   1      47.395  27.401  26.813  1.00  0.00     0.037 A 
ATOM     51  C   UNL A   1      41.002  28.892  29.304  1.00  0.00     0.037 A 
ATOM     52  C   UNL A   1      47.208  28.761  27.241  1.00  0.00     0.049 A 
ATOM     53  C   UNL A   1      42.110  29.912  29.283  1.00  0.00     0.074 A 
ATOM     54  C   UNL A   1      48.110  29.809  27.202  1.00  0.00     0.029 A 
ATOM     55  N   UNL A   1      46.037  29.262  27.792  1.00  0.00    -0.354 N 
ATOM     56  N   UNL A   1      43.332  29.798  28.824  1.00  0.00    -0.248 NA
ATOM     57  C   UNL A   1      41.801  31.233  29.845  1.00  0.00     0.031 C 
ATOM     58  C   UNL A   1      47.506  30.927  27.785  1.00  0.00     0.029 A 
ATOM     59  C   UNL A   1      46.204  30.596  28.126  1.00  0.00     0.049 A 
ATOM     60  H   UNL A   1      45.210  28.745  27.926  1.00  0.00     0.167 HD
ATOM     61  C   UNL A   1      43.928  31.039  29.010  1.00  0.00     0.074 A 
ATOM     62  C   UNL A   1      42.925  31.894  29.610  1.00  0.00     0.031 C 
ATOM     63  C   UNL A   1      45.190  31.434  28.713  1.00  0.00     0.037 A 
BRANCH  50  64
ATOM     64  C   UNL A   1      48.751  26.988  26.316  1.00  0.00     0.064 A 
ATOM     65  C   UNL A   1      49.717  26.439  27.172  1.00  0.00     0.173 A 
ATOM     66  C   UNL A   1      49.076  27.110  24.956  1.00  0.00     0.173 A 
ATOM     67  F   UNL A   1      49.465  26.310  28.483  1.00  0.00    -0.203 F 
ATOM     68  C   UNL A   1      50.968  26.056  26.692  1.00  0.00     0.198 A 
ATOM     69  C   UNL A   1      50.314  26.695  24.474  1.00  0.00     0.198 A 
ATOM     70  F   UNL A   1      48.188  27.625  24.091  1.00  0.00    -0.203 F 
ATOM     71  F   UNL A   1      51.893  25.585  27.540  1.00  0.00    -0.200 F 
ATOM     72  C   UNL A   1      51.263  26.177  25.343  1.00  0.00     0.200 A 
ATOM     73  F   UNL A   1      50.591  26.798  23.166  1.00  0.00    -0.200 F 
ATOM     74  F   UNL A   1      52.463  25.799  24.880  1.00  0.00    -0.200 F 
ENDBRANCH  50  64
BRANCH  51  75
ATOM     75  C   UNL A   1      39.662  29.231  29.851  1.00  0.00     0.064 A 
ATOM     76  C   UNL A   1      39.376  29.059  31.214  1.00  0.00     0.173 A 
ATOM     77  C   UNL A   1      38.638  29.722  29.028  1.00  0.00     0.173 A 
ATOM     78  F   UNL A   1      40.317  28.577  32.039  1.00  0.00    -0.203 F 
ATOM     79  C   UNL A   1      38.110  29.338  31.725  1.00  0.00     0.198 A 
ATOM     80  C   UNL A   1      37.382  30.031  29.548  1.00  0.00     0.198 A 
ATOM     81  F   UNL A   1      38.859  29.912  27.719  1.00  0.00    -0.203 F 
ATOM     82  F   UNL A   1      37.851  29.111  33.020  1.00  0.00    -0.200 F 
ATOM     83  C   UNL A   1      37.115  29.827  30.894  1.00  0.00     0.200 A 
ATOM     84  F   UNL A   1      36.429  30.520  28.743  1.00  0.00    -0.200 F 
ATOM     85  F   UNL A   1      35.899  30.096  31.386  1.00  0.00    -0.200 F 
ENDBRANCH  51  75
BRANCH  63  86
ATOM     86  C   UNL A   1      45.546  32.867  28.989  1.00  0.00     0.064 A 
ATOM     87  C   UNL A   1      45.259  33.891  28.074  1.00  0.00     0.173 A 
ATOM     88  C   UNL A   1      46.144  33.224  30.208  1.00  0.00     0.173 A 
ATOM     89  F   UNL A   1      44.701  33.601  26.890  1.00  0.00    -0.203 F 
ATOM     90  C   UNL A   1      45.587  35.214  28.356  1.00  0.00     0.198 A 
ATOM     91  C   UNL A   1      46.437  34.553  30.501  1.00  0.00     0.198 A 
ATOM     92  F   UNL A   1      46.431  32.285  31.122  1.00  0.00    -0.203 F 
ATOM     93  F   UNL A   1      45.354  36.169  27.444  1.00  0.00    -0.200 F 
ATOM     94  C   UNL A   1      46.167  35.545  29.571  1.00  0.00     0.200 A 
ATOM     95  F   UNL A   1      46.981  34.872  31.684  1.00  0.00    -0.200 F 
ATOM     96  F   UNL A   1      46.472  36.821  29.846  1.00  0.00    -0.200 F 
ENDBRANCH  63  86
ENDBRANCH  37  38
ENDBRANCH  29  32
ENDBRANCH  27  28
ENDBRANCH  26  27
ENDBRANCH  25  26
ENDBRANCH   1  25
TORSDOF 17
ENDMDL
MODEL 3
REMARK VINA RESULT:     -11.3      5.786     10.613
REMARK SMILES CCC(CC)(NC(=O)CC1([NH3+])CCCC1)C(=O)NCCCCNC(=O)c1ccc(-c2c3nc(c(-c4c(F)c(F)c(F)c(F)c4F)c4ccc([nH]4)c(-c4c(F)c(F)c(F)c(F)c4F)c4nc(c(-c5c(F)c(F)c(F)c(F)c5F)c5ccc2[nH]5)C=C4)C=C3)cc1
REMARK SMILES IDX 19 1 18 2 16 3 17 4 3 6 2 7 1 8 4 9 5 10 6 11 7 12 8 14 9 15
REMARK SMILES IDX 10 16 12 17 15 18 13 19 14 20 11 21 20 25 21 26 22 27 23 28
REMARK SMILES IDX 24 29 25 31 26 32 27 33 88 34 28 35 87 36 29 37 30 38 31 39
REMARK SMILES IDX 81 40 32 41 86 42 80 43 82 44 33 45 85 46 79 47 78 48 34 50
REMARK SMILES IDX 66 51 46 52 65 53 47 54 50 55 64 56 83 57 48 58 49 59 63 61
REMARK SMILES IDX 84 62 51 63 35 64 36 65 44 66 37 67 38 68 42 69 45 70 39 71
REMARK SMILES IDX 40 72 43 73 41 74 67 75 68 76 76 77 69 78 70 79 74 80 77 81
REMARK SMILES IDX 71 82 72 83 75 84 73 85 52 86 53 87 61 88 54 89 55 90 59 91
REMARK SMILES IDX 62 92 56 93 57 94 60 95 58 96
REMARK H PARENT 18 5 6 13 11 22 11 23 11 24 23 30 82 49 50 60
REMARK Flexibility Score: inf
ROOT
ATOM      1  C   UNL A   1      31.341  29.948  25.342  1.00  0.00     0.116 C 
ENDROOT
BRANCH   1   2
ATOM      2  N   UNL A   1      32.425  29.684  24.401  1.00  0.00    -0.354 N 
ATOM      3  C   UNL A   1      32.518  28.832  23.324  1.00  0.00     0.245 C 
ATOM      4  O   UNL A   1      33.505  29.004  22.605  1.00  0.00    -0.272 OA
ATOM      5  H   UNL A   1      33.238  30.212  24.569  1.00  0.00     0.163 HD
BRANCH   3   6
ATOM      6  C   UNL A   1      31.347  27.855  22.962  1.00  0.00     0.118 C 
BRANCH   6   7
ATOM      7  C   UNL A   1      29.995  28.482  22.510  1.00  0.00     0.035 C 
ATOM      8  C   UNL A   1      30.018  29.871  21.891  1.00  0.00     0.007 C 
ENDBRANCH   6   7
BRANCH   6   9
ATOM      9  C   UNL A   1      31.108  27.073  24.304  1.00  0.00     0.035 C 
ATOM     10  C   UNL A   1      29.755  26.398  24.489  1.00  0.00     0.007 C 
ENDBRANCH   6   9
BRANCH   6  11
ATOM     11  N   UNL A   1      31.779  26.946  21.865  1.00  0.00    -0.342 N 
ATOM     12  C   UNL A   1      32.833  26.071  21.823  1.00  0.00     0.227 C 
ATOM     13  H   UNL A   1      31.227  26.980  21.051  1.00  0.00     0.164 HD
ATOM     14  O   UNL A   1      33.303  25.825  20.706  1.00  0.00    -0.275 OA
BRANCH  12  15
ATOM     15  C   UNL A   1      33.307  25.269  23.037  1.00  0.00     0.168 C 
BRANCH  15  16
ATOM     16  C   UNL A   1      32.994  23.776  23.115  1.00  0.00     0.103 C 
ATOM     17  C   UNL A   1      34.218  22.966  23.586  1.00  0.00     0.069 C 
ATOM     18  C   UNL A   1      31.966  23.425  24.195  1.00  0.00     0.069 C 
ATOM     19  C   UNL A   1      33.628  21.627  24.016  1.00  0.00     0.007 C 
ATOM     20  C   UNL A   1      32.252  21.973  24.589  1.00  0.00     0.007 C 
BRANCH  16  21
ATOM     21  N   UNL A   1      32.585  23.252  21.814  1.00  0.00    -0.352 N 
ATOM     22  H   UNL A   1      33.414  23.009  21.269  1.00  0.00     0.344 HD
ATOM     23  H   UNL A   1      32.047  23.961  21.316  1.00  0.00     0.344 HD
ATOM     24  H   UNL A   1      32.011  22.420  21.948  1.00  0.00     0.344 HD
ENDBRANCH  16  21
ENDBRANCH  15  16
ENDBRANCH  12  15
ENDBRANCH   6  11
ENDBRANCH   3   6
ENDBRANCH   1   2
BRANCH   1  25
ATOM     25  C   UNL A   1      31.763  30.592  26.665  1.00  0.00     0.023 C 
BRANCH  25  26
ATOM     26  C   UNL A   1      31.553  32.099  26.772  1.00  0.00     0.023 C 
BRANCH  26  27
ATOM     27  C   UNL A   1      32.793  32.879  27.171  1.00  0.00     0.116 C 
BRANCH  27  28
ATOM     28  N   UNL A   1      32.483  34.236  27.594  1.00  0.00    -0.352 N 
ATOM     29  C   UNL A   1      33.003  34.960  28.633  1.00  0.00     0.251 C 
ATOM     30  H   UNL A   1      31.802  34.700  27.055  1.00  0.00     0.163 HD
ATOM     31  O   UNL A   1      32.498  36.032  28.956  1.00  0.00    -0.269 OA
BRANCH  29  32
ATOM     32  C   UNL A   1      34.160  34.431  29.379  1.00  0.00     0.039 A 
ATOM     33  C   UNL A   1      33.937  33.744  30.574  1.00  0.00     0.014 A 
ATOM     34  C   UNL A   1      35.457  34.596  28.887  1.00  0.00     0.014 A 
ATOM     35  C   UNL A   1      35.016  33.175  31.249  1.00  0.00     0.010 A 
ATOM     36  C   UNL A   1      36.516  33.947  29.507  1.00  0.00     0.010 A 
ATOM     37  C   UNL A   1      36.309  33.243  30.702  1.00  0.00    -0.014 A 
BRANCH  37  38
ATOM     38  C   UNL A   1      37.463  32.600  31.374  1.00  0.00     0.031 A 
ATOM     39  C   UNL A   1      38.182  31.465  30.702  1.00  0.00     0.074 A 
ATOM     40  C   UNL A   1      37.820  32.999  32.610  1.00  0.00     0.049 A 
ATOM     41  N   UNL A   1      39.171  30.732  31.146  1.00  0.00    -0.248 NA
ATOM     42  C   UNL A   1      37.708  31.080  29.363  1.00  0.00     0.031 C 
ATOM     43  C   UNL A   1      37.163  34.058  33.381  1.00  0.00     0.029 A 
ATOM     44  N   UNL A   1      38.820  32.557  33.439  1.00  0.00    -0.354 N 
ATOM     45  C   UNL A   1      39.422  29.795  30.152  1.00  0.00     0.074 A 
ATOM     46  C   UNL A   1      38.444  30.009  29.111  1.00  0.00     0.031 C 
ATOM     47  C   UNL A   1      37.797  34.204  34.555  1.00  0.00     0.029 A 
ATOM     48  C   UNL A   1      38.874  33.223  34.639  1.00  0.00     0.049 A 
ATOM     49  H   UNL A   1      39.439  31.832  33.196  1.00  0.00     0.167 HD
ATOM     50  C   UNL A   1      40.398  28.858  30.104  1.00  0.00     0.037 A 
ATOM     51  C   UNL A   1      39.697  33.053  35.691  1.00  0.00     0.037 A 
ATOM     52  C   UNL A   1      41.383  28.672  31.135  1.00  0.00     0.049 A 
ATOM     53  C   UNL A   1      40.766  31.994  35.615  1.00  0.00     0.074 A 
ATOM     54  C   UNL A   1      42.454  27.797  31.156  1.00  0.00     0.029 A 
ATOM     55  N   UNL A   1      41.413  29.370  32.334  1.00  0.00    -0.354 N 
ATOM     56  N   UNL A   1      41.043  31.166  34.638  1.00  0.00    -0.248 NA
ATOM     57  C   UNL A   1      41.639  31.852  36.787  1.00  0.00     0.031 C 
ATOM     58  C   UNL A   1      43.097  27.924  32.392  1.00  0.00     0.029 A 
ATOM     59  C   UNL A   1      42.468  28.925  33.115  1.00  0.00     0.049 A 
ATOM     60  H   UNL A   1      40.779  30.079  32.591  1.00  0.00     0.167 HD
ATOM     61  C   UNL A   1      42.141  30.429  35.062  1.00  0.00     0.074 A 
ATOM     62  C   UNL A   1      42.488  30.921  36.379  1.00  0.00     0.031 C 
ATOM     63  C   UNL A   1      42.803  29.435  34.419  1.00  0.00     0.037 A 
BRANCH  50  64
ATOM     64  C   UNL A   1      40.447  27.964  28.899  1.00  0.00     0.064 A 
ATOM     65  C   UNL A   1      41.221  28.281  27.772  1.00  0.00     0.173 A 
ATOM     66  C   UNL A   1      39.737  26.753  28.883  1.00  0.00     0.173 A 
ATOM     67  F   UNL A   1      41.910  29.432  27.728  1.00  0.00    -0.203 F 
ATOM     68  C   UNL A   1      41.258  27.437  26.665  1.00  0.00     0.198 A 
ATOM     69  C   UNL A   1      39.804  25.895  27.789  1.00  0.00     0.198 A 
ATOM     70  F   UNL A   1      38.983  26.397  29.935  1.00  0.00    -0.203 F 
ATOM     71  F   UNL A   1      41.962  27.789  25.580  1.00  0.00    -0.200 F 
ATOM     72  C   UNL A   1      40.557  26.241  26.677  1.00  0.00     0.200 A 
ATOM     73  F   UNL A   1      39.137  24.732  27.809  1.00  0.00    -0.200 F 
ATOM     74  F   UNL A   1      40.602  25.424  25.615  1.00  0.00    -0.200 F 
ENDBRANCH  50  64
BRANCH  51  75
ATOM     75  C   UNL A   1      39.563  33.917  36.893  1.00  0.00     0.064 A 
ATOM     76  C   UNL A   1      38.811  33.497  38.001  1.00  0.00     0.173 A 
ATOM     77  C   UNL A   1      40.169  35.180  36.958  1.00  0.00     0.173 A 
ATOM     78  F   UNL A   1      38.198  32.305  37.981  1.00  0.00    -0.203 F 
ATOM     79  C   UNL A   1      38.649  34.319  39.114  1.00  0.00     0.198 A 
ATOM     80  C   UNL A   1      40.032  35.988  38.086  1.00  0.00     0.198 A 
ATOM     81  F   UNL A   1      40.904  35.627  35.930  1.00  0.00    -0.203 F 
ATOM     82  F   UNL A   1      37.880  33.915  40.134  1.00  0.00    -0.200 F 
ATOM     83  C   UNL A   1      39.262  35.561  39.159  1.00  0.00     0.200 A 
ATOM     84  F   UNL A   1      40.642  37.180  38.131  1.00  0.00    -0.200 F 
ATOM     85  F   UNL A   1      39.107  36.351  40.229  1.00  0.00    -0.200 F 
ENDBRANCH  51  75
BRANCH  63  86
ATOM     86  C   UNL A   1      43.997  28.843  35.112  1.00  0.00     0.064 A 
ATOM     87  C   UNL A   1      45.290  29.354  34.927  1.00  0.00     0.173 A 
ATOM     88  C   UNL A   1      43.836  27.774  36.008  1.00  0.00     0.173 A 
ATOM     89  F   UNL A   1      45.499  30.366  34.071  1.00  0.00    -0.203 F 
ATOM     90  C   UNL A   1      46.381  28.798  35.588  1.00  0.00     0.198 A 
ATOM     91  C   UNL A   1      44.924  27.244  36.695  1.00  0.00     0.198 A 
ATOM     92  F   UNL A   1      42.619  27.253  36.228  1.00  0.00    -0.203 F 
ATOM     93  F   UNL A   1      47.614  29.267  35.354  1.00  0.00    -0.200 F 
ATOM     94  C   UNL A   1      46.197  27.750  36.478  1.00  0.00     0.200 A 
ATOM     95  F   UNL A   1      44.741  26.244  37.568  1.00  0.00    -0.200 F 
ATOM     96  F   UNL A   1      47.247  27.222  37.122  1.00  0.00    -0.200 F 
ENDBRANCH  63  86
ENDBRANCH  37  38
ENDBRANCH  29  32
ENDBRANCH  27  28
ENDBRANCH  26  27
ENDBRANCH  25  26
ENDBRANCH   1  25
TORSDOF 17
ENDMDL
