MODEL 1
REMARK VINA RESULT:     -13.1      0.000      0.000
REMARK SMILES O=C(CCC(=O)N1CCC[C@@]2(CCC(=O)N(Cc3ccncc3)C2)C1)NCCCCNC(=O)c1ccc(-c2c3nc(c(-c4c(F)c(F)c(F)c(F)c4F)c4ccc([nH]4)c(-c4c(F)c(F)c(F)c(F)c4F)c4nc(c(-c5c(F)c(F)c(F)c(F)c5F)c5ccc2[nH]5)C=C4)C=C3)cc1
REMARK SMILES IDX 27 1 26 2 1 3 2 4 3 6 4 7 5 8 6 9 7 10 8 11 25 12 9 13 11 14
REMARK SMILES IDX 10 15 12 16 24 17 13 18 16 19 14 20 15 21 17 22 18 23 19 24
REMARK SMILES IDX 23 25 20 26 22 27 21 28 28 29 29 30 30 31 31 32 32 33 33 35
REMARK SMILES IDX 34 36 35 37 96 38 36 39 95 40 37 41 38 42 39 43 89 44 40 45
REMARK SMILES IDX 94 46 88 47 90 48 41 49 93 50 87 51 86 52 42 54 74 55 54 56
REMARK SMILES IDX 73 57 55 58 58 59 72 60 91 61 56 62 57 63 71 65 92 66 59 67
REMARK SMILES IDX 43 68 44 69 52 70 45 71 46 72 50 73 53 74 47 75 48 76 51 77
REMARK SMILES IDX 49 78 75 79 76 80 84 81 77 82 78 83 82 84 85 85 79 86 80 87
REMARK SMILES IDX 83 88 81 89 60 90 61 91 69 92 62 93 63 94 67 95 70 96 64 97
REMARK SMILES IDX 65 98 68 99 66 100
REMARK H PARENT 26 5 31 34 90 53 58 64
REMARK Flexibility Score: inf
ROOT
ATOM      1  C   UNL A   1      31.938  30.100  26.978  1.00  0.00     0.116 C 
ENDROOT
BRANCH   1   2
ATOM      2  N   UNL A   1      32.067  28.748  26.469  1.00  0.00    -0.356 N 
ATOM      3  O   UNL A   1      34.257  28.479  27.105  1.00  0.00    -0.275 OA
ATOM      4  C   UNL A   1      33.234  28.029  26.601  1.00  0.00     0.220 C 
ATOM      5  H   UNL A   1      31.297  28.333  26.017  1.00  0.00     0.163 HD
BRANCH   4   6
ATOM      6  C   UNL A   1      33.136  26.597  26.123  1.00  0.00     0.110 C 
BRANCH   6   7
ATOM      7  C   UNL A   1      31.963  26.420  25.172  1.00  0.00     0.110 C 
BRANCH   7   8
ATOM      8  C   UNL A   1      31.010  25.315  25.612  1.00  0.00     0.223 C 
ATOM      9  O   UNL A   1      30.229  25.521  26.543  1.00  0.00    -0.275 OA
BRANCH   8  10
ATOM     10  N   UNL A   1      31.014  24.120  24.911  1.00  0.00    -0.342 N 
ATOM     11  C   UNL A   1      30.632  23.982  23.510  1.00  0.00     0.119 C 
ATOM     12  C   UNL A   1      31.421  22.874  25.578  1.00  0.00     0.128 C 
ATOM     13  C   UNL A   1      31.788  23.379  22.727  1.00  0.00     0.022 C 
ATOM     14  C   UNL A   1      32.517  22.083  24.815  1.00  0.00     0.006 C 
ATOM     15  C   UNL A   1      32.172  22.024  23.303  1.00  0.00     0.012 C 
ATOM     16  C   UNL A   1      33.881  22.739  25.108  1.00  0.00     0.020 C 
ATOM     17  C   UNL A   1      32.607  20.640  25.355  1.00  0.00     0.128 C 
ATOM     18  C   UNL A   1      35.038  21.944  24.533  1.00  0.00     0.101 C 
ATOM     19  N   UNL A   1      33.758  19.906  24.826  1.00  0.00    -0.338 N 
ATOM     20  C   UNL A   1      35.019  20.480  24.885  1.00  0.00     0.222 C 
ATOM     21  O   UNL A   1      36.070  19.854  24.991  1.00  0.00    -0.275 OA
BRANCH  19  22
ATOM     22  C   UNL A   1      33.553  18.826  23.865  1.00  0.00     0.155 C 
BRANCH  22  23
ATOM     23  C   UNL A   1      33.603  17.443  24.457  1.00  0.00    -0.026 A 
ATOM     24  C   UNL A   1      32.469  16.873  25.035  1.00  0.00     0.025 A 
ATOM     25  C   UNL A   1      34.802  16.720  24.486  1.00  0.00     0.025 A 
ATOM     26  C   UNL A   1      32.578  15.613  25.601  1.00  0.00     0.111 A 
ATOM     27  C   UNL A   1      34.811  15.470  25.083  1.00  0.00     0.111 A 
ATOM     28  N   UNL A   1      33.720  14.892  25.629  1.00  0.00    -0.265 NA
ENDBRANCH  22  23
ENDBRANCH  19  22
ENDBRANCH   8  10
ENDBRANCH   7   8
ENDBRANCH   6   7
ENDBRANCH   4   6
ENDBRANCH   1   2
BRANCH   1  29
ATOM     29  C   UNL A   1      31.240  31.072  26.027  1.00  0.00     0.023 C 
BRANCH  29  30
ATOM     30  C   UNL A   1      31.258  32.553  26.417  1.00  0.00     0.023 C 
BRANCH  30  31
ATOM     31  C   UNL A   1      32.495  33.044  27.161  1.00  0.00     0.116 C 
BRANCH  31  32
ATOM     32  N   UNL A   1      32.332  34.350  27.766  1.00  0.00    -0.352 N 
ATOM     33  C   UNL A   1      33.025  35.019  28.748  1.00  0.00     0.251 C 
ATOM     34  H   UNL A   1      31.573  34.861  27.402  1.00  0.00     0.163 HD
ATOM     35  O   UNL A   1      32.574  36.109  29.105  1.00  0.00    -0.269 OA
BRANCH  33  36
ATOM     36  C   UNL A   1      34.265  34.507  29.407  1.00  0.00     0.039 A 
ATOM     37  C   UNL A   1      34.131  33.942  30.687  1.00  0.00     0.014 A 
ATOM     38  C   UNL A   1      35.550  34.622  28.870  1.00  0.00     0.014 A 
ATOM     39  C   UNL A   1      35.246  33.449  31.379  1.00  0.00     0.010 A 
ATOM     40  C   UNL A   1      36.666  34.131  29.551  1.00  0.00     0.010 A 
ATOM     41  C   UNL A   1      36.517  33.517  30.798  1.00  0.00    -0.014 A 
BRANCH  41  42
ATOM     42  C   UNL A   1      37.676  32.803  31.374  1.00  0.00     0.031 A 
ATOM     43  C   UNL A   1      38.260  31.588  30.723  1.00  0.00     0.074 A 
ATOM     44  C   UNL A   1      38.096  33.199  32.589  1.00  0.00     0.049 A 
ATOM     45  N   UNL A   1      39.236  30.822  31.145  1.00  0.00    -0.248 NA
ATOM     46  C   UNL A   1      37.664  31.163  29.451  1.00  0.00     0.031 C 
ATOM     47  C   UNL A   1      37.535  34.323  33.343  1.00  0.00     0.029 A 
ATOM     48  N   UNL A   1      39.054  32.683  33.422  1.00  0.00    -0.354 N 
ATOM     49  C   UNL A   1      39.382  29.832  30.185  1.00  0.00     0.074 A 
ATOM     50  C   UNL A   1      38.367  30.069  29.178  1.00  0.00     0.031 C 
ATOM     51  C   UNL A   1      38.142  34.398  34.535  1.00  0.00     0.029 A 
ATOM     52  C   UNL A   1      39.127  33.327  34.631  1.00  0.00     0.049 A 
ATOM     53  H   UNL A   1      39.631  31.925  33.176  1.00  0.00     0.167 HD
ATOM     54  C   UNL A   1      40.292  28.828  30.149  1.00  0.00     0.037 A 
ATOM     55  C   UNL A   1      39.901  33.078  35.703  1.00  0.00     0.037 A 
ATOM     56  C   UNL A   1      41.289  28.599  31.166  1.00  0.00     0.049 A 
ATOM     57  C   UNL A   1      40.903  31.964  35.634  1.00  0.00     0.074 A 
ATOM     58  C   UNL A   1      42.313  27.667  31.181  1.00  0.00     0.029 A 
ATOM     59  N   UNL A   1      41.373  29.300  32.361  1.00  0.00    -0.354 N 
ATOM     60  N   UNL A   1      41.119  31.109  34.666  1.00  0.00    -0.248 NA
ATOM     61  C   UNL A   1      41.783  31.795  36.797  1.00  0.00     0.031 C 
ATOM     62  C   UNL A   1      42.988  27.775  32.404  1.00  0.00     0.029 A 
ATOM     63  C   UNL A   1      42.412  28.802  33.134  1.00  0.00     0.049 A 
ATOM     64  H   UNL A   1      40.781  30.042  32.623  1.00  0.00     0.167 HD
ATOM     65  C   UNL A   1      42.178  30.319  35.085  1.00  0.00     0.074 A 
ATOM     66  C   UNL A   1      42.564  30.803  36.396  1.00  0.00     0.031 C 
ATOM     67  C   UNL A   1      42.780  29.293  34.438  1.00  0.00     0.037 A 
BRANCH  54  68
ATOM     68  C   UNL A   1      40.267  27.900  28.969  1.00  0.00     0.064 A 
ATOM     69  C   UNL A   1      41.013  28.169  27.812  1.00  0.00     0.173 A 
ATOM     70  C   UNL A   1      39.549  26.696  29.020  1.00  0.00     0.173 A 
ATOM     71  F   UNL A   1      41.719  29.305  27.714  1.00  0.00    -0.203 F 
ATOM     72  C   UNL A   1      41.027  27.276  26.743  1.00  0.00     0.198 A 
ATOM     73  C   UNL A   1      39.582  25.795  27.959  1.00  0.00     0.198 A 
ATOM     74  F   UNL A   1      38.828  26.383  30.107  1.00  0.00    -0.203 F 
ATOM     75  F   UNL A   1      41.729  27.566  25.639  1.00  0.00    -0.200 F 
ATOM     76  C   UNL A   1      40.317  26.087  26.820  1.00  0.00     0.200 A 
ATOM     77  F   UNL A   1      38.909  24.639  28.040  1.00  0.00    -0.200 F 
ATOM     78  F   UNL A   1      40.343  25.222  25.796  1.00  0.00    -0.200 F 
ENDBRANCH  54  68
BRANCH  55  79
ATOM     79  C   UNL A   1      39.787  33.946  36.898  1.00  0.00     0.064 A 
ATOM     80  C   UNL A   1      40.486  35.158  36.969  1.00  0.00     0.173 A 
ATOM     81  C   UNL A   1      38.944  33.609  37.968  1.00  0.00     0.173 A 
ATOM     82  F   UNL A   1      41.311  35.513  35.973  1.00  0.00    -0.203 F 
ATOM     83  C   UNL A   1      40.356  35.998  38.072  1.00  0.00     0.198 A 
ATOM     84  C   UNL A   1      38.799  34.460  39.060  1.00  0.00     0.198 A 
ATOM     85  F   UNL A   1      38.244  32.467  37.937  1.00  0.00    -0.203 F 
ATOM     86  F   UNL A   1      41.055  37.139  38.128  1.00  0.00    -0.200 F 
ATOM     87  C   UNL A   1      39.508  35.651  39.113  1.00  0.00     0.200 A 
ATOM     88  F   UNL A   1      37.966  34.131  40.058  1.00  0.00    -0.200 F 
ATOM     89  F   UNL A   1      39.374  36.466  40.169  1.00  0.00    -0.200 F 
ENDBRANCH  55  79
BRANCH  67  90
ATOM     90  C   UNL A   1      43.937  28.640  35.134  1.00  0.00     0.064 A 
ATOM     91  C   UNL A   1      45.250  29.100  34.960  1.00  0.00     0.173 A 
ATOM     92  C   UNL A   1      43.725  27.553  35.994  1.00  0.00     0.173 A 
ATOM     93  F   UNL A   1      45.503  30.123  34.131  1.00  0.00    -0.203 F 
ATOM     94  C   UNL A   1      46.315  28.478  35.606  1.00  0.00     0.198 A 
ATOM     95  C   UNL A   1      44.790  26.949  36.657  1.00  0.00     0.198 A 
ATOM     96  F   UNL A   1      42.487  27.078  36.193  1.00  0.00    -0.203 F 
ATOM     97  F   UNL A   1      47.568  28.901  35.390  1.00  0.00    -0.200 F 
ATOM     98  C   UNL A   1      46.084  27.407  36.458  1.00  0.00     0.200 A 
ATOM     99  F   UNL A   1      44.564  25.919  37.485  1.00  0.00    -0.200 F 
ATOM    100  F   UNL A   1      47.110  26.809  37.078  1.00  0.00    -0.200 F 
ENDBRANCH  67  90
ENDBRANCH  41  42
ENDBRANCH  33  36
ENDBRANCH  31  32
ENDBRANCH  30  31
ENDBRANCH  29  30
ENDBRANCH   1  29
TORSDOF 16
ENDMDL
MODEL 2
REMARK VINA RESULT:     -12.9      1.374      2.361
REMARK SMILES O=C(CCC(=O)N1CCC[C@@]2(CCC(=O)N(Cc3ccncc3)C2)C1)NCCCCNC(=O)c1ccc(-c2c3nc(c(-c4c(F)c(F)c(F)c(F)c4F)c4ccc([nH]4)c(-c4c(F)c(F)c(F)c(F)c4F)c4nc(c(-c5c(F)c(F)c(F)c(F)c5F)c5ccc2[nH]5)C=C4)C=C3)cc1
REMARK SMILES IDX 27 1 26 2 1 3 2 4 3 6 4 7 5 8 6 9 7 10 8 11 25 12 9 13 11 14
REMARK SMILES IDX 10 15 12 16 24 17 13 18 16 19 14 20 15 21 17 22 18 23 19 24
REMARK SMILES IDX 23 25 20 26 22 27 21 28 28 29 29 30 30 31 31 32 32 33 33 35
REMARK SMILES IDX 34 36 35 37 96 38 36 39 95 40 37 41 38 42 39 43 89 44 40 45
REMARK SMILES IDX 94 46 88 47 90 48 41 49 93 50 87 51 86 52 42 54 74 55 54 56
REMARK SMILES IDX 73 57 55 58 58 59 72 60 91 61 56 62 57 63 71 65 92 66 59 67
REMARK SMILES IDX 43 68 44 69 52 70 45 71 46 72 50 73 53 74 47 75 48 76 51 77
REMARK SMILES IDX 49 78 75 79 76 80 84 81 77 82 78 83 82 84 85 85 79 86 80 87
REMARK SMILES IDX 83 88 81 89 60 90 61 91 69 92 62 93 63 94 67 95 70 96 64 97
REMARK SMILES IDX 65 98 68 99 66 100
REMARK H PARENT 26 5 31 34 90 53 58 64
REMARK Flexibility Score: inf
ROOT
ATOM      1  C   UNL A   1      34.520  29.785  27.240  1.00  0.00     0.116 C 
ENDROOT
BRANCH   1   2
ATOM      2  N   UNL A   1      33.998  29.504  25.916  1.00  0.00    -0.356 N 
ATOM      3  O   UNL A   1      31.888  28.939  26.627  1.00  0.00    -0.275 OA
ATOM      4  C   UNL A   1      32.691  29.120  25.718  1.00  0.00     0.220 C 
ATOM      5  H   UNL A   1      34.595  29.591  25.139  1.00  0.00     0.163 HD
BRANCH   4   6
ATOM      6  C   UNL A   1      32.297  28.996  24.262  1.00  0.00     0.110 C 
BRANCH   6   7
ATOM      7  C   UNL A   1      30.857  28.523  24.127  1.00  0.00     0.110 C 
BRANCH   7   8
ATOM      8  C   UNL A   1      30.596  27.803  22.810  1.00  0.00     0.223 C 
ATOM      9  O   UNL A   1      29.801  28.284  22.001  1.00  0.00    -0.275 OA
BRANCH   8  10
ATOM     10  N   UNL A   1      31.308  26.645  22.536  1.00  0.00    -0.342 N 
ATOM     11  C   UNL A   1      32.391  26.552  21.563  1.00  0.00     0.119 C 
ATOM     12  C   UNL A   1      30.988  25.397  23.245  1.00  0.00     0.128 C 
ATOM     13  C   UNL A   1      33.653  26.062  22.256  1.00  0.00     0.022 C 
ATOM     14  C   UNL A   1      32.220  24.716  23.900  1.00  0.00     0.006 C 
ATOM     15  C   UNL A   1      33.412  24.708  22.907  1.00  0.00     0.012 C 
ATOM     16  C   UNL A   1      32.528  25.441  25.225  1.00  0.00     0.020 C 
ATOM     17  C   UNL A   1      31.884  23.256  24.276  1.00  0.00     0.128 C 
ATOM     18  C   UNL A   1      33.620  24.751  26.020  1.00  0.00     0.101 C 
ATOM     19  N   UNL A   1      32.928  22.624  25.085  1.00  0.00    -0.338 N 
ATOM     20  C   UNL A   1      33.404  23.274  26.213  1.00  0.00     0.222 C 
ATOM     21  O   UNL A   1      33.830  22.711  27.219  1.00  0.00    -0.275 OA
BRANCH  19  22
ATOM     22  C   UNL A   1      33.768  21.581  24.502  1.00  0.00     0.155 C 
BRANCH  22  23
ATOM     23  C   UNL A   1      33.182  20.197  24.567  1.00  0.00    -0.026 A 
ATOM     24  C   UNL A   1      33.207  19.466  25.755  1.00  0.00     0.025 A 
ATOM     25  C   UNL A   1      32.644  19.593  23.424  1.00  0.00     0.025 A 
ATOM     26  C   UNL A   1      32.690  18.181  25.751  1.00  0.00     0.111 A 
ATOM     27  C   UNL A   1      32.158  18.299  23.521  1.00  0.00     0.111 A 
ATOM     28  N   UNL A   1      32.154  17.583  24.665  1.00  0.00    -0.265 NA
ENDBRANCH  22  23
ENDBRANCH  19  22
ENDBRANCH   8  10
ENDBRANCH   7   8
ENDBRANCH   6   7
ENDBRANCH   4   6
ENDBRANCH   1   2
BRANCH   1  29
ATOM     29  C   UNL A   1      34.508  31.264  27.627  1.00  0.00     0.023 C 
BRANCH  29  30
ATOM     30  C   UNL A   1      33.150  31.872  27.989  1.00  0.00     0.023 C 
BRANCH  30  31
ATOM     31  C   UNL A   1      32.592  32.911  27.023  1.00  0.00     0.116 C 
BRANCH  31  32
ATOM     32  N   UNL A   1      32.376  34.211  27.626  1.00  0.00    -0.352 N 
ATOM     33  C   UNL A   1      33.018  34.893  28.634  1.00  0.00     0.251 C 
ATOM     34  H   UNL A   1      31.617  34.704  27.238  1.00  0.00     0.163 HD
ATOM     35  O   UNL A   1      32.528  35.969  28.978  1.00  0.00    -0.269 OA
BRANCH  33  36
ATOM     36  C   UNL A   1      34.246  34.408  29.334  1.00  0.00     0.039 A 
ATOM     37  C   UNL A   1      34.086  33.868  30.622  1.00  0.00     0.014 A 
ATOM     38  C   UNL A   1      35.542  34.527  28.828  1.00  0.00     0.014 A 
ATOM     39  C   UNL A   1      35.188  33.402  31.352  1.00  0.00     0.010 A 
ATOM     40  C   UNL A   1      36.646  34.063  29.547  1.00  0.00     0.010 A 
ATOM     41  C   UNL A   1      36.472  33.473  30.801  1.00  0.00    -0.014 A 
BRANCH  41  42
ATOM     42  C   UNL A   1      37.625  32.784  31.421  1.00  0.00     0.031 A 
ATOM     43  C   UNL A   1      38.262  31.584  30.792  1.00  0.00     0.074 A 
ATOM     44  C   UNL A   1      37.987  33.186  32.652  1.00  0.00     0.049 A 
ATOM     45  N   UNL A   1      39.237  30.841  31.249  1.00  0.00    -0.248 NA
ATOM     46  C   UNL A   1      37.725  31.150  29.496  1.00  0.00     0.031 C 
ATOM     47  C   UNL A   1      37.372  34.296  33.385  1.00  0.00     0.029 A 
ATOM     48  N   UNL A   1      38.924  32.690  33.521  1.00  0.00    -0.354 N 
ATOM     49  C   UNL A   1      39.444  29.856  30.294  1.00  0.00     0.074 A 
ATOM     50  C   UNL A   1      38.464  30.073  29.248  1.00  0.00     0.031 C 
ATOM     51  C   UNL A   1      37.930  34.382  34.601  1.00  0.00     0.029 A 
ATOM     52  C   UNL A   1      38.935  33.333  34.734  1.00  0.00     0.049 A 
ATOM     53  H   UNL A   1      39.528  31.946  33.297  1.00  0.00     0.167 HD
ATOM     54  C   UNL A   1      40.378  28.874  30.292  1.00  0.00     0.037 A 
ATOM     55  C   UNL A   1      39.672  33.099  35.834  1.00  0.00     0.037 A 
ATOM     56  C   UNL A   1      41.339  28.666  31.347  1.00  0.00     0.049 A 
ATOM     57  C   UNL A   1      40.701  32.008  35.803  1.00  0.00     0.074 A 
ATOM     58  C   UNL A   1      42.384  27.757  31.400  1.00  0.00     0.029 A 
ATOM     59  N   UNL A   1      41.360  29.365  32.546  1.00  0.00    -0.354 N 
ATOM     60  N   UNL A   1      40.975  31.161  34.842  1.00  0.00    -0.248 NA
ATOM     61  C   UNL A   1      41.539  31.856  36.998  1.00  0.00     0.031 C 
ATOM     62  C   UNL A   1      43.007  27.877  32.649  1.00  0.00     0.029 A 
ATOM     63  C   UNL A   1      42.379  28.889  33.357  1.00  0.00     0.049 A 
ATOM     64  H   UNL A   1      40.742  30.092  32.785  1.00  0.00     0.167 HD
ATOM     65  C   UNL A   1      42.035  30.395  35.301  1.00  0.00     0.074 A 
ATOM     66  C   UNL A   1      42.358  30.884  36.626  1.00  0.00     0.031 C 
ATOM     67  C   UNL A   1      42.685  29.384  34.675  1.00  0.00     0.037 A 
BRANCH  54  68
ATOM     68  C   UNL A   1      40.420  27.949  29.110  1.00  0.00     0.064 A 
ATOM     69  C   UNL A   1      39.650  26.777  29.073  1.00  0.00     0.173 A 
ATOM     70  C   UNL A   1      41.179  28.271  27.976  1.00  0.00     0.173 A 
ATOM     71  F   UNL A   1      38.904  26.425  30.131  1.00  0.00    -0.203 F 
ATOM     72  C   UNL A   1      39.653  25.951  27.950  1.00  0.00     0.198 A 
ATOM     73  C   UNL A   1      41.162  27.456  26.846  1.00  0.00     0.198 A 
ATOM     74  F   UNL A   1      41.923  29.386  27.953  1.00  0.00    -0.203 F 
ATOM     75  F   UNL A   1      38.928  24.825  27.946  1.00  0.00    -0.200 F 
ATOM     76  C   UNL A   1      40.403  26.296  26.836  1.00  0.00     0.200 A 
ATOM     77  F   UNL A   1      41.876  27.797  25.764  1.00  0.00    -0.200 F 
ATOM     78  F   UNL A   1      40.394  25.508  25.751  1.00  0.00    -0.200 F 
ENDBRANCH  54  68
BRANCH  55  79
ATOM     79  C   UNL A   1      39.491  33.961  37.025  1.00  0.00     0.064 A 
ATOM     80  C   UNL A   1      38.685  33.544  38.092  1.00  0.00     0.173 A 
ATOM     81  C   UNL A   1      40.154  35.192  37.144  1.00  0.00     0.173 A 
ATOM     82  F   UNL A   1      38.024  32.379  38.015  1.00  0.00    -0.203 F 
ATOM     83  C   UNL A   1      38.538  34.330  39.231  1.00  0.00     0.198 A 
ATOM     84  C   UNL A   1      40.023  35.967  38.293  1.00  0.00     0.198 A 
ATOM     85  F   UNL A   1      40.948  35.625  36.155  1.00  0.00    -0.203 F 
ATOM     86  F   UNL A   1      37.742  33.921  40.227  1.00  0.00    -0.200 F 
ATOM     87  C   UNL A   1      39.213  35.538  39.333  1.00  0.00     0.200 A 
ATOM     88  F   UNL A   1      40.689  37.126  38.397  1.00  0.00    -0.200 F 
ATOM     89  F   UNL A   1      39.081  36.289  40.436  1.00  0.00    -0.200 F 
ENDBRANCH  55  79
BRANCH  67  90
ATOM     90  C   UNL A   1      43.829  28.757  35.415  1.00  0.00     0.064 A 
ATOM     91  C   UNL A   1      45.139  29.238  35.282  1.00  0.00     0.173 A 
ATOM     92  C   UNL A   1      43.606  27.672  36.276  1.00  0.00     0.173 A 
ATOM     93  F   UNL A   1      45.403  30.259  34.454  1.00  0.00    -0.203 F 
ATOM     94  C   UNL A   1      46.192  28.638  35.969  1.00  0.00     0.198 A 
ATOM     95  C   UNL A   1      44.659  27.092  36.979  1.00  0.00     0.198 A 
ATOM     96  F   UNL A   1      42.371  27.178  36.437  1.00  0.00    -0.203 F 
ATOM     97  F   UNL A   1      47.444  29.082  35.791  1.00  0.00    -0.200 F 
ATOM     98  C   UNL A   1      45.950  27.570  36.820  1.00  0.00     0.200 A 
ATOM     99  F   UNL A   1      44.422  26.064  37.807  1.00  0.00    -0.200 F 
ATOM    100  F   UNL A   1      46.965  26.995  37.479  1.00  0.00    -0.200 F 
ENDBRANCH  67  90
ENDBRANCH  41  42
ENDBRANCH  33  36
ENDBRANCH  31  32
ENDBRANCH  30  31
ENDBRANCH  29  30
ENDBRANCH   1  29
TORSDOF 16
ENDMDL
MODEL 3
REMARK VINA RESULT:     -12.9      1.732      2.759
REMARK SMILES O=C(CCC(=O)N1CCC[C@@]2(CCC(=O)N(Cc3ccncc3)C2)C1)NCCCCNC(=O)c1ccc(-c2c3nc(c(-c4c(F)c(F)c(F)c(F)c4F)c4ccc([nH]4)c(-c4c(F)c(F)c(F)c(F)c4F)c4nc(c(-c5c(F)c(F)c(F)c(F)c5F)c5ccc2[nH]5)C=C4)C=C3)cc1
REMARK SMILES IDX 27 1 26 2 1 3 2 4 3 6 4 7 5 8 6 9 7 10 8 11 25 12 9 13 11 14
REMARK SMILES IDX 10 15 12 16 24 17 13 18 16 19 14 20 15 21 17 22 18 23 19 24
REMARK SMILES IDX 23 25 20 26 22 27 21 28 28 29 29 30 30 31 31 32 32 33 33 35
REMARK SMILES IDX 34 36 35 37 96 38 36 39 95 40 37 41 38 42 39 43 89 44 40 45
REMARK SMILES IDX 94 46 88 47 90 48 41 49 93 50 87 51 86 52 42 54 74 55 54 56
REMARK SMILES IDX 73 57 55 58 58 59 72 60 91 61 56 62 57 63 71 65 92 66 59 67
REMARK SMILES IDX 43 68 44 69 52 70 45 71 46 72 50 73 53 74 47 75 48 76 51 77
REMARK SMILES IDX 49 78 75 79 76 80 84 81 77 82 78 83 82 84 85 85 79 86 80 87
REMARK SMILES IDX 83 88 81 89 60 90 61 91 69 92 62 93 63 94 67 95 70 96 64 97
REMARK SMILES IDX 65 98 68 99 66 100
REMARK H PARENT 26 5 31 34 90 53 58 64
REMARK Flexibility Score: inf
ROOT
ATOM      1  C   UNL A   1      34.554  29.792  27.218  1.00  0.00     0.116 C 
ENDROOT
BRANCH   1   2
ATOM      2  N   UNL A   1      34.030  29.546  25.888  1.00  0.00    -0.356 N 
ATOM      3  O   UNL A   1      31.953  28.864  26.591  1.00  0.00    -0.275 OA
ATOM      4  C   UNL A   1      32.738  29.117  25.684  1.00  0.00     0.220 C 
ATOM      5  H   UNL A   1      34.615  29.691  25.110  1.00  0.00     0.163 HD
BRANCH   4   6
ATOM      6  C   UNL A   1      32.334  29.039  24.228  1.00  0.00     0.110 C 
BRANCH   6   7
ATOM      7  C   UNL A   1      30.858  28.697  24.091  1.00  0.00     0.110 C 
BRANCH   7   8
ATOM      8  C   UNL A   1      30.538  27.991  22.779  1.00  0.00     0.223 C 
ATOM      9  O   UNL A   1      29.816  28.547  21.949  1.00  0.00    -0.275 OA
BRANCH   8  10
ATOM     10  N   UNL A   1      31.116  26.755  22.534  1.00  0.00    -0.342 N 
ATOM     11  C   UNL A   1      32.165  26.515  21.550  1.00  0.00     0.119 C 
ATOM     12  C   UNL A   1      30.676  25.572  23.289  1.00  0.00     0.128 C 
ATOM     13  C   UNL A   1      33.379  25.914  22.242  1.00  0.00     0.022 C 
ATOM     14  C   UNL A   1      31.838  24.783  23.949  1.00  0.00     0.006 C 
ATOM     15  C   UNL A   1      33.005  24.615  22.941  1.00  0.00     0.012 C 
ATOM     16  C   UNL A   1      32.246  25.513  25.245  1.00  0.00     0.020 C 
ATOM     17  C   UNL A   1      31.355  23.381  24.379  1.00  0.00     0.128 C 
ATOM     18  C   UNL A   1      33.271  24.735  26.047  1.00  0.00     0.101 C 
ATOM     19  N   UNL A   1      32.338  22.666  25.194  1.00  0.00    -0.338 N 
ATOM     20  C   UNL A   1      32.901  23.296  26.293  1.00  0.00     0.222 C 
ATOM     21  O   UNL A   1      33.282  22.723  27.311  1.00  0.00    -0.275 OA
BRANCH  19  22
ATOM     22  C   UNL A   1      33.051  21.520  24.635  1.00  0.00     0.155 C 
BRANCH  22  23
ATOM     23  C   UNL A   1      34.543  21.691  24.553  1.00  0.00    -0.026 A 
ATOM     24  C   UNL A   1      35.108  22.625  23.684  1.00  0.00     0.025 A 
ATOM     25  C   UNL A   1      35.399  20.881  25.308  1.00  0.00     0.025 A 
ATOM     26  C   UNL A   1      36.489  22.715  23.616  1.00  0.00     0.111 A 
ATOM     27  C   UNL A   1      36.768  21.042  25.165  1.00  0.00     0.111 A 
ATOM     28  N   UNL A   1      37.333  21.954  24.346  1.00  0.00    -0.265 NA
ENDBRANCH  22  23
ENDBRANCH  19  22
ENDBRANCH   8  10
ENDBRANCH   7   8
ENDBRANCH   6   7
ENDBRANCH   4   6
ENDBRANCH   1   2
BRANCH   1  29
ATOM     29  C   UNL A   1      34.546  31.260  27.642  1.00  0.00     0.023 C 
BRANCH  29  30
ATOM     30  C   UNL A   1      33.182  31.881  27.954  1.00  0.00     0.023 C 
BRANCH  30  31
ATOM     31  C   UNL A   1      32.702  32.977  27.008  1.00  0.00     0.116 C 
BRANCH  31  32
ATOM     32  N   UNL A   1      32.461  34.248  27.660  1.00  0.00    -0.352 N 
ATOM     33  C   UNL A   1      33.089  34.900  28.696  1.00  0.00     0.251 C 
ATOM     34  H   UNL A   1      31.696  34.743  27.289  1.00  0.00     0.163 HD
ATOM     35  O   UNL A   1      32.579  35.954  29.081  1.00  0.00    -0.269 OA
BRANCH  33  36
ATOM     36  C   UNL A   1      34.324  34.410  29.381  1.00  0.00     0.039 A 
ATOM     37  C   UNL A   1      34.172  33.834  30.655  1.00  0.00     0.014 A 
ATOM     38  C   UNL A   1      35.618  34.554  28.875  1.00  0.00     0.014 A 
ATOM     39  C   UNL A   1      35.281  33.361  31.370  1.00  0.00     0.010 A 
ATOM     40  C   UNL A   1      36.728  34.083  29.579  1.00  0.00     0.010 A 
ATOM     41  C   UNL A   1      36.562  33.459  30.819  1.00  0.00    -0.014 A 
BRANCH  41  42
ATOM     42  C   UNL A   1      37.723  32.765  31.418  1.00  0.00     0.031 A 
ATOM     43  C   UNL A   1      38.348  31.567  30.774  1.00  0.00     0.074 A 
ATOM     44  C   UNL A   1      38.106  33.162  32.645  1.00  0.00     0.049 A 
ATOM     45  N   UNL A   1      39.329  30.819  31.214  1.00  0.00    -0.248 NA
ATOM     46  C   UNL A   1      37.790  31.138  29.485  1.00  0.00     0.031 C 
ATOM     47  C   UNL A   1      37.504  34.270  33.392  1.00  0.00     0.029 A 
ATOM     48  N   UNL A   1      39.055  32.661  33.497  1.00  0.00    -0.354 N 
ATOM     49  C   UNL A   1      39.519  29.838  30.251  1.00  0.00     0.074 A 
ATOM     50  C   UNL A   1      38.523  30.061  29.222  1.00  0.00     0.031 C 
ATOM     51  C   UNL A   1      38.081  34.350  34.598  1.00  0.00     0.029 A 
ATOM     52  C   UNL A   1      39.086  33.299  34.712  1.00  0.00     0.049 A 
ATOM     53  H   UNL A   1      39.654  31.917  33.261  1.00  0.00     0.167 HD
ATOM     54  C   UNL A   1      40.450  28.854  30.231  1.00  0.00     0.037 A 
ATOM     55  C   UNL A   1      39.840  33.059  35.799  1.00  0.00     0.037 A 
ATOM     56  C   UNL A   1      41.428  28.640  31.270  1.00  0.00     0.049 A 
ATOM     57  C   UNL A   1      40.866  31.966  35.748  1.00  0.00     0.074 A 
ATOM     58  C   UNL A   1      42.471  27.729  31.304  1.00  0.00     0.029 A 
ATOM     59  N   UNL A   1      41.469  29.334  32.471  1.00  0.00    -0.354 N 
ATOM     60  N   UNL A   1      41.123  31.123  34.780  1.00  0.00    -0.248 NA
ATOM     61  C   UNL A   1      41.722  31.808  36.930  1.00  0.00     0.031 C 
ATOM     62  C   UNL A   1      43.114  27.844  32.543  1.00  0.00     0.029 A 
ATOM     63  C   UNL A   1      42.500  28.854  33.265  1.00  0.00     0.049 A 
ATOM     64  H   UNL A   1      40.856  30.062  32.723  1.00  0.00     0.167 HD
ATOM     65  C   UNL A   1      42.188  30.352  35.219  1.00  0.00     0.074 A 
ATOM     66  C   UNL A   1      42.533  30.836  36.542  1.00  0.00     0.031 C 
ATOM     67  C   UNL A   1      42.826  29.343  34.580  1.00  0.00     0.037 A 
BRANCH  54  68
ATOM     68  C   UNL A   1      40.472  27.933  29.045  1.00  0.00     0.064 A 
ATOM     69  C   UNL A   1      39.687  26.772  29.009  1.00  0.00     0.173 A 
ATOM     70  C   UNL A   1      41.227  28.250  27.907  1.00  0.00     0.173 A 
ATOM     71  F   UNL A   1      38.945  26.425  30.071  1.00  0.00    -0.203 F 
ATOM     72  C   UNL A   1      39.672  25.951  27.883  1.00  0.00     0.198 A 
ATOM     73  C   UNL A   1      41.192  27.441  26.774  1.00  0.00     0.198 A 
ATOM     74  F   UNL A   1      41.986  29.357  27.883  1.00  0.00    -0.203 F 
ATOM     75  F   UNL A   1      38.933  24.833  27.880  1.00  0.00    -0.200 F 
ATOM     76  C   UNL A   1      40.419  26.290  26.765  1.00  0.00     0.200 A 
ATOM     77  F   UNL A   1      41.902  27.777  25.688  1.00  0.00    -0.200 F 
ATOM     78  F   UNL A   1      40.392  25.507  25.677  1.00  0.00    -0.200 F 
ENDBRANCH  54  68
BRANCH  55  79
ATOM     79  C   UNL A   1      39.679  33.917  36.997  1.00  0.00     0.064 A 
ATOM     80  C   UNL A   1      40.307  35.167  37.068  1.00  0.00     0.173 A 
ATOM     81  C   UNL A   1      38.861  33.529  38.069  1.00  0.00     0.173 A 
ATOM     82  F   UNL A   1      41.106  35.572  36.070  1.00  0.00    -0.203 F 
ATOM     83  C   UNL A   1      40.132  35.996  38.173  1.00  0.00     0.198 A 
ATOM     84  C   UNL A   1      38.671  34.368  39.163  1.00  0.00     0.198 A 
ATOM     85  F   UNL A   1      38.229  32.348  38.038  1.00  0.00    -0.203 F 
ATOM     86  F   UNL A   1      40.763  37.176  38.229  1.00  0.00    -0.200 F 
ATOM     87  C   UNL A   1      39.309  35.599  39.216  1.00  0.00     0.200 A 
ATOM     88  F   UNL A   1      37.862  33.990  40.163  1.00  0.00    -0.200 F 
ATOM     89  F   UNL A   1      39.132  36.402  40.274  1.00  0.00    -0.200 F 
ENDBRANCH  55  79
BRANCH  67  90
ATOM     90  C   UNL A   1      43.981  28.711  35.300  1.00  0.00     0.064 A 
ATOM     91  C   UNL A   1      43.797  27.628  36.171  1.00  0.00     0.173 A 
ATOM     92  C   UNL A   1      45.286  29.187  35.101  1.00  0.00     0.173 A 
ATOM     93  F   UNL A   1      42.565  27.153  36.407  1.00  0.00    -0.203 F 
ATOM     94  C   UNL A   1      44.878  27.058  36.838  1.00  0.00     0.198 A 
ATOM     95  C   UNL A   1      46.366  28.598  35.752  1.00  0.00     0.198 A 
ATOM     96  F   UNL A   1      45.512  30.219  34.277  1.00  0.00    -0.203 F 
ATOM     97  F   UNL A   1      44.676  26.055  37.704  1.00  0.00    -0.200 F 
ATOM     98  C   UNL A   1      46.161  27.540  36.624  1.00  0.00     0.200 A 
ATOM     99  F   UNL A   1      47.607  29.060  35.539  1.00  0.00    -0.200 F 
ATOM    100  F   UNL A   1      47.200  26.990  37.268  1.00  0.00    -0.200 F 
ENDBRANCH  67  90
ENDBRANCH  41  42
ENDBRANCH  33  36
ENDBRANCH  31  32
ENDBRANCH  30  31
ENDBRANCH  29  30
ENDBRANCH   1  29
TORSDOF 16
ENDMDL
