MODEL 1
REMARK VINA RESULT:     -13.5      0.000      0.000
REMARK SMILES Cc1c(CCC(=O)N2CCC(C(=O)NCCCCNC(=O)c3ccc(-c4c5nc(c(-c6c(F)c(F)c(F)c(F)c6F)c6ccc([nH]6)c(-c6c(F)c(F)c(F)c(F)c6F)c6nc(c(-c7c(F)c(F)c(F)c(F)c7F)c7ccc4[nH]7)C=C6)C=C5)cc3)CC2)c(=O)oc2cc3oc4c(c3cc12)CCCC4
REMARK SMILES IDX 16 1 15 2 14 3 12 4 13 5 11 7 6 8 7 9 8 10 9 11 86 12 10 13
REMARK SMILES IDX 85 14 5 15 4 16 3 17 1 18 2 19 98 20 87 21 90 22 97 23 88 24
REMARK SMILES IDX 89 25 91 26 96 27 92 28 95 29 93 30 94 31 99 32 102 33
REMARK SMILES IDX 100 34 101 35 17 36 18 37 19 38 20 39 21 41 22 42 23 43
REMARK SMILES IDX 84 44 24 45 83 46 25 47 26 48 27 49 77 50 28 51 82 52 76 53
REMARK SMILES IDX 78 54 29 55 81 56 75 57 74 58 30 60 62 61 42 62 61 63 43 64
REMARK SMILES IDX 46 65 60 66 79 67 44 68 45 69 59 71 80 72 47 73 31 74 32 75
REMARK SMILES IDX 40 76 33 77 34 78 38 79 41 80 35 81 36 82 39 83 37 84 63 85
REMARK SMILES IDX 64 86 72 87 65 88 66 89 70 90 73 91 67 92 68 93 71 94 69 95
REMARK SMILES IDX 48 96 49 97 57 98 50 99 51 100 55 101 58 102 52 103 53 104
REMARK SMILES IDX 56 105 54 106
REMARK H PARENT 14 6 19 40 78 59 46 70
REMARK Flexibility Score: inf
ROOT
ATOM      1  C   UNL A   1      46.332  38.664  28.523  1.00  0.00     0.023 C 
ENDROOT
BRANCH   1   2
ATOM      2  C   UNL A   1      46.471  38.743  30.037  1.00  0.00     0.116 C 
BRANCH   2   3
ATOM      3  N   UNL A   1      45.155  38.831  30.640  1.00  0.00    -0.356 N 
ATOM      4  C   UNL A   1      44.499  39.885  31.185  1.00  0.00     0.223 C 
ATOM      5  O   UNL A   1      43.460  39.650  31.807  1.00  0.00    -0.275 OA
ATOM      6  H   UNL A   1      44.653  37.984  30.656  1.00  0.00     0.163 HD
BRANCH   4   7
ATOM      7  C   UNL A   1      44.903  41.315  30.868  1.00  0.00     0.082 C 
ATOM      8  C   UNL A   1      46.709  43.316  27.914  1.00  0.00     0.222 C 
ATOM      9  O   UNL A   1      47.811  42.774  27.820  1.00  0.00    -0.275 OA
ATOM     10  N   UNL A   1      46.009  43.344  29.124  1.00  0.00    -0.343 N 
ATOM     11  C   UNL A   1      46.663  43.131  30.430  1.00  0.00     0.120 C 
ATOM     12  C   UNL A   1      44.597  43.046  29.134  1.00  0.00     0.120 C 
ATOM     13  C   UNL A   1      46.332  41.785  31.130  1.00  0.00     0.035 C 
ATOM     14  C   UNL A   1      44.532  41.557  29.419  1.00  0.00     0.035 C 
BRANCH   8  15
ATOM     15  C   UNL A   1      46.100  44.092  26.717  1.00  0.00     0.105 C 
BRANCH  15  16
ATOM     16  C   UNL A   1      46.375  43.596  25.274  1.00  0.00     0.053 C 
BRANCH  16  17
ATOM     17  C   UNL A   1      45.117  43.312  24.475  1.00  0.00     0.042 A 
ATOM     18  C   UNL A   1      45.090  45.474  23.136  1.00  0.00     0.046 C 
ATOM     19  C   UNL A   1      44.723  44.050  23.432  1.00  0.00    -0.030 A 
ATOM     20  C   UNL A   1      43.811  43.381  22.522  1.00  0.00     0.022 A 
ATOM     21  C   UNL A   1      44.134  42.253  24.916  1.00  0.00     0.339 A 
ATOM     22  C   UNL A   1      42.686  42.795  23.038  1.00  0.00     0.142 A 
ATOM     23  C   UNL A   1      44.053  43.249  21.175  1.00  0.00     0.024 A 
ATOM     24  O   UNL A   1      44.414  41.453  25.801  1.00  0.00    -0.246 OA
ATOM     25  O   UNL A   1      42.816  42.334  24.366  1.00  0.00    -0.422 OA
ATOM     26  C   UNL A   1      41.539  42.621  22.240  1.00  0.00     0.095 A 
ATOM     27  C   UNL A   1      42.964  43.187  20.333  1.00  0.00     0.025 A 
ATOM     28  C   UNL A   1      41.707  43.003  20.894  1.00  0.00     0.138 A 
ATOM     29  C   UNL A   1      42.822  43.523  18.979  1.00  0.00     0.001 A 
ATOM     30  O   UNL A   1      40.767  43.361  19.950  1.00  0.00    -0.461 OA
ATOM     31  C   UNL A   1      41.483  43.806  18.869  1.00  0.00     0.108 A 
ATOM     32  C   UNL A   1      43.822  44.074  18.020  1.00  0.00     0.040 C 
ATOM     33  C   UNL A   1      40.997  44.903  17.989  1.00  0.00     0.076 C 
ATOM     34  C   UNL A   1      43.527  45.560  17.735  1.00  0.00     0.005 C 
ATOM     35  C   UNL A   1      42.079  46.024  18.066  1.00  0.00     0.008 C 
ENDBRANCH  16  17
ENDBRANCH  15  16
ENDBRANCH   8  15
ENDBRANCH   4   7
ENDBRANCH   2   3
ENDBRANCH   1   2
BRANCH   1  36
ATOM     36  C   UNL A   1      45.459  37.493  28.074  1.00  0.00     0.023 C 
BRANCH  36  37
ATOM     37  C   UNL A   1      44.144  37.935  27.429  1.00  0.00     0.116 C 
BRANCH  37  38
ATOM     38  N   UNL A   1      43.707  37.041  26.367  1.00  0.00    -0.352 N 
ATOM     39  C   UNL A   1      43.206  35.756  26.495  1.00  0.00     0.251 C 
ATOM     40  H   UNL A   1      43.776  37.390  25.449  1.00  0.00     0.163 HD
ATOM     41  O   UNL A   1      42.964  35.055  25.542  1.00  0.00    -0.269 OA
BRANCH  39  42
ATOM     42  C   UNL A   1      43.037  35.260  27.876  1.00  0.00     0.039 A 
ATOM     43  C   UNL A   1      43.929  34.296  28.354  1.00  0.00     0.014 A 
ATOM     44  C   UNL A   1      41.853  35.566  28.551  1.00  0.00     0.014 A 
ATOM     45  C   UNL A   1      43.542  33.498  29.417  1.00  0.00     0.010 A 
ATOM     46  C   UNL A   1      41.489  34.789  29.646  1.00  0.00     0.010 A 
ATOM     47  C   UNL A   1      42.304  33.718  30.034  1.00  0.00    -0.014 A 
BRANCH  47  48
ATOM     48  C   UNL A   1      41.939  32.803  31.118  1.00  0.00     0.031 A 
ATOM     49  C   UNL A   1      40.516  32.904  31.527  1.00  0.00     0.074 A 
ATOM     50  C   UNL A   1      42.588  31.643  31.344  1.00  0.00     0.049 A 
ATOM     51  N   UNL A   1      39.571  32.289  30.882  1.00  0.00    -0.248 NA
ATOM     52  C   UNL A   1      40.045  33.901  32.484  1.00  0.00     0.031 C 
ATOM     53  C   UNL A   1      43.289  30.862  30.319  1.00  0.00     0.029 A 
ATOM     54  N   UNL A   1      42.560  30.820  32.443  1.00  0.00    -0.354 N 
ATOM     55  C   UNL A   1      38.381  32.864  31.276  1.00  0.00     0.074 A 
ATOM     56  C   UNL A   1      38.718  33.839  32.290  1.00  0.00     0.031 C 
ATOM     57  C   UNL A   1      43.441  29.600  30.773  1.00  0.00     0.029 A 
ATOM     58  C   UNL A   1      43.015  29.535  32.166  1.00  0.00     0.049 A 
ATOM     59  H   UNL A   1      42.249  31.107  33.332  1.00  0.00     0.167 HD
ATOM     60  C   UNL A   1      37.190  32.531  30.721  1.00  0.00     0.037 A 
ATOM     61  C   UNL A   1      42.598  28.409  32.802  1.00  0.00     0.037 A 
ATOM     62  C   UNL A   1      37.225  31.524  29.704  1.00  0.00     0.049 A 
ATOM     63  C   UNL A   1      41.172  28.314  32.315  1.00  0.00     0.074 A 
ATOM     64  C   UNL A   1      37.297  31.487  28.328  1.00  0.00     0.029 A 
ATOM     65  N   UNL A   1      37.276  30.208  30.098  1.00  0.00    -0.354 N 
ATOM     66  N   UNL A   1      40.786  27.833  31.162  1.00  0.00    -0.248 NA
ATOM     67  C   UNL A   1      40.156  29.106  33.013  1.00  0.00     0.031 C 
ATOM     68  C   UNL A   1      37.829  30.199  28.007  1.00  0.00     0.029 A 
ATOM     69  C   UNL A   1      38.103  29.560  29.214  1.00  0.00     0.049 A 
ATOM     70  H   UNL A   1      36.809  29.806  30.866  1.00  0.00     0.167 HD
ATOM     71  C   UNL A   1      39.585  28.486  30.874  1.00  0.00     0.074 A 
ATOM     72  C   UNL A   1      39.236  29.226  32.066  1.00  0.00     0.031 C 
ATOM     73  C   UNL A   1      39.043  28.544  29.624  1.00  0.00     0.037 A 
BRANCH  60  74
ATOM     74  C   UNL A   1      35.895  33.041  31.188  1.00  0.00     0.064 A 
ATOM     75  C   UNL A   1      35.280  34.056  30.442  1.00  0.00     0.173 A 
ATOM     76  C   UNL A   1      35.355  32.701  32.430  1.00  0.00     0.173 A 
ATOM     77  F   UNL A   1      35.785  34.406  29.247  1.00  0.00    -0.203 F 
ATOM     78  C   UNL A   1      34.182  34.742  30.941  1.00  0.00     0.198 A 
ATOM     79  C   UNL A   1      34.249  33.387  32.927  1.00  0.00     0.198 A 
ATOM     80  F   UNL A   1      35.920  31.739  33.174  1.00  0.00    -0.203 F 
ATOM     81  F   UNL A   1      33.641  35.738  30.227  1.00  0.00    -0.200 F 
ATOM     82  C   UNL A   1      33.674  34.415  32.189  1.00  0.00     0.200 A 
ATOM     83  F   UNL A   1      33.754  33.076  34.132  1.00  0.00    -0.200 F 
ATOM     84  F   UNL A   1      32.636  35.101  32.685  1.00  0.00    -0.200 F 
ENDBRANCH  60  74
BRANCH  61  85
ATOM     85  C   UNL A   1      43.001  28.339  34.246  1.00  0.00     0.064 A 
ATOM     86  C   UNL A   1      43.636  27.164  34.708  1.00  0.00     0.173 A 
ATOM     87  C   UNL A   1      42.816  29.350  35.200  1.00  0.00     0.173 A 
ATOM     88  F   UNL A   1      43.752  26.098  33.900  1.00  0.00    -0.203 F 
ATOM     89  C   UNL A   1      44.173  27.065  35.991  1.00  0.00     0.198 A 
ATOM     90  C   UNL A   1      43.377  29.261  36.478  1.00  0.00     0.198 A 
ATOM     91  F   UNL A   1      42.108  30.450  34.917  1.00  0.00    -0.203 F 
ATOM     92  F   UNL A   1      44.808  25.946  36.367  1.00  0.00    -0.200 F 
ATOM     93  C   UNL A   1      44.071  28.130  36.867  1.00  0.00     0.200 A 
ATOM     94  F   UNL A   1      43.261  30.295  37.325  1.00  0.00    -0.200 F 
ATOM     95  F   UNL A   1      44.635  28.064  38.080  1.00  0.00    -0.200 F 
ENDBRANCH  61  85
BRANCH  73  96
ATOM     96  C   UNL A   1      39.679  27.666  28.607  1.00  0.00     0.064 A 
ATOM     97  C   UNL A   1      39.428  26.288  28.620  1.00  0.00     0.173 A 
ATOM     98  C   UNL A   1      40.500  28.181  27.595  1.00  0.00     0.173 A 
ATOM     99  F   UNL A   1      38.640  25.752  29.566  1.00  0.00    -0.203 F 
ATOM    100  C   UNL A   1      39.959  25.458  27.639  1.00  0.00     0.198 A 
ATOM    101  C   UNL A   1      41.010  27.351  26.600  1.00  0.00     0.198 A 
ATOM    102  F   UNL A   1      40.794  29.491  27.547  1.00  0.00    -0.203 F 
ATOM    103  F   UNL A   1      39.698  24.143  27.661  1.00  0.00    -0.200 F 
ATOM    104  C   UNL A   1      40.738  25.992  26.622  1.00  0.00     0.200 A 
ATOM    105  F   UNL A   1      41.749  27.871  25.610  1.00  0.00    -0.200 F 
ATOM    106  F   UNL A   1      41.217  25.197  25.655  1.00  0.00    -0.200 F 
ENDBRANCH  73  96
ENDBRANCH  47  48
ENDBRANCH  39  42
ENDBRANCH  37  38
ENDBRANCH  36  37
ENDBRANCH   1  36
TORSDOF 14
ENDMDL
MODEL 2
REMARK VINA RESULT:     -13.5      6.828     11.355
REMARK SMILES Cc1c(CCC(=O)N2CCC(C(=O)NCCCCNC(=O)c3ccc(-c4c5nc(c(-c6c(F)c(F)c(F)c(F)c6F)c6ccc([nH]6)c(-c6c(F)c(F)c(F)c(F)c6F)c6nc(c(-c7c(F)c(F)c(F)c(F)c7F)c7ccc4[nH]7)C=C6)C=C5)cc3)CC2)c(=O)oc2cc3oc4c(c3cc12)CCCC4
REMARK SMILES IDX 16 1 15 2 14 3 12 4 13 5 11 7 6 8 7 9 8 10 9 11 86 12 10 13
REMARK SMILES IDX 85 14 5 15 4 16 3 17 1 18 2 19 98 20 87 21 90 22 97 23 88 24
REMARK SMILES IDX 89 25 91 26 96 27 92 28 95 29 93 30 94 31 99 32 102 33
REMARK SMILES IDX 100 34 101 35 17 36 18 37 19 38 20 39 21 41 22 42 23 43
REMARK SMILES IDX 84 44 24 45 83 46 25 47 26 48 27 49 77 50 28 51 82 52 76 53
REMARK SMILES IDX 78 54 29 55 81 56 75 57 74 58 30 60 62 61 42 62 61 63 43 64
REMARK SMILES IDX 46 65 60 66 79 67 44 68 45 69 59 71 80 72 47 73 31 74 32 75
REMARK SMILES IDX 40 76 33 77 34 78 38 79 41 80 35 81 36 82 39 83 37 84 63 85
REMARK SMILES IDX 64 86 72 87 65 88 66 89 70 90 73 91 67 92 68 93 71 94 69 95
REMARK SMILES IDX 48 96 49 97 57 98 50 99 51 100 55 101 58 102 52 103 53 104
REMARK SMILES IDX 56 105 54 106
REMARK H PARENT 14 6 19 40 78 59 46 70
REMARK Flexibility Score: inf
ROOT
ATOM      1  C   UNL A   1      47.418  31.770  31.047  1.00  0.00     0.023 C 
ENDROOT
BRANCH   1   2
ATOM      2  C   UNL A   1      46.416  32.860  31.398  1.00  0.00     0.116 C 
BRANCH   2   3
ATOM      3  N   UNL A   1      46.544  33.201  32.803  1.00  0.00    -0.356 N 
ATOM      4  C   UNL A   1      45.617  33.256  33.789  1.00  0.00     0.223 C 
ATOM      5  O   UNL A   1      45.954  33.763  34.862  1.00  0.00    -0.275 OA
ATOM      6  H   UNL A   1      47.459  33.430  33.087  1.00  0.00     0.163 HD
BRANCH   4   7
ATOM      7  C   UNL A   1      44.285  32.536  33.661  1.00  0.00     0.082 C 
ATOM      8  C   UNL A   1      40.826  32.290  35.653  1.00  0.00     0.222 C 
ATOM      9  O   UNL A   1      41.156  31.895  36.772  1.00  0.00    -0.275 OA
ATOM     10  N   UNL A   1      41.576  31.975  34.516  1.00  0.00    -0.343 N 
ATOM     11  C   UNL A   1      42.530  30.849  34.476  1.00  0.00     0.120 C 
ATOM     12  C   UNL A   1      41.863  33.005  33.547  1.00  0.00     0.120 C 
ATOM     13  C   UNL A   1      44.031  31.248  34.439  1.00  0.00     0.035 C 
ATOM     14  C   UNL A   1      43.210  33.556  33.977  1.00  0.00     0.035 C 
BRANCH   8  15
ATOM     15  C   UNL A   1      39.496  33.060  35.442  1.00  0.00     0.105 C 
BRANCH  15  16
ATOM     16  C   UNL A   1      38.349  32.386  34.646  1.00  0.00     0.053 C 
BRANCH  16  17
ATOM     17  C   UNL A   1      37.196  33.320  34.326  1.00  0.00     0.042 A 
ATOM     18  C   UNL A   1      38.018  34.077  32.042  1.00  0.00     0.046 C 
ATOM     19  C   UNL A   1      36.998  33.861  33.120  1.00  0.00    -0.030 A 
ATOM     20  C   UNL A   1      35.641  34.312  32.870  1.00  0.00     0.022 A 
ATOM     21  C   UNL A   1      36.277  33.828  35.413  1.00  0.00     0.339 A 
ATOM     22  C   UNL A   1      35.052  35.150  33.779  1.00  0.00     0.142 A 
ATOM     23  C   UNL A   1      34.892  33.887  31.798  1.00  0.00     0.024 A 
ATOM     24  O   UNL A   1      36.298  33.347  36.540  1.00  0.00    -0.246 OA
ATOM     25  O   UNL A   1      35.506  34.993  35.107  1.00  0.00    -0.422 OA
ATOM     26  C   UNL A   1      34.025  36.027  33.384  1.00  0.00     0.095 A 
ATOM     27  C   UNL A   1      33.945  34.754  31.296  1.00  0.00     0.025 A 
ATOM     28  C   UNL A   1      33.622  35.880  32.042  1.00  0.00     0.138 A 
ATOM     29  C   UNL A   1      33.381  34.866  30.018  1.00  0.00     0.001 A 
ATOM     30  O   UNL A   1      32.984  36.771  31.204  1.00  0.00    -0.461 OA
ATOM     31  C   UNL A   1      32.993  36.183  29.966  1.00  0.00     0.108 A 
ATOM     32  C   UNL A   1      33.647  34.078  28.781  1.00  0.00     0.040 C 
ATOM     33  C   UNL A   1      33.110  36.972  28.710  1.00  0.00     0.076 C 
ATOM     34  C   UNL A   1      34.455  34.921  27.774  1.00  0.00     0.005 C 
ATOM     35  C   UNL A   1      34.401  36.458  28.002  1.00  0.00     0.008 C 
ENDBRANCH  16  17
ENDBRANCH  15  16
ENDBRANCH   8  15
ENDBRANCH   4   7
ENDBRANCH   2   3
ENDBRANCH   1   2
BRANCH   1  36
ATOM     36  C   UNL A   1      48.448  32.228  30.015  1.00  0.00     0.023 C 
BRANCH  36  37
ATOM     37  C   UNL A   1      47.980  33.427  29.188  1.00  0.00     0.116 C 
BRANCH  37  38
ATOM     38  N   UNL A   1      48.783  33.636  27.993  1.00  0.00    -0.352 N 
ATOM     39  C   UNL A   1      48.570  33.114  26.728  1.00  0.00     0.251 C 
ATOM     40  H   UNL A   1      49.570  34.218  28.095  1.00  0.00     0.163 HD
ATOM     41  O   UNL A   1      49.353  33.268  25.821  1.00  0.00    -0.269 OA
BRANCH  39  42
ATOM     42  C   UNL A   1      47.349  32.300  26.559  1.00  0.00     0.039 A 
ATOM     43  C   UNL A   1      46.124  32.955  26.413  1.00  0.00     0.014 A 
ATOM     44  C   UNL A   1      47.425  30.929  26.815  1.00  0.00     0.014 A 
ATOM     45  C   UNL A   1      44.959  32.268  26.714  1.00  0.00     0.010 A 
ATOM     46  C   UNL A   1      46.249  30.232  27.074  1.00  0.00     0.010 A 
ATOM     47  C   UNL A   1      45.028  30.920  27.085  1.00  0.00    -0.014 A 
BRANCH  47  48
ATOM     48  C   UNL A   1      43.763  30.271  27.437  1.00  0.00     0.031 A 
ATOM     49  C   UNL A   1      43.630  28.895  26.898  1.00  0.00     0.074 A 
ATOM     50  C   UNL A   1      43.059  30.595  28.541  1.00  0.00     0.049 A 
ATOM     51  N   UNL A   1      44.158  27.868  27.495  1.00  0.00    -0.248 NA
ATOM     52  C   UNL A   1      43.155  28.626  25.544  1.00  0.00     0.031 C 
ATOM     53  C   UNL A   1      43.638  31.143  29.772  1.00  0.00     0.029 A 
ATOM     54  N   UNL A   1      41.761  30.293  28.876  1.00  0.00    -0.354 N 
ATOM     55  C   UNL A   1      44.168  26.837  26.581  1.00  0.00     0.074 A 
ATOM     56  C   UNL A   1      43.511  27.340  25.394  1.00  0.00     0.031 C 
ATOM     57  C   UNL A   1      42.761  30.948  30.780  1.00  0.00     0.029 A 
ATOM     58  C   UNL A   1      41.510  30.431  30.237  1.00  0.00     0.049 A 
ATOM     59  H   UNL A   1      41.081  30.008  28.223  1.00  0.00     0.167 HD
ATOM     60  C   UNL A   1      44.746  25.638  26.838  1.00  0.00     0.037 A 
ATOM     61  C   UNL A   1      40.596  29.708  30.935  1.00  0.00     0.037 A 
ATOM     62  C   UNL A   1      45.338  25.486  28.133  1.00  0.00     0.049 A 
ATOM     63  C   UNL A   1      41.228  28.337  30.903  1.00  0.00     0.074 A 
ATOM     64  C   UNL A   1      46.591  25.633  28.688  1.00  0.00     0.029 A 
ATOM     65  N   UNL A   1      44.514  25.183  29.190  1.00  0.00    -0.354 N 
ATOM     66  N   UNL A   1      42.189  27.917  31.683  1.00  0.00    -0.248 NA
ATOM     67  C   UNL A   1      41.004  27.507  29.715  1.00  0.00     0.031 C 
ATOM     68  C   UNL A   1      46.368  25.848  30.084  1.00  0.00     0.029 A 
ATOM     69  C   UNL A   1      44.989  25.877  30.275  1.00  0.00     0.049 A 
ATOM     70  H   UNL A   1      43.733  24.583  29.173  1.00  0.00     0.167 HD
ATOM     71  C   UNL A   1      42.860  26.937  30.946  1.00  0.00     0.074 A 
ATOM     72  C   UNL A   1      42.060  26.708  29.764  1.00  0.00     0.031 C 
ATOM     73  C   UNL A   1      44.120  26.507  31.241  1.00  0.00     0.037 A 
BRANCH  60  74
ATOM     74  C   UNL A   1      44.681  24.484  25.933  1.00  0.00     0.064 A 
ATOM     75  C   UNL A   1      43.524  23.694  25.956  1.00  0.00     0.173 A 
ATOM     76  C   UNL A   1      45.785  24.035  25.205  1.00  0.00     0.173 A 
ATOM     77  F   UNL A   1      42.451  24.101  26.655  1.00  0.00    -0.203 F 
ATOM     78  C   UNL A   1      43.484  22.469  25.306  1.00  0.00     0.198 A 
ATOM     79  C   UNL A   1      45.741  22.808  24.548  1.00  0.00     0.198 A 
ATOM     80  F   UNL A   1      46.911  24.761  25.166  1.00  0.00    -0.203 F 
ATOM     81  F   UNL A   1      42.381  21.713  25.380  1.00  0.00    -0.200 F 
ATOM     82  C   UNL A   1      44.597  22.021  24.611  1.00  0.00     0.200 A 
ATOM     83  F   UNL A   1      46.814  22.369  23.876  1.00  0.00    -0.200 F 
ATOM     84  F   UNL A   1      44.570  20.823  24.013  1.00  0.00    -0.200 F 
ENDBRANCH  60  74
BRANCH  61  85
ATOM     85  C   UNL A   1      39.172  29.988  30.550  1.00  0.00     0.064 A 
ATOM     86  C   UNL A   1      38.225  30.175  31.582  1.00  0.00     0.173 A 
ATOM     87  C   UNL A   1      38.682  30.098  29.242  1.00  0.00     0.173 A 
ATOM     88  F   UNL A   1      38.574  29.975  32.863  1.00  0.00    -0.203 F 
ATOM     89  C   UNL A   1      36.915  30.580  31.323  1.00  0.00     0.198 A 
ATOM     90  C   UNL A   1      37.377  30.529  28.983  1.00  0.00     0.198 A 
ATOM     91  F   UNL A   1      39.452  29.809  28.186  1.00  0.00    -0.203 F 
ATOM     92  F   UNL A   1      36.066  30.789  32.339  1.00  0.00    -0.200 F 
ATOM     93  C   UNL A   1      36.501  30.790  30.021  1.00  0.00     0.200 A 
ATOM     94  F   UNL A   1      36.981  30.717  27.715  1.00  0.00    -0.200 F 
ATOM     95  F   UNL A   1      35.264  31.235  29.769  1.00  0.00    -0.200 F 
ENDBRANCH  61  85
BRANCH  73  96
ATOM     96  C   UNL A   1      44.667  26.967  32.544  1.00  0.00     0.064 A 
ATOM     97  C   UNL A   1      44.455  26.204  33.699  1.00  0.00     0.173 A 
ATOM     98  C   UNL A   1      45.435  28.135  32.652  1.00  0.00     0.173 A 
ATOM     99  F   UNL A   1      43.732  25.074  33.640  1.00  0.00    -0.203 F 
ATOM    100  C   UNL A   1      45.013  26.582  34.915  1.00  0.00     0.198 A 
ATOM    101  C   UNL A   1      46.013  28.497  33.866  1.00  0.00     0.198 A 
ATOM    102  F   UNL A   1      45.652  28.917  31.583  1.00  0.00    -0.203 F 
ATOM    103  F   UNL A   1      44.808  25.832  36.007  1.00  0.00    -0.200 F 
ATOM    104  C   UNL A   1      45.803  27.720  34.995  1.00  0.00     0.200 A 
ATOM    105  F   UNL A   1      46.789  29.588  33.938  1.00  0.00    -0.200 F 
ATOM    106  F   UNL A   1      46.373  28.062  36.159  1.00  0.00    -0.200 F 
ENDBRANCH  73  96
ENDBRANCH  47  48
ENDBRANCH  39  42
ENDBRANCH  37  38
ENDBRANCH  36  37
ENDBRANCH   1  36
TORSDOF 14
ENDMDL
MODEL 3
REMARK VINA RESULT:     -13.5      9.030     19.836
REMARK SMILES Cc1c(CCC(=O)N2CCC(C(=O)NCCCCNC(=O)c3ccc(-c4c5nc(c(-c6c(F)c(F)c(F)c(F)c6F)c6ccc([nH]6)c(-c6c(F)c(F)c(F)c(F)c6F)c6nc(c(-c7c(F)c(F)c(F)c(F)c7F)c7ccc4[nH]7)C=C6)C=C5)cc3)CC2)c(=O)oc2cc3oc4c(c3cc12)CCCC4
REMARK SMILES IDX 16 1 15 2 14 3 12 4 13 5 11 7 6 8 7 9 8 10 9 11 86 12 10 13
REMARK SMILES IDX 85 14 5 15 4 16 3 17 1 18 2 19 98 20 87 21 90 22 97 23 88 24
REMARK SMILES IDX 89 25 91 26 96 27 92 28 95 29 93 30 94 31 99 32 102 33
REMARK SMILES IDX 100 34 101 35 17 36 18 37 19 38 20 39 21 41 22 42 23 43
REMARK SMILES IDX 84 44 24 45 83 46 25 47 26 48 27 49 77 50 28 51 82 52 76 53
REMARK SMILES IDX 78 54 29 55 81 56 75 57 74 58 30 60 62 61 42 62 61 63 43 64
REMARK SMILES IDX 46 65 60 66 79 67 44 68 45 69 59 71 80 72 47 73 31 74 32 75
REMARK SMILES IDX 40 76 33 77 34 78 38 79 41 80 35 81 36 82 39 83 37 84 63 85
REMARK SMILES IDX 64 86 72 87 65 88 66 89 70 90 73 91 67 92 68 93 71 94 69 95
REMARK SMILES IDX 48 96 49 97 57 98 50 99 51 100 55 101 58 102 52 103 53 104
REMARK SMILES IDX 56 105 54 106
REMARK H PARENT 14 6 19 40 78 59 46 70
REMARK Flexibility Score: inf
ROOT
ATOM      1  C   UNL A   1      46.851  23.987  36.375  1.00  0.00     0.023 C 
ENDROOT
BRANCH   1   2
ATOM      2  C   UNL A   1      46.500  22.930  35.339  1.00  0.00     0.116 C 
BRANCH   2   3
ATOM      3  N   UNL A   1      47.559  21.940  35.280  1.00  0.00    -0.356 N 
ATOM      4  C   UNL A   1      47.960  21.016  36.188  1.00  0.00     0.223 C 
ATOM      5  O   UNL A   1      49.017  20.420  35.966  1.00  0.00    -0.275 OA
ATOM      6  H   UNL A   1      48.072  21.937  34.440  1.00  0.00     0.163 HD
BRANCH   4   7
ATOM      7  C   UNL A   1      47.048  20.576  37.321  1.00  0.00     0.082 C 
ATOM      8  C   UNL A   1      47.285  18.375  40.652  1.00  0.00     0.222 C 
ATOM      9  O   UNL A   1      47.649  17.269  40.250  1.00  0.00    -0.275 OA
ATOM     10  N   UNL A   1      46.545  19.240  39.840  1.00  0.00    -0.343 N 
ATOM     11  C   UNL A   1      45.795  18.777  38.655  1.00  0.00     0.120 C 
ATOM     12  C   UNL A   1      46.898  20.638  39.785  1.00  0.00     0.120 C 
ATOM     13  C   UNL A   1      46.387  19.200  37.283  1.00  0.00     0.035 C 
ATOM     14  C   UNL A   1      47.842  20.738  38.601  1.00  0.00     0.035 C 
BRANCH   8  15
ATOM     15  C   UNL A   1      47.535  18.810  42.119  1.00  0.00     0.105 C 
BRANCH  15  16
ATOM     16  C   UNL A   1      46.409  18.619  43.168  1.00  0.00     0.053 C 
BRANCH  16  17
ATOM     17  C   UNL A   1      45.328  17.647  42.734  1.00  0.00     0.042 A 
ATOM     18  C   UNL A   1      46.675  15.511  43.034  1.00  0.00     0.046 C 
ATOM     19  C   UNL A   1      45.422  16.323  42.888  1.00  0.00    -0.030 A 
ATOM     20  C   UNL A   1      44.154  15.616  42.872  1.00  0.00     0.022 A 
ATOM     21  C   UNL A   1      44.127  18.115  41.945  1.00  0.00     0.339 A 
ATOM     22  C   UNL A   1      43.298  15.832  41.825  1.00  0.00     0.142 A 
ATOM     23  C   UNL A   1      43.739  14.790  43.890  1.00  0.00     0.024 A 
ATOM     24  O   UNL A   1      43.880  19.307  41.811  1.00  0.00    -0.246 OA
ATOM     25  O   UNL A   1      43.396  17.111  41.237  1.00  0.00    -0.422 OA
ATOM     26  C   UNL A   1      42.361  14.850  41.452  1.00  0.00     0.095 A 
ATOM     27  C   UNL A   1      42.908  13.741  43.564  1.00  0.00     0.025 A 
ATOM     28  C   UNL A   1      42.334  13.724  42.299  1.00  0.00     0.138 A 
ATOM     29  C   UNL A   1      42.693  12.503  44.187  1.00  0.00     0.001 A 
ATOM     30  O   UNL A   1      41.886  12.442  42.056  1.00  0.00    -0.461 OA
ATOM     31  C   UNL A   1      42.255  11.709  43.155  1.00  0.00     0.108 A 
ATOM     32  C   UNL A   1      43.322  11.925  45.409  1.00  0.00     0.040 C 
ATOM     33  C   UNL A   1      42.650  10.278  43.062  1.00  0.00     0.076 C 
ATOM     34  C   UNL A   1      44.314  10.810  45.023  1.00  0.00     0.005 C 
ATOM     35  C   UNL A   1      44.111  10.203  43.605  1.00  0.00     0.008 C 
ENDBRANCH  16  17
ENDBRANCH  15  16
ENDBRANCH   8  15
ENDBRANCH   4   7
ENDBRANCH   2   3
ENDBRANCH   1   2
BRANCH   1  36
ATOM     36  C   UNL A   1      45.703  24.263  37.346  1.00  0.00     0.023 C 
BRANCH  36  37
ATOM     37  C   UNL A   1      44.323  24.127  36.700  1.00  0.00     0.116 C 
BRANCH  37  38
ATOM     38  N   UNL A   1      43.265  24.727  37.499  1.00  0.00    -0.352 N 
ATOM     39  C   UNL A   1      42.572  25.899  37.243  1.00  0.00     0.251 C 
ATOM     40  H   UNL A   1      43.011  24.243  38.318  1.00  0.00     0.163 HD
ATOM     41  O   UNL A   1      41.776  26.366  38.022  1.00  0.00    -0.269 OA
BRANCH  39  42
ATOM     42  C   UNL A   1      42.904  26.586  35.978  1.00  0.00     0.039 A 
ATOM     43  C   UNL A   1      44.066  27.359  35.923  1.00  0.00     0.014 A 
ATOM     44  C   UNL A   1      41.924  26.658  34.985  1.00  0.00     0.014 A 
ATOM     45  C   UNL A   1      44.163  28.351  34.962  1.00  0.00     0.010 A 
ATOM     46  C   UNL A   1      42.048  27.627  33.995  1.00  0.00     0.010 A 
ATOM     47  C   UNL A   1      43.134  28.511  34.027  1.00  0.00    -0.014 A 
BRANCH  47  48
ATOM     48  C   UNL A   1      43.281  29.613  33.072  1.00  0.00     0.031 A 
ATOM     49  C   UNL A   1      43.169  29.189  31.654  1.00  0.00     0.074 A 
ATOM     50  C   UNL A   1      42.985  30.891  33.381  1.00  0.00     0.049 A 
ATOM     51  N   UNL A   1      42.017  29.028  31.073  1.00  0.00    -0.248 NA
ATOM     52  C   UNL A   1      44.303  28.658  30.903  1.00  0.00     0.031 C 
ATOM     53  C   UNL A   1      42.003  31.303  34.390  1.00  0.00     0.029 A 
ATOM     54  N   UNL A   1      43.308  32.052  32.722  1.00  0.00    -0.354 N 
ATOM     55  C   UNL A   1      42.249  28.304  29.924  1.00  0.00     0.074 A 
ATOM     56  C   UNL A   1      43.682  28.120  29.841  1.00  0.00     0.031 C 
ATOM     57  C   UNL A   1      41.653  32.584  34.147  1.00  0.00     0.029 A 
ATOM     58  C   UNL A   1      42.504  33.124  33.093  1.00  0.00     0.049 A 
ATOM     59  H   UNL A   1      44.031  32.119  32.056  1.00  0.00     0.167 HD
ATOM     60  C   UNL A   1      41.247  27.866  29.121  1.00  0.00     0.037 A 
ATOM     61  C   UNL A   1      42.178  34.167  32.285  1.00  0.00     0.037 A 
ATOM     62  C   UNL A   1      39.918  28.215  29.523  1.00  0.00     0.049 A 
ATOM     63  C   UNL A   1      41.287  33.482  31.276  1.00  0.00     0.074 A 
ATOM     64  C   UNL A   1      38.902  27.631  30.249  1.00  0.00     0.029 A 
ATOM     65  N   UNL A   1      39.457  29.473  29.214  1.00  0.00    -0.354 N 
ATOM     66  N   UNL A   1      40.024  33.188  31.444  1.00  0.00    -0.248 NA
ATOM     67  C   UNL A   1      41.928  32.790  30.154  1.00  0.00     0.031 C 
ATOM     68  C   UNL A   1      38.088  28.714  30.708  1.00  0.00     0.029 A 
ATOM     69  C   UNL A   1      38.699  29.890  30.280  1.00  0.00     0.049 A 
ATOM     70  H   UNL A   1      39.636  29.977  28.388  1.00  0.00     0.167 HD
ATOM     71  C   UNL A   1      39.793  32.079  30.624  1.00  0.00     0.074 A 
ATOM     72  C   UNL A   1      40.991  31.910  29.833  1.00  0.00     0.031 C 
ATOM     73  C   UNL A   1      38.722  31.248  30.770  1.00  0.00     0.037 A 
BRANCH  60  74
ATOM     74  C   UNL A   1      41.460  27.189  27.836  1.00  0.00     0.064 A 
ATOM     75  C   UNL A   1      41.470  25.788  27.826  1.00  0.00     0.173 A 
ATOM     76  C   UNL A   1      41.841  27.872  26.679  1.00  0.00     0.173 A 
ATOM     77  F   UNL A   1      41.114  25.108  28.928  1.00  0.00    -0.203 F 
ATOM     78  C   UNL A   1      41.892  25.087  26.704  1.00  0.00     0.198 A 
ATOM     79  C   UNL A   1      42.258  27.166  25.553  1.00  0.00     0.198 A 
ATOM     80  F   UNL A   1      41.850  29.212  26.655  1.00  0.00    -0.203 F 
ATOM     81  F   UNL A   1      41.935  23.749  26.735  1.00  0.00    -0.200 F 
ATOM     82  C   UNL A   1      42.297  25.777  25.572  1.00  0.00     0.200 A 
ATOM     83  F   UNL A   1      42.652  27.827  24.456  1.00  0.00    -0.200 F 
ATOM     84  F   UNL A   1      42.736  25.101  24.502  1.00  0.00    -0.200 F 
ENDBRANCH  60  74
BRANCH  61  85
ATOM     85  C   UNL A   1      43.340  35.045  31.923  1.00  0.00     0.064 A 
ATOM     86  C   UNL A   1      44.348  35.254  32.891  1.00  0.00     0.173 A 
ATOM     87  C   UNL A   1      43.534  35.683  30.691  1.00  0.00     0.173 A 
ATOM     88  F   UNL A   1      44.194  34.780  34.138  1.00  0.00    -0.203 F 
ATOM     89  C   UNL A   1      45.531  35.933  32.598  1.00  0.00     0.198 A 
ATOM     90  C   UNL A   1      44.730  36.342  30.388  1.00  0.00     0.198 A 
ATOM     91  F   UNL A   1      42.585  35.671  29.746  1.00  0.00    -0.203 F 
ATOM     92  F   UNL A   1      46.478  36.064  33.537  1.00  0.00    -0.200 F 
ATOM     93  C   UNL A   1      45.735  36.450  31.333  1.00  0.00     0.200 A 
ATOM     94  F   UNL A   1      44.913  36.852  29.161  1.00  0.00    -0.200 F 
ATOM     95  F   UNL A   1      46.891  37.052  31.027  1.00  0.00    -0.200 F 
ENDBRANCH  61  85
BRANCH  73  96
ATOM     96  C   UNL A   1      37.668  31.718  31.706  1.00  0.00     0.064 A 
ATOM     97  C   UNL A   1      37.851  31.585  33.088  1.00  0.00     0.173 A 
ATOM     98  C   UNL A   1      36.495  32.337  31.249  1.00  0.00     0.173 A 
ATOM     99  F   UNL A   1      38.962  31.005  33.570  1.00  0.00    -0.203 F 
ATOM    100  C   UNL A   1      36.908  32.078  33.982  1.00  0.00     0.198 A 
ATOM    101  C   UNL A   1      35.565  32.851  32.148  1.00  0.00     0.198 A 
ATOM    102  F   UNL A   1      36.256  32.472  29.935  1.00  0.00    -0.203 F 
ATOM    103  F   UNL A   1      37.106  31.951  35.302  1.00  0.00    -0.200 F 
ATOM    104  C   UNL A   1      35.772  32.722  33.512  1.00  0.00     0.200 A 
ATOM    105  F   UNL A   1      34.477  33.488  31.693  1.00  0.00    -0.200 F 
ATOM    106  F   UNL A   1      34.883  33.231  34.377  1.00  0.00    -0.200 F 
ENDBRANCH  73  96
ENDBRANCH  47  48
ENDBRANCH  39  42
ENDBRANCH  37  38
ENDBRANCH  36  37
ENDBRANCH   1  36
TORSDOF 14
ENDMDL
