MODEL 1
REMARK VINA RESULT:     -13.8      0.000      0.000
REMARK SMILES CC(C)C(=O)Nc1ccc2c([C@H](C(=O)NCCCCNC(=O)c3ccc(-c4c5nc(c(-c6c(F)c(F)c(F)c(F)c6F)c6ccc([nH]6)c(-c6c(F)c(F)c(F)c(F)c6F)c6nc(c(-c7c(F)c(F)c(F)c(F)c7F)c7ccc4[nH]7)C=C6)C=C5)cc3)[NH+]3CC[NH+](CC(=O)N(C)C)CC3)c[nH]c2c1
REMARK SMILES IDX 17 1 16 2 15 3 13 4 14 5 12 7 11 8 7 9 8 10 101 11 9 12
REMARK SMILES IDX 100 13 10 14 99 15 98 16 6 18 4 19 5 20 2 22 1 23 3 24 86 25
REMARK SMILES IDX 87 26 97 27 88 29 96 30 89 31 90 33 91 34 92 35 93 36 94 37
REMARK SMILES IDX 95 38 18 39 19 40 20 41 21 42 22 44 23 45 24 46 85 47 25 48
REMARK SMILES IDX 84 49 26 50 27 51 28 52 78 53 29 54 83 55 77 56 79 57 30 58
REMARK SMILES IDX 82 59 76 60 75 61 31 63 63 64 43 65 62 66 44 67 47 68 61 69
REMARK SMILES IDX 80 70 45 71 46 72 60 74 81 75 48 76 32 77 33 78 41 79 34 80
REMARK SMILES IDX 35 81 39 82 42 83 36 84 37 85 40 86 38 87 64 88 65 89 73 90
REMARK SMILES IDX 66 91 67 92 71 93 74 94 68 95 69 96 72 97 70 98 49 99 50 100
REMARK SMILES IDX 58 101 51 102 52 103 56 104 59 105 53 106 54 107 57 108
REMARK SMILES IDX 55 109
REMARK H PARENT 15 6 99 17 6 21 86 28 89 32 20 43 79 62 47 73
REMARK Flexibility Score: inf
ROOT
ATOM      1  C   UNL A   1      35.767  23.084  23.389  1.00  0.00     0.023 C 
ENDROOT
BRANCH   1   2
ATOM      2  C   UNL A   1      35.286  24.388  24.073  1.00  0.00     0.116 C 
BRANCH   2   3
ATOM      3  N   UNL A   1      34.600  25.233  23.100  1.00  0.00    -0.351 N 
ATOM      4  C   UNL A   1      33.281  25.265  22.694  1.00  0.00     0.283 C 
ATOM      5  O   UNL A   1      33.135  25.490  21.485  1.00  0.00    -0.268 OA
ATOM      6  H   UNL A   1      35.179  25.895  22.657  1.00  0.00     0.163 HD
BRANCH   4   7
ATOM      7  C   UNL A   1      32.064  25.152  23.691  1.00  0.00     0.308 C 
BRANCH   7   8
ATOM      8  C   UNL A   1      32.376  24.268  24.919  1.00  0.00     0.044 A 
ATOM      9  C   UNL A   1      32.674  20.092  25.561  1.00  0.00     0.043 A 
ATOM     10  C   UNL A   1      32.481  20.489  24.245  1.00  0.00     0.027 A 
ATOM     11  C   UNL A   1      32.652  21.034  26.595  1.00  0.00     0.052 A 
ATOM     12  C   UNL A   1      32.409  21.841  23.909  1.00  0.00     0.013 A 
ATOM     13  C   UNL A   1      32.592  22.391  26.239  1.00  0.00     0.048 A 
ATOM     14  C   UNL A   1      32.482  22.823  24.918  1.00  0.00     0.009 A 
ATOM     15  N   UNL A   1      32.617  23.518  27.022  1.00  0.00    -0.361 N 
ATOM     16  C   UNL A   1      32.534  24.643  26.244  1.00  0.00     0.094 A 
ATOM     17  H   UNL A   1      32.684  23.518  28.004  1.00  0.00     0.166 HD
BRANCH   9  18
ATOM     18  N   UNL A   1      32.848  18.745  25.890  1.00  0.00    -0.326 N 
ATOM     19  C   UNL A   1      32.982  17.649  25.085  1.00  0.00     0.226 C 
ATOM     20  O   UNL A   1      32.885  16.536  25.616  1.00  0.00    -0.274 OA
ATOM     21  H   UNL A   1      32.881  18.556  26.856  1.00  0.00     0.169 HD
BRANCH  19  22
ATOM     22  C   UNL A   1      33.365  17.743  23.598  1.00  0.00     0.072 C 
ATOM     23  C   UNL A   1      34.403  16.732  23.129  1.00  0.00     0.018 C 
ATOM     24  C   UNL A   1      32.171  17.849  22.651  1.00  0.00     0.018 C 
ENDBRANCH  19  22
ENDBRANCH   9  18
ENDBRANCH   7   8
BRANCH   7  25
ATOM     25  N   UNL A   1      31.584  26.429  24.257  1.00  0.00    -0.312 N 
ATOM     26  C   UNL A   1      32.313  27.672  23.981  1.00  0.00     0.325 C 
ATOM     27  C   UNL A   1      30.159  26.637  24.387  1.00  0.00     0.325 C 
ATOM     28  H   UNL A   1      31.903  26.183  25.193  1.00  0.00     0.349 HD
ATOM     29  C   UNL A   1      31.690  28.630  22.929  1.00  0.00     0.325 C 
ATOM     30  C   UNL A   1      29.656  27.337  23.137  1.00  0.00     0.325 C 
ATOM     31  N   UNL A   1      30.229  28.613  22.757  1.00  0.00    -0.318 N 
ATOM     32  H   UNL A   1      30.099  28.708  21.750  1.00  0.00     0.348 HD
BRANCH  31  33
ATOM     33  C   UNL A   1      29.481  29.791  23.206  1.00  0.00     0.364 C 
BRANCH  33  34
ATOM     34  C   UNL A   1      28.648  30.436  22.096  1.00  0.00     0.277 C 
ATOM     35  O   UNL A   1      28.111  29.712  21.251  1.00  0.00    -0.268 OA
ATOM     36  N   UNL A   1      28.583  31.831  22.016  1.00  0.00    -0.344 N 
ATOM     37  C   UNL A   1      29.022  32.791  23.024  1.00  0.00     0.146 C 
ATOM     38  C   UNL A   1      28.022  32.419  20.812  1.00  0.00     0.146 C 
ENDBRANCH  33  34
ENDBRANCH  31  33
ENDBRANCH   7  25
ENDBRANCH   4   7
ENDBRANCH   2   3
ENDBRANCH   1   2
BRANCH   1  39
ATOM     39  C   UNL A   1      36.015  21.870  24.251  1.00  0.00     0.023 C 
BRANCH  39  40
ATOM     40  C   UNL A   1      36.982  22.106  25.389  1.00  0.00     0.116 C 
BRANCH  40  41
ATOM     41  N   UNL A   1      38.043  21.109  25.522  1.00  0.00    -0.352 N 
ATOM     42  C   UNL A   1      39.277  21.224  26.129  1.00  0.00     0.251 C 
ATOM     43  H   UNL A   1      37.851  20.231  25.121  1.00  0.00     0.163 HD
ATOM     44  O   UNL A   1      40.068  20.286  26.118  1.00  0.00    -0.269 OA
BRANCH  42  45
ATOM     45  C   UNL A   1      39.658  22.516  26.737  1.00  0.00     0.039 A 
ATOM     46  C   UNL A   1      40.703  22.562  27.660  1.00  0.00     0.014 A 
ATOM     47  C   UNL A   1      39.065  23.695  26.289  1.00  0.00     0.014 A 
ATOM     48  C   UNL A   1      41.227  23.799  28.039  1.00  0.00     0.010 A 
ATOM     49  C   UNL A   1      39.693  24.905  26.531  1.00  0.00     0.010 A 
ATOM     50  C   UNL A   1      40.768  24.978  27.427  1.00  0.00    -0.014 A 
BRANCH  50  51
ATOM     51  C   UNL A   1      41.372  26.302  27.724  1.00  0.00     0.031 A 
ATOM     52  C   UNL A   1      42.759  26.619  27.225  1.00  0.00     0.074 A 
ATOM     53  C   UNL A   1      40.718  27.180  28.509  1.00  0.00     0.049 A 
ATOM     54  N   UNL A   1      43.488  27.687  27.423  1.00  0.00    -0.248 NA
ATOM     55  C   UNL A   1      43.446  25.571  26.447  1.00  0.00     0.031 C 
ATOM     56  C   UNL A   1      39.423  26.944  29.156  1.00  0.00     0.029 A 
ATOM     57  N   UNL A   1      41.052  28.452  28.901  1.00  0.00    -0.354 N 
ATOM     58  C   UNL A   1      44.717  27.418  26.837  1.00  0.00     0.074 A 
ATOM     59  C   UNL A   1      44.671  26.061  26.347  1.00  0.00     0.031 C 
ATOM     60  C   UNL A   1      39.053  28.052  29.820  1.00  0.00     0.029 A 
ATOM     61  C   UNL A   1      40.091  29.066  29.667  1.00  0.00     0.049 A 
ATOM     62  H   UNL A   1      41.902  28.884  28.657  1.00  0.00     0.167 HD
ATOM     63  C   UNL A   1      45.778  28.244  26.675  1.00  0.00     0.037 A 
ATOM     64  C   UNL A   1      40.048  30.313  30.170  1.00  0.00     0.037 A 
ATOM     65  C   UNL A   1      45.784  29.621  27.084  1.00  0.00     0.049 A 
ATOM     66  C   UNL A   1      41.189  31.251  29.875  1.00  0.00     0.074 A 
ATOM     67  C   UNL A   1      46.754  30.582  26.870  1.00  0.00     0.029 A 
ATOM     68  N   UNL A   1      44.753  30.235  27.780  1.00  0.00    -0.354 N 
ATOM     69  N   UNL A   1      42.302  31.019  29.224  1.00  0.00    -0.248 NA
ATOM     70  C   UNL A   1      41.056  32.629  30.367  1.00  0.00     0.031 C 
ATOM     71  C   UNL A   1      46.322  31.774  27.463  1.00  0.00     0.029 A 
ATOM     72  C   UNL A   1      45.067  31.563  28.012  1.00  0.00     0.049 A 
ATOM     73  H   UNL A   1      43.922  29.792  28.067  1.00  0.00     0.167 HD
ATOM     74  C   UNL A   1      42.995  32.222  29.211  1.00  0.00     0.074 A 
ATOM     75  C   UNL A   1      42.160  33.189  29.894  1.00  0.00     0.031 C 
ATOM     76  C   UNL A   1      44.215  32.503  28.690  1.00  0.00     0.037 A 
BRANCH  63  77
ATOM     77  C   UNL A   1      46.996  27.690  25.996  1.00  0.00     0.064 A 
ATOM     78  C   UNL A   1      47.136  27.712  24.600  1.00  0.00     0.173 A 
ATOM     79  C   UNL A   1      48.046  27.147  26.750  1.00  0.00     0.173 A 
ATOM     80  F   UNL A   1      46.153  28.204  23.830  1.00  0.00    -0.203 F 
ATOM     81  C   UNL A   1      48.267  27.183  23.983  1.00  0.00     0.198 A 
ATOM     82  C   UNL A   1      49.190  26.648  26.132  1.00  0.00     0.198 A 
ATOM     83  F   UNL A   1      47.964  27.099  28.089  1.00  0.00    -0.203 F 
ATOM     84  F   UNL A   1      48.350  27.163  22.645  1.00  0.00    -0.200 F 
ATOM     85  C   UNL A   1      49.296  26.658  24.750  1.00  0.00     0.200 A 
ATOM     86  F   UNL A   1      50.188  26.149  26.875  1.00  0.00    -0.200 F 
ATOM     87  F   UNL A   1      50.385  26.154  24.154  1.00  0.00    -0.200 F 
ENDBRANCH  63  77
BRANCH  64  88
ATOM     88  C   UNL A   1      38.863  30.770  30.944  1.00  0.00     0.064 A 
ATOM     89  C   UNL A   1      38.832  30.660  32.342  1.00  0.00     0.173 A 
ATOM     90  C   UNL A   1      37.737  31.313  30.309  1.00  0.00     0.173 A 
ATOM     91  F   UNL A   1      39.877  30.132  32.996  1.00  0.00    -0.203 F 
ATOM     92  C   UNL A   1      37.709  31.047  33.072  1.00  0.00     0.198 A 
ATOM     93  C   UNL A   1      36.625  31.725  31.042  1.00  0.00     0.198 A 
ATOM     94  F   UNL A   1      37.720  31.449  28.975  1.00  0.00    -0.203 F 
ATOM     95  F   UNL A   1      37.688  30.881  34.401  1.00  0.00    -0.200 F 
ATOM     96  C   UNL A   1      36.608  31.582  32.421  1.00  0.00     0.200 A 
ATOM     97  F   UNL A   1      35.569  32.256  30.412  1.00  0.00    -0.200 F 
ATOM     98  F   UNL A   1      35.529  31.953  33.123  1.00  0.00    -0.200 F 
ENDBRANCH  64  88
BRANCH  76  99
ATOM     99  C   UNL A   1      44.703  33.913  28.826  1.00  0.00     0.064 A 
ATOM    100  C   UNL A   1      45.506  34.307  29.907  1.00  0.00     0.173 A 
ATOM    101  C   UNL A   1      44.387  34.871  27.852  1.00  0.00     0.173 A 
ATOM    102  F   UNL A   1      45.823  33.428  30.869  1.00  0.00    -0.203 F 
ATOM    103  C   UNL A   1      45.948  35.621  30.024  1.00  0.00     0.198 A 
ATOM    104  C   UNL A   1      44.856  36.177  27.957  1.00  0.00     0.198 A 
ATOM    105  F   UNL A   1      43.631  34.539  26.795  1.00  0.00    -0.203 F 
ATOM    106  F   UNL A   1      46.668  35.990  31.092  1.00  0.00    -0.200 F 
ATOM    107  C   UNL A   1      45.627  36.553  29.048  1.00  0.00     0.200 A 
ATOM    108  F   UNL A   1      44.558  37.073  27.007  1.00  0.00    -0.200 F 
ATOM    109  F   UNL A   1      46.055  37.818  29.162  1.00  0.00    -0.200 F 
ENDBRANCH  76  99
ENDBRANCH  50  51
ENDBRANCH  42  45
ENDBRANCH  40  41
ENDBRANCH  39  40
ENDBRANCH   1  39
TORSDOF 17
ENDMDL
MODEL 2
REMARK VINA RESULT:     -13.5      1.880      5.945
REMARK SMILES CC(C)C(=O)Nc1ccc2c([C@H](C(=O)NCCCCNC(=O)c3ccc(-c4c5nc(c(-c6c(F)c(F)c(F)c(F)c6F)c6ccc([nH]6)c(-c6c(F)c(F)c(F)c(F)c6F)c6nc(c(-c7c(F)c(F)c(F)c(F)c7F)c7ccc4[nH]7)C=C6)C=C5)cc3)[NH+]3CC[NH+](CC(=O)N(C)C)CC3)c[nH]c2c1
REMARK SMILES IDX 17 1 16 2 15 3 13 4 14 5 12 7 11 8 7 9 8 10 101 11 9 12
REMARK SMILES IDX 100 13 10 14 99 15 98 16 6 18 4 19 5 20 2 22 1 23 3 24 86 25
REMARK SMILES IDX 87 26 97 27 88 29 96 30 89 31 90 33 91 34 92 35 93 36 94 37
REMARK SMILES IDX 95 38 18 39 19 40 20 41 21 42 22 44 23 45 24 46 85 47 25 48
REMARK SMILES IDX 84 49 26 50 27 51 28 52 78 53 29 54 83 55 77 56 79 57 30 58
REMARK SMILES IDX 82 59 76 60 75 61 31 63 63 64 43 65 62 66 44 67 47 68 61 69
REMARK SMILES IDX 80 70 45 71 46 72 60 74 81 75 48 76 32 77 33 78 41 79 34 80
REMARK SMILES IDX 35 81 39 82 42 83 36 84 37 85 40 86 38 87 64 88 65 89 73 90
REMARK SMILES IDX 66 91 67 92 71 93 74 94 68 95 69 96 72 97 70 98 49 99 50 100
REMARK SMILES IDX 58 101 51 102 52 103 56 104 59 105 53 106 54 107 57 108
REMARK SMILES IDX 55 109
REMARK H PARENT 15 6 99 17 6 21 86 28 89 32 20 43 79 62 47 73
REMARK Flexibility Score: inf
ROOT
ATOM      1  C   UNL A   1      38.560  22.967  25.959  1.00  0.00     0.023 C 
ENDROOT
BRANCH   1   2
ATOM      2  C   UNL A   1      37.079  23.414  25.871  1.00  0.00     0.116 C 
BRANCH   2   3
ATOM      3  N   UNL A   1      36.737  23.718  24.484  1.00  0.00    -0.351 N 
ATOM      4  C   UNL A   1      35.515  23.804  23.848  1.00  0.00     0.283 C 
ATOM      5  O   UNL A   1      35.520  23.362  22.691  1.00  0.00    -0.268 OA
ATOM      6  H   UNL A   1      37.511  23.893  23.903  1.00  0.00     0.163 HD
BRANCH   4   7
ATOM      7  C   UNL A   1      34.255  24.512  24.481  1.00  0.00     0.308 C 
BRANCH   7   8
ATOM      8  C   UNL A   1      33.651  25.595  23.561  1.00  0.00     0.044 A 
ATOM      9  C   UNL A   1      31.162  28.964  24.190  1.00  0.00     0.043 A 
ATOM     10  C   UNL A   1      31.579  28.297  25.334  1.00  0.00     0.027 A 
ATOM     11  C   UNL A   1      31.473  28.457  22.924  1.00  0.00     0.052 A 
ATOM     12  C   UNL A   1      32.434  27.199  25.251  1.00  0.00     0.013 A 
ATOM     13  C   UNL A   1      32.345  27.359  22.857  1.00  0.00     0.048 A 
ATOM     14  C   UNL A   1      32.846  26.720  23.991  1.00  0.00     0.009 A 
ATOM     15  N   UNL A   1      32.865  26.700  21.771  1.00  0.00    -0.361 N 
ATOM     16  C   UNL A   1      33.679  25.676  22.177  1.00  0.00     0.094 A 
ATOM     17  H   UNL A   1      32.678  26.931  20.832  1.00  0.00     0.166 HD
BRANCH   9  18
ATOM     18  N   UNL A   1      30.389  30.126  24.272  1.00  0.00    -0.326 N 
ATOM     19  C   UNL A   1      29.389  30.578  23.459  1.00  0.00     0.226 C 
ATOM     20  O   UNL A   1      29.022  31.750  23.606  1.00  0.00    -0.274 OA
ATOM     21  H   UNL A   1      30.598  30.709  25.036  1.00  0.00     0.169 HD
BRANCH  19  22
ATOM     22  C   UNL A   1      28.632  29.671  22.474  1.00  0.00     0.072 C 
ATOM     23  C   UNL A   1      27.628  28.717  23.108  1.00  0.00     0.018 C 
ATOM     24  C   UNL A   1      28.066  30.402  21.258  1.00  0.00     0.018 C 
ENDBRANCH  19  22
ENDBRANCH   9  18
ENDBRANCH   7   8
BRANCH   7  25
ATOM     25  N   UNL A   1      33.124  23.622  24.812  1.00  0.00    -0.312 N 
ATOM     26  C   UNL A   1      32.299  23.057  23.739  1.00  0.00     0.325 C 
ATOM     27  C   UNL A   1      33.251  22.732  25.945  1.00  0.00     0.325 C 
ATOM     28  H   UNL A   1      32.556  24.399  25.148  1.00  0.00     0.349 HD
ATOM     29  C   UNL A   1      32.546  21.566  23.378  1.00  0.00     0.325 C 
ATOM     30  C   UNL A   1      33.778  21.396  25.453  1.00  0.00     0.325 C 
ATOM     31  N   UNL A   1      33.044  20.671  24.436  1.00  0.00    -0.318 N 
ATOM     32  H   UNL A   1      33.714  20.072  23.955  1.00  0.00     0.348 HD
BRANCH  31  33
ATOM     33  C   UNL A   1      32.127  19.645  24.940  1.00  0.00     0.364 C 
BRANCH  33  34
ATOM     34  C   UNL A   1      32.708  18.231  24.873  1.00  0.00     0.277 C 
ATOM     35  O   UNL A   1      33.028  17.663  25.923  1.00  0.00    -0.268 OA
ATOM     36  N   UNL A   1      32.942  17.649  23.623  1.00  0.00    -0.344 N 
ATOM     37  C   UNL A   1      32.467  18.127  22.328  1.00  0.00     0.146 C 
ATOM     38  C   UNL A   1      33.738  16.434  23.575  1.00  0.00     0.146 C 
ENDBRANCH  33  34
ENDBRANCH  31  33
ENDBRANCH   7  25
ENDBRANCH   4   7
ENDBRANCH   2   3
ENDBRANCH   1   2
BRANCH   1  39
ATOM     39  C   UNL A   1      38.934  21.609  25.415  1.00  0.00     0.023 C 
BRANCH  39  40
ATOM     40  C   UNL A   1      39.240  20.579  26.478  1.00  0.00     0.116 C 
BRANCH  40  41
ATOM     41  N   UNL A   1      40.174  19.528  26.077  1.00  0.00    -0.352 N 
ATOM     42  C   UNL A   1      41.553  19.556  26.033  1.00  0.00     0.251 C 
ATOM     43  H   UNL A   1      39.760  18.679  25.798  1.00  0.00     0.163 HD
ATOM     44  O   UNL A   1      42.184  18.583  25.633  1.00  0.00    -0.269 OA
BRANCH  42  45
ATOM     45  C   UNL A   1      42.256  20.799  26.414  1.00  0.00     0.039 A 
ATOM     46  C   UNL A   1      42.609  21.720  25.427  1.00  0.00     0.014 A 
ATOM     47  C   UNL A   1      42.442  21.106  27.761  1.00  0.00     0.014 A 
ATOM     48  C   UNL A   1      43.038  22.994  25.804  1.00  0.00     0.010 A 
ATOM     49  C   UNL A   1      42.701  22.416  28.127  1.00  0.00     0.010 A 
ATOM     50  C   UNL A   1      43.025  23.373  27.157  1.00  0.00    -0.014 A 
BRANCH  50  51
ATOM     51  C   UNL A   1      43.372  24.751  27.589  1.00  0.00     0.031 A 
ATOM     52  C   UNL A   1      44.811  25.202  27.564  1.00  0.00     0.074 A 
ATOM     53  C   UNL A   1      42.416  25.563  28.081  1.00  0.00     0.049 A 
ATOM     54  N   UNL A   1      45.331  26.338  27.953  1.00  0.00    -0.248 NA
ATOM     55  C   UNL A   1      45.811  24.225  27.095  1.00  0.00     0.031 C 
ATOM     56  C   UNL A   1      41.008  25.203  28.273  1.00  0.00     0.029 A 
ATOM     57  N   UNL A   1      42.483  26.863  28.515  1.00  0.00    -0.354 N 
ATOM     58  C   UNL A   1      46.704  26.190  27.815  1.00  0.00     0.074 A 
ATOM     59  C   UNL A   1      46.948  24.833  27.388  1.00  0.00     0.031 C 
ATOM     60  C   UNL A   1      40.338  26.271  28.736  1.00  0.00     0.029 A 
ATOM     61  C   UNL A   1      41.269  27.382  28.898  1.00  0.00     0.049 A 
ATOM     62  H   UNL A   1      43.322  27.377  28.549  1.00  0.00     0.167 HD
ATOM     63  C   UNL A   1      47.677  27.116  27.982  1.00  0.00     0.037 A 
ATOM     64  C   UNL A   1      40.948  28.621  29.312  1.00  0.00     0.037 A 
ATOM     65  C   UNL A   1      47.420  28.488  28.320  1.00  0.00     0.049 A 
ATOM     66  C   UNL A   1      42.030  29.666  29.377  1.00  0.00     0.074 A 
ATOM     67  C   UNL A   1      48.314  29.539  28.403  1.00  0.00     0.029 A 
ATOM     68  N   UNL A   1      46.165  29.000  28.613  1.00  0.00    -0.354 N 
ATOM     69  N   UNL A   1      43.313  29.543  29.138  1.00  0.00    -0.248 NA
ATOM     70  C   UNL A   1      41.616  31.026  29.746  1.00  0.00     0.031 C 
ATOM     71  C   UNL A   1      47.602  30.685  28.777  1.00  0.00     0.029 A 
ATOM     72  C   UNL A   1      46.261  30.353  28.887  1.00  0.00     0.049 A 
ATOM     73  H   UNL A   1      45.331  28.478  28.626  1.00  0.00     0.167 HD
ATOM     74  C   UNL A   1      43.856  30.808  29.310  1.00  0.00     0.074 A 
ATOM     75  C   UNL A   1      42.757  31.691  29.644  1.00  0.00     0.031 C 
ATOM     76  C   UNL A   1      45.149  31.206  29.211  1.00  0.00     0.037 A 
BRANCH  63  77
ATOM     77  C   UNL A   1      49.097  26.682  27.764  1.00  0.00     0.064 A 
ATOM     78  C   UNL A   1      49.643  26.563  26.476  1.00  0.00     0.173 A 
ATOM     79  C   UNL A   1      49.931  26.401  28.856  1.00  0.00     0.173 A 
ATOM     80  F   UNL A   1      48.883  26.803  25.396  1.00  0.00    -0.203 F 
ATOM     81  C   UNL A   1      50.958  26.148  26.288  1.00  0.00     0.198 A 
ATOM     82  C   UNL A   1      51.257  26.017  28.666  1.00  0.00     0.198 A 
ATOM     83  F   UNL A   1      49.462  26.498  30.109  1.00  0.00    -0.203 F 
ATOM     84  F   UNL A   1      51.437  25.985  25.046  1.00  0.00    -0.200 F 
ATOM     85  C   UNL A   1      51.766  25.882  27.383  1.00  0.00     0.200 A 
ATOM     86  F   UNL A   1      52.039  25.769  29.725  1.00  0.00    -0.200 F 
ATOM     87  F   UNL A   1      53.034  25.487  27.201  1.00  0.00    -0.200 F 
ENDBRANCH  63  77
BRANCH  64  88
ATOM     88  C   UNL A   1      39.536  28.962  29.635  1.00  0.00     0.064 A 
ATOM     89  C   UNL A   1      38.671  29.451  28.646  1.00  0.00     0.173 A 
ATOM     90  C   UNL A   1      39.026  28.819  30.933  1.00  0.00     0.173 A 
ATOM     91  F   UNL A   1      39.115  29.622  27.392  1.00  0.00    -0.203 F 
ATOM     92  C   UNL A   1      37.358  29.812  28.948  1.00  0.00     0.198 A 
ATOM     93  C   UNL A   1      37.706  29.154  31.229  1.00  0.00     0.198 A 
ATOM     94  F   UNL A   1      39.809  28.347  31.913  1.00  0.00    -0.203 F 
ATOM     95  F   UNL A   1      36.571  30.325  27.994  1.00  0.00    -0.200 F 
ATOM     96  C   UNL A   1      36.876  29.660  30.239  1.00  0.00     0.200 A 
ATOM     97  F   UNL A   1      37.239  28.992  32.474  1.00  0.00    -0.200 F 
ATOM     98  F   UNL A   1      35.616  30.008  30.530  1.00  0.00    -0.200 F 
ENDBRANCH  64  88
BRANCH  76  99
ATOM     99  C   UNL A   1      45.432  32.658  29.449  1.00  0.00     0.064 A 
ATOM    100  C   UNL A   1      45.785  33.136  30.721  1.00  0.00     0.173 A 
ATOM    101  C   UNL A   1      45.378  33.576  28.390  1.00  0.00     0.173 A 
ATOM    102  F   UNL A   1      45.837  32.297  31.766  1.00  0.00    -0.203 F 
ATOM    103  C   UNL A   1      46.039  34.488  30.929  1.00  0.00     0.198 A 
ATOM    104  C   UNL A   1      45.663  34.922  28.596  1.00  0.00     0.198 A 
ATOM    105  F   UNL A   1      45.055  33.166  27.154  1.00  0.00    -0.203 F 
ATOM    106  F   UNL A   1      46.320  34.931  32.161  1.00  0.00    -0.200 F 
ATOM    107  C   UNL A   1      45.984  35.378  29.867  1.00  0.00     0.200 A 
ATOM    108  F   UNL A   1      45.622  35.780  27.568  1.00  0.00    -0.200 F 
ATOM    109  F   UNL A   1      46.231  36.679  30.070  1.00  0.00    -0.200 F 
ENDBRANCH  76  99
ENDBRANCH  50  51
ENDBRANCH  42  45
ENDBRANCH  40  41
ENDBRANCH  39  40
ENDBRANCH   1  39
TORSDOF 17
ENDMDL
MODEL 3
REMARK VINA RESULT:     -13.4      1.825      8.961
REMARK SMILES CC(C)C(=O)Nc1ccc2c([C@H](C(=O)NCCCCNC(=O)c3ccc(-c4c5nc(c(-c6c(F)c(F)c(F)c(F)c6F)c6ccc([nH]6)c(-c6c(F)c(F)c(F)c(F)c6F)c6nc(c(-c7c(F)c(F)c(F)c(F)c7F)c7ccc4[nH]7)C=C6)C=C5)cc3)[NH+]3CC[NH+](CC(=O)N(C)C)CC3)c[nH]c2c1
REMARK SMILES IDX 17 1 16 2 15 3 13 4 14 5 12 7 11 8 7 9 8 10 101 11 9 12
REMARK SMILES IDX 100 13 10 14 99 15 98 16 6 18 4 19 5 20 2 22 1 23 3 24 86 25
REMARK SMILES IDX 87 26 97 27 88 29 96 30 89 31 90 33 91 34 92 35 93 36 94 37
REMARK SMILES IDX 95 38 18 39 19 40 20 41 21 42 22 44 23 45 24 46 85 47 25 48
REMARK SMILES IDX 84 49 26 50 27 51 28 52 78 53 29 54 83 55 77 56 79 57 30 58
REMARK SMILES IDX 82 59 76 60 75 61 31 63 63 64 43 65 62 66 44 67 47 68 61 69
REMARK SMILES IDX 80 70 45 71 46 72 60 74 81 75 48 76 32 77 33 78 41 79 34 80
REMARK SMILES IDX 35 81 39 82 42 83 36 84 37 85 40 86 38 87 64 88 65 89 73 90
REMARK SMILES IDX 66 91 67 92 71 93 74 94 68 95 69 96 72 97 70 98 49 99 50 100
REMARK SMILES IDX 58 101 51 102 52 103 56 104 59 105 53 106 54 107 57 108
REMARK SMILES IDX 55 109
REMARK H PARENT 15 6 99 17 6 21 86 28 89 32 20 43 79 62 47 73
REMARK Flexibility Score: inf
ROOT
ATOM      1  C   UNL A   1      37.166  21.961  24.616  1.00  0.00     0.023 C 
ENDROOT
BRANCH   1   2
ATOM      2  C   UNL A   1      36.306  22.770  25.619  1.00  0.00     0.116 C 
BRANCH   2   3
ATOM      3  N   UNL A   1      35.983  24.076  25.051  1.00  0.00    -0.351 N 
ATOM      4  C   UNL A   1      34.770  24.657  24.741  1.00  0.00     0.283 C 
ATOM      5  O   UNL A   1      34.789  25.335  23.705  1.00  0.00    -0.268 OA
ATOM      6  H   UNL A   1      36.766  24.640  24.855  1.00  0.00     0.163 HD
BRANCH   4   7
ATOM      7  C   UNL A   1      33.505  24.575  25.681  1.00  0.00     0.308 C 
BRANCH   7   8
ATOM      8  C   UNL A   1      32.700  25.893  25.717  1.00  0.00     0.044 A 
ATOM      9  C   UNL A   1      31.088  28.463  22.762  1.00  0.00     0.043 A 
ATOM     10  C   UNL A   1      31.662  27.289  22.295  1.00  0.00     0.027 A 
ATOM     11  C   UNL A   1      31.159  28.794  24.119  1.00  0.00     0.052 A 
ATOM     12  C   UNL A   1      32.188  26.348  23.180  1.00  0.00     0.013 A 
ATOM     13  C   UNL A   1      31.680  27.831  24.998  1.00  0.00     0.048 A 
ATOM     14  C   UNL A   1      32.187  26.606  24.566  1.00  0.00     0.009 A 
ATOM     15  N   UNL A   1      31.813  27.853  26.365  1.00  0.00    -0.361 N 
ATOM     16  C   UNL A   1      32.378  26.686  26.809  1.00  0.00     0.094 A 
ATOM     17  H   UNL A   1      31.541  28.601  26.943  1.00  0.00     0.166 HD
BRANCH   9  18
ATOM     18  N   UNL A   1      30.469  29.362  21.889  1.00  0.00    -0.326 N 
ATOM     19  C   UNL A   1      29.197  29.861  21.892  1.00  0.00     0.226 C 
ATOM     20  O   UNL A   1      28.816  30.456  20.876  1.00  0.00    -0.274 OA
ATOM     21  H   UNL A   1      31.040  29.688  21.156  1.00  0.00     0.169 HD
BRANCH  19  22
ATOM     22  C   UNL A   1      28.283  29.821  23.128  1.00  0.00     0.072 C 
ATOM     23  C   UNL A   1      27.653  31.153  23.515  1.00  0.00     0.018 C 
ATOM     24  C   UNL A   1      27.279  28.670  23.126  1.00  0.00     0.018 C 
ENDBRANCH  19  22
ENDBRANCH   9  18
ENDBRANCH   7   8
BRANCH   7  25
ATOM     25  N   UNL A   1      32.516  23.537  25.328  1.00  0.00    -0.312 N 
ATOM     26  C   UNL A   1      32.540  22.927  23.994  1.00  0.00     0.325 C 
ATOM     27  C   UNL A   1      32.083  22.615  26.355  1.00  0.00     0.325 C 
ATOM     28  H   UNL A   1      31.763  24.220  25.250  1.00  0.00     0.349 HD
ATOM     29  C   UNL A   1      33.140  21.497  23.889  1.00  0.00     0.325 C 
ATOM     30  C   UNL A   1      32.965  21.381  26.299  1.00  0.00     0.325 C 
ATOM     31  N   UNL A   1      33.051  20.621  25.068  1.00  0.00    -0.318 N 
ATOM     32  H   UNL A   1      33.947  20.135  25.080  1.00  0.00     0.348 HD
BRANCH  31  33
ATOM     33  C   UNL A   1      32.153  19.465  24.984  1.00  0.00     0.364 C 
BRANCH  33  34
ATOM     34  C   UNL A   1      32.892  18.142  24.774  1.00  0.00     0.277 C 
ATOM     35  O   UNL A   1      33.351  17.548  25.755  1.00  0.00    -0.268 OA
ATOM     36  N   UNL A   1      33.103  17.680  23.471  1.00  0.00    -0.344 N 
ATOM     37  C   UNL A   1      32.484  18.183  22.247  1.00  0.00     0.146 C 
ATOM     38  C   UNL A   1      34.032  16.579  23.280  1.00  0.00     0.146 C 
ENDBRANCH  33  34
ENDBRANCH  31  33
ENDBRANCH   7  25
ENDBRANCH   4   7
ENDBRANCH   2   3
ENDBRANCH   1   2
BRANCH   1  39
ATOM     39  C   UNL A   1      37.774  20.659  25.079  1.00  0.00     0.023 C 
BRANCH  39  40
ATOM     40  C   UNL A   1      39.094  20.814  25.800  1.00  0.00     0.116 C 
BRANCH  40  41
ATOM     41  N   UNL A   1      39.914  19.605  25.866  1.00  0.00    -0.352 N 
ATOM     42  C   UNL A   1      41.263  19.478  26.125  1.00  0.00     0.251 C 
ATOM     43  H   UNL A   1      39.435  18.760  25.702  1.00  0.00     0.163 HD
ATOM     44  O   UNL A   1      41.802  18.377  26.107  1.00  0.00    -0.269 OA
BRANCH  42  45
ATOM     45  C   UNL A   1      42.064  20.698  26.359  1.00  0.00     0.039 A 
ATOM     46  C   UNL A   1      42.502  21.454  25.272  1.00  0.00     0.014 A 
ATOM     47  C   UNL A   1      42.262  21.159  27.660  1.00  0.00     0.014 A 
ATOM     48  C   UNL A   1      43.032  22.727  25.494  1.00  0.00     0.010 A 
ATOM     49  C   UNL A   1      42.626  22.479  27.864  1.00  0.00     0.010 A 
ATOM     50  C   UNL A   1      43.038  23.275  26.787  1.00  0.00    -0.014 A 
BRANCH  50  51
ATOM     51  C   UNL A   1      43.495  24.664  27.048  1.00  0.00     0.031 A 
ATOM     52  C   UNL A   1      42.525  25.677  27.602  1.00  0.00     0.074 A 
ATOM     53  C   UNL A   1      44.745  25.036  26.710  1.00  0.00     0.049 A 
ATOM     54  N   UNL A   1      42.705  26.951  27.844  1.00  0.00    -0.248 NA
ATOM     55  C   UNL A   1      41.150  25.215  27.863  1.00  0.00     0.031 C 
ATOM     56  C   UNL A   1      45.740  24.183  26.054  1.00  0.00     0.029 A 
ATOM     57  N   UNL A   1      45.396  26.234  26.870  1.00  0.00    -0.354 N 
ATOM     58  C   UNL A   1      41.467  27.437  28.239  1.00  0.00     0.074 A 
ATOM     59  C   UNL A   1      40.524  26.350  28.127  1.00  0.00     0.031 C 
ATOM     60  C   UNL A   1      46.887  24.869  25.914  1.00  0.00     0.029 A 
ATOM     61  C   UNL A   1      46.703  26.214  26.447  1.00  0.00     0.049 A 
ATOM     62  H   UNL A   1      44.966  27.033  27.251  1.00  0.00     0.167 HD
ATOM     63  C   UNL A   1      41.148  28.669  28.702  1.00  0.00     0.037 A 
ATOM     64  C   UNL A   1      47.648  27.171  26.504  1.00  0.00     0.037 A 
ATOM     65  C   UNL A   1      42.109  29.718  28.897  1.00  0.00     0.049 A 
ATOM     66  C   UNL A   1      47.300  28.494  27.133  1.00  0.00     0.074 A 
ATOM     67  C   UNL A   1      41.923  30.965  29.466  1.00  0.00     0.029 A 
ATOM     68  N   UNL A   1      43.447  29.631  28.540  1.00  0.00    -0.354 N 
ATOM     69  N   UNL A   1      46.149  28.908  27.605  1.00  0.00    -0.248 NA
ATOM     70  C   UNL A   1      48.387  29.474  27.256  1.00  0.00     0.031 C 
ATOM     71  C   UNL A   1      43.146  31.645  29.426  1.00  0.00     0.029 A 
ATOM     72  C   UNL A   1      44.099  30.806  28.869  1.00  0.00     0.049 A 
ATOM     73  H   UNL A   1      43.868  28.850  28.116  1.00  0.00     0.167 HD
ATOM     74  C   UNL A   1      46.376  30.185  28.096  1.00  0.00     0.074 A 
ATOM     75  C   UNL A   1      47.782  30.466  27.892  1.00  0.00     0.031 C 
ATOM     76  C   UNL A   1      45.500  31.055  28.658  1.00  0.00     0.037 A 
BRANCH  63  77
ATOM     77  C   UNL A   1      39.715  28.928  29.064  1.00  0.00     0.064 A 
ATOM     78  C   UNL A   1      39.231  28.710  30.363  1.00  0.00     0.173 A 
ATOM     79  C   UNL A   1      38.817  29.421  28.106  1.00  0.00     0.173 A 
ATOM     80  F   UNL A   1      40.044  28.223  31.314  1.00  0.00    -0.203 F 
ATOM     81  C   UNL A   1      37.896  28.944  30.682  1.00  0.00     0.198 A 
ATOM     82  C   UNL A   1      37.489  29.685  28.436  1.00  0.00     0.198 A 
ATOM     83  F   UNL A   1      39.225  29.647  26.848  1.00  0.00    -0.203 F 
ATOM     84  F   UNL A   1      37.445  28.671  31.915  1.00  0.00    -0.200 F 
ATOM     85  C   UNL A   1      37.028  29.438  29.720  1.00  0.00     0.200 A 
ATOM     86  F   UNL A   1      36.654  30.170  27.507  1.00  0.00    -0.200 F 
ATOM     87  F   UNL A   1      35.745  29.667  30.029  1.00  0.00    -0.200 F 
ENDBRANCH  63  77
BRANCH  64  88
ATOM     88  C   UNL A   1      49.025  26.895  26.015  1.00  0.00     0.064 A 
ATOM     89  C   UNL A   1      49.382  27.162  24.685  1.00  0.00     0.173 A 
ATOM     90  C   UNL A   1      50.007  26.352  26.855  1.00  0.00     0.173 A 
ATOM     91  F   UNL A   1      48.474  27.666  23.836  1.00  0.00    -0.203 F 
ATOM     92  C   UNL A   1      50.658  26.868  24.206  1.00  0.00     0.198 A 
ATOM     93  C   UNL A   1      51.291  26.084  26.383  1.00  0.00     0.198 A 
ATOM     94  F   UNL A   1      49.720  26.087  28.138  1.00  0.00    -0.203 F 
ATOM     95  F   UNL A   1      50.954  27.085  22.918  1.00  0.00    -0.200 F 
ATOM     96  C   UNL A   1      51.612  26.332  25.057  1.00  0.00     0.200 A 
ATOM     97  F   UNL A   1      52.215  25.580  27.212  1.00  0.00    -0.200 F 
ATOM     98  F   UNL A   1      52.838  26.049  24.598  1.00  0.00    -0.200 F 
ENDBRANCH  64  88
BRANCH  76  99
ATOM     99  C   UNL A   1      46.047  32.377  29.104  1.00  0.00     0.064 A 
ATOM    100  C   UNL A   1      46.586  32.550  30.388  1.00  0.00     0.173 A 
ATOM    101  C   UNL A   1      46.060  33.473  28.228  1.00  0.00     0.173 A 
ATOM    102  F   UNL A   1      46.584  31.534  31.263  1.00  0.00    -0.203 F 
ATOM    103  C   UNL A   1      47.086  33.785  30.790  1.00  0.00     0.198 A 
ATOM    104  C   UNL A   1      46.588  34.697  28.624  1.00  0.00     0.198 A 
ATOM    105  F   UNL A   1      45.566  33.353  26.987  1.00  0.00    -0.203 F 
ATOM    106  F   UNL A   1      47.544  33.944  32.039  1.00  0.00    -0.200 F 
ATOM    107  C   UNL A   1      47.092  34.855  29.908  1.00  0.00     0.200 A 
ATOM    108  F   UNL A   1      46.606  35.726  27.767  1.00  0.00    -0.200 F 
ATOM    109  F   UNL A   1      47.575  36.042  30.297  1.00  0.00    -0.200 F 
ENDBRANCH  76  99
ENDBRANCH  50  51
ENDBRANCH  42  45
ENDBRANCH  40  41
ENDBRANCH  39  40
ENDBRANCH   1  39
TORSDOF 17
ENDMDL
