MODEL 1
REMARK VINA RESULT:     -11.2      0.000      0.000
REMARK SMILES COc1ccsc1CN(Cc1ccccc1)C(=O)/C=C/C(=O)NCCCCNC(=O)c1ccc(-c2c3nc(c(-c4c(F)c(F)c(F)c(F)c4F)c4ccc([nH]4)c(-c4c(F)c(F)c(F)c(F)c4F)c4nc(c(-c5c(F)c(F)c(F)c(F)c5F)c5ccc2[nH]5)C=C4)C=C3)cc1
REMARK SMILES IDX 24 1 23 2 21 3 22 4 20 6 19 7 17 8 18 9 9 10 8 11 7 12 3 13
REMARK SMILES IDX 4 14 5 15 6 16 2 17 1 18 10 19 11 20 12 21 16 22 13 23 15 24
REMARK SMILES IDX 14 25 25 26 26 27 27 28 28 29 29 30 30 32 31 33 32 34 93 35
REMARK SMILES IDX 33 36 92 37 34 38 35 39 36 40 86 41 37 42 91 43 85 44 87 45
REMARK SMILES IDX 38 46 90 47 84 48 83 49 39 51 71 52 51 53 70 54 52 55 55 56
REMARK SMILES IDX 69 57 88 58 53 59 54 60 68 62 89 63 56 64 40 65 41 66 49 67
REMARK SMILES IDX 42 68 43 69 47 70 50 71 44 72 45 73 48 74 46 75 72 76 73 77
REMARK SMILES IDX 81 78 74 79 75 80 79 81 82 82 76 83 77 84 80 85 78 86 57 87
REMARK SMILES IDX 58 88 66 89 59 90 60 91 64 92 67 93 61 94 62 95 65 96 63 97
REMARK H PARENT 23 5 28 31 87 50 55 61
REMARK Flexibility Score: inf
ROOT
ATOM      1  C   UNL A   1      35.592  20.009  25.005  1.00  0.00     0.116 C 
ENDROOT
BRANCH   1   2
ATOM      2  N   UNL A   1      34.336  19.285  25.063  1.00  0.00    -0.353 N 
ATOM      3  C   UNL A   1      33.044  19.699  24.999  1.00  0.00     0.244 C 
ATOM      4  O   UNL A   1      32.154  18.890  25.260  1.00  0.00    -0.270 OA
ATOM      5  H   UNL A   1      34.439  18.312  25.171  1.00  0.00     0.163 HD
BRANCH   3   6
ATOM      6  C   UNL A   1      32.658  21.026  24.462  1.00  0.00     0.077 C 
ATOM      7  C   UNL A   1      31.844  21.924  25.021  1.00  0.00     0.077 C 
BRANCH   7   8
ATOM      8  C   UNL A   1      31.619  23.379  24.795  1.00  0.00     0.247 C 
ATOM      9  O   UNL A   1      30.609  23.619  24.123  1.00  0.00    -0.270 OA
BRANCH   8  10
ATOM     10  N   UNL A   1      32.379  24.386  25.363  1.00  0.00    -0.330 N 
BRANCH  10  11
ATOM     11  C   UNL A   1      31.846  25.759  25.280  1.00  0.00     0.170 C 
BRANCH  11  12
ATOM     12  C   UNL A   1      32.621  26.639  24.334  1.00  0.00     0.066 A 
ATOM     13  C   UNL A   1      33.588  27.566  24.666  1.00  0.00     0.134 A 
ATOM     14  C   UNL A   1      34.026  28.333  23.551  1.00  0.00     0.058 A 
ATOM     15  C   UNL A   1      33.396  27.946  22.389  1.00  0.00     0.069 A 
ATOM     16  S   UNL A   1      32.334  26.625  22.640  1.00  0.00    -0.143 S 
BRANCH  13  17
ATOM     17  O   UNL A   1      34.030  27.665  25.944  1.00  0.00    -0.496 OA
ATOM     18  C   UNL A   1      33.578  28.851  26.587  1.00  0.00     0.278 C 
ENDBRANCH  13  17
ENDBRANCH  11  12
ENDBRANCH  10  11
BRANCH  10  19
ATOM     19  C   UNL A   1      33.621  24.243  26.123  1.00  0.00     0.155 C 
BRANCH  19  20
ATOM     20  C   UNL A   1      34.909  23.963  25.358  1.00  0.00    -0.029 A 
ATOM     21  C   UNL A   1      34.810  23.786  23.965  1.00  0.00     0.005 A 
ATOM     22  C   UNL A   1      36.162  23.740  25.950  1.00  0.00     0.005 A 
ATOM     23  C   UNL A   1      35.900  23.346  23.209  1.00  0.00     0.000 A 
ATOM     24  C   UNL A   1      37.240  23.255  25.202  1.00  0.00     0.000 A 
ATOM     25  C   UNL A   1      37.107  23.051  23.833  1.00  0.00     0.000 A 
ENDBRANCH  19  20
ENDBRANCH  10  19
ENDBRANCH   8  10
ENDBRANCH   7   8
ENDBRANCH   3   6
ENDBRANCH   1   2
BRANCH   1  26
ATOM     26  C   UNL A   1      36.754  19.013  25.000  1.00  0.00     0.023 C 
BRANCH  26  27
ATOM     27  C   UNL A   1      38.096  19.651  24.627  1.00  0.00     0.023 C 
BRANCH  27  28
ATOM     28  C   UNL A   1      39.006  19.924  25.814  1.00  0.00     0.116 C 
BRANCH  28  29
ATOM     29  N   UNL A   1      40.090  18.962  25.924  1.00  0.00    -0.352 N 
ATOM     30  C   UNL A   1      41.426  19.204  26.127  1.00  0.00     0.251 C 
ATOM     31  H   UNL A   1      39.833  18.015  25.842  1.00  0.00     0.163 HD
ATOM     32  O   UNL A   1      42.244  18.301  26.057  1.00  0.00    -0.269 OA
BRANCH  30  33
ATOM     33  C   UNL A   1      41.864  20.586  26.403  1.00  0.00     0.039 A 
ATOM     34  C   UNL A   1      42.122  20.958  27.724  1.00  0.00     0.014 A 
ATOM     35  C   UNL A   1      42.035  21.501  25.360  1.00  0.00     0.014 A 
ATOM     36  C   UNL A   1      42.588  22.244  27.995  1.00  0.00     0.010 A 
ATOM     37  C   UNL A   1      42.578  22.751  25.623  1.00  0.00     0.010 A 
ATOM     38  C   UNL A   1      42.838  23.143  26.945  1.00  0.00    -0.014 A 
BRANCH  38  39
ATOM     39  C   UNL A   1      43.322  24.518  27.214  1.00  0.00     0.031 A 
ATOM     40  C   UNL A   1      42.369  25.551  27.751  1.00  0.00     0.074 A 
ATOM     41  C   UNL A   1      44.597  24.848  26.933  1.00  0.00     0.049 A 
ATOM     42  N   UNL A   1      42.575  26.818  28.004  1.00  0.00    -0.248 NA
ATOM     43  C   UNL A   1      40.989  25.107  28.006  1.00  0.00     0.031 C 
ATOM     44  C   UNL A   1      45.600  23.946  26.367  1.00  0.00     0.029 A 
ATOM     45  N   UNL A   1      45.266  26.037  27.083  1.00  0.00    -0.354 N 
ATOM     46  C   UNL A   1      41.353  27.320  28.430  1.00  0.00     0.074 A 
ATOM     47  C   UNL A   1      40.395  26.242  28.337  1.00  0.00     0.031 C 
ATOM     48  C   UNL A   1      46.763  24.604  26.242  1.00  0.00     0.029 A 
ATOM     49  C   UNL A   1      46.579  25.983  26.685  1.00  0.00     0.049 A 
ATOM     50  H   UNL A   1      44.844  26.851  27.443  1.00  0.00     0.167 HD
ATOM     51  C   UNL A   1      41.063  28.561  28.888  1.00  0.00     0.037 A 
ATOM     52  C   UNL A   1      47.523  26.943  26.679  1.00  0.00     0.037 A 
ATOM     53  C   UNL A   1      42.028  29.621  29.003  1.00  0.00     0.049 A 
ATOM     54  C   UNL A   1      47.175  28.314  27.194  1.00  0.00     0.074 A 
ATOM     55  C   UNL A   1      41.851  30.899  29.501  1.00  0.00     0.029 A 
ATOM     56  N   UNL A   1      43.356  29.522  28.614  1.00  0.00    -0.354 N 
ATOM     57  N   UNL A   1      46.033  28.760  27.658  1.00  0.00    -0.248 NA
ATOM     58  C   UNL A   1      48.254  29.312  27.195  1.00  0.00     0.031 C 
ATOM     59  C   UNL A   1      43.060  31.591  29.366  1.00  0.00     0.029 A 
ATOM     60  C   UNL A   1      44.007  30.724  28.845  1.00  0.00     0.049 A 
ATOM     61  H   UNL A   1      43.774  28.718  28.230  1.00  0.00     0.167 HD
ATOM     62  C   UNL A   1      46.265  30.074  28.045  1.00  0.00     0.074 A 
ATOM     63  C   UNL A   1      47.660  30.349  27.769  1.00  0.00     0.031 C 
ATOM     64  C   UNL A   1      45.401  30.972  28.582  1.00  0.00     0.037 A 
BRANCH  51  65
ATOM     65  C   UNL A   1      39.644  28.834  29.299  1.00  0.00     0.064 A 
ATOM     66  C   UNL A   1      39.207  28.641  30.620  1.00  0.00     0.173 A 
ATOM     67  C   UNL A   1      38.713  29.320  28.368  1.00  0.00     0.173 A 
ATOM     68  F   UNL A   1      40.053  28.166  31.548  1.00  0.00    -0.203 F 
ATOM     69  C   UNL A   1      37.887  28.890  30.983  1.00  0.00     0.198 A 
ATOM     70  C   UNL A   1      37.401  29.600  28.744  1.00  0.00     0.198 A 
ATOM     71  F   UNL A   1      39.075  29.527  27.093  1.00  0.00    -0.203 F 
ATOM     72  F   UNL A   1      37.482  28.641  32.237  1.00  0.00    -0.200 F 
ATOM     73  C   UNL A   1      36.987  29.376  30.048  1.00  0.00     0.200 A 
ATOM     74  F   UNL A   1      36.537  30.084  27.842  1.00  0.00    -0.200 F 
ATOM     75  F   UNL A   1      35.718  29.621  30.401  1.00  0.00    -0.200 F 
ENDBRANCH  51  65
BRANCH  52  76
ATOM     76  C   UNL A   1      48.897  26.633  26.203  1.00  0.00     0.064 A 
ATOM     77  C   UNL A   1      49.851  26.078  27.068  1.00  0.00     0.173 A 
ATOM     78  C   UNL A   1      49.290  26.893  24.882  1.00  0.00     0.173 A 
ATOM     79  F   UNL A   1      49.531  25.827  28.345  1.00  0.00    -0.203 F 
ATOM     80  C   UNL A   1      51.153  25.823  26.638  1.00  0.00     0.198 A 
ATOM     81  C   UNL A   1      50.582  26.609  24.445  1.00  0.00     0.198 A 
ATOM     82  F   UNL A   1      48.414  27.417  24.012  1.00  0.00    -0.203 F 
ATOM     83  F   UNL A   1      52.059  25.344  27.501  1.00  0.00    -0.200 F 
ATOM     84  C   UNL A   1      51.515  26.084  25.326  1.00  0.00     0.200 A 
ATOM     85  F   UNL A   1      50.924  26.849  23.171  1.00  0.00    -0.200 F 
ATOM     86  F   UNL A   1      52.766  25.839  24.912  1.00  0.00    -0.200 F 
ENDBRANCH  52  76
BRANCH  64  87
ATOM     87  C   UNL A   1      45.953  32.315  28.966  1.00  0.00     0.064 A 
ATOM     88  C   UNL A   1      45.933  33.406  28.086  1.00  0.00     0.173 A 
ATOM     89  C   UNL A   1      46.476  32.520  30.253  1.00  0.00     0.173 A 
ATOM     90  F   UNL A   1      45.456  33.260  26.840  1.00  0.00    -0.203 F 
ATOM     91  C   UNL A   1      46.446  34.644  28.468  1.00  0.00     0.198 A 
ATOM     92  C   UNL A   1      46.955  33.766  30.643  1.00  0.00     0.198 A 
ATOM     93  F   UNL A   1      46.509  31.511  31.138  1.00  0.00    -0.203 F 
ATOM     94  F   UNL A   1      46.468  35.656  27.591  1.00  0.00    -0.200 F 
ATOM     95  C   UNL A   1      46.948  34.825  29.747  1.00  0.00     0.200 A 
ATOM     96  F   UNL A   1      47.423  33.944  31.887  1.00  0.00    -0.200 F 
ATOM     97  F   UNL A   1      47.434  36.018  30.116  1.00  0.00    -0.200 F 
ENDBRANCH  64  87
ENDBRANCH  38  39
ENDBRANCH  30  33
ENDBRANCH  28  29
ENDBRANCH  27  28
ENDBRANCH  26  27
ENDBRANCH   1  26
TORSDOF 18
ENDMDL
MODEL 2
REMARK VINA RESULT:     -11.2      0.675      1.437
REMARK SMILES COc1ccsc1CN(Cc1ccccc1)C(=O)/C=C/C(=O)NCCCCNC(=O)c1ccc(-c2c3nc(c(-c4c(F)c(F)c(F)c(F)c4F)c4ccc([nH]4)c(-c4c(F)c(F)c(F)c(F)c4F)c4nc(c(-c5c(F)c(F)c(F)c(F)c5F)c5ccc2[nH]5)C=C4)C=C3)cc1
REMARK SMILES IDX 24 1 23 2 21 3 22 4 20 6 19 7 17 8 18 9 9 10 8 11 7 12 3 13
REMARK SMILES IDX 4 14 5 15 6 16 2 17 1 18 10 19 11 20 12 21 16 22 13 23 15 24
REMARK SMILES IDX 14 25 25 26 26 27 27 28 28 29 29 30 30 32 31 33 32 34 93 35
REMARK SMILES IDX 33 36 92 37 34 38 35 39 36 40 86 41 37 42 91 43 85 44 87 45
REMARK SMILES IDX 38 46 90 47 84 48 83 49 39 51 71 52 51 53 70 54 52 55 55 56
REMARK SMILES IDX 69 57 88 58 53 59 54 60 68 62 89 63 56 64 40 65 41 66 49 67
REMARK SMILES IDX 42 68 43 69 47 70 50 71 44 72 45 73 48 74 46 75 72 76 73 77
REMARK SMILES IDX 81 78 74 79 75 80 79 81 82 82 76 83 77 84 80 85 78 86 57 87
REMARK SMILES IDX 58 88 66 89 59 90 60 91 64 92 67 93 61 94 62 95 65 96 63 97
REMARK H PARENT 23 5 28 31 87 50 55 61
REMARK Flexibility Score: inf
ROOT
ATOM      1  C   UNL A   1      35.596  19.928  25.001  1.00  0.00     0.116 C 
ENDROOT
BRANCH   1   2
ATOM      2  N   UNL A   1      34.395  19.114  25.006  1.00  0.00    -0.353 N 
ATOM      3  C   UNL A   1      33.077  19.440  24.982  1.00  0.00     0.244 C 
ATOM      4  O   UNL A   1      32.249  18.551  25.180  1.00  0.00    -0.270 OA
ATOM      5  H   UNL A   1      34.567  18.145  25.033  1.00  0.00     0.163 HD
BRANCH   3   6
ATOM      6  C   UNL A   1      32.592  20.775  24.558  1.00  0.00     0.077 C 
ATOM      7  C   UNL A   1      31.889  21.652  25.278  1.00  0.00     0.077 C 
BRANCH   7   8
ATOM      8  C   UNL A   1      31.619  23.110  25.133  1.00  0.00     0.247 C 
ATOM      9  O   UNL A   1      30.605  23.356  24.469  1.00  0.00    -0.270 OA
BRANCH   8  10
ATOM     10  N   UNL A   1      32.345  24.106  25.761  1.00  0.00    -0.330 N 
BRANCH  10  11
ATOM     11  C   UNL A   1      31.714  25.435  25.862  1.00  0.00     0.170 C 
BRANCH  11  12
ATOM     12  C   UNL A   1      32.469  26.507  25.119  1.00  0.00     0.066 A 
ATOM     13  C   UNL A   1      32.549  26.669  23.750  1.00  0.00     0.134 A 
ATOM     14  C   UNL A   1      33.458  27.694  23.367  1.00  0.00     0.058 A 
ATOM     15  C   UNL A   1      34.028  28.304  24.462  1.00  0.00     0.069 A 
ATOM     16  S   UNL A   1      33.416  27.684  25.937  1.00  0.00    -0.143 S 
BRANCH  13  17
ATOM     17  O   UNL A   1      31.797  25.900  22.926  1.00  0.00    -0.496 OA
ATOM     18  C   UNL A   1      32.516  25.466  21.777  1.00  0.00     0.278 C 
ENDBRANCH  13  17
ENDBRANCH  11  12
ENDBRANCH  10  11
BRANCH  10  19
ATOM     19  C   UNL A   1      33.643  23.979  26.424  1.00  0.00     0.155 C 
BRANCH  19  20
ATOM     20  C   UNL A   1      34.886  23.823  25.558  1.00  0.00    -0.029 A 
ATOM     21  C   UNL A   1      34.694  23.660  24.173  1.00  0.00     0.005 A 
ATOM     22  C   UNL A   1      36.196  23.699  26.048  1.00  0.00     0.005 A 
ATOM     23  C   UNL A   1      35.755  23.328  23.326  1.00  0.00     0.000 A 
ATOM     24  C   UNL A   1      37.249  23.320  25.208  1.00  0.00     0.000 A 
ATOM     25  C   UNL A   1      37.028  23.128  23.850  1.00  0.00     0.000 A 
ENDBRANCH  19  20
ENDBRANCH  10  19
ENDBRANCH   8  10
ENDBRANCH   7   8
ENDBRANCH   3   6
ENDBRANCH   1   2
BRANCH   1  26
ATOM     26  C   UNL A   1      36.827  19.018  25.001  1.00  0.00     0.023 C 
BRANCH  26  27
ATOM     27  C   UNL A   1      38.120  19.750  24.626  1.00  0.00     0.023 C 
BRANCH  27  28
ATOM     28  C   UNL A   1      39.039  20.031  25.804  1.00  0.00     0.116 C 
BRANCH  28  29
ATOM     29  N   UNL A   1      40.114  19.059  25.922  1.00  0.00    -0.352 N 
ATOM     30  C   UNL A   1      41.452  19.289  26.127  1.00  0.00     0.251 C 
ATOM     31  H   UNL A   1      39.847  18.114  25.845  1.00  0.00     0.163 HD
ATOM     32  O   UNL A   1      42.260  18.378  26.065  1.00  0.00    -0.269 OA
BRANCH  30  33
ATOM     33  C   UNL A   1      41.902  20.669  26.396  1.00  0.00     0.039 A 
ATOM     34  C   UNL A   1      42.173  21.042  27.715  1.00  0.00     0.014 A 
ATOM     35  C   UNL A   1      42.073  21.579  25.350  1.00  0.00     0.014 A 
ATOM     36  C   UNL A   1      42.651  22.325  27.979  1.00  0.00     0.010 A 
ATOM     37  C   UNL A   1      42.628  22.826  25.605  1.00  0.00     0.010 A 
ATOM     38  C   UNL A   1      42.900  23.219  26.924  1.00  0.00    -0.014 A 
BRANCH  38  39
ATOM     39  C   UNL A   1      43.397  24.591  27.186  1.00  0.00     0.031 A 
ATOM     40  C   UNL A   1      42.462  25.627  27.747  1.00  0.00     0.074 A 
ATOM     41  C   UNL A   1      44.667  24.916  26.877  1.00  0.00     0.049 A 
ATOM     42  N   UNL A   1      42.680  26.893  27.999  1.00  0.00    -0.248 NA
ATOM     43  C   UNL A   1      41.086  25.189  28.033  1.00  0.00     0.031 C 
ATOM     44  C   UNL A   1      45.653  24.010  26.284  1.00  0.00     0.029 A 
ATOM     45  N   UNL A   1      45.345  26.101  27.015  1.00  0.00    -0.354 N 
ATOM     46  C   UNL A   1      41.471  27.400  28.455  1.00  0.00     0.074 A 
ATOM     47  C   UNL A   1      40.505  26.326  28.382  1.00  0.00     0.031 C 
ATOM     48  C   UNL A   1      46.815  24.664  26.134  1.00  0.00     0.029 A 
ATOM     49  C   UNL A   1      46.648  26.042  26.586  1.00  0.00     0.049 A 
ATOM     50  H   UNL A   1      44.935  26.916  27.386  1.00  0.00     0.167 HD
ATOM     51  C   UNL A   1      41.197  28.640  28.923  1.00  0.00     0.037 A 
ATOM     52  C   UNL A   1      47.597  26.997  26.560  1.00  0.00     0.037 A 
ATOM     53  C   UNL A   1      42.170  29.695  29.019  1.00  0.00     0.049 A 
ATOM     54  C   UNL A   1      47.267  28.368  27.087  1.00  0.00     0.074 A 
ATOM     55  C   UNL A   1      42.011  30.973  29.524  1.00  0.00     0.029 A 
ATOM     56  N   UNL A   1      43.488  29.591  28.599  1.00  0.00    -0.354 N 
ATOM     57  N   UNL A   1      46.138  28.819  27.580  1.00  0.00    -0.248 NA
ATOM     58  C   UNL A   1      48.351  29.362  27.067  1.00  0.00     0.031 C 
ATOM     59  C   UNL A   1      43.220  31.659  29.364  1.00  0.00     0.029 A 
ATOM     60  C   UNL A   1      44.150  30.789  28.818  1.00  0.00     0.049 A 
ATOM     61  H   UNL A   1      43.893  28.786  28.203  1.00  0.00     0.167 HD
ATOM     62  C   UNL A   1      46.385  30.131  27.964  1.00  0.00     0.074 A 
ATOM     63  C   UNL A   1      47.775  30.400  27.657  1.00  0.00     0.031 C 
ATOM     64  C   UNL A   1      45.539  31.031  28.524  1.00  0.00     0.037 A 
BRANCH  51  65
ATOM     65  C   UNL A   1      39.789  28.919  29.368  1.00  0.00     0.064 A 
ATOM     66  C   UNL A   1      38.820  29.421  28.484  1.00  0.00     0.173 A 
ATOM     67  C   UNL A   1      39.395  28.656  30.689  1.00  0.00     0.173 A 
ATOM     68  F   UNL A   1      39.147  29.702  27.213  1.00  0.00    -0.203 F 
ATOM     69  C   UNL A   1      37.523  29.683  28.914  1.00  0.00     0.198 A 
ATOM     70  C   UNL A   1      38.086  28.887  31.106  1.00  0.00     0.198 A 
ATOM     71  F   UNL A   1      40.277  28.172  31.575  1.00  0.00    -0.203 F 
ATOM     72  F   UNL A   1      36.634  30.218  28.066  1.00  0.00    -0.200 F 
ATOM     73  C   UNL A   1      37.155  29.408  30.222  1.00  0.00     0.200 A 
ATOM     74  F   UNL A   1      37.728  28.607  32.367  1.00  0.00    -0.200 F 
ATOM     75  F   UNL A   1      35.903  29.655  30.633  1.00  0.00    -0.200 F 
ENDBRANCH  51  65
BRANCH  52  76
ATOM     76  C   UNL A   1      48.958  26.682  26.052  1.00  0.00     0.064 A 
ATOM     77  C   UNL A   1      49.911  26.068  26.877  1.00  0.00     0.173 A 
ATOM     78  C   UNL A   1      49.339  26.996  24.739  1.00  0.00     0.173 A 
ATOM     79  F   UNL A   1      49.601  25.764  28.146  1.00  0.00    -0.203 F 
ATOM     80  C   UNL A   1      51.201  25.807  26.418  1.00  0.00     0.198 A 
ATOM     81  C   UNL A   1      50.619  26.707  24.272  1.00  0.00     0.198 A 
ATOM     82  F   UNL A   1      48.463  27.577  23.907  1.00  0.00    -0.203 F 
ATOM     83  F   UNL A   1      52.108  25.270  27.246  1.00  0.00    -0.200 F 
ATOM     84  C   UNL A   1      51.552  26.122  25.115  1.00  0.00     0.200 A 
ATOM     85  F   UNL A   1      50.950  26.998  23.006  1.00  0.00    -0.200 F 
ATOM     86  F   UNL A   1      52.793  25.871  24.674  1.00  0.00    -0.200 F 
ENDBRANCH  52  76
BRANCH  64  87
ATOM     87  C   UNL A   1      46.106  32.370  28.899  1.00  0.00     0.064 A 
ATOM     88  C   UNL A   1      46.077  33.462  28.020  1.00  0.00     0.173 A 
ATOM     89  C   UNL A   1      46.653  32.571  30.177  1.00  0.00     0.173 A 
ATOM     90  F   UNL A   1      45.577  33.320  26.783  1.00  0.00    -0.203 F 
ATOM     91  C   UNL A   1      46.605  34.696  28.393  1.00  0.00     0.198 A 
ATOM     92  C   UNL A   1      47.147  33.814  30.558  1.00  0.00     0.198 A 
ATOM     93  F   UNL A   1      46.696  31.561  31.060  1.00  0.00    -0.203 F 
ATOM     94  F   UNL A   1      46.617  35.709  27.517  1.00  0.00    -0.200 F 
ATOM     95  C   UNL A   1      47.131  34.873  29.664  1.00  0.00     0.200 A 
ATOM     96  F   UNL A   1      47.638  33.987  31.794  1.00  0.00    -0.200 F 
ATOM     97  F   UNL A   1      47.631  36.063  30.024  1.00  0.00    -0.200 F 
ENDBRANCH  64  87
ENDBRANCH  38  39
ENDBRANCH  30  33
ENDBRANCH  28  29
ENDBRANCH  27  28
ENDBRANCH  26  27
ENDBRANCH   1  26
TORSDOF 18
ENDMDL
MODEL 3
REMARK VINA RESULT:     -11.1      5.353      9.863
REMARK SMILES COc1ccsc1CN(Cc1ccccc1)C(=O)/C=C/C(=O)NCCCCNC(=O)c1ccc(-c2c3nc(c(-c4c(F)c(F)c(F)c(F)c4F)c4ccc([nH]4)c(-c4c(F)c(F)c(F)c(F)c4F)c4nc(c(-c5c(F)c(F)c(F)c(F)c5F)c5ccc2[nH]5)C=C4)C=C3)cc1
REMARK SMILES IDX 24 1 23 2 21 3 22 4 20 6 19 7 17 8 18 9 9 10 8 11 7 12 3 13
REMARK SMILES IDX 4 14 5 15 6 16 2 17 1 18 10 19 11 20 12 21 16 22 13 23 15 24
REMARK SMILES IDX 14 25 25 26 26 27 27 28 28 29 29 30 30 32 31 33 32 34 93 35
REMARK SMILES IDX 33 36 92 37 34 38 35 39 36 40 86 41 37 42 91 43 85 44 87 45
REMARK SMILES IDX 38 46 90 47 84 48 83 49 39 51 71 52 51 53 70 54 52 55 55 56
REMARK SMILES IDX 69 57 88 58 53 59 54 60 68 62 89 63 56 64 40 65 41 66 49 67
REMARK SMILES IDX 42 68 43 69 47 70 50 71 44 72 45 73 48 74 46 75 72 76 73 77
REMARK SMILES IDX 81 78 74 79 75 80 79 81 82 82 76 83 77 84 80 85 78 86 57 87
REMARK SMILES IDX 58 88 66 89 59 90 60 91 64 92 67 93 61 94 62 95 65 96 63 97
REMARK H PARENT 23 5 28 31 87 50 55 61
REMARK Flexibility Score: inf
ROOT
ATOM      1  C   UNL A   1      31.756  29.934  27.234  1.00  0.00     0.116 C 
ENDROOT
BRANCH   1   2
ATOM      2  N   UNL A   1      33.164  29.804  27.559  1.00  0.00    -0.353 N 
ATOM      3  C   UNL A   1      34.139  28.996  27.067  1.00  0.00     0.244 C 
ATOM      4  O   UNL A   1      35.221  28.959  27.652  1.00  0.00    -0.270 OA
ATOM      5  H   UNL A   1      33.470  30.414  28.268  1.00  0.00     0.163 HD
BRANCH   3   6
ATOM      6  C   UNL A   1      34.013  28.294  25.767  1.00  0.00     0.077 C 
ATOM      7  C   UNL A   1      33.246  27.240  25.482  1.00  0.00     0.077 C 
BRANCH   7   8
ATOM      8  C   UNL A   1      32.764  26.642  24.206  1.00  0.00     0.247 C 
ATOM      9  O   UNL A   1      33.673  26.406  23.402  1.00  0.00    -0.270 OA
BRANCH   8  10
ATOM     10  N   UNL A   1      31.453  26.272  23.962  1.00  0.00    -0.330 N 
BRANCH  10  11
ATOM     11  C   UNL A   1      30.820  25.363  24.936  1.00  0.00     0.170 C 
BRANCH  11  12
ATOM     12  C   UNL A   1      31.620  24.110  25.183  1.00  0.00     0.066 A 
ATOM     13  C   UNL A   1      32.045  23.196  24.240  1.00  0.00     0.134 A 
ATOM     14  C   UNL A   1      32.656  22.049  24.817  1.00  0.00     0.058 A 
ATOM     15  C   UNL A   1      32.704  22.135  26.190  1.00  0.00     0.069 A 
ATOM     16  S   UNL A   1      32.072  23.620  26.766  1.00  0.00    -0.143 S 
BRANCH  13  17
ATOM     17  O   UNL A   1      31.871  23.447  22.919  1.00  0.00    -0.496 OA
ATOM     18  C   UNL A   1      33.019  23.117  22.145  1.00  0.00     0.278 C 
ENDBRANCH  13  17
ENDBRANCH  11  12
ENDBRANCH  10  11
BRANCH  10  19
ATOM     19  C   UNL A   1      30.578  26.747  22.890  1.00  0.00     0.155 C 
BRANCH  19  20
ATOM     20  C   UNL A   1      29.709  27.970  23.154  1.00  0.00    -0.029 A 
ATOM     21  C   UNL A   1      28.314  27.786  23.152  1.00  0.00     0.005 A 
ATOM     22  C   UNL A   1      30.188  29.284  23.269  1.00  0.00     0.005 A 
ATOM     23  C   UNL A   1      27.437  28.873  23.201  1.00  0.00     0.000 A 
ATOM     24  C   UNL A   1      29.311  30.375  23.270  1.00  0.00     0.000 A 
ATOM     25  C   UNL A   1      27.937  30.170  23.230  1.00  0.00     0.000 A 
ENDBRANCH  19  20
ENDBRANCH  10  19
ENDBRANCH   8  10
ENDBRANCH   7   8
ENDBRANCH   3   6
ENDBRANCH   1   2
BRANCH   1  26
ATOM     26  C   UNL A   1      31.578  31.016  26.165  1.00  0.00     0.023 C 
BRANCH  26  27
ATOM     27  C   UNL A   1      31.360  32.415  26.750  1.00  0.00     0.023 C 
BRANCH  27  28
ATOM     28  C   UNL A   1      32.639  33.111  27.190  1.00  0.00     0.116 C 
BRANCH  28  29
ATOM     29  N   UNL A   1      32.396  34.433  27.742  1.00  0.00    -0.352 N 
ATOM     30  C   UNL A   1      33.023  35.042  28.802  1.00  0.00     0.251 C 
ATOM     31  H   UNL A   1      31.692  34.960  27.299  1.00  0.00     0.163 HD
ATOM     32  O   UNL A   1      32.617  36.104  29.243  1.00  0.00    -0.269 OA
BRANCH  30  33
ATOM     33  C   UNL A   1      34.184  34.372  29.421  1.00  0.00     0.039 A 
ATOM     34  C   UNL A   1      33.963  33.480  30.472  1.00  0.00     0.014 A 
ATOM     35  C   UNL A   1      35.478  34.610  28.950  1.00  0.00     0.014 A 
ATOM     36  C   UNL A   1      35.043  32.798  31.031  1.00  0.00     0.010 A 
ATOM     37  C   UNL A   1      36.540  33.869  29.450  1.00  0.00     0.010 A 
ATOM     38  C   UNL A   1      36.336  32.973  30.511  1.00  0.00    -0.014 A 
BRANCH  38  39
ATOM     39  C   UNL A   1      37.499  32.266  31.099  1.00  0.00     0.031 A 
ATOM     40  C   UNL A   1      37.980  32.641  32.474  1.00  0.00     0.074 A 
ATOM     41  C   UNL A   1      38.147  31.328  30.383  1.00  0.00     0.049 A 
ATOM     42  N   UNL A   1      39.006  32.186  33.148  1.00  0.00    -0.248 NA
ATOM     43  C   UNL A   1      37.226  33.695  33.173  1.00  0.00     0.031 C 
ATOM     44  C   UNL A   1      37.802  30.913  29.022  1.00  0.00     0.029 A 
ATOM     45  N   UNL A   1      39.235  30.555  30.701  1.00  0.00    -0.354 N 
ATOM     46  C   UNL A   1      39.026  32.905  34.335  1.00  0.00     0.074 A 
ATOM     47  C   UNL A   1      37.955  33.873  34.263  1.00  0.00     0.031 C 
ATOM     48  C   UNL A   1      38.645  29.944  28.633  1.00  0.00     0.029 A 
ATOM     49  C   UNL A   1      39.610  29.694  29.699  1.00  0.00     0.049 A 
ATOM     50  H   UNL A   1      39.703  30.613  31.565  1.00  0.00     0.167 HD
ATOM     51  C   UNL A   1      39.845  32.751  35.402  1.00  0.00     0.037 A 
ATOM     52  C   UNL A   1      40.620  28.806  29.652  1.00  0.00     0.037 A 
ATOM     53  C   UNL A   1      40.891  31.767  35.477  1.00  0.00     0.049 A 
ATOM     54  C   UNL A   1      41.516  28.653  30.852  1.00  0.00     0.074 A 
ATOM     55  C   UNL A   1      41.745  31.493  36.529  1.00  0.00     0.029 A 
ATOM     56  N   UNL A   1      41.224  30.893  34.452  1.00  0.00    -0.354 N 
ATOM     57  N   UNL A   1      41.485  29.291  31.997  1.00  0.00    -0.248 NA
ATOM     58  C   UNL A   1      42.581  27.644  30.757  1.00  0.00     0.031 C 
ATOM     59  C   UNL A   1      42.629  30.487  36.124  1.00  0.00     0.029 A 
ATOM     60  C   UNL A   1      42.284  30.090  34.842  1.00  0.00     0.049 A 
ATOM     61  H   UNL A   1      40.775  30.851  33.577  1.00  0.00     0.167 HD
ATOM     62  C   UNL A   1      42.495  28.736  32.773  1.00  0.00     0.074 A 
ATOM     63  C   UNL A   1      43.114  27.701  31.970  1.00  0.00     0.031 C 
ATOM     64  C   UNL A   1      42.874  29.052  34.036  1.00  0.00     0.037 A 
BRANCH  51  65
ATOM     65  C   UNL A   1      39.636  33.668  36.574  1.00  0.00     0.064 A 
ATOM     66  C   UNL A   1      38.804  33.316  37.649  1.00  0.00     0.173 A 
ATOM     67  C   UNL A   1      40.298  34.904  36.638  1.00  0.00     0.173 A 
ATOM     68  F   UNL A   1      38.137  32.151  37.633  1.00  0.00    -0.203 F 
ATOM     69  C   UNL A   1      38.614  34.180  38.722  1.00  0.00     0.198 A 
ATOM     70  C   UNL A   1      40.132  35.751  37.732  1.00  0.00     0.198 A 
ATOM     71  F   UNL A   1      41.109  35.291  35.642  1.00  0.00    -0.203 F 
ATOM     72  F   UNL A   1      37.767  33.845  39.707  1.00  0.00    -0.200 F 
ATOM     73  C   UNL A   1      39.283  35.393  38.767  1.00  0.00     0.200 A 
ATOM     74  F   UNL A   1      40.791  36.917  37.780  1.00  0.00    -0.200 F 
ATOM     75  F   UNL A   1      39.104  36.221  39.805  1.00  0.00    -0.200 F 
ENDBRANCH  51  65
BRANCH  52  76
ATOM     76  C   UNL A   1      40.818  27.966  28.441  1.00  0.00     0.064 A 
ATOM     77  C   UNL A   1      41.611  28.414  27.375  1.00  0.00     0.173 A 
ATOM     78  C   UNL A   1      40.211  26.707  28.316  1.00  0.00     0.173 A 
ATOM     79  F   UNL A   1      42.198  29.618  27.437  1.00  0.00    -0.203 F 
ATOM     80  C   UNL A   1      41.766  27.648  26.220  1.00  0.00     0.198 A 
ATOM     81  C   UNL A   1      40.392  25.930  27.175  1.00  0.00     0.198 A 
ATOM     82  F   UNL A   1      39.449  26.229  29.310  1.00  0.00    -0.203 F 
ATOM     83  F   UNL A   1      42.486  28.125  25.195  1.00  0.00    -0.200 F 
ATOM     84  C   UNL A   1      41.161  26.405  26.123  1.00  0.00     0.200 A 
ATOM     85  F   UNL A   1      39.819  24.721  27.092  1.00  0.00    -0.200 F 
ATOM     86  F   UNL A   1      41.311  25.669  25.014  1.00  0.00    -0.200 F 
ENDBRANCH  52  76
BRANCH  64  87
ATOM     87  C   UNL A   1      43.969  28.229  34.653  1.00  0.00     0.064 A 
ATOM     88  C   UNL A   1      45.311  28.636  34.622  1.00  0.00     0.173 A 
ATOM     89  C   UNL A   1      43.661  27.033  35.321  1.00  0.00     0.173 A 
ATOM     90  F   UNL A   1      45.661  29.764  33.986  1.00  0.00    -0.203 F 
ATOM     91  C   UNL A   1      46.308  27.858  35.207  1.00  0.00     0.198 A 
ATOM     92  C   UNL A   1      44.654  26.278  35.934  1.00  0.00     0.198 A 
ATOM     93  F   UNL A   1      42.391  26.605  35.388  1.00  0.00    -0.203 F 
ATOM     94  F   UNL A   1      47.589  28.237  35.116  1.00  0.00    -0.200 F 
ATOM     95  C   UNL A   1      45.977  26.685  35.869  1.00  0.00     0.200 A 
ATOM     96  F   UNL A   1      44.330  25.154  36.589  1.00  0.00    -0.200 F 
ATOM     97  F   UNL A   1      46.937  25.942  36.438  1.00  0.00    -0.200 F 
ENDBRANCH  64  87
ENDBRANCH  38  39
ENDBRANCH  30  33
ENDBRANCH  28  29
ENDBRANCH  27  28
ENDBRANCH  26  27
ENDBRANCH   1  26
TORSDOF 18
ENDMDL
