MODEL 1
REMARK VINA RESULT:     -10.2      0.000      0.000
REMARK SMILES COc1cccc(-c2ccc(Nc3cccc(C(=O)NCCCCNC(=O)c4ccc(-c5c6nc(c(-c7c(F)c(F)c(F)c(F)c7F)c7ccc([nH]7)c(-c7c(F)c(F)c(F)c(F)c7F)c7nc(c(-c8c(F)c(F)c(F)c(F)c8F)c8ccc5[nH]8)C=C7)C=C6)cc4)c3)nn2)c1
REMARK SMILES IDX 21 1 20 2 18 3 19 4 17 6 13 7 14 8 91 9 15 10 16 11 12 12
REMARK SMILES IDX 11 14 8 15 9 16 93 17 10 18 92 19 7 20 3 21 4 22 94 23 5 24
REMARK SMILES IDX 6 25 2 26 1 27 22 28 23 29 24 30 25 31 26 32 27 34 28 35
REMARK SMILES IDX 29 36 90 37 30 38 89 39 31 40 32 41 33 42 83 43 34 44 88 45
REMARK SMILES IDX 82 46 84 47 35 48 87 49 81 50 80 51 36 53 68 54 48 55 67 56
REMARK SMILES IDX 49 57 52 58 66 59 85 60 50 61 51 62 65 64 86 65 53 66 37 67
REMARK SMILES IDX 38 68 46 69 39 70 40 71 44 72 47 73 41 74 42 75 45 76 43 77
REMARK SMILES IDX 69 78 70 79 78 80 71 81 72 82 76 83 79 84 73 85 74 86 77 87
REMARK SMILES IDX 75 88 54 89 55 90 63 91 56 92 57 93 61 94 64 95 58 96 59 97
REMARK SMILES IDX 62 98 60 99
REMARK H PARENT 20 5 12 13 25 33 84 52 52 63
REMARK Flexibility Score: inf
ROOT
ATOM      1  C   UNL A   1      35.375  32.256  31.574  1.00  0.00     0.116 C 
ENDROOT
BRANCH   1   2
ATOM      2  N   UNL A   1      34.880  32.914  32.775  1.00  0.00    -0.352 N 
ATOM      3  C   UNL A   1      35.550  33.400  33.881  1.00  0.00     0.251 C 
ATOM      4  O   UNL A   1      34.899  33.909  34.791  1.00  0.00    -0.269 OA
ATOM      5  H   UNL A   1      33.903  33.033  32.804  1.00  0.00     0.163 HD
BRANCH   3   6
ATOM      6  C   UNL A   1      37.023  33.252  34.032  1.00  0.00     0.041 A 
ATOM      7  C   UNL A   1      38.937  32.042  34.931  1.00  0.00     0.040 A 
ATOM      8  C   UNL A   1      39.740  33.154  34.647  1.00  0.00     0.026 A 
ATOM      9  C   UNL A   1      37.602  32.079  34.517  1.00  0.00     0.040 A 
ATOM     10  C   UNL A   1      39.208  34.278  34.006  1.00  0.00     0.003 A 
ATOM     11  C   UNL A   1      37.844  34.339  33.722  1.00  0.00     0.014 A 
BRANCH   7  12
ATOM     12  N   UNL A   1      39.446  30.979  35.698  1.00  0.00    -0.339 N 
ATOM     13  H   UNL A   1      39.195  30.986  36.651  1.00  0.00     0.168 HD
BRANCH  12  14
ATOM     14  C   UNL A   1      40.261  29.910  35.294  1.00  0.00     0.153 A 
ATOM     15  C   UNL A   1      41.911  27.840  34.507  1.00  0.00     0.093 A 
ATOM     16  C   UNL A   1      41.409  28.706  33.548  1.00  0.00     0.035 A 
ATOM     17  N   UNL A   1      41.619  28.031  35.809  1.00  0.00    -0.148 NA
ATOM     18  C   UNL A   1      40.568  29.749  33.949  1.00  0.00     0.051 A 
ATOM     19  N   UNL A   1      40.805  29.071  36.197  1.00  0.00    -0.132 NA
BRANCH  15  20
ATOM     20  C   UNL A   1      42.701  26.643  34.199  1.00  0.00     0.006 A 
ATOM     21  C   UNL A   1      43.405  24.354  34.650  1.00  0.00     0.119 A 
ATOM     22  C   UNL A   1      44.301  24.414  33.583  1.00  0.00     0.046 A 
ATOM     23  C   UNL A   1      42.620  25.469  34.968  1.00  0.00     0.056 A 
ATOM     24  C   UNL A   1      44.383  25.561  32.799  1.00  0.00     0.005 A 
ATOM     25  C   UNL A   1      43.582  26.661  33.102  1.00  0.00     0.011 A 
BRANCH  21  26
ATOM     26  O   UNL A   1      43.410  23.180  35.354  1.00  0.00    -0.497 OA
ATOM     27  C   UNL A   1      44.587  22.392  35.198  1.00  0.00     0.278 C 
ENDBRANCH  21  26
ENDBRANCH  15  20
ENDBRANCH  12  14
ENDBRANCH   7  12
ENDBRANCH   3   6
ENDBRANCH   1   2
BRANCH   1  28
ATOM     28  C   UNL A   1      35.986  33.195  30.542  1.00  0.00     0.023 C 
BRANCH  28  29
ATOM     29  C   UNL A   1      35.041  33.748  29.484  1.00  0.00     0.023 C 
BRANCH  29  30
ATOM     30  C   UNL A   1      35.135  33.110  28.104  1.00  0.00     0.116 C 
BRANCH  30  31
ATOM     31  N   UNL A   1      34.189  32.024  27.884  1.00  0.00    -0.352 N 
ATOM     32  C   UNL A   1      34.392  30.662  27.876  1.00  0.00     0.251 C 
ATOM     33  H   UNL A   1      33.261  32.308  27.713  1.00  0.00     0.163 HD
ATOM     34  O   UNL A   1      33.472  29.902  27.599  1.00  0.00    -0.269 OA
BRANCH  32  35
ATOM     35  C   UNL A   1      35.739  30.116  28.159  1.00  0.00     0.039 A 
ATOM     36  C   UNL A   1      36.713  30.172  27.157  1.00  0.00     0.014 A 
ATOM     37  C   UNL A   1      36.056  29.585  29.411  1.00  0.00     0.014 A 
ATOM     38  C   UNL A   1      38.025  29.784  27.442  1.00  0.00     0.010 A 
ATOM     39  C   UNL A   1      37.378  29.280  29.719  1.00  0.00     0.010 A 
ATOM     40  C   UNL A   1      38.380  29.382  28.740  1.00  0.00    -0.014 A 
BRANCH  40  41
ATOM     41  C   UNL A   1      39.789  29.077  29.101  1.00  0.00     0.031 A 
ATOM     42  C   UNL A   1      40.606  30.078  29.871  1.00  0.00     0.074 A 
ATOM     43  C   UNL A   1      40.361  27.936  28.666  1.00  0.00     0.049 A 
ATOM     44  N   UNL A   1      41.873  30.039  30.197  1.00  0.00    -0.248 NA
ATOM     45  C   UNL A   1      39.912  31.300  30.305  1.00  0.00     0.031 C 
ATOM     46  C   UNL A   1      39.696  26.908  27.864  1.00  0.00     0.029 A 
ATOM     47  N   UNL A   1      41.639  27.458  28.825  1.00  0.00    -0.354 N 
ATOM     48  C   UNL A   1      42.131  31.236  30.852  1.00  0.00     0.074 A 
ATOM     49  C   UNL A   1      40.903  32.002  30.832  1.00  0.00     0.031 C 
ATOM     50  C   UNL A   1      40.563  25.912  27.619  1.00  0.00     0.029 A 
ATOM     51  C   UNL A   1      41.854  26.247  28.213  1.00  0.00     0.049 A 
ATOM     52  H   UNL A   1      42.335  27.938  29.329  1.00  0.00     0.167 HD
ATOM     53  C   UNL A   1      43.280  31.650  31.438  1.00  0.00     0.037 A 
ATOM     54  C   UNL A   1      42.969  25.496  28.133  1.00  0.00     0.037 A 
ATOM     55  C   UNL A   1      44.490  30.875  31.487  1.00  0.00     0.049 A 
ATOM     56  C   UNL A   1      44.231  25.974  28.799  1.00  0.00     0.074 A 
ATOM     57  C   UNL A   1      45.685  31.178  32.118  1.00  0.00     0.029 A 
ATOM     58  N   UNL A   1      44.661  29.639  30.881  1.00  0.00    -0.354 N 
ATOM     59  N   UNL A   1      44.441  27.075  29.477  1.00  0.00    -0.248 NA
ATOM     60  C   UNL A   1      45.408  25.100  28.694  1.00  0.00     0.031 C 
ATOM     61  C   UNL A   1      46.591  30.143  31.859  1.00  0.00     0.029 A 
ATOM     62  C   UNL A   1      45.947  29.175  31.106  1.00  0.00     0.049 A 
ATOM     63  H   UNL A   1      43.970  29.162  30.366  1.00  0.00     0.167 HD
ATOM     64  C   UNL A   1      45.762  27.016  29.900  1.00  0.00     0.074 A 
ATOM     65  C   UNL A   1      46.301  25.763  29.416  1.00  0.00     0.031 C 
ATOM     66  C   UNL A   1      46.465  27.920  30.625  1.00  0.00     0.037 A 
BRANCH  53  67
ATOM     67  C   UNL A   1      43.278  33.005  32.083  1.00  0.00     0.064 A 
ATOM     68  C   UNL A   1      43.441  34.177  31.330  1.00  0.00     0.173 A 
ATOM     69  C   UNL A   1      43.081  33.136  33.467  1.00  0.00     0.173 A 
ATOM     70  F   UNL A   1      43.644  34.106  30.005  1.00  0.00    -0.203 F 
ATOM     71  C   UNL A   1      43.439  35.429  31.941  1.00  0.00     0.198 A 
ATOM     72  C   UNL A   1      43.049  34.391  34.070  1.00  0.00     0.198 A 
ATOM     73  F   UNL A   1      42.914  32.047  34.232  1.00  0.00    -0.203 F 
ATOM     74  F   UNL A   1      43.647  36.530  31.207  1.00  0.00    -0.200 F 
ATOM     75  C   UNL A   1      43.236  35.535  33.308  1.00  0.00     0.200 A 
ATOM     76  F   UNL A   1      42.841  34.493  35.389  1.00  0.00    -0.200 F 
ATOM     77  F   UNL A   1      43.229  36.740  33.894  1.00  0.00    -0.200 F 
ENDBRANCH  53  67
BRANCH  54  78
ATOM     78  C   UNL A   1      42.938  24.194  27.415  1.00  0.00     0.064 A 
ATOM     79  C   UNL A   1      42.549  23.020  28.077  1.00  0.00     0.173 A 
ATOM     80  C   UNL A   1      43.299  24.093  26.064  1.00  0.00     0.173 A 
ATOM     81  F   UNL A   1      42.216  23.064  29.376  1.00  0.00    -0.203 F 
ATOM     82  C   UNL A   1      42.542  21.792  27.420  1.00  0.00     0.198 A 
ATOM     83  C   UNL A   1      43.265  22.868  25.401  1.00  0.00     0.198 A 
ATOM     84  F   UNL A   1      43.674  25.186  25.386  1.00  0.00    -0.203 F 
ATOM     85  F   UNL A   1      42.208  20.679  28.088  1.00  0.00    -0.200 F 
ATOM     86  C   UNL A   1      42.894  21.718  26.081  1.00  0.00     0.200 A 
ATOM     87  F   UNL A   1      43.594  22.802  24.104  1.00  0.00    -0.200 F 
ATOM     88  F   UNL A   1      42.883  20.537  25.448  1.00  0.00    -0.200 F 
ENDBRANCH  54  78
BRANCH  66  89
ATOM     89  C   UNL A   1      47.885  27.573  30.967  1.00  0.00     0.064 A 
ATOM     90  C   UNL A   1      48.212  26.905  32.155  1.00  0.00     0.173 A 
ATOM     91  C   UNL A   1      48.924  27.879  30.076  1.00  0.00     0.173 A 
ATOM     92  F   UNL A   1      47.256  26.605  33.047  1.00  0.00    -0.203 F 
ATOM     93  C   UNL A   1      49.532  26.574  32.448  1.00  0.00     0.198 A 
ATOM     94  C   UNL A   1      50.239  27.523  30.359  1.00  0.00     0.198 A 
ATOM     95  F   UNL A   1      48.662  28.515  28.924  1.00  0.00    -0.203 F 
ATOM     96  F   UNL A   1      49.828  25.974  33.610  1.00  0.00    -0.200 F 
ATOM     97  C   UNL A   1      50.543  26.876  31.548  1.00  0.00     0.200 A 
ATOM     98  F   UNL A   1      51.212  27.805  29.483  1.00  0.00    -0.200 F 
ATOM     99  F   UNL A   1      51.812  26.551  31.829  1.00  0.00    -0.200 F 
ENDBRANCH  66  89
ENDBRANCH  40  41
ENDBRANCH  32  35
ENDBRANCH  30  31
ENDBRANCH  29  30
ENDBRANCH  28  29
ENDBRANCH   1  28
TORSDOF 15
ENDMDL
MODEL 2
REMARK VINA RESULT:     -10.0      5.071     10.958
REMARK SMILES COc1cccc(-c2ccc(Nc3cccc(C(=O)NCCCCNC(=O)c4ccc(-c5c6nc(c(-c7c(F)c(F)c(F)c(F)c7F)c7ccc([nH]7)c(-c7c(F)c(F)c(F)c(F)c7F)c7nc(c(-c8c(F)c(F)c(F)c(F)c8F)c8ccc5[nH]8)C=C7)C=C6)cc4)c3)nn2)c1
REMARK SMILES IDX 21 1 20 2 18 3 19 4 17 6 13 7 14 8 91 9 15 10 16 11 12 12
REMARK SMILES IDX 11 14 8 15 9 16 93 17 10 18 92 19 7 20 3 21 4 22 94 23 5 24
REMARK SMILES IDX 6 25 2 26 1 27 22 28 23 29 24 30 25 31 26 32 27 34 28 35
REMARK SMILES IDX 29 36 90 37 30 38 89 39 31 40 32 41 33 42 83 43 34 44 88 45
REMARK SMILES IDX 82 46 84 47 35 48 87 49 81 50 80 51 36 53 68 54 48 55 67 56
REMARK SMILES IDX 49 57 52 58 66 59 85 60 50 61 51 62 65 64 86 65 53 66 37 67
REMARK SMILES IDX 38 68 46 69 39 70 40 71 44 72 47 73 41 74 42 75 45 76 43 77
REMARK SMILES IDX 69 78 70 79 78 80 71 81 72 82 76 83 79 84 73 85 74 86 77 87
REMARK SMILES IDX 75 88 54 89 55 90 63 91 56 92 57 93 61 94 64 95 58 96 59 97
REMARK SMILES IDX 62 98 60 99
REMARK H PARENT 20 5 12 13 25 33 84 52 52 63
REMARK Flexibility Score: inf
ROOT
ATOM      1  C   UNL A   1      34.235  29.492  27.377  1.00  0.00     0.116 C 
ENDROOT
BRANCH   1   2
ATOM      2  N   UNL A   1      33.005  28.925  27.912  1.00  0.00    -0.352 N 
ATOM      3  C   UNL A   1      31.963  28.273  27.284  1.00  0.00     0.251 C 
ATOM      4  O   UNL A   1      31.008  27.894  27.959  1.00  0.00    -0.269 OA
ATOM      5  H   UNL A   1      32.898  29.023  28.886  1.00  0.00     0.163 HD
BRANCH   3   6
ATOM      6  C   UNL A   1      31.931  28.087  25.808  1.00  0.00     0.041 A 
ATOM      7  C   UNL A   1      32.647  26.869  23.822  1.00  0.00     0.040 A 
ATOM      8  C   UNL A   1      32.194  27.936  23.036  1.00  0.00     0.026 A 
ATOM      9  C   UNL A   1      32.408  26.926  25.199  1.00  0.00     0.040 A 
ATOM     10  C   UNL A   1      31.559  29.039  23.620  1.00  0.00     0.003 A 
ATOM     11  C   UNL A   1      31.451  29.127  25.008  1.00  0.00     0.014 A 
BRANCH   7  12
ATOM     12  N   UNL A   1      33.406  25.837  23.244  1.00  0.00    -0.339 N 
ATOM     13  H   UNL A   1      34.139  26.128  22.655  1.00  0.00     0.168 HD
BRANCH  12  14
ATOM     14  C   UNL A   1      33.263  24.447  23.389  1.00  0.00     0.153 A 
ATOM     15  C   UNL A   1      32.950  21.724  23.723  1.00  0.00     0.093 A 
ATOM     16  C   UNL A   1      34.027  22.359  24.323  1.00  0.00     0.035 A 
ATOM     17  N   UNL A   1      32.053  22.439  23.014  1.00  0.00    -0.148 NA
ATOM     18  C   UNL A   1      34.187  23.737  24.146  1.00  0.00     0.051 A 
ATOM     19  N   UNL A   1      32.208  23.798  22.861  1.00  0.00    -0.132 NA
BRANCH  15  20
ATOM     20  C   UNL A   1      32.743  20.272  23.734  1.00  0.00     0.006 A 
ATOM     21  C   UNL A   1      32.677  18.116  24.868  1.00  0.00     0.119 A 
ATOM     22  C   UNL A   1      32.400  17.482  23.657  1.00  0.00     0.046 A 
ATOM     23  C   UNL A   1      32.866  19.502  24.905  1.00  0.00     0.056 A 
ATOM     24  C   UNL A   1      32.259  18.228  22.491  1.00  0.00     0.005 A 
ATOM     25  C   UNL A   1      32.421  19.611  22.534  1.00  0.00     0.011 A 
BRANCH  21  26
ATOM     26  O   UNL A   1      32.799  17.286  25.949  1.00  0.00    -0.497 OA
ATOM     27  C   UNL A   1      32.764  15.894  25.645  1.00  0.00     0.278 C 
ENDBRANCH  21  26
ENDBRANCH  15  20
ENDBRANCH  12  14
ENDBRANCH   7  12
ENDBRANCH   3   6
ENDBRANCH   1   2
BRANCH   1  28
ATOM     28  C   UNL A   1      34.514  30.925  27.811  1.00  0.00     0.023 C 
BRANCH  28  29
ATOM     29  C   UNL A   1      33.303  31.832  27.980  1.00  0.00     0.023 C 
BRANCH  29  30
ATOM     30  C   UNL A   1      33.205  33.005  27.013  1.00  0.00     0.116 C 
BRANCH  30  31
ATOM     31  N   UNL A   1      32.647  34.216  27.598  1.00  0.00    -0.352 N 
ATOM     32  C   UNL A   1      33.053  34.933  28.702  1.00  0.00     0.251 C 
ATOM     33  H   UNL A   1      31.858  34.578  27.133  1.00  0.00     0.163 HD
ATOM     34  O   UNL A   1      32.404  35.899  29.084  1.00  0.00    -0.269 OA
BRANCH  32  35
ATOM     35  C   UNL A   1      34.252  34.504  29.459  1.00  0.00     0.039 A 
ATOM     36  C   UNL A   1      34.089  34.003  30.754  1.00  0.00     0.014 A 
ATOM     37  C   UNL A   1      35.525  34.562  28.889  1.00  0.00     0.014 A 
ATOM     38  C   UNL A   1      35.187  33.472  31.436  1.00  0.00     0.010 A 
ATOM     39  C   UNL A   1      36.600  33.958  29.533  1.00  0.00     0.010 A 
ATOM     40  C   UNL A   1      36.443  33.399  30.811  1.00  0.00    -0.014 A 
BRANCH  40  41
ATOM     41  C   UNL A   1      37.600  32.735  31.467  1.00  0.00     0.031 A 
ATOM     42  C   UNL A   1      38.277  31.569  30.802  1.00  0.00     0.074 A 
ATOM     43  C   UNL A   1      37.988  33.126  32.697  1.00  0.00     0.049 A 
ATOM     44  N   UNL A   1      39.236  30.800  31.253  1.00  0.00    -0.248 NA
ATOM     45  C   UNL A   1      37.792  31.200  29.464  1.00  0.00     0.031 C 
ATOM     46  C   UNL A   1      37.379  34.205  33.475  1.00  0.00     0.029 A 
ATOM     47  N   UNL A   1      38.980  32.646  33.517  1.00  0.00    -0.354 N 
ATOM     48  C   UNL A   1      39.450  29.847  30.266  1.00  0.00     0.074 A 
ATOM     49  C   UNL A   1      38.489  30.102  29.215  1.00  0.00     0.031 C 
ATOM     50  C   UNL A   1      38.022  34.320  34.648  1.00  0.00     0.029 A 
ATOM     51  C   UNL A   1      39.064  33.300  34.722  1.00  0.00     0.049 A 
ATOM     52  H   UNL A   1      39.576  31.904  33.265  1.00  0.00     0.167 HD
ATOM     53  C   UNL A   1      40.380  28.862  30.228  1.00  0.00     0.037 A 
ATOM     54  C   UNL A   1      39.882  33.095  35.772  1.00  0.00     0.037 A 
ATOM     55  C   UNL A   1      41.358  28.629  31.257  1.00  0.00     0.049 A 
ATOM     56  C   UNL A   1      40.913  32.000  35.701  1.00  0.00     0.074 A 
ATOM     57  C   UNL A   1      42.386  27.702  31.278  1.00  0.00     0.029 A 
ATOM     58  N   UNL A   1      41.429  29.332  32.451  1.00  0.00    -0.354 N 
ATOM     59  N   UNL A   1      41.152  31.152  34.732  1.00  0.00    -0.248 NA
ATOM     60  C   UNL A   1      41.790  31.839  36.870  1.00  0.00     0.031 C 
ATOM     61  C   UNL A   1      43.054  27.818  32.502  1.00  0.00     0.029 A 
ATOM     62  C   UNL A   1      42.472  28.847  33.224  1.00  0.00     0.049 A 
ATOM     63  H   UNL A   1      40.828  30.068  32.711  1.00  0.00     0.167 HD
ATOM     64  C   UNL A   1      42.221  30.376  35.160  1.00  0.00     0.074 A 
ATOM     65  C   UNL A   1      42.593  30.863  36.471  1.00  0.00     0.031 C 
ATOM     66  C   UNL A   1      42.837  29.350  34.524  1.00  0.00     0.037 A 
BRANCH  53  67
ATOM     67  C   UNL A   1      40.388  27.966  29.025  1.00  0.00     0.064 A 
ATOM     68  C   UNL A   1      41.150  28.271  27.887  1.00  0.00     0.173 A 
ATOM     69  C   UNL A   1      39.649  26.773  29.019  1.00  0.00     0.173 A 
ATOM     70  F   UNL A   1      41.866  29.405  27.837  1.00  0.00    -0.203 F 
ATOM     71  C   UNL A   1      41.148  27.432  26.776  1.00  0.00     0.198 A 
ATOM     72  C   UNL A   1      39.673  25.921  27.918  1.00  0.00     0.198 A 
ATOM     73  F   UNL A   1      38.908  26.431  30.084  1.00  0.00    -0.203 F 
ATOM     74  F   UNL A   1      41.843  27.770  25.682  1.00  0.00    -0.200 F 
ATOM     75  C   UNL A   1      40.415  26.255  26.794  1.00  0.00     0.200 A 
ATOM     76  F   UNL A   1      38.974  24.778  27.941  1.00  0.00    -0.200 F 
ATOM     77  F   UNL A   1      40.418  25.446  25.727  1.00  0.00    -0.200 F 
ENDBRANCH  53  67
BRANCH  54  78
ATOM     78  C   UNL A   1      39.783  33.965  36.973  1.00  0.00     0.064 A 
ATOM     79  C   UNL A   1      38.989  33.589  38.066  1.00  0.00     0.173 A 
ATOM     80  C   UNL A   1      40.468  35.185  37.054  1.00  0.00     0.173 A 
ATOM     81  F   UNL A   1      38.297  32.439  38.026  1.00  0.00    -0.203 F 
ATOM     82  C   UNL A   1      38.869  34.408  39.185  1.00  0.00     0.198 A 
ATOM     83  C   UNL A   1      40.368  35.992  38.185  1.00  0.00     0.198 A 
ATOM     84  F   UNL A   1      41.243  35.589  36.037  1.00  0.00    -0.203 F 
ATOM     85  F   UNL A   1      38.070  34.045  40.198  1.00  0.00    -0.200 F 
ATOM     86  C   UNL A   1      39.563  35.607  39.246  1.00  0.00     0.200 A 
ATOM     87  F   UNL A   1      41.050  37.144  38.246  1.00  0.00    -0.200 F 
ATOM     88  F   UNL A   1      39.451  36.394  40.325  1.00  0.00    -0.200 F 
ENDBRANCH  54  78
BRANCH  66  89
ATOM     89  C   UNL A   1      44.000  28.706  35.220  1.00  0.00     0.064 A 
ATOM     90  C   UNL A   1      43.820  27.657  36.133  1.00  0.00     0.173 A 
ATOM     91  C   UNL A   1      45.311  29.118  34.940  1.00  0.00     0.173 A 
ATOM     92  F   UNL A   1      42.585  27.238  36.446  1.00  0.00    -0.203 F 
ATOM     93  C   UNL A   1      44.912  27.057  36.756  1.00  0.00     0.198 A 
ATOM     94  C   UNL A   1      46.401  28.499  35.544  1.00  0.00     0.198 A 
ATOM     95  F   UNL A   1      45.535  30.115  34.071  1.00  0.00    -0.203 F 
ATOM     96  F   UNL A   1      44.715  26.086  37.658  1.00  0.00    -0.200 F 
ATOM     97  C   UNL A   1      46.200  27.473  36.456  1.00  0.00     0.200 A 
ATOM     98  F   UNL A   1      47.645  28.894  35.244  1.00  0.00    -0.200 F 
ATOM     99  F   UNL A   1      47.250  26.891  37.052  1.00  0.00    -0.200 F 
ENDBRANCH  66  89
ENDBRANCH  40  41
ENDBRANCH  32  35
ENDBRANCH  30  31
ENDBRANCH  29  30
ENDBRANCH  28  29
ENDBRANCH   1  28
TORSDOF 15
ENDMDL
MODEL 3
REMARK VINA RESULT:     -10.0      5.048     11.100
REMARK SMILES COc1cccc(-c2ccc(Nc3cccc(C(=O)NCCCCNC(=O)c4ccc(-c5c6nc(c(-c7c(F)c(F)c(F)c(F)c7F)c7ccc([nH]7)c(-c7c(F)c(F)c(F)c(F)c7F)c7nc(c(-c8c(F)c(F)c(F)c(F)c8F)c8ccc5[nH]8)C=C7)C=C6)cc4)c3)nn2)c1
REMARK SMILES IDX 21 1 20 2 18 3 19 4 17 6 13 7 14 8 91 9 15 10 16 11 12 12
REMARK SMILES IDX 11 14 8 15 9 16 93 17 10 18 92 19 7 20 3 21 4 22 94 23 5 24
REMARK SMILES IDX 6 25 2 26 1 27 22 28 23 29 24 30 25 31 26 32 27 34 28 35
REMARK SMILES IDX 29 36 90 37 30 38 89 39 31 40 32 41 33 42 83 43 34 44 88 45
REMARK SMILES IDX 82 46 84 47 35 48 87 49 81 50 80 51 36 53 68 54 48 55 67 56
REMARK SMILES IDX 49 57 52 58 66 59 85 60 50 61 51 62 65 64 86 65 53 66 37 67
REMARK SMILES IDX 38 68 46 69 39 70 40 71 44 72 47 73 41 74 42 75 45 76 43 77
REMARK SMILES IDX 69 78 70 79 78 80 71 81 72 82 76 83 79 84 73 85 74 86 77 87
REMARK SMILES IDX 75 88 54 89 55 90 63 91 56 92 57 93 61 94 64 95 58 96 59 97
REMARK SMILES IDX 62 98 60 99
REMARK H PARENT 20 5 12 13 25 33 84 52 52 63
REMARK Flexibility Score: inf
ROOT
ATOM      1  C   UNL A   1      38.117  23.624  26.029  1.00  0.00     0.116 C 
ENDROOT
BRANCH   1   2
ATOM      2  N   UNL A   1      37.778  23.523  24.617  1.00  0.00    -0.352 N 
ATOM      3  C   UNL A   1      36.598  23.167  23.995  1.00  0.00     0.251 C 
ATOM      4  O   UNL A   1      36.562  23.139  22.766  1.00  0.00    -0.269 OA
ATOM      5  H   UNL A   1      38.514  23.746  24.002  1.00  0.00     0.163 HD
BRANCH   3   6
ATOM      6  C   UNL A   1      35.400  22.744  24.769  1.00  0.00     0.041 A 
ATOM      7  C   UNL A   1      33.375  23.318  25.996  1.00  0.00     0.040 A 
ATOM      8  C   UNL A   1      33.362  22.024  26.529  1.00  0.00     0.026 A 
ATOM      9  C   UNL A   1      34.346  23.619  25.037  1.00  0.00     0.040 A 
ATOM     10  C   UNL A   1      34.318  21.078  26.142  1.00  0.00     0.003 A 
ATOM     11  C   UNL A   1      35.353  21.446  25.282  1.00  0.00     0.014 A 
BRANCH   7  12
ATOM     12  N   UNL A   1      32.499  24.299  26.496  1.00  0.00    -0.339 N 
ATOM     13  H   UNL A   1      32.374  24.297  27.473  1.00  0.00     0.168 HD
BRANCH  12  14
ATOM     14  C   UNL A   1      31.779  25.279  25.795  1.00  0.00     0.153 A 
ATOM     15  C   UNL A   1      30.396  27.201  24.372  1.00  0.00     0.093 A 
ATOM     16  C   UNL A   1      31.485  27.582  25.141  1.00  0.00     0.035 A 
ATOM     17  N   UNL A   1      30.042  25.902  24.301  1.00  0.00    -0.148 NA
ATOM     18  C   UNL A   1      32.179  26.608  25.866  1.00  0.00     0.051 A 
ATOM     19  N   UNL A   1      30.742  24.947  25.003  1.00  0.00    -0.132 NA
BRANCH  15  20
ATOM     20  C   UNL A   1      29.519  28.141  23.668  1.00  0.00     0.006 A 
ATOM     21  C   UNL A   1      29.108  30.243  22.505  1.00  0.00     0.119 A 
ATOM     22  C   UNL A   1      27.756  29.921  22.390  1.00  0.00     0.046 A 
ATOM     23  C   UNL A   1      29.983  29.366  23.157  1.00  0.00     0.056 A 
ATOM     24  C   UNL A   1      27.280  28.706  22.874  1.00  0.00     0.005 A 
ATOM     25  C   UNL A   1      28.158  27.823  23.499  1.00  0.00     0.011 A 
BRANCH  21  26
ATOM     26  O   UNL A   1      29.464  31.463  21.998  1.00  0.00    -0.497 OA
ATOM     27  C   UNL A   1      28.387  32.381  21.828  1.00  0.00     0.278 C 
ENDBRANCH  21  26
ENDBRANCH  15  20
ENDBRANCH  12  14
ENDBRANCH   7  12
ENDBRANCH   3   6
ENDBRANCH   1   2
BRANCH   1  28
ATOM     28  C   UNL A   1      39.253  22.713  26.476  1.00  0.00     0.023 C 
BRANCH  28  29
ATOM     29  C   UNL A   1      39.381  21.380  25.752  1.00  0.00     0.023 C 
BRANCH  29  30
ATOM     30  C   UNL A   1      39.585  20.156  26.635  1.00  0.00     0.116 C 
BRANCH  30  31
ATOM     31  N   UNL A   1      40.572  19.212  26.127  1.00  0.00    -0.352 N 
ATOM     32  C   UNL A   1      41.925  19.371  25.922  1.00  0.00     0.251 C 
ATOM     33  H   UNL A   1      40.217  18.324  25.892  1.00  0.00     0.163 HD
ATOM     34  O   UNL A   1      42.583  18.471  25.414  1.00  0.00    -0.269 OA
BRANCH  32  35
ATOM     35  C   UNL A   1      42.578  20.653  26.276  1.00  0.00     0.039 A 
ATOM     36  C   UNL A   1      43.090  21.454  25.250  1.00  0.00     0.014 A 
ATOM     37  C   UNL A   1      42.657  21.082  27.602  1.00  0.00     0.014 A 
ATOM     38  C   UNL A   1      43.592  22.724  25.547  1.00  0.00     0.010 A 
ATOM     39  C   UNL A   1      43.078  22.378  27.886  1.00  0.00     0.010 A 
ATOM     40  C   UNL A   1      43.544  23.216  26.861  1.00  0.00    -0.014 A 
BRANCH  40  41
ATOM     41  C   UNL A   1      43.962  24.606  27.186  1.00  0.00     0.031 A 
ATOM     42  C   UNL A   1      42.944  25.613  27.643  1.00  0.00     0.074 A 
ATOM     43  C   UNL A   1      45.240  24.984  26.991  1.00  0.00     0.049 A 
ATOM     44  N   UNL A   1      43.092  26.892  27.883  1.00  0.00    -0.248 NA
ATOM     45  C   UNL A   1      41.568  25.124  27.827  1.00  0.00     0.031 C 
ATOM     46  C   UNL A   1      46.314  24.120  26.498  1.00  0.00     0.029 A 
ATOM     47  N   UNL A   1      45.851  26.202  27.169  1.00  0.00    -0.354 N 
ATOM     48  C   UNL A   1      41.830  27.361  28.221  1.00  0.00     0.074 A 
ATOM     49  C   UNL A   1      40.918  26.243  28.108  1.00  0.00     0.031 C 
ATOM     50  C   UNL A   1      47.453  24.827  26.433  1.00  0.00     0.029 A 
ATOM     51  C   UNL A   1      47.186  26.202  26.842  1.00  0.00     0.049 A 
ATOM     52  H   UNL A   1      45.377  26.999  27.499  1.00  0.00     0.167 HD
ATOM     53  C   UNL A   1      41.466  28.606  28.615  1.00  0.00     0.037 A 
ATOM     54  C   UNL A   1      48.089  27.200  26.863  1.00  0.00     0.037 A 
ATOM     55  C   UNL A   1      42.378  29.709  28.760  1.00  0.00     0.049 A 
ATOM     56  C   UNL A   1      47.662  28.572  27.312  1.00  0.00     0.074 A 
ATOM     57  C   UNL A   1      42.118  30.989  29.219  1.00  0.00     0.029 A 
ATOM     58  N   UNL A   1      43.729  29.662  28.448  1.00  0.00    -0.354 N 
ATOM     59  N   UNL A   1      46.480  28.985  27.699  1.00  0.00    -0.248 NA
ATOM     60  C   UNL A   1      48.698  29.615  27.334  1.00  0.00     0.031 C 
ATOM     61  C   UNL A   1      43.304  31.728  29.148  1.00  0.00     0.029 A 
ATOM     62  C   UNL A   1      44.312  30.896  28.687  1.00  0.00     0.049 A 
ATOM     63  H   UNL A   1      44.203  28.869  28.107  1.00  0.00     0.167 HD
ATOM     64  C   UNL A   1      46.635  30.324  28.033  1.00  0.00     0.074 A 
ATOM     65  C   UNL A   1      48.028  30.651  27.818  1.00  0.00     0.031 C 
ATOM     66  C   UNL A   1      45.704  31.203  28.477  1.00  0.00     0.037 A 
BRANCH  53  67
ATOM     67  C   UNL A   1      40.016  28.837  28.925  1.00  0.00     0.064 A 
ATOM     68  C   UNL A   1      39.504  28.653  30.218  1.00  0.00     0.173 A 
ATOM     69  C   UNL A   1      39.134  29.273  27.925  1.00  0.00     0.173 A 
ATOM     70  F   UNL A   1      40.304  28.226  31.207  1.00  0.00    -0.203 F 
ATOM     71  C   UNL A   1      38.156  28.869  30.493  1.00  0.00     0.198 A 
ATOM     72  C   UNL A   1      37.793  29.518  28.211  1.00  0.00     0.198 A 
ATOM     73  F   UNL A   1      39.573  29.470  26.673  1.00  0.00    -0.203 F 
ATOM     74  F   UNL A   1      37.680  28.640  31.724  1.00  0.00    -0.200 F 
ATOM     75  C   UNL A   1      37.303  29.308  29.492  1.00  0.00     0.200 A 
ATOM     76  F   UNL A   1      36.972  29.953  27.245  1.00  0.00    -0.200 F 
ATOM     77  F   UNL A   1      36.008  29.520  29.758  1.00  0.00    -0.200 F 
ENDBRANCH  53  67
BRANCH  54  78
ATOM     78  C   UNL A   1      49.499  26.936  26.473  1.00  0.00     0.064 A 
ATOM     79  C   UNL A   1      49.900  27.027  25.133  1.00  0.00     0.173 A 
ATOM     80  C   UNL A   1      50.468  26.582  27.422  1.00  0.00     0.173 A 
ATOM     81  F   UNL A   1      49.003  27.341  24.186  1.00  0.00    -0.203 F 
ATOM     82  C   UNL A   1      51.212  26.756  24.754  1.00  0.00     0.198 A 
ATOM     83  C   UNL A   1      51.787  26.338  27.046  1.00  0.00     0.198 A 
ATOM     84  F   UNL A   1      50.135  26.485  28.717  1.00  0.00    -0.203 F 
ATOM     85  F   UNL A   1      51.560  26.809  23.461  1.00  0.00    -0.200 F 
ATOM     86  C   UNL A   1      52.156  26.417  25.712  1.00  0.00     0.200 A 
ATOM     87  F   UNL A   1      52.699  26.022  27.975  1.00  0.00    -0.200 F 
ATOM     88  F   UNL A   1      53.420  26.160  25.348  1.00  0.00    -0.200 F 
ENDBRANCH  54  78
BRANCH  66  89
ATOM     89  C   UNL A   1      46.167  32.595  28.793  1.00  0.00     0.064 A 
ATOM     90  C   UNL A   1      46.671  32.933  30.057  1.00  0.00     0.173 A 
ATOM     91  C   UNL A   1      46.143  33.591  27.806  1.00  0.00     0.173 A 
ATOM     92  F   UNL A   1      46.699  32.020  31.039  1.00  0.00    -0.203 F 
ATOM     93  C   UNL A   1      47.115  34.225  30.327  1.00  0.00     0.198 A 
ATOM     94  C   UNL A   1      46.612  34.875  28.071  1.00  0.00     0.198 A 
ATOM     95  F   UNL A   1      45.674  33.317  26.579  1.00  0.00    -0.203 F 
ATOM     96  F   UNL A   1      47.551  34.538  31.555  1.00  0.00    -0.200 F 
ATOM     97  C   UNL A   1      47.092  35.192  29.333  1.00  0.00     0.200 A 
ATOM     98  F   UNL A   1      46.601  35.804  27.106  1.00  0.00    -0.200 F 
ATOM     99  F   UNL A   1      47.525  36.433  29.593  1.00  0.00    -0.200 F 
ENDBRANCH  66  89
ENDBRANCH  40  41
ENDBRANCH  32  35
ENDBRANCH  30  31
ENDBRANCH  29  30
ENDBRANCH  28  29
ENDBRANCH   1  28
TORSDOF 15
ENDMDL
