MODEL 1
REMARK VINA RESULT:     -12.5      0.000      0.000
REMARK SMILES CC(C)[NH2+][C@]1(C(=O)NCCCCNC(=O)c2ccc(-c3c4nc(c(-c5c(F)c(F)c(F)c(F)c5F)c5ccc([nH]5)c(-c5c(F)c(F)c(F)c(F)c5F)c5nc(c(-c6c(F)c(F)c(F)c(F)c6F)c6ccc3[nH]6)C=C5)C=C4)cc2)CCC[C@H]([N@H+](C)C2CCCCC2)C1
REMARK SMILES IDX 10 1 9 2 8 3 6 4 7 5 5 7 79 8 91 9 80 10 82 11 81 12 4 13
REMARK SMILES IDX 2 16 1 17 3 18 83 19 84 20 85 22 86 23 90 24 87 25 89 26
REMARK SMILES IDX 88 27 11 28 12 29 13 30 14 31 15 33 16 34 17 35 78 36 18 37
REMARK SMILES IDX 77 38 19 39 20 40 21 41 71 42 22 43 76 44 70 45 72 46 23 47
REMARK SMILES IDX 75 48 69 49 68 50 24 52 56 53 36 54 55 55 37 56 40 57 54 58
REMARK SMILES IDX 73 59 38 60 39 61 53 63 74 64 41 65 25 66 26 67 34 68 27 69
REMARK SMILES IDX 28 70 32 71 35 72 29 73 30 74 33 75 31 76 57 77 58 78 66 79
REMARK SMILES IDX 59 80 60 81 64 82 67 83 61 84 62 85 65 86 63 87 42 88 43 89
REMARK SMILES IDX 51 90 44 91 45 92 49 93 52 94 46 95 47 96 50 97 48 98
REMARK H PARENT 8 6 4 14 4 15 83 21 13 32 72 51 40 62
REMARK Flexibility Score: inf
ROOT
ATOM      1  C   UNL A   1      31.823  30.497  26.796  1.00  0.00     0.023 C 
ENDROOT
BRANCH   1   2
ATOM      2  C   UNL A   1      32.352  29.954  25.471  1.00  0.00     0.116 C 
BRANCH   2   3
ATOM      3  N   UNL A   1      31.315  29.827  24.490  1.00  0.00    -0.351 N 
ATOM      4  C   UNL A   1      30.984  28.849  23.621  1.00  0.00     0.281 C 
ATOM      5  O   UNL A   1      30.071  29.188  22.849  1.00  0.00    -0.268 OA
ATOM      6  H   UNL A   1      30.723  30.612  24.439  1.00  0.00     0.163 HD
BRANCH   4   7
ATOM      7  C   UNL A   1      31.750  27.473  23.439  1.00  0.00     0.181 C 
ATOM      8  C   UNL A   1      31.144  26.968  22.070  1.00  0.00     0.079 C 
ATOM      9  C   UNL A   1      33.275  27.329  23.297  1.00  0.00     0.144 C 
ATOM     10  C   UNL A   1      31.880  25.944  21.175  1.00  0.00     0.013 C 
ATOM     11  C   UNL A   1      33.732  25.862  22.958  1.00  0.00     0.190 C 
ATOM     12  C   UNL A   1      33.318  25.595  21.514  1.00  0.00     0.065 C 
BRANCH   7  13
ATOM     13  N   UNL A   1      31.385  26.648  24.632  1.00  0.00    -0.331 N 
ATOM     14  H   UNL A   1      32.216  26.111  24.884  1.00  0.00     0.347 HD
ATOM     15  H   UNL A   1      31.055  27.338  25.306  1.00  0.00     0.347 HD
BRANCH  13  16
ATOM     16  C   UNL A   1      30.264  25.687  24.545  1.00  0.00     0.176 C 
ATOM     17  C   UNL A   1      30.319  24.861  25.837  1.00  0.00     0.075 C 
ATOM     18  C   UNL A   1      28.860  26.303  24.463  1.00  0.00     0.075 C 
ENDBRANCH  13  16
ENDBRANCH   7  13
BRANCH  11  19
ATOM     19  N   UNL A   1      33.439  24.842  24.027  1.00  0.00    -0.332 N 
ATOM     20  C   UNL A   1      34.271  25.186  25.200  1.00  0.00     0.333 C 
ATOM     21  H   UNL A   1      32.434  24.928  24.182  1.00  0.00     0.348 HD
BRANCH  19  22
ATOM     22  C   UNL A   1      33.493  23.363  23.716  1.00  0.00     0.184 C 
ATOM     23  C   UNL A   1      33.947  22.491  24.933  1.00  0.00     0.065 C 
ATOM     24  C   UNL A   1      32.118  22.761  23.327  1.00  0.00     0.065 C 
ATOM     25  C   UNL A   1      33.917  20.976  24.676  1.00  0.00     0.006 C 
ATOM     26  C   UNL A   1      32.194  21.303  22.904  1.00  0.00     0.006 C 
ATOM     27  C   UNL A   1      32.599  20.472  24.105  1.00  0.00     0.000 C 
ENDBRANCH  19  22
ENDBRANCH  11  19
ENDBRANCH   4   7
ENDBRANCH   2   3
ENDBRANCH   1   2
BRANCH   1  28
ATOM     28  C   UNL A   1      31.578  32.006  26.818  1.00  0.00     0.023 C 
BRANCH  28  29
ATOM     29  C   UNL A   1      32.752  32.841  27.308  1.00  0.00     0.116 C 
BRANCH  29  30
ATOM     30  N   UNL A   1      32.387  34.208  27.658  1.00  0.00    -0.352 N 
ATOM     31  C   UNL A   1      32.992  35.053  28.557  1.00  0.00     0.251 C 
ATOM     32  H   UNL A   1      31.604  34.574  27.187  1.00  0.00     0.163 HD
ATOM     33  O   UNL A   1      32.551  36.168  28.771  1.00  0.00    -0.269 OA
BRANCH  31  34
ATOM     34  C   UNL A   1      34.157  34.545  29.300  1.00  0.00     0.039 A 
ATOM     35  C   UNL A   1      33.931  33.867  30.498  1.00  0.00     0.014 A 
ATOM     36  C   UNL A   1      35.437  34.639  28.749  1.00  0.00     0.014 A 
ATOM     37  C   UNL A   1      34.993  33.211  31.114  1.00  0.00     0.010 A 
ATOM     38  C   UNL A   1      36.473  33.916  29.322  1.00  0.00     0.010 A 
ATOM     39  C   UNL A   1      36.259  33.195  30.507  1.00  0.00    -0.014 A 
BRANCH  39  40
ATOM     40  C   UNL A   1      37.381  32.433  31.102  1.00  0.00     0.031 A 
ATOM     41  C   UNL A   1      37.870  32.785  32.476  1.00  0.00     0.074 A 
ATOM     42  C   UNL A   1      37.996  31.478  30.378  1.00  0.00     0.049 A 
ATOM     43  N   UNL A   1      38.881  32.292  33.146  1.00  0.00    -0.248 NA
ATOM     44  C   UNL A   1      37.149  33.858  33.179  1.00  0.00     0.031 C 
ATOM     45  C   UNL A   1      37.643  31.092  29.010  1.00  0.00     0.029 A 
ATOM     46  N   UNL A   1      39.055  30.664  30.690  1.00  0.00    -0.354 N 
ATOM     47  C   UNL A   1      38.924  33.005  34.335  1.00  0.00     0.074 A 
ATOM     48  C   UNL A   1      37.881  34.005  34.273  1.00  0.00     0.031 C 
ATOM     49  C   UNL A   1      38.454  30.099  28.611  1.00  0.00     0.029 A 
ATOM     50  C   UNL A   1      39.404  29.802  29.679  1.00  0.00     0.049 A 
ATOM     51  H   UNL A   1      39.521  30.695  31.557  1.00  0.00     0.167 HD
ATOM     52  C   UNL A   1      39.741  32.822  35.399  1.00  0.00     0.037 A 
ATOM     53  C   UNL A   1      40.383  28.881  29.624  1.00  0.00     0.037 A 
ATOM     54  C   UNL A   1      40.755  31.805  35.465  1.00  0.00     0.049 A 
ATOM     55  C   UNL A   1      41.273  28.690  30.822  1.00  0.00     0.074 A 
ATOM     56  C   UNL A   1      41.598  31.493  36.517  1.00  0.00     0.029 A 
ATOM     57  N   UNL A   1      41.062  30.929  34.433  1.00  0.00    -0.354 N 
ATOM     58  N   UNL A   1      41.260  29.321  31.971  1.00  0.00    -0.248 NA
ATOM     59  C   UNL A   1      42.308  27.653  30.720  1.00  0.00     0.031 C 
ATOM     60  C   UNL A   1      42.442  30.457  36.107  1.00  0.00     0.029 A 
ATOM     61  C   UNL A   1      42.093  30.088  34.817  1.00  0.00     0.049 A 
ATOM     62  H   UNL A   1      40.613  30.910  33.557  1.00  0.00     0.167 HD
ATOM     63  C   UNL A   1      42.262  28.743  32.737  1.00  0.00     0.074 A 
ATOM     64  C   UNL A   1      42.854  27.697  31.927  1.00  0.00     0.031 C 
ATOM     65  C   UNL A   1      42.658  29.048  33.997  1.00  0.00     0.037 A 
BRANCH  52  66
ATOM     66  C   UNL A   1      39.560  33.735  36.575  1.00  0.00     0.064 A 
ATOM     67  C   UNL A   1      40.184  34.992  36.630  1.00  0.00     0.173 A 
ATOM     68  C   UNL A   1      38.743  33.360  37.651  1.00  0.00     0.173 A 
ATOM     69  F   UNL A   1      40.989  35.390  35.634  1.00  0.00    -0.203 F 
ATOM     70  C   UNL A   1      40.018  35.826  37.732  1.00  0.00     0.198 A 
ATOM     71  C   UNL A   1      38.555  34.211  38.737  1.00  0.00     0.198 A 
ATOM     72  F   UNL A   1      38.123  32.171  37.647  1.00  0.00    -0.203 F 
ATOM     73  F   UNL A   1      40.667  36.997  37.786  1.00  0.00    -0.200 F 
ATOM     74  C   UNL A   1      39.199  35.437  38.781  1.00  0.00     0.200 A 
ATOM     75  F   UNL A   1      37.753  33.839  39.746  1.00  0.00    -0.200 F 
ATOM     76  F   UNL A   1      39.037  36.244  39.839  1.00  0.00    -0.200 F 
ENDBRANCH  52  66
BRANCH  53  77
ATOM     77  C   UNL A   1      40.551  28.046  28.407  1.00  0.00     0.064 A 
ATOM     78  C   UNL A   1      39.942  26.787  28.310  1.00  0.00     0.173 A 
ATOM     79  C   UNL A   1      41.323  28.483  27.320  1.00  0.00     0.173 A 
ATOM     80  F   UNL A   1      39.210  26.318  29.330  1.00  0.00    -0.203 F 
ATOM     81  C   UNL A   1      40.114  25.989  27.181  1.00  0.00     0.198 A 
ATOM     82  C   UNL A   1      41.471  27.695  26.180  1.00  0.00     0.198 A 
ATOM     83  F   UNL A   1      41.922  29.683  27.360  1.00  0.00    -0.203 F 
ATOM     84  F   UNL A   1      39.556  24.772  27.132  1.00  0.00    -0.200 F 
ATOM     85  C   UNL A   1      40.874  26.446  26.115  1.00  0.00     0.200 A 
ATOM     86  F   UNL A   1      42.195  28.146  25.146  1.00  0.00    -0.200 F 
ATOM     87  F   UNL A   1      41.037  25.679  25.028  1.00  0.00    -0.200 F 
ENDBRANCH  53  77
BRANCH  65  88
ATOM     88  C   UNL A   1      43.760  28.219  34.589  1.00  0.00     0.064 A 
ATOM     89  C   UNL A   1      45.101  28.625  34.527  1.00  0.00     0.173 A 
ATOM     90  C   UNL A   1      43.463  27.028  35.268  1.00  0.00     0.173 A 
ATOM     91  F   UNL A   1      45.437  29.749  33.877  1.00  0.00    -0.203 F 
ATOM     92  C   UNL A   1      46.107  27.855  35.103  1.00  0.00     0.198 A 
ATOM     93  C   UNL A   1      44.467  26.275  35.868  1.00  0.00     0.198 A 
ATOM     94  F   UNL A   1      42.194  26.601  35.362  1.00  0.00    -0.203 F 
ATOM     95  F   UNL A   1      47.387  28.237  34.992  1.00  0.00    -0.200 F 
ATOM     96  C   UNL A   1      45.789  26.686  35.779  1.00  0.00     0.200 A 
ATOM     97  F   UNL A   1      44.158  25.155  36.533  1.00  0.00    -0.200 F 
ATOM     98  F   UNL A   1      46.759  25.950  36.340  1.00  0.00    -0.200 F 
ENDBRANCH  65  88
ENDBRANCH  39  40
ENDBRANCH  31  34
ENDBRANCH  29  30
ENDBRANCH  28  29
ENDBRANCH   1  28
TORSDOF 15
ENDMDL
MODEL 2
REMARK VINA RESULT:     -12.4      5.523      9.778
REMARK SMILES CC(C)[NH2+][C@]1(C(=O)NCCCCNC(=O)c2ccc(-c3c4nc(c(-c5c(F)c(F)c(F)c(F)c5F)c5ccc([nH]5)c(-c5c(F)c(F)c(F)c(F)c5F)c5nc(c(-c6c(F)c(F)c(F)c(F)c6F)c6ccc3[nH]6)C=C5)C=C4)cc2)CCC[C@H]([N@H+](C)C2CCCCC2)C1
REMARK SMILES IDX 10 1 9 2 8 3 6 4 7 5 5 7 79 8 91 9 80 10 82 11 81 12 4 13
REMARK SMILES IDX 2 16 1 17 3 18 83 19 84 20 85 22 86 23 90 24 87 25 89 26
REMARK SMILES IDX 88 27 11 28 12 29 13 30 14 31 15 33 16 34 17 35 78 36 18 37
REMARK SMILES IDX 77 38 19 39 20 40 21 41 71 42 22 43 76 44 70 45 72 46 23 47
REMARK SMILES IDX 75 48 69 49 68 50 24 52 56 53 36 54 55 55 37 56 40 57 54 58
REMARK SMILES IDX 73 59 38 60 39 61 53 63 74 64 41 65 25 66 26 67 34 68 27 69
REMARK SMILES IDX 28 70 32 71 35 72 29 73 30 74 33 75 31 76 57 77 58 78 66 79
REMARK SMILES IDX 59 80 60 81 64 82 67 83 61 84 62 85 65 86 63 87 42 88 43 89
REMARK SMILES IDX 51 90 44 91 45 92 49 93 52 94 46 95 47 96 50 97 48 98
REMARK H PARENT 8 6 4 14 4 15 83 21 13 32 72 51 40 62
REMARK Flexibility Score: inf
ROOT
ATOM      1  C   UNL A   1      37.104  21.693  24.687  1.00  0.00     0.023 C 
ENDROOT
BRANCH   1   2
ATOM      2  C   UNL A   1      35.763  21.818  25.406  1.00  0.00     0.116 C 
BRANCH   2   3
ATOM      3  N   UNL A   1      34.701  21.188  24.679  1.00  0.00    -0.351 N 
ATOM      4  C   UNL A   1      33.549  21.649  24.147  1.00  0.00     0.281 C 
ATOM      5  O   UNL A   1      32.840  20.736  23.691  1.00  0.00    -0.268 OA
ATOM      6  H   UNL A   1      34.840  20.224  24.538  1.00  0.00     0.163 HD
BRANCH   4   7
ATOM      7  C   UNL A   1      33.027  23.143  24.222  1.00  0.00     0.181 C 
ATOM      8  C   UNL A   1      34.196  23.910  23.486  1.00  0.00     0.079 C 
ATOM      9  C   UNL A   1      31.726  23.652  23.579  1.00  0.00     0.144 C 
ATOM     10  C   UNL A   1      33.985  25.297  22.837  1.00  0.00     0.013 C 
ATOM     11  C   UNL A   1      31.554  25.213  23.674  1.00  0.00     0.190 C 
ATOM     12  C   UNL A   1      32.568  25.825  22.711  1.00  0.00     0.065 C 
BRANCH   7  13
ATOM     13  N   UNL A   1      32.894  23.450  25.680  1.00  0.00    -0.331 N 
ATOM     14  H   UNL A   1      33.839  23.585  26.041  1.00  0.00     0.347 HD
ATOM     15  H   UNL A   1      32.270  24.258  25.696  1.00  0.00     0.347 HD
BRANCH  13  16
ATOM     16  C   UNL A   1      32.227  22.482  26.578  1.00  0.00     0.176 C 
ATOM     17  C   UNL A   1      33.074  22.444  27.856  1.00  0.00     0.075 C 
ATOM     18  C   UNL A   1      30.793  22.838  26.998  1.00  0.00     0.075 C 
ENDBRANCH  13  16
ENDBRANCH   7  13
BRANCH  11  19
ATOM     19  N   UNL A   1      31.422  25.755  25.073  1.00  0.00    -0.332 N 
ATOM     20  C   UNL A   1      29.981  25.765  25.404  1.00  0.00     0.333 C 
ATOM     21  H   UNL A   1      31.981  25.116  25.640  1.00  0.00     0.348 HD
BRANCH  19  22
ATOM     22  C   UNL A   1      32.096  27.050  25.464  1.00  0.00     0.184 C 
ATOM     23  C   UNL A   1      31.333  27.831  26.585  1.00  0.00     0.065 C 
ATOM     24  C   UNL A   1      33.516  26.856  26.056  1.00  0.00     0.065 C 
ATOM     25  C   UNL A   1      32.046  29.102  27.073  1.00  0.00     0.006 C 
ATOM     26  C   UNL A   1      34.236  28.163  26.342  1.00  0.00     0.006 C 
ATOM     27  C   UNL A   1      33.504  28.886  27.454  1.00  0.00     0.000 C 
ENDBRANCH  19  22
ENDBRANCH  11  19
ENDBRANCH   4   7
ENDBRANCH   2   3
ENDBRANCH   1   2
BRANCH   1  28
ATOM     28  C   UNL A   1      37.877  20.410  24.992  1.00  0.00     0.023 C 
BRANCH  28  29
ATOM     29  C   UNL A   1      39.178  20.611  25.758  1.00  0.00     0.116 C 
BRANCH  29  30
ATOM     30  N   UNL A   1      40.013  19.417  25.807  1.00  0.00    -0.352 N 
ATOM     31  C   UNL A   1      41.350  19.319  26.106  1.00  0.00     0.251 C 
ATOM     32  H   UNL A   1      39.558  18.570  25.599  1.00  0.00     0.163 HD
ATOM     33  O   UNL A   1      41.928  18.248  26.075  1.00  0.00    -0.269 OA
BRANCH  31  34
ATOM     34  C   UNL A   1      42.079  20.563  26.406  1.00  0.00     0.039 A 
ATOM     35  C   UNL A   1      42.520  21.344  25.338  1.00  0.00     0.014 A 
ATOM     36  C   UNL A   1      42.213  20.998  27.727  1.00  0.00     0.014 A 
ATOM     37  C   UNL A   1      43.034  22.612  25.593  1.00  0.00     0.010 A 
ATOM     38  C   UNL A   1      42.648  22.292  27.970  1.00  0.00     0.010 A 
ATOM     39  C   UNL A   1      43.061  23.110  26.906  1.00  0.00    -0.014 A 
BRANCH  39  40
ATOM     40  C   UNL A   1      43.525  24.487  27.191  1.00  0.00     0.031 A 
ATOM     41  C   UNL A   1      42.556  25.500  27.726  1.00  0.00     0.074 A 
ATOM     42  C   UNL A   1      44.794  24.836  26.902  1.00  0.00     0.049 A 
ATOM     43  N   UNL A   1      42.741  26.772  27.972  1.00  0.00    -0.248 NA
ATOM     44  C   UNL A   1      41.187  25.030  27.987  1.00  0.00     0.031 C 
ATOM     45  C   UNL A   1      45.807  23.950  26.325  1.00  0.00     0.029 A 
ATOM     46  N   UNL A   1      45.446  26.034  27.048  1.00  0.00    -0.354 N 
ATOM     47  C   UNL A   1      41.511  27.252  28.399  1.00  0.00     0.074 A 
ATOM     48  C   UNL A   1      40.573  26.155  28.320  1.00  0.00     0.031 C 
ATOM     49  C   UNL A   1      46.957  24.628  26.189  1.00  0.00     0.029 A 
ATOM     50  C   UNL A   1      46.756  26.002  26.637  1.00  0.00     0.049 A 
ATOM     51  H   UNL A   1      45.015  26.840  27.412  1.00  0.00     0.167 HD
ATOM     52  C   UNL A   1      41.200  28.491  28.846  1.00  0.00     0.037 A 
ATOM     53  C   UNL A   1      47.684  26.976  26.622  1.00  0.00     0.037 A 
ATOM     54  C   UNL A   1      42.146  29.568  28.951  1.00  0.00     0.049 A 
ATOM     55  C   UNL A   1      47.316  28.342  27.133  1.00  0.00     0.074 A 
ATOM     56  C   UNL A   1      41.951  30.845  29.446  1.00  0.00     0.029 A 
ATOM     57  N   UNL A   1      43.473  29.492  28.553  1.00  0.00    -0.354 N 
ATOM     58  N   UNL A   1      46.168  28.768  27.602  1.00  0.00    -0.248 NA
ATOM     59  C   UNL A   1      48.373  29.361  27.120  1.00  0.00     0.031 C 
ATOM     60  C   UNL A   1      43.148  31.554  29.310  1.00  0.00     0.029 A 
ATOM     61  C   UNL A   1      44.105  30.704  28.776  1.00  0.00     0.049 A 
ATOM     62  H   UNL A   1      43.903  28.693  28.168  1.00  0.00     0.167 HD
ATOM     63  C   UNL A   1      46.370  30.093  27.965  1.00  0.00     0.074 A 
ATOM     64  C   UNL A   1      47.758  30.395  27.676  1.00  0.00     0.031 C 
ATOM     65  C   UNL A   1      45.489  30.979  28.489  1.00  0.00     0.037 A 
BRANCH  52  66
ATOM     66  C   UNL A   1      39.780  28.738  29.264  1.00  0.00     0.064 A 
ATOM     67  C   UNL A   1      39.347  28.485  30.575  1.00  0.00     0.173 A 
ATOM     68  C   UNL A   1      38.847  29.250  28.351  1.00  0.00     0.173 A 
ATOM     69  F   UNL A   1      40.196  27.979  31.481  1.00  0.00    -0.203 F 
ATOM     70  C   UNL A   1      38.024  28.706  30.947  1.00  0.00     0.198 A 
ATOM     71  C   UNL A   1      37.533  29.500  28.736  1.00  0.00     0.198 A 
ATOM     72  F   UNL A   1      39.210  29.511  27.087  1.00  0.00    -0.203 F 
ATOM     73  F   UNL A   1      37.620  28.405  32.189  1.00  0.00    -0.200 F 
ATOM     74  C   UNL A   1      37.120  29.220  30.030  1.00  0.00     0.200 A 
ATOM     75  F   UNL A   1      36.662  30.008  27.851  1.00  0.00    -0.200 F 
ATOM     76  F   UNL A   1      35.848  29.438  30.392  1.00  0.00    -0.200 F 
ENDBRANCH  52  66
BRANCH  53  77
ATOM     77  C   UNL A   1      49.059  26.686  26.140  1.00  0.00     0.064 A 
ATOM     78  C   UNL A   1      49.434  26.980  24.822  1.00  0.00     0.173 A 
ATOM     79  C   UNL A   1      50.023  26.108  26.979  1.00  0.00     0.173 A 
ATOM     80  F   UNL A   1      48.542  27.516  23.976  1.00  0.00    -0.203 F 
ATOM     81  C   UNL A   1      50.715  26.690  24.355  1.00  0.00     0.198 A 
ATOM     82  C   UNL A   1      51.312  25.844  26.519  1.00  0.00     0.198 A 
ATOM     83  F   UNL A   1      49.716  25.812  28.251  1.00  0.00    -0.203 F 
ATOM     84  F   UNL A   1      51.033  26.943  23.078  1.00  0.00    -0.200 F 
ATOM     85  C   UNL A   1      51.654  26.127  25.205  1.00  0.00     0.200 A 
ATOM     86  F   UNL A   1      52.220  25.312  27.348  1.00  0.00    -0.200 F 
ATOM     87  F   UNL A   1      52.886  25.851  24.757  1.00  0.00    -0.200 F 
ENDBRANCH  53  77
BRANCH  65  88
ATOM     88  C   UNL A   1      46.007  32.349  28.818  1.00  0.00     0.064 A 
ATOM     89  C   UNL A   1      45.953  33.398  27.889  1.00  0.00     0.173 A 
ATOM     90  C   UNL A   1      46.521  32.624  30.094  1.00  0.00     0.173 A 
ATOM     91  F   UNL A   1      45.484  33.180  26.652  1.00  0.00    -0.203 F 
ATOM     92  C   UNL A   1      46.416  34.668  28.220  1.00  0.00     0.198 A 
ATOM     93  C   UNL A   1      46.956  33.901  30.430  1.00  0.00     0.198 A 
ATOM     94  F   UNL A   1      46.587  31.655  31.021  1.00  0.00    -0.203 F 
ATOM     95  F   UNL A   1      46.398  35.645  27.303  1.00  0.00    -0.200 F 
ATOM     96  C   UNL A   1      46.910  34.921  29.491  1.00  0.00     0.200 A 
ATOM     97  F   UNL A   1      47.419  34.148  31.663  1.00  0.00    -0.200 F 
ATOM     98  F   UNL A   1      47.348  36.147  29.809  1.00  0.00    -0.200 F 
ENDBRANCH  65  88
ENDBRANCH  39  40
ENDBRANCH  31  34
ENDBRANCH  29  30
ENDBRANCH  28  29
ENDBRANCH   1  28
TORSDOF 15
ENDMDL
MODEL 3
REMARK VINA RESULT:     -12.3      0.883      7.456
REMARK SMILES CC(C)[NH2+][C@]1(C(=O)NCCCCNC(=O)c2ccc(-c3c4nc(c(-c5c(F)c(F)c(F)c(F)c5F)c5ccc([nH]5)c(-c5c(F)c(F)c(F)c(F)c5F)c5nc(c(-c6c(F)c(F)c(F)c(F)c6F)c6ccc3[nH]6)C=C5)C=C4)cc2)CCC[C@H]([N@H+](C)C2CCCCC2)C1
REMARK SMILES IDX 10 1 9 2 8 3 6 4 7 5 5 7 79 8 91 9 80 10 82 11 81 12 4 13
REMARK SMILES IDX 2 16 1 17 3 18 83 19 84 20 85 22 86 23 90 24 87 25 89 26
REMARK SMILES IDX 88 27 11 28 12 29 13 30 14 31 15 33 16 34 17 35 78 36 18 37
REMARK SMILES IDX 77 38 19 39 20 40 21 41 71 42 22 43 76 44 70 45 72 46 23 47
REMARK SMILES IDX 75 48 69 49 68 50 24 52 56 53 36 54 55 55 37 56 40 57 54 58
REMARK SMILES IDX 73 59 38 60 39 61 53 63 74 64 41 65 25 66 26 67 34 68 27 69
REMARK SMILES IDX 28 70 32 71 35 72 29 73 30 74 33 75 31 76 57 77 58 78 66 79
REMARK SMILES IDX 59 80 60 81 64 82 67 83 61 84 62 85 65 86 63 87 42 88 43 89
REMARK SMILES IDX 51 90 44 91 45 92 49 93 52 94 46 95 47 96 50 97 48 98
REMARK H PARENT 8 6 4 14 4 15 83 21 13 32 72 51 40 62
REMARK Flexibility Score: inf
ROOT
ATOM      1  C   UNL A   1      32.093  30.089  26.795  1.00  0.00     0.023 C 
ENDROOT
BRANCH   1   2
ATOM      2  C   UNL A   1      32.408  29.393  25.473  1.00  0.00     0.116 C 
BRANCH   2   3
ATOM      3  N   UNL A   1      31.221  29.092  24.728  1.00  0.00    -0.351 N 
ATOM      4  C   UNL A   1      30.683  27.938  24.280  1.00  0.00     0.281 C 
ATOM      5  O   UNL A   1      29.686  28.127  23.562  1.00  0.00    -0.268 OA
ATOM      6  H   UNL A   1      30.689  29.887  24.497  1.00  0.00     0.163 HD
BRANCH   4   7
ATOM      7  C   UNL A   1      31.305  26.493  24.466  1.00  0.00     0.181 C 
ATOM      8  C   UNL A   1      31.426  26.415  26.040  1.00  0.00     0.079 C 
ATOM      9  C   UNL A   1      30.626  25.181  24.037  1.00  0.00     0.144 C 
ATOM     10  C   UNL A   1      31.497  25.067  26.792  1.00  0.00     0.013 C 
ATOM     11  C   UNL A   1      31.403  23.895  24.504  1.00  0.00     0.190 C 
ATOM     12  C   UNL A   1      31.215  23.794  26.015  1.00  0.00     0.065 C 
BRANCH   7  13
ATOM     13  N   UNL A   1      32.611  26.518  23.736  1.00  0.00    -0.331 N 
ATOM     14  H   UNL A   1      33.258  27.064  24.307  1.00  0.00     0.347 HD
ATOM     15  H   UNL A   1      32.828  25.530  23.603  1.00  0.00     0.347 HD
BRANCH  13  16
ATOM     16  C   UNL A   1      32.676  27.073  22.367  1.00  0.00     0.176 C 
ATOM     17  C   UNL A   1      33.903  27.994  22.346  1.00  0.00     0.075 C 
ATOM     18  C   UNL A   1      32.864  26.047  21.239  1.00  0.00     0.075 C 
ENDBRANCH  13  16
ENDBRANCH   7  13
BRANCH  11  19
ATOM     19  N   UNL A   1      32.773  23.727  23.901  1.00  0.00    -0.332 N 
ATOM     20  C   UNL A   1      32.625  22.861  22.712  1.00  0.00     0.333 C 
ATOM     21  H   UNL A   1      33.072  24.680  23.695  1.00  0.00     0.348 HD
BRANCH  19  22
ATOM     22  C   UNL A   1      33.945  23.306  24.759  1.00  0.00     0.184 C 
ATOM     23  C   UNL A   1      34.566  21.936  24.328  1.00  0.00     0.065 C 
ATOM     24  C   UNL A   1      35.144  24.286  24.696  1.00  0.00     0.065 C 
ATOM     25  C   UNL A   1      35.819  21.529  25.120  1.00  0.00     0.006 C 
ATOM     26  C   UNL A   1      36.274  23.923  25.645  1.00  0.00     0.006 C 
ATOM     27  C   UNL A   1      36.885  22.613  25.190  1.00  0.00     0.000 C 
ENDBRANCH  19  22
ENDBRANCH  11  19
ENDBRANCH   4   7
ENDBRANCH   2   3
ENDBRANCH   1   2
BRANCH   1  28
ATOM     28  C   UNL A   1      31.878  31.599  26.688  1.00  0.00     0.023 C 
BRANCH  28  29
ATOM     29  C   UNL A   1      32.895  32.448  27.438  1.00  0.00     0.116 C 
BRANCH  29  30
ATOM     30  N   UNL A   1      32.455  33.820  27.661  1.00  0.00    -0.352 N 
ATOM     31  C   UNL A   1      32.996  34.768  28.496  1.00  0.00     0.251 C 
ATOM     32  H   UNL A   1      31.667  34.104  27.145  1.00  0.00     0.163 HD
ATOM     33  O   UNL A   1      32.496  35.872  28.606  1.00  0.00    -0.269 OA
BRANCH  31  34
ATOM     34  C   UNL A   1      34.166  34.384  29.303  1.00  0.00     0.039 A 
ATOM     35  C   UNL A   1      33.945  33.791  30.546  1.00  0.00     0.014 A 
ATOM     36  C   UNL A   1      35.454  34.503  28.775  1.00  0.00     0.014 A 
ATOM     37  C   UNL A   1      35.024  33.244  31.237  1.00  0.00     0.010 A 
ATOM     38  C   UNL A   1      36.511  33.886  29.427  1.00  0.00     0.010 A 
ATOM     39  C   UNL A   1      36.304  33.250  30.661  1.00  0.00    -0.014 A 
BRANCH  39  40
ATOM     40  C   UNL A   1      37.448  32.600  31.340  1.00  0.00     0.031 A 
ATOM     41  C   UNL A   1      38.154  31.456  30.673  1.00  0.00     0.074 A 
ATOM     42  C   UNL A   1      37.802  32.996  32.578  1.00  0.00     0.049 A 
ATOM     43  N   UNL A   1      39.126  30.706  31.126  1.00  0.00    -0.248 NA
ATOM     44  C   UNL A   1      37.680  31.081  29.331  1.00  0.00     0.031 C 
ATOM     45  C   UNL A   1      37.151  34.058  33.347  1.00  0.00     0.029 A 
ATOM     46  N   UNL A   1      38.793  32.543  33.412  1.00  0.00    -0.354 N 
ATOM     47  C   UNL A   1      39.365  29.766  30.133  1.00  0.00     0.074 A 
ATOM     48  C   UNL A   1      38.399  29.997  29.083  1.00  0.00     0.031 C 
ATOM     49  C   UNL A   1      37.775  34.191  34.528  1.00  0.00     0.029 A 
ATOM     50  C   UNL A   1      38.846  33.204  34.614  1.00  0.00     0.049 A 
ATOM     51  H   UNL A   1      39.407  31.812  33.171  1.00  0.00     0.167 HD
ATOM     52  C   UNL A   1      40.327  28.814  30.089  1.00  0.00     0.037 A 
ATOM     53  C   UNL A   1      39.667  33.028  35.666  1.00  0.00     0.037 A 
ATOM     54  C   UNL A   1      41.303  28.610  31.124  1.00  0.00     0.049 A 
ATOM     55  C   UNL A   1      40.733  31.968  35.589  1.00  0.00     0.074 A 
ATOM     56  C   UNL A   1      42.357  27.715  31.154  1.00  0.00     0.029 A 
ATOM     57  N   UNL A   1      41.346  29.319  32.317  1.00  0.00    -0.354 N 
ATOM     58  N   UNL A   1      40.998  31.131  34.615  1.00  0.00    -0.248 NA
ATOM     59  C   UNL A   1      41.619  31.835  36.752  1.00  0.00     0.031 C 
ATOM     60  C   UNL A   1      43.012  27.853  32.381  1.00  0.00     0.029 A 
ATOM     61  C   UNL A   1      42.398  28.869  33.096  1.00  0.00     0.049 A 
ATOM     62  H   UNL A   1      40.720  30.036  32.571  1.00  0.00     0.167 HD
ATOM     63  C   UNL A   1      42.095  30.391  35.035  1.00  0.00     0.074 A 
ATOM     64  C   UNL A   1      42.456  30.891  36.347  1.00  0.00     0.031 C 
ATOM     65  C   UNL A   1      42.744  29.389  34.395  1.00  0.00     0.037 A 
BRANCH  52  66
ATOM     66  C   UNL A   1      40.369  27.931  28.877  1.00  0.00     0.064 A 
ATOM     67  C   UNL A   1      41.105  28.288  27.735  1.00  0.00     0.173 A 
ATOM     68  C   UNL A   1      39.683  26.708  28.860  1.00  0.00     0.173 A 
ATOM     69  F   UNL A   1      41.764  29.455  27.695  1.00  0.00    -0.203 F 
ATOM     70  C   UNL A   1      41.127  27.466  26.612  1.00  0.00     0.198 A 
ATOM     71  C   UNL A   1      39.734  25.875  27.746  1.00  0.00     0.198 A 
ATOM     72  F   UNL A   1      38.967  26.320  29.925  1.00  0.00    -0.203 F 
ATOM     73  F   UNL A   1      41.792  27.854  25.515  1.00  0.00    -0.200 F 
ATOM     74  C   UNL A   1      40.448  26.258  26.621  1.00  0.00     0.200 A 
ATOM     75  F   UNL A   1      39.086  24.701  27.759  1.00  0.00    -0.200 F 
ATOM     76  F   UNL A   1      40.475  25.466  25.540  1.00  0.00    -0.200 F 
ENDBRANCH  52  66
BRANCH  53  77
ATOM     77  C   UNL A   1      39.537  33.894  36.865  1.00  0.00     0.064 A 
ATOM     78  C   UNL A   1      38.781  33.480  37.971  1.00  0.00     0.173 A 
ATOM     79  C   UNL A   1      40.158  35.150  36.933  1.00  0.00     0.173 A 
ATOM     80  F   UNL A   1      38.152  32.296  37.946  1.00  0.00    -0.203 F 
ATOM     81  C   UNL A   1      38.635  34.297  39.091  1.00  0.00     0.198 A 
ATOM     82  C   UNL A   1      40.034  35.954  38.064  1.00  0.00     0.198 A 
ATOM     83  F   UNL A   1      40.898  35.590  35.903  1.00  0.00    -0.203 F 
ATOM     84  F   UNL A   1      37.872  33.895  40.115  1.00  0.00    -0.200 F 
ATOM     85  C   UNL A   1      39.266  35.531  39.138  1.00  0.00     0.200 A 
ATOM     86  F   UNL A   1      40.657  37.139  38.112  1.00  0.00    -0.200 F 
ATOM     87  F   UNL A   1      39.128  36.315  40.216  1.00  0.00    -0.200 F 
ENDBRANCH  53  77
BRANCH  65  88
ATOM     88  C   UNL A   1      43.934  28.789  35.087  1.00  0.00     0.064 A 
ATOM     89  C   UNL A   1      43.810  27.680  35.934  1.00  0.00     0.173 A 
ATOM     90  C   UNL A   1      45.219  29.306  34.861  1.00  0.00     0.173 A 
ATOM     91  F   UNL A   1      42.601  27.159  36.193  1.00  0.00    -0.203 F 
ATOM     92  C   UNL A   1      44.928  27.122  36.549  1.00  0.00     0.198 A 
ATOM     93  C   UNL A   1      46.337  28.729  35.454  1.00  0.00     0.198 A 
ATOM     94  F   UNL A   1      45.391  30.363  34.052  1.00  0.00    -0.203 F 
ATOM     95  F   UNL A   1      44.782  26.091  37.391  1.00  0.00    -0.200 F 
ATOM     96  C   UNL A   1      46.190  27.643  36.303  1.00  0.00     0.200 A 
ATOM     97  F   UNL A   1      47.557  29.223  35.203  1.00  0.00    -0.200 F 
ATOM     98  F   UNL A   1      47.265  27.099  36.889  1.00  0.00    -0.200 F 
ENDBRANCH  65  88
ENDBRANCH  39  40
ENDBRANCH  31  34
ENDBRANCH  29  30
ENDBRANCH  28  29
ENDBRANCH   1  28
TORSDOF 15
ENDMDL
