MODEL 1
REMARK VINA RESULT:     -12.1      0.000      0.000
REMARK SMILES CC(C)(C)OC(=O)N[C@H](Cc1ccc(N=[N+]=[N-])cc1)C(=O)NCCCCNC(=O)c1ccc(-c2c3nc(c(-c4c(F)c(F)c(F)c(F)c4F)c4ccc([nH]4)c(-c4c(F)c(F)c(F)c(F)c4F)c4nc(c(-c5c(F)c(F)c(F)c(F)c5F)c5ccc2[nH]5)C=C4)C=C3)cc1
REMARK SMILES IDX 24 1 23 2 22 3 20 4 21 5 9 7 8 8 6 9 7 10 5 12 2 13 1 14
REMARK SMILES IDX 3 15 4 16 10 17 11 18 12 19 19 20 13 21 18 22 14 23 15 24
REMARK SMILES IDX 16 25 17 26 25 27 26 28 27 29 28 30 29 32 30 33 31 34 92 35
REMARK SMILES IDX 32 36 91 37 33 38 34 39 35 40 85 41 36 42 90 43 84 44 86 45
REMARK SMILES IDX 37 46 89 47 83 48 82 49 38 51 70 52 50 53 69 54 51 55 54 56
REMARK SMILES IDX 68 57 87 58 52 59 53 60 67 62 88 63 55 64 39 65 40 66 48 67
REMARK SMILES IDX 41 68 42 69 46 70 49 71 43 72 44 73 47 74 45 75 71 76 72 77
REMARK SMILES IDX 80 78 73 79 74 80 78 81 81 82 75 83 76 84 79 85 77 86 56 87
REMARK SMILES IDX 57 88 65 89 58 90 59 91 63 92 66 93 60 94 61 95 64 96 62 97
REMARK H PARENT 22 6 8 11 27 31 86 50 54 61
REMARK Flexibility Score: inf
ROOT
ATOM      1  C   UNL A   1      31.443  30.555  25.716  1.00  0.00     0.023 C 
ENDROOT
BRANCH   1   2
ATOM      2  C   UNL A   1      32.695  29.739  26.054  1.00  0.00     0.116 C 
BRANCH   2   3
ATOM      3  N   UNL A   1      33.576  29.467  24.923  1.00  0.00    -0.354 N 
ATOM      4  C   UNL A   1      33.595  28.454  24.002  1.00  0.00     0.243 C 
ATOM      5  O   UNL A   1      34.449  28.513  23.113  1.00  0.00    -0.273 OA
ATOM      6  H   UNL A   1      34.289  30.136  24.800  1.00  0.00     0.163 HD
BRANCH   4   7
ATOM      7  C   UNL A   1      32.623  27.261  24.093  1.00  0.00     0.179 C 
BRANCH   7   8
ATOM      8  N   UNL A   1      33.469  26.094  24.374  1.00  0.00    -0.309 N 
ATOM      9  C   UNL A   1      33.339  25.109  25.293  1.00  0.00     0.408 C 
ATOM     10  O   UNL A   1      34.190  24.232  25.362  1.00  0.00    -0.225 OA
ATOM     11  H   UNL A   1      34.264  26.015  23.798  1.00  0.00     0.167 HD
BRANCH   9  12
ATOM     12  O   UNL A   1      32.238  25.222  26.062  1.00  0.00    -0.444 OA
BRANCH  12  13
ATOM     13  C   UNL A   1      31.094  24.368  25.785  1.00  0.00     0.106 C 
ATOM     14  C   UNL A   1      29.874  25.287  25.934  1.00  0.00     0.056 C 
ATOM     15  C   UNL A   1      30.972  23.231  26.811  1.00  0.00     0.056 C 
ATOM     16  C   UNL A   1      31.131  23.831  24.348  1.00  0.00     0.056 C 
ENDBRANCH  12  13
ENDBRANCH   9  12
ENDBRANCH   7   8
BRANCH   7  17
ATOM     17  C   UNL A   1      31.716  27.125  22.847  1.00  0.00     0.070 C 
BRANCH  17  18
ATOM     18  C   UNL A   1      30.616  28.163  22.698  1.00  0.00    -0.045 A 
ATOM     19  C   UNL A   1      30.772  29.375  22.034  1.00  0.00     0.004 A 
ATOM     20  C   UNL A   1      29.361  27.902  23.251  1.00  0.00     0.004 A 
ATOM     21  C   UNL A   1      29.689  30.275  21.936  1.00  0.00     0.010 A 
ATOM     22  C   UNL A   1      28.281  28.774  23.143  1.00  0.00     0.010 A 
ATOM     23  C   UNL A   1      28.428  29.986  22.477  1.00  0.00     0.038 A 
BRANCH  23  24
ATOM     24  N   UNL A   1      27.401  30.941  22.327  1.00  0.00    -0.061 NA
ATOM     25  N   UNL A   1      27.769  32.131  22.261  1.00  0.00     0.005 N 
ATOM     26  N   UNL A   1      28.107  33.218  22.199  1.00  0.00    -0.003 NA
ENDBRANCH  23  24
ENDBRANCH  17  18
ENDBRANCH   7  17
ENDBRANCH   4   7
ENDBRANCH   2   3
ENDBRANCH   1   2
BRANCH   1  27
ATOM     27  C   UNL A   1      31.284  31.848  26.509  1.00  0.00     0.023 C 
BRANCH  27  28
ATOM     28  C   UNL A   1      32.612  32.363  27.034  1.00  0.00     0.116 C 
BRANCH  28  29
ATOM     29  N   UNL A   1      32.513  33.775  27.381  1.00  0.00    -0.352 N 
ATOM     30  C   UNL A   1      33.082  34.448  28.426  1.00  0.00     0.251 C 
ATOM     31  H   UNL A   1      31.957  34.321  26.779  1.00  0.00     0.163 HD
ATOM     32  O   UNL A   1      32.625  35.528  28.787  1.00  0.00    -0.269 OA
BRANCH  30  33
ATOM     33  C   UNL A   1      34.265  33.877  29.088  1.00  0.00     0.039 A 
ATOM     34  C   UNL A   1      35.532  34.358  28.756  1.00  0.00     0.014 A 
ATOM     35  C   UNL A   1      34.118  32.830  30.002  1.00  0.00     0.014 A 
ATOM     36  C   UNL A   1      36.652  33.783  29.350  1.00  0.00     0.010 A 
ATOM     37  C   UNL A   1      35.221  32.345  30.682  1.00  0.00     0.010 A 
ATOM     38  C   UNL A   1      36.501  32.780  30.323  1.00  0.00    -0.014 A 
BRANCH  38  39
ATOM     39  C   UNL A   1      37.680  32.117  30.921  1.00  0.00     0.031 A 
ATOM     40  C   UNL A   1      38.123  32.497  32.307  1.00  0.00     0.074 A 
ATOM     41  C   UNL A   1      38.355  31.203  30.203  1.00  0.00     0.049 A 
ATOM     42  N   UNL A   1      39.129  32.041  33.007  1.00  0.00    -0.248 NA
ATOM     43  C   UNL A   1      37.358  33.557  32.985  1.00  0.00     0.031 C 
ATOM     44  C   UNL A   1      38.044  30.808  28.828  1.00  0.00     0.029 A 
ATOM     45  N   UNL A   1      39.440  30.437  30.534  1.00  0.00    -0.354 N 
ATOM     46  C   UNL A   1      39.119  32.763  34.194  1.00  0.00     0.074 A 
ATOM     47  C   UNL A   1      38.065  33.744  34.088  1.00  0.00     0.031 C 
ATOM     48  C   UNL A   1      38.890  29.839  28.449  1.00  0.00     0.029 A 
ATOM     49  C   UNL A   1      39.825  29.574  29.538  1.00  0.00     0.049 A 
ATOM     50  H   UNL A   1      39.900  30.498  31.402  1.00  0.00     0.167 HD
ATOM     51  C   UNL A   1      39.897  32.597  35.289  1.00  0.00     0.037 A 
ATOM     52  C   UNL A   1      40.821  28.670  29.516  1.00  0.00     0.037 A 
ATOM     53  C   UNL A   1      40.930  31.600  35.387  1.00  0.00     0.049 A 
ATOM     54  C   UNL A   1      41.669  28.503  30.747  1.00  0.00     0.074 A 
ATOM     55  C   UNL A   1      41.749  31.307  36.461  1.00  0.00     0.029 A 
ATOM     56  N   UNL A   1      41.284  30.733  34.363  1.00  0.00    -0.354 N 
ATOM     57  N   UNL A   1      41.605  29.139  31.893  1.00  0.00    -0.248 NA
ATOM     58  C   UNL A   1      42.717  27.478  30.687  1.00  0.00     0.031 C 
ATOM     59  C   UNL A   1      42.639  30.302  36.067  1.00  0.00     0.029 A 
ATOM     60  C   UNL A   1      42.326  29.917  34.773  1.00  0.00     0.049 A 
ATOM     61  H   UNL A   1      40.859  30.701  33.476  1.00  0.00     0.167 HD
ATOM     62  C   UNL A   1      42.577  28.566  32.703  1.00  0.00     0.074 A 
ATOM     63  C   UNL A   1      43.200  27.518  31.919  1.00  0.00     0.031 C 
ATOM     64  C   UNL A   1      42.925  28.876  33.977  1.00  0.00     0.037 A 
BRANCH  51  65
ATOM     65  C   UNL A   1      39.658  33.511  36.457  1.00  0.00     0.064 A 
ATOM     66  C   UNL A   1      38.818  33.146  37.523  1.00  0.00     0.173 A 
ATOM     67  C   UNL A   1      40.287  34.763  36.524  1.00  0.00     0.173 A 
ATOM     68  F   UNL A   1      38.176  31.967  37.505  1.00  0.00    -0.203 F 
ATOM     69  C   UNL A   1      38.590  34.012  38.590  1.00  0.00     0.198 A 
ATOM     70  C   UNL A   1      40.088  35.611  37.610  1.00  0.00     0.198 A 
ATOM     71  F   UNL A   1      41.100  35.165  35.536  1.00  0.00    -0.203 F 
ATOM     72  F   UNL A   1      37.734  33.666  39.561  1.00  0.00    -0.200 F 
ATOM     73  C   UNL A   1      39.232  35.241  38.637  1.00  0.00     0.200 A 
ATOM     74  F   UNL A   1      40.720  36.792  37.661  1.00  0.00    -0.200 F 
ATOM     75  F   UNL A   1      39.018  36.071  39.667  1.00  0.00    -0.200 F 
ENDBRANCH  51  65
BRANCH  52  76
ATOM     76  C   UNL A   1      41.039  27.831  28.309  1.00  0.00     0.064 A 
ATOM     77  C   UNL A   1      40.447  26.565  28.192  1.00  0.00     0.173 A 
ATOM     78  C   UNL A   1      41.847  28.272  27.251  1.00  0.00     0.173 A 
ATOM     79  F   UNL A   1      39.673  26.094  29.181  1.00  0.00    -0.203 F 
ATOM     80  C   UNL A   1      40.684  25.759  27.081  1.00  0.00     0.198 A 
ATOM     81  C   UNL A   1      42.056  27.479  26.125  1.00  0.00     0.198 A 
ATOM     82  F   UNL A   1      42.427  29.480  27.306  1.00  0.00    -0.203 F 
ATOM     83  F   UNL A   1      40.153  24.530  27.023  1.00  0.00    -0.200 F 
ATOM     84  C   UNL A   1      41.484  26.218  26.046  1.00  0.00     0.200 A 
ATOM     85  F   UNL A   1      42.813  27.935  25.118  1.00  0.00    -0.200 F 
ATOM     86  F   UNL A   1      41.711  25.443  24.978  1.00  0.00    -0.200 F 
ENDBRANCH  52  76
BRANCH  64  87
ATOM     87  C   UNL A   1      43.991  28.032  34.617  1.00  0.00     0.064 A 
ATOM     88  C   UNL A   1      45.350  28.375  34.554  1.00  0.00     0.173 A 
ATOM     89  C   UNL A   1      43.641  26.863  35.312  1.00  0.00     0.173 A 
ATOM     90  F   UNL A   1      45.740  29.476  33.895  1.00  0.00    -0.203 F 
ATOM     91  C   UNL A   1      46.322  27.554  35.119  1.00  0.00     0.198 A 
ATOM     92  C   UNL A   1      44.612  26.067  35.912  1.00  0.00     0.198 A 
ATOM     93  F   UNL A   1      42.356  26.495  35.414  1.00  0.00    -0.203 F 
ATOM     94  F   UNL A   1      47.619  27.861  34.979  1.00  0.00    -0.200 F 
ATOM     95  C   UNL A   1      45.952  26.404  35.801  1.00  0.00     0.200 A 
ATOM     96  F   UNL A   1      44.250  24.969  36.589  1.00  0.00    -0.200 F 
ATOM     97  F   UNL A   1      46.890  25.614  36.343  1.00  0.00    -0.200 F 
ENDBRANCH  64  87
ENDBRANCH  38  39
ENDBRANCH  30  33
ENDBRANCH  28  29
ENDBRANCH  27  28
ENDBRANCH   1  27
TORSDOF 17
ENDMDL
MODEL 2
REMARK VINA RESULT:     -11.7      5.452     11.160
REMARK SMILES CC(C)(C)OC(=O)N[C@H](Cc1ccc(N=[N+]=[N-])cc1)C(=O)NCCCCNC(=O)c1ccc(-c2c3nc(c(-c4c(F)c(F)c(F)c(F)c4F)c4ccc([nH]4)c(-c4c(F)c(F)c(F)c(F)c4F)c4nc(c(-c5c(F)c(F)c(F)c(F)c5F)c5ccc2[nH]5)C=C4)C=C3)cc1
REMARK SMILES IDX 24 1 23 2 22 3 20 4 21 5 9 7 8 8 6 9 7 10 5 12 2 13 1 14
REMARK SMILES IDX 3 15 4 16 10 17 11 18 12 19 19 20 13 21 18 22 14 23 15 24
REMARK SMILES IDX 16 25 17 26 25 27 26 28 27 29 28 30 29 32 30 33 31 34 92 35
REMARK SMILES IDX 32 36 91 37 33 38 34 39 35 40 85 41 36 42 90 43 84 44 86 45
REMARK SMILES IDX 37 46 89 47 83 48 82 49 38 51 70 52 50 53 69 54 51 55 54 56
REMARK SMILES IDX 68 57 87 58 52 59 53 60 67 62 88 63 55 64 39 65 40 66 48 67
REMARK SMILES IDX 41 68 42 69 46 70 49 71 43 72 44 73 47 74 45 75 71 76 72 77
REMARK SMILES IDX 80 78 73 79 74 80 78 81 81 82 75 83 76 84 79 85 77 86 56 87
REMARK SMILES IDX 57 88 65 89 58 90 59 91 63 92 66 93 60 94 61 95 64 96 62 97
REMARK H PARENT 22 6 8 11 27 31 86 50 54 61
REMARK Flexibility Score: inf
ROOT
ATOM      1  C   UNL A   1      36.734  20.239  24.991  1.00  0.00     0.023 C 
ENDROOT
BRANCH   1   2
ATOM      2  C   UNL A   1      36.526  21.733  25.257  1.00  0.00     0.116 C 
BRANCH   2   3
ATOM      3  N   UNL A   1      35.859  22.047  26.515  1.00  0.00    -0.354 N 
ATOM      4  C   UNL A   1      34.688  22.703  26.791  1.00  0.00     0.243 C 
ATOM      5  O   UNL A   1      34.347  22.779  27.975  1.00  0.00    -0.273 OA
ATOM      6  H   UNL A   1      36.339  21.729  27.315  1.00  0.00     0.163 HD
BRANCH   4   7
ATOM      7  C   UNL A   1      33.849  23.361  25.678  1.00  0.00     0.179 C 
BRANCH   7   8
ATOM      8  N   UNL A   1      33.717  24.769  26.076  1.00  0.00    -0.309 N 
ATOM      9  C   UNL A   1      33.806  25.905  25.347  1.00  0.00     0.408 C 
ATOM     10  O   UNL A   1      33.679  26.989  25.901  1.00  0.00    -0.225 OA
ATOM     11  H   UNL A   1      33.534  24.910  27.033  1.00  0.00     0.167 HD
BRANCH   9  12
ATOM     12  O   UNL A   1      34.040  25.696  24.036  1.00  0.00    -0.444 OA
BRANCH  12  13
ATOM     13  C   UNL A   1      32.962  25.908  23.084  1.00  0.00     0.106 C 
ATOM     14  C   UNL A   1      33.251  27.283  22.466  1.00  0.00     0.056 C 
ATOM     15  C   UNL A   1      31.593  25.967  23.779  1.00  0.00     0.056 C 
ATOM     16  C   UNL A   1      32.985  24.855  21.969  1.00  0.00     0.056 C 
ENDBRANCH  12  13
ENDBRANCH   9  12
ENDBRANCH   7   8
BRANCH   7  17
ATOM     17  C   UNL A   1      32.512  22.629  25.416  1.00  0.00     0.070 C 
BRANCH  17  18
ATOM     18  C   UNL A   1      32.611  21.262  24.759  1.00  0.00    -0.045 A 
ATOM     19  C   UNL A   1      33.023  20.108  25.418  1.00  0.00     0.004 A 
ATOM     20  C   UNL A   1      32.268  21.132  23.412  1.00  0.00     0.004 A 
ATOM     21  C   UNL A   1      33.073  18.877  24.729  1.00  0.00     0.010 A 
ATOM     22  C   UNL A   1      32.296  19.919  22.728  1.00  0.00     0.010 A 
ATOM     23  C   UNL A   1      32.702  18.761  23.381  1.00  0.00     0.038 A 
BRANCH  23  24
ATOM     24  N   UNL A   1      32.778  17.490  22.773  1.00  0.00    -0.061 NA
ATOM     25  N   UNL A   1      33.479  16.645  23.365  1.00  0.00     0.005 N 
ATOM     26  N   UNL A   1      34.117  15.871  23.908  1.00  0.00    -0.003 NA
ENDBRANCH  23  24
ENDBRANCH  17  18
ENDBRANCH   7  17
ENDBRANCH   4   7
ENDBRANCH   2   3
ENDBRANCH   1   2
BRANCH   1  27
ATOM     27  C   UNL A   1      38.183  19.822  24.763  1.00  0.00     0.023 C 
BRANCH  27  28
ATOM     28  C   UNL A   1      39.065  20.139  25.958  1.00  0.00     0.116 C 
BRANCH  28  29
ATOM     29  N   UNL A   1      40.178  19.203  26.037  1.00  0.00    -0.352 N 
ATOM     30  C   UNL A   1      41.522  19.456  26.014  1.00  0.00     0.251 C 
ATOM     31  H   UNL A   1      39.928  18.254  26.118  1.00  0.00     0.163 HD
ATOM     32  O   UNL A   1      42.314  18.564  25.729  1.00  0.00    -0.269 OA
BRANCH  30  33
ATOM     33  C   UNL A   1      42.004  20.801  26.366  1.00  0.00     0.039 A 
ATOM     34  C   UNL A   1      42.228  21.116  27.706  1.00  0.00     0.014 A 
ATOM     35  C   UNL A   1      42.186  21.762  25.369  1.00  0.00     0.014 A 
ATOM     36  C   UNL A   1      42.641  22.403  28.040  1.00  0.00     0.010 A 
ATOM     37  C   UNL A   1      42.712  23.001  25.689  1.00  0.00     0.010 A 
ATOM     38  C   UNL A   1      42.893  23.349  27.031  1.00  0.00    -0.014 A 
BRANCH  38  39
ATOM     39  C   UNL A   1      43.273  24.738  27.369  1.00  0.00     0.031 A 
ATOM     40  C   UNL A   1      44.678  25.208  27.107  1.00  0.00     0.074 A 
ATOM     41  C   UNL A   1      42.364  25.551  27.933  1.00  0.00     0.049 A 
ATOM     42  N   UNL A   1      45.213  26.380  27.334  1.00  0.00    -0.248 NA
ATOM     43  C   UNL A   1      45.620  24.222  26.550  1.00  0.00     0.031 C 
ATOM     44  C   UNL A   1      40.993  25.173  28.284  1.00  0.00     0.029 A 
ATOM     45  N   UNL A   1      42.454  26.865  28.304  1.00  0.00    -0.354 N 
ATOM     46  C   UNL A   1      46.545  26.264  26.958  1.00  0.00     0.074 A 
ATOM     47  C   UNL A   1      46.761  24.890  26.570  1.00  0.00     0.031 C 
ATOM     48  C   UNL A   1      40.356  26.245  28.777  1.00  0.00     0.029 A 
ATOM     49  C   UNL A   1      41.284  27.371  28.813  1.00  0.00     0.049 A 
ATOM     50  H   UNL A   1      43.277  27.397  28.214  1.00  0.00     0.167 HD
ATOM     51  C   UNL A   1      47.494  27.228  26.907  1.00  0.00     0.037 A 
ATOM     52  C   UNL A   1      40.999  28.610  29.253  1.00  0.00     0.037 A 
ATOM     53  C   UNL A   1      47.257  28.598  27.277  1.00  0.00     0.049 A 
ATOM     54  C   UNL A   1      42.071  29.664  29.183  1.00  0.00     0.074 A 
ATOM     55  C   UNL A   1      48.126  29.671  27.222  1.00  0.00     0.029 A 
ATOM     56  N   UNL A   1      46.055  29.080  27.776  1.00  0.00    -0.354 N 
ATOM     57  N   UNL A   1      43.307  29.565  28.755  1.00  0.00    -0.248 NA
ATOM     58  C   UNL A   1      41.699  31.008  29.639  1.00  0.00     0.031 C 
ATOM     59  C   UNL A   1      47.469  30.790  27.744  1.00  0.00     0.029 A 
ATOM     60  C   UNL A   1      46.166  30.432  28.054  1.00  0.00     0.049 A 
ATOM     61  H   UNL A   1      45.243  28.541  27.914  1.00  0.00     0.167 HD
ATOM     62  C   UNL A   1      43.850  30.839  28.855  1.00  0.00     0.074 A 
ATOM     63  C   UNL A   1      42.797  31.695  29.365  1.00  0.00     0.031 C 
ATOM     64  C   UNL A   1      45.102  31.265  28.554  1.00  0.00     0.037 A 
BRANCH  51  65
ATOM     65  C   UNL A   1      48.864  26.831  26.435  1.00  0.00     0.064 A 
ATOM     66  C   UNL A   1      49.819  26.285  27.308  1.00  0.00     0.173 A 
ATOM     67  C   UNL A   1      49.225  26.980  25.087  1.00  0.00     0.173 A 
ATOM     68  F   UNL A   1      49.535  26.134  28.612  1.00  0.00    -0.203 F 
ATOM     69  C   UNL A   1      51.092  25.940  26.860  1.00  0.00     0.198 A 
ATOM     70  C   UNL A   1      50.485  26.599  24.633  1.00  0.00     0.198 A 
ATOM     71  F   UNL A   1      48.354  27.496  24.207  1.00  0.00    -0.203 F 
ATOM     72  F   UNL A   1      52.006  25.482  27.727  1.00  0.00    -0.200 F 
ATOM     73  C   UNL A   1      51.421  26.090  25.521  1.00  0.00     0.200 A 
ATOM     74  F   UNL A   1      50.797  26.731  23.337  1.00  0.00    -0.200 F 
ATOM     75  F   UNL A   1      52.643  25.751  25.088  1.00  0.00    -0.200 F 
ENDBRANCH  51  65
BRANCH  52  76
ATOM     76  C   UNL A   1      39.637  28.927  29.757  1.00  0.00     0.064 A 
ATOM     77  C   UNL A   1      39.292  28.702  31.097  1.00  0.00     0.173 A 
ATOM     78  C   UNL A   1      38.651  29.453  28.910  1.00  0.00     0.173 A 
ATOM     79  F   UNL A   1      40.196  28.189  31.945  1.00  0.00    -0.203 F 
ATOM     80  C   UNL A   1      38.003  28.958  31.562  1.00  0.00     0.198 A 
ATOM     81  C   UNL A   1      37.373  29.742  29.384  1.00  0.00     0.198 A 
ATOM     82  F   UNL A   1      38.932  29.700  27.622  1.00  0.00    -0.203 F 
ATOM     83  F   UNL A   1      37.685  28.678  32.833  1.00  0.00    -0.200 F 
ATOM     84  C   UNL A   1      37.047  29.482  30.706  1.00  0.00     0.200 A 
ATOM     85  F   UNL A   1      36.458  30.267  28.559  1.00  0.00    -0.200 F 
ATOM     86  F   UNL A   1      35.809  29.729  31.154  1.00  0.00    -0.200 F 
ENDBRANCH  52  76
BRANCH  64  87
ATOM     87  C   UNL A   1      45.380  32.733  28.717  1.00  0.00     0.064 A 
ATOM     88  C   UNL A   1      45.904  33.264  29.906  1.00  0.00     0.173 A 
ATOM     89  C   UNL A   1      45.124  33.620  27.660  1.00  0.00     0.173 A 
ATOM     90  F   UNL A   1      46.159  32.462  30.951  1.00  0.00    -0.203 F 
ATOM     91  C   UNL A   1      46.113  34.633  30.046  1.00  0.00     0.198 A 
ATOM     92  C   UNL A   1      45.374  34.983  27.790  1.00  0.00     0.198 A 
ATOM     93  F   UNL A   1      44.635  33.165  26.497  1.00  0.00    -0.203 F 
ATOM     94  F   UNL A   1      46.541  35.126  31.217  1.00  0.00    -0.200 F 
ATOM     95  C   UNL A   1      45.853  35.490  28.987  1.00  0.00     0.200 A 
ATOM     96  F   UNL A   1      45.143  35.805  26.757  1.00  0.00    -0.200 F 
ATOM     97  F   UNL A   1      46.053  36.808  29.125  1.00  0.00    -0.200 F 
ENDBRANCH  64  87
ENDBRANCH  38  39
ENDBRANCH  30  33
ENDBRANCH  28  29
ENDBRANCH  27  28
ENDBRANCH   1  27
TORSDOF 17
ENDMDL
MODEL 3
REMARK VINA RESULT:     -11.6      5.480      9.908
REMARK SMILES CC(C)(C)OC(=O)N[C@H](Cc1ccc(N=[N+]=[N-])cc1)C(=O)NCCCCNC(=O)c1ccc(-c2c3nc(c(-c4c(F)c(F)c(F)c(F)c4F)c4ccc([nH]4)c(-c4c(F)c(F)c(F)c(F)c4F)c4nc(c(-c5c(F)c(F)c(F)c(F)c5F)c5ccc2[nH]5)C=C4)C=C3)cc1
REMARK SMILES IDX 24 1 23 2 22 3 20 4 21 5 9 7 8 8 6 9 7 10 5 12 2 13 1 14
REMARK SMILES IDX 3 15 4 16 10 17 11 18 12 19 19 20 13 21 18 22 14 23 15 24
REMARK SMILES IDX 16 25 17 26 25 27 26 28 27 29 28 30 29 32 30 33 31 34 92 35
REMARK SMILES IDX 32 36 91 37 33 38 34 39 35 40 85 41 36 42 90 43 84 44 86 45
REMARK SMILES IDX 37 46 89 47 83 48 82 49 38 51 70 52 50 53 69 54 51 55 54 56
REMARK SMILES IDX 68 57 87 58 52 59 53 60 67 62 88 63 55 64 39 65 40 66 48 67
REMARK SMILES IDX 41 68 42 69 46 70 49 71 43 72 44 73 47 74 45 75 71 76 72 77
REMARK SMILES IDX 80 78 73 79 74 80 78 81 81 82 75 83 76 84 79 85 77 86 56 87
REMARK SMILES IDX 57 88 65 89 58 90 59 91 63 92 66 93 60 94 61 95 64 96 62 97
REMARK H PARENT 22 6 8 11 27 31 86 50 54 61
REMARK Flexibility Score: inf
ROOT
ATOM      1  C   UNL A   1      36.570  20.226  25.032  1.00  0.00     0.023 C 
ENDROOT
BRANCH   1   2
ATOM      2  C   UNL A   1      36.439  21.720  25.346  1.00  0.00     0.116 C 
BRANCH   2   3
ATOM      3  N   UNL A   1      35.744  22.029  26.591  1.00  0.00    -0.354 N 
ATOM      4  C   UNL A   1      34.583  22.711  26.845  1.00  0.00     0.243 C 
ATOM      5  O   UNL A   1      34.209  22.774  28.019  1.00  0.00    -0.273 OA
ATOM      6  H   UNL A   1      36.191  21.682  27.397  1.00  0.00     0.163 HD
BRANCH   4   7
ATOM      7  C   UNL A   1      33.796  23.412  25.721  1.00  0.00     0.179 C 
BRANCH   7   8
ATOM      8  N   UNL A   1      33.710  24.821  26.131  1.00  0.00    -0.309 N 
ATOM      9  C   UNL A   1      33.748  25.958  25.399  1.00  0.00     0.408 C 
ATOM     10  O   UNL A   1      33.677  27.041  25.964  1.00  0.00    -0.225 OA
ATOM     11  H   UNL A   1      33.608  24.960  27.100  1.00  0.00     0.167 HD
BRANCH   9  12
ATOM     12  O   UNL A   1      33.870  25.750  24.073  1.00  0.00    -0.444 OA
BRANCH  12  13
ATOM     13  C   UNL A   1      32.845  26.265  23.181  1.00  0.00     0.106 C 
ATOM     14  C   UNL A   1      33.167  25.644  21.814  1.00  0.00     0.056 C 
ATOM     15  C   UNL A   1      32.921  27.794  23.048  1.00  0.00     0.056 C 
ATOM     16  C   UNL A   1      31.446  25.804  23.611  1.00  0.00     0.056 C 
ENDBRANCH  12  13
ENDBRANCH   9  12
ENDBRANCH   7   8
BRANCH   7  17
ATOM     17  C   UNL A   1      32.437  22.736  25.422  1.00  0.00     0.070 C 
BRANCH  17  18
ATOM     18  C   UNL A   1      32.495  21.405  24.690  1.00  0.00    -0.045 A 
ATOM     19  C   UNL A   1      32.269  21.255  23.325  1.00  0.00     0.004 A 
ATOM     20  C   UNL A   1      32.795  20.249  25.411  1.00  0.00     0.004 A 
ATOM     21  C   UNL A   1      32.355  19.979  22.728  1.00  0.00     0.010 A 
ATOM     22  C   UNL A   1      32.902  18.988  24.829  1.00  0.00     0.010 A 
ATOM     23  C   UNL A   1      32.682  18.831  23.465  1.00  0.00     0.038 A 
BRANCH  23  24
ATOM     24  N   UNL A   1      32.750  17.597  22.785  1.00  0.00    -0.061 NA
ATOM     25  N   UNL A   1      33.459  16.720  23.319  1.00  0.00     0.005 N 
ATOM     26  N   UNL A   1      34.104  15.917  23.808  1.00  0.00    -0.003 NA
ENDBRANCH  23  24
ENDBRANCH  17  18
ENDBRANCH   7  17
ENDBRANCH   4   7
ENDBRANCH   2   3
ENDBRANCH   1   2
BRANCH   1  27
ATOM     27  C   UNL A   1      37.988  19.755  24.725  1.00  0.00     0.023 C 
BRANCH  27  28
ATOM     28  C   UNL A   1      38.992  20.265  25.743  1.00  0.00     0.116 C 
BRANCH  28  29
ATOM     29  N   UNL A   1      40.010  19.256  26.009  1.00  0.00    -0.352 N 
ATOM     30  C   UNL A   1      41.367  19.399  26.087  1.00  0.00     0.251 C 
ATOM     31  H   UNL A   1      39.672  18.342  26.151  1.00  0.00     0.163 HD
ATOM     32  O   UNL A   1      42.100  18.424  25.958  1.00  0.00    -0.269 OA
BRANCH  30  33
ATOM     33  C   UNL A   1      41.933  20.729  26.360  1.00  0.00     0.039 A 
ATOM     34  C   UNL A   1      42.227  21.089  27.675  1.00  0.00     0.014 A 
ATOM     35  C   UNL A   1      42.124  21.636  25.314  1.00  0.00     0.014 A 
ATOM     36  C   UNL A   1      42.719  22.365  27.935  1.00  0.00     0.010 A 
ATOM     37  C   UNL A   1      42.727  22.857  25.558  1.00  0.00     0.010 A 
ATOM     38  C   UNL A   1      42.980  23.252  26.876  1.00  0.00    -0.014 A 
BRANCH  38  39
ATOM     39  C   UNL A   1      43.446  24.631  27.136  1.00  0.00     0.031 A 
ATOM     40  C   UNL A   1      42.493  25.642  27.714  1.00  0.00     0.074 A 
ATOM     41  C   UNL A   1      44.709  24.969  26.824  1.00  0.00     0.049 A 
ATOM     42  N   UNL A   1      42.701  26.899  28.011  1.00  0.00    -0.248 NA
ATOM     43  C   UNL A   1      41.112  25.193  27.958  1.00  0.00     0.031 C 
ATOM     44  C   UNL A   1      45.694  24.080  26.203  1.00  0.00     0.029 A 
ATOM     45  N   UNL A   1      45.382  26.149  26.993  1.00  0.00    -0.354 N 
ATOM     46  C   UNL A   1      41.480  27.384  28.463  1.00  0.00     0.074 A 
ATOM     47  C   UNL A   1      40.518  26.317  28.322  1.00  0.00     0.031 C 
ATOM     48  C   UNL A   1      46.860  24.734  26.086  1.00  0.00     0.029 A 
ATOM     49  C   UNL A   1      46.692  26.095  26.585  1.00  0.00     0.049 A 
ATOM     50  H   UNL A   1      44.968  26.958  27.370  1.00  0.00     0.167 HD
ATOM     51  C   UNL A   1      41.197  28.601  28.983  1.00  0.00     0.037 A 
ATOM     52  C   UNL A   1      47.646  27.042  26.619  1.00  0.00     0.037 A 
ATOM     53  C   UNL A   1      42.174  29.647  29.136  1.00  0.00     0.049 A 
ATOM     54  C   UNL A   1      47.307  28.386  27.205  1.00  0.00     0.074 A 
ATOM     55  C   UNL A   1      42.015  30.902  29.692  1.00  0.00     0.029 A 
ATOM     56  N   UNL A   1      43.496  29.553  28.725  1.00  0.00    -0.354 N 
ATOM     57  N   UNL A   1      46.169  28.814  27.699  1.00  0.00    -0.248 NA
ATOM     58  C   UNL A   1      48.392  29.373  27.254  1.00  0.00     0.031 C 
ATOM     59  C   UNL A   1      43.226  31.591  29.564  1.00  0.00     0.029 A 
ATOM     60  C   UNL A   1      44.161  30.738  28.996  1.00  0.00     0.049 A 
ATOM     61  H   UNL A   1      43.903  28.763  28.302  1.00  0.00     0.167 HD
ATOM     62  C   UNL A   1      46.410  30.104  28.152  1.00  0.00     0.074 A 
ATOM     63  C   UNL A   1      47.809  30.377  27.890  1.00  0.00     0.031 C 
ATOM     64  C   UNL A   1      45.556  30.984  28.732  1.00  0.00     0.037 A 
BRANCH  51  65
ATOM     65  C   UNL A   1      39.784  28.859  29.420  1.00  0.00     0.064 A 
ATOM     66  C   UNL A   1      38.823  29.393  28.545  1.00  0.00     0.173 A 
ATOM     67  C   UNL A   1      39.374  28.553  30.727  1.00  0.00     0.173 A 
ATOM     68  F   UNL A   1      39.162  29.720  27.287  1.00  0.00    -0.203 F 
ATOM     69  C   UNL A   1      37.521  29.645  28.971  1.00  0.00     0.198 A 
ATOM     70  C   UNL A   1      38.062  28.770  31.139  1.00  0.00     0.198 A 
ATOM     71  F   UNL A   1      40.248  28.041  31.606  1.00  0.00    -0.203 F 
ATOM     72  F   UNL A   1      36.642  30.216  28.135  1.00  0.00    -0.200 F 
ATOM     73  C   UNL A   1      37.139  29.326  30.265  1.00  0.00     0.200 A 
ATOM     74  F   UNL A   1      37.691  28.448  32.386  1.00  0.00    -0.200 F 
ATOM     75  F   UNL A   1      35.885  29.561  30.673  1.00  0.00    -0.200 F 
ENDBRANCH  51  65
BRANCH  52  76
ATOM     76  C   UNL A   1      49.014  26.740  26.123  1.00  0.00     0.064 A 
ATOM     77  C   UNL A   1      49.971  26.150  26.961  1.00  0.00     0.173 A 
ATOM     78  C   UNL A   1      49.396  27.040  24.808  1.00  0.00     0.173 A 
ATOM     79  F   UNL A   1      49.660  25.853  28.231  1.00  0.00    -0.203 F 
ATOM     80  C   UNL A   1      51.268  25.904  26.511  1.00  0.00     0.198 A 
ATOM     81  C   UNL A   1      50.682  26.762  24.350  1.00  0.00     0.198 A 
ATOM     82  F   UNL A   1      48.514  27.593  23.962  1.00  0.00    -0.203 F 
ATOM     83  F   UNL A   1      52.179  25.393  27.351  1.00  0.00    -0.200 F 
ATOM     84  C   UNL A   1      51.620  26.206  25.205  1.00  0.00     0.200 A 
ATOM     85  F   UNL A   1      51.012  27.037  23.081  1.00  0.00    -0.200 F 
ATOM     86  F   UNL A   1      52.866  25.969  24.774  1.00  0.00    -0.200 F 
ENDBRANCH  52  76
BRANCH  64  87
ATOM     87  C   UNL A   1      46.129  32.302  29.171  1.00  0.00     0.064 A 
ATOM     88  C   UNL A   1      46.138  33.427  28.332  1.00  0.00     0.173 A 
ATOM     89  C   UNL A   1      46.671  32.440  30.459  1.00  0.00     0.173 A 
ATOM     90  F   UNL A   1      45.642  33.346  27.088  1.00  0.00    -0.203 F 
ATOM     91  C   UNL A   1      46.714  34.624  28.747  1.00  0.00     0.198 A 
ATOM     92  C   UNL A   1      47.207  33.652  30.885  1.00  0.00     0.198 A 
ATOM     93  F   UNL A   1      46.676  31.402  31.307  1.00  0.00    -0.203 F 
ATOM     94  F   UNL A   1      46.780  35.662  27.901  1.00  0.00    -0.200 F 
ATOM     95  C   UNL A   1      47.242  34.737  30.024  1.00  0.00     0.200 A 
ATOM     96  F   UNL A   1      47.697  33.765  32.127  1.00  0.00    -0.200 F 
ATOM     97  F   UNL A   1      47.797  35.891  30.421  1.00  0.00    -0.200 F 
ENDBRANCH  64  87
ENDBRANCH  38  39
ENDBRANCH  30  33
ENDBRANCH  28  29
ENDBRANCH  27  28
ENDBRANCH   1  27
TORSDOF 17
ENDMDL
