MODEL 1
REMARK VINA RESULT:     -13.1      0.000      0.000
REMARK SMILES CC(C)CN(C)c1cc2c(cc1Cl)C=C(C(=O)NCCCCNC(=O)c1ccc(-c3c4nc(c(-c5c(F)c(F)c(F)c(F)c5F)c5ccc([nH]5)c(-c5c(F)c(F)c(F)c(F)c5F)c5nc(c(-c6c(F)c(F)c(F)c(F)c6F)c6ccc3[nH]6)C=C5)C=C4)cc1)[C@@H](C(F)(F)F)O2
REMARK SMILES IDX 20 1 19 2 18 3 16 4 17 5 15 7 7 8 8 9 12 10 9 11 11 12 13 13
REMARK SMILES IDX 10 14 94 15 14 16 89 17 5 18 6 19 4 20 2 21 1 22 3 23 90 24
REMARK SMILES IDX 91 25 92 26 93 27 21 28 22 29 23 30 24 31 25 33 26 34 27 35
REMARK SMILES IDX 88 36 28 37 87 38 29 39 30 40 31 41 81 42 32 43 86 44 80 45
REMARK SMILES IDX 82 46 33 47 85 48 79 49 78 50 34 52 66 53 46 54 65 55 47 56
REMARK SMILES IDX 50 57 64 58 83 59 48 60 49 61 63 63 84 64 51 65 35 66 36 67
REMARK SMILES IDX 44 68 37 69 38 70 42 71 45 72 39 73 40 74 43 75 41 76 67 77
REMARK SMILES IDX 68 78 76 79 69 80 70 81 74 82 77 83 71 84 72 85 75 86 73 87
REMARK SMILES IDX 52 88 53 89 61 90 54 91 55 92 59 93 62 94 56 95 57 96 60 97
REMARK SMILES IDX 58 98
REMARK H PARENT 18 6 23 32 82 51 50 62
REMARK Flexibility Score: inf
ROOT
ATOM      1  C   UNL A   1      31.770  29.017  25.034  1.00  0.00     0.023 C 
ENDROOT
BRANCH   1   2
ATOM      2  C   UNL A   1      31.150  28.846  23.650  1.00  0.00     0.116 C 
BRANCH   2   3
ATOM      3  N   UNL A   1      29.917  28.084  23.700  1.00  0.00    -0.352 N 
ATOM      4  C   UNL A   1      29.573  26.780  23.834  1.00  0.00     0.251 C 
ATOM      5  O   UNL A   1      28.359  26.558  23.878  1.00  0.00    -0.270 OA
ATOM      6  H   UNL A   1      29.125  28.663  23.614  1.00  0.00     0.163 HD
BRANCH   4   7
ATOM      7  C   UNL A   1      30.533  25.643  23.908  1.00  0.00     0.067 C 
ATOM      8  C   UNL A   1      33.069  21.530  25.378  1.00  0.00     0.059 A 
ATOM      9  C   UNL A   1      32.545  21.985  24.158  1.00  0.00     0.074 A 
ATOM     10  C   UNL A   1      32.921  22.367  26.508  1.00  0.00     0.065 A 
ATOM     11  C   UNL A   1      31.863  23.197  24.087  1.00  0.00     0.130 A 
ATOM     12  C   UNL A   1      32.166  23.545  26.447  1.00  0.00     0.034 A 
ATOM     13  Cl  UNL A   1      33.661  21.984  28.027  1.00  0.00    -0.082 Cl
ATOM     14  C   UNL A   1      31.615  23.952  25.235  1.00  0.00     0.019 A 
ATOM     15  O   UNL A   1      31.432  23.600  22.852  1.00  0.00    -0.475 OA
ATOM     16  C   UNL A   1      30.744  25.118  25.131  1.00  0.00     0.025 C 
ATOM     17  C   UNL A   1      31.248  25.041  22.733  1.00  0.00     0.314 C 
BRANCH   8  18
ATOM     18  N   UNL A   1      33.674  20.266  25.455  1.00  0.00    -0.373 N 
ATOM     19  C   UNL A   1      35.060  20.215  24.997  1.00  0.00     0.143 C 
BRANCH  18  20
ATOM     20  C   UNL A   1      32.817  19.117  25.096  1.00  0.00     0.119 C 
BRANCH  20  21
ATOM     21  C   UNL A   1      33.443  18.233  23.998  1.00  0.00     0.002 C 
ATOM     22  C   UNL A   1      33.721  16.808  24.486  1.00  0.00     0.009 C 
ATOM     23  C   UNL A   1      32.526  18.159  22.773  1.00  0.00     0.009 C 
ENDBRANCH  20  21
ENDBRANCH  18  20
ENDBRANCH   8  18
BRANCH  17  24
ATOM     24  C   UNL A   1      32.598  25.745  22.456  1.00  0.00     0.429 C 
ATOM     25  F   UNL A   1      33.495  24.870  21.943  1.00  0.00    -0.167 F 
ATOM     26  F   UNL A   1      32.473  26.745  21.547  1.00  0.00    -0.167 F 
ATOM     27  F   UNL A   1      33.152  26.296  23.559  1.00  0.00    -0.167 F 
ENDBRANCH  17  24
ENDBRANCH   4   7
ENDBRANCH   2   3
ENDBRANCH   1   2
BRANCH   1  28
ATOM     28  C   UNL A   1      31.419  30.336  25.724  1.00  0.00     0.023 C 
BRANCH  28  29
ATOM     29  C   UNL A   1      32.432  30.820  26.759  1.00  0.00     0.116 C 
BRANCH  29  30
ATOM     30  N   UNL A   1      32.344  32.240  27.073  1.00  0.00    -0.352 N 
ATOM     31  C   UNL A   1      33.306  33.034  27.658  1.00  0.00     0.251 C 
ATOM     32  H   UNL A   1      31.497  32.684  26.839  1.00  0.00     0.163 HD
ATOM     33  O   UNL A   1      33.074  34.205  27.937  1.00  0.00    -0.269 OA
BRANCH  31  34
ATOM     34  C   UNL A   1      34.607  32.426  28.001  1.00  0.00     0.039 A 
ATOM     35  C   UNL A   1      34.671  31.084  28.379  1.00  0.00     0.014 A 
ATOM     36  C   UNL A   1      35.744  33.235  28.053  1.00  0.00     0.014 A 
ATOM     37  C   UNL A   1      35.820  30.607  28.994  1.00  0.00     0.010 A 
ATOM     38  C   UNL A   1      36.927  32.724  28.594  1.00  0.00     0.010 A 
ATOM     39  C   UNL A   1      36.954  31.427  29.128  1.00  0.00    -0.014 A 
BRANCH  39  40
ATOM     40  C   UNL A   1      38.130  30.908  29.874  1.00  0.00     0.031 A 
ATOM     41  C   UNL A   1      38.333  31.257  31.326  1.00  0.00     0.074 A 
ATOM     42  C   UNL A   1      38.958  30.036  29.269  1.00  0.00     0.049 A 
ATOM     43  N   UNL A   1      39.260  30.838  32.153  1.00  0.00    -0.248 NA
ATOM     44  C   UNL A   1      37.376  32.196  31.934  1.00  0.00     0.031 C 
ATOM     45  C   UNL A   1      38.849  29.608  27.873  1.00  0.00     0.029 A 
ATOM     46  N   UNL A   1      40.022  29.320  29.754  1.00  0.00    -0.354 N 
ATOM     47  C   UNL A   1      39.006  31.470  33.364  1.00  0.00     0.074 A 
ATOM     48  C   UNL A   1      37.857  32.324  33.163  1.00  0.00     0.031 C 
ATOM     49  C   UNL A   1      39.756  28.649  27.636  1.00  0.00     0.029 A 
ATOM     50  C   UNL A   1      40.552  28.440  28.842  1.00  0.00     0.049 A 
ATOM     51  H   UNL A   1      40.372  29.427  30.668  1.00  0.00     0.167 HD
ATOM     52  C   UNL A   1      39.663  31.334  34.540  1.00  0.00     0.037 A 
ATOM     53  C   UNL A   1      41.566  27.563  28.962  1.00  0.00     0.037 A 
ATOM     54  C   UNL A   1      40.784  30.457  34.750  1.00  0.00     0.049 A 
ATOM     55  C   UNL A   1      42.302  27.469  30.269  1.00  0.00     0.074 A 
ATOM     56  C   UNL A   1      41.503  30.241  35.913  1.00  0.00     0.029 A 
ATOM     57  N   UNL A   1      41.342  29.642  33.777  1.00  0.00    -0.354 N 
ATOM     58  N   UNL A   1      42.053  28.077  31.402  1.00  0.00    -0.248 NA
ATOM     59  C   UNL A   1      43.473  26.582  30.306  1.00  0.00     0.031 C 
ATOM     60  C   UNL A   1      42.517  29.320  35.636  1.00  0.00     0.029 A 
ATOM     61  C   UNL A   1      42.408  28.936  34.309  1.00  0.00     0.049 A 
ATOM     62  H   UNL A   1      41.027  29.576  32.846  1.00  0.00     0.167 HD
ATOM     63  C   UNL A   1      43.028  27.642  32.288  1.00  0.00     0.074 A 
ATOM     64  C   UNL A   1      43.860  26.700  31.568  1.00  0.00     0.031 C 
ATOM     65  C   UNL A   1      43.222  28.001  33.579  1.00  0.00     0.037 A 
BRANCH  52  66
ATOM     66  C   UNL A   1      39.191  32.146  35.710  1.00  0.00     0.064 A 
ATOM     67  C   UNL A   1      38.306  31.613  36.659  1.00  0.00     0.173 A 
ATOM     68  C   UNL A   1      39.704  33.432  35.937  1.00  0.00     0.173 A 
ATOM     69  F   UNL A   1      37.781  30.391  36.480  1.00  0.00    -0.203 F 
ATOM     70  C   UNL A   1      37.949  32.341  37.791  1.00  0.00     0.198 A 
ATOM     71  C   UNL A   1      39.361  34.148  37.082  1.00  0.00     0.198 A 
ATOM     72  F   UNL A   1      40.559  33.982  35.063  1.00  0.00    -0.203 F 
ATOM     73  F   UNL A   1      37.087  31.820  38.675  1.00  0.00    -0.200 F 
ATOM     74  C   UNL A   1      38.484  33.602  38.007  1.00  0.00     0.200 A 
ATOM     75  F   UNL A   1      39.888  35.362  37.294  1.00  0.00    -0.200 F 
ATOM     76  F   UNL A   1      38.154  34.292  39.107  1.00  0.00    -0.200 F 
ENDBRANCH  52  66
BRANCH  53  77
ATOM     77  C   UNL A   1      41.938  26.702  27.812  1.00  0.00     0.064 A 
ATOM     78  C   UNL A   1      42.953  27.086  26.925  1.00  0.00     0.173 A 
ATOM     79  C   UNL A   1      41.297  25.476  27.580  1.00  0.00     0.173 A 
ATOM     80  F   UNL A   1      43.580  28.260  27.094  1.00  0.00    -0.203 F 
ATOM     81  C   UNL A   1      43.309  26.280  25.847  1.00  0.00     0.198 A 
ATOM     82  C   UNL A   1      41.672  24.658  26.518  1.00  0.00     0.198 A 
ATOM     83  F   UNL A   1      40.319  25.064  28.400  1.00  0.00    -0.203 F 
ATOM     84  F   UNL A   1      44.260  26.686  24.995  1.00  0.00    -0.200 F 
ATOM     85  C   UNL A   1      42.674  25.062  25.649  1.00  0.00     0.200 A 
ATOM     86  F   UNL A   1      41.067  23.476  26.339  1.00  0.00    -0.200 F 
ATOM     87  F   UNL A   1      43.023  24.282  24.617  1.00  0.00    -0.200 F 
ENDBRANCH  53  77
BRANCH  65  88
ATOM     88  C   UNL A   1      44.376  27.377  34.303  1.00  0.00     0.064 A 
ATOM     89  C   UNL A   1      44.246  26.135  34.939  1.00  0.00     0.173 A 
ATOM     90  C   UNL A   1      45.638  27.989  34.294  1.00  0.00     0.173 A 
ATOM     91  F   UNL A   1      43.055  25.521  34.984  1.00  0.00    -0.203 F 
ATOM     92  C   UNL A   1      45.340  25.531  35.551  1.00  0.00     0.198 A 
ATOM     93  C   UNL A   1      46.734  27.370  34.888  1.00  0.00     0.198 A 
ATOM     94  F   UNL A   1      45.812  29.175  33.691  1.00  0.00    -0.203 F 
ATOM     95  F   UNL A   1      45.189  24.354  36.177  1.00  0.00    -0.200 F 
ATOM     96  C   UNL A   1      46.584  26.142  35.517  1.00  0.00     0.200 A 
ATOM     97  F   UNL A   1      47.938  27.956  34.843  1.00  0.00    -0.200 F 
ATOM     98  F   UNL A   1      47.640  25.550  36.092  1.00  0.00    -0.200 F 
ENDBRANCH  65  88
ENDBRANCH  39  40
ENDBRANCH  31  34
ENDBRANCH  29  30
ENDBRANCH  28  29
ENDBRANCH   1  28
TORSDOF 15
ENDMDL
MODEL 2
REMARK VINA RESULT:     -13.1      0.625      1.715
REMARK SMILES CC(C)CN(C)c1cc2c(cc1Cl)C=C(C(=O)NCCCCNC(=O)c1ccc(-c3c4nc(c(-c5c(F)c(F)c(F)c(F)c5F)c5ccc([nH]5)c(-c5c(F)c(F)c(F)c(F)c5F)c5nc(c(-c6c(F)c(F)c(F)c(F)c6F)c6ccc3[nH]6)C=C5)C=C4)cc1)[C@@H](C(F)(F)F)O2
REMARK SMILES IDX 20 1 19 2 18 3 16 4 17 5 15 7 7 8 8 9 12 10 9 11 11 12 13 13
REMARK SMILES IDX 10 14 94 15 14 16 89 17 5 18 6 19 4 20 2 21 1 22 3 23 90 24
REMARK SMILES IDX 91 25 92 26 93 27 21 28 22 29 23 30 24 31 25 33 26 34 27 35
REMARK SMILES IDX 88 36 28 37 87 38 29 39 30 40 31 41 81 42 32 43 86 44 80 45
REMARK SMILES IDX 82 46 33 47 85 48 79 49 78 50 34 52 66 53 46 54 65 55 47 56
REMARK SMILES IDX 50 57 64 58 83 59 48 60 49 61 63 63 84 64 51 65 35 66 36 67
REMARK SMILES IDX 44 68 37 69 38 70 42 71 45 72 39 73 40 74 43 75 41 76 67 77
REMARK SMILES IDX 68 78 76 79 69 80 70 81 74 82 77 83 71 84 72 85 75 86 73 87
REMARK SMILES IDX 52 88 53 89 61 90 54 91 55 92 59 93 62 94 56 95 57 96 60 97
REMARK SMILES IDX 58 98
REMARK H PARENT 18 6 23 32 82 51 50 62
REMARK Flexibility Score: inf
ROOT
ATOM      1  C   UNL A   1      31.171  29.519  24.607  1.00  0.00     0.023 C 
ENDROOT
BRANCH   1   2
ATOM      2  C   UNL A   1      30.747  28.704  23.388  1.00  0.00     0.116 C 
BRANCH   2   3
ATOM      3  N   UNL A   1      29.545  27.933  23.643  1.00  0.00    -0.352 N 
ATOM      4  C   UNL A   1      29.247  26.640  23.918  1.00  0.00     0.251 C 
ATOM      5  O   UNL A   1      28.053  26.408  24.124  1.00  0.00    -0.270 OA
ATOM      6  H   UNL A   1      28.736  28.494  23.608  1.00  0.00     0.163 HD
BRANCH   4   7
ATOM      7  C   UNL A   1      30.233  25.525  23.965  1.00  0.00     0.067 C 
ATOM      8  C   UNL A   1      33.048  21.605  25.455  1.00  0.00     0.059 A 
ATOM      9  C   UNL A   1      32.343  21.927  24.286  1.00  0.00     0.074 A 
ATOM     10  C   UNL A   1      33.047  22.552  26.504  1.00  0.00     0.065 A 
ATOM     11  C   UNL A   1      31.631  23.120  24.193  1.00  0.00     0.130 A 
ATOM     12  C   UNL A   1      32.265  23.712  26.436  1.00  0.00     0.034 A 
ATOM     13  Cl  UNL A   1      34.007  22.333  27.929  1.00  0.00    -0.082 Cl
ATOM     14  C   UNL A   1      31.535  23.987  25.283  1.00  0.00     0.019 A 
ATOM     15  O   UNL A   1      31.016  23.390  23.000  1.00  0.00    -0.475 OA
ATOM     16  C   UNL A   1      30.631  25.130  25.191  1.00  0.00     0.025 C 
ATOM     17  C   UNL A   1      30.785  24.810  22.765  1.00  0.00     0.314 C 
BRANCH   8  18
ATOM     18  N   UNL A   1      33.687  20.360  25.570  1.00  0.00    -0.373 N 
ATOM     19  C   UNL A   1      35.023  20.294  24.984  1.00  0.00     0.143 C 
BRANCH  18  20
ATOM     20  C   UNL A   1      32.825  19.174  25.385  1.00  0.00     0.119 C 
BRANCH  20  21
ATOM     21  C   UNL A   1      33.322  18.253  24.251  1.00  0.00     0.002 C 
ATOM     22  C   UNL A   1      33.388  16.785  24.679  1.00  0.00     0.009 C 
ATOM     23  C   UNL A   1      32.408  18.364  23.025  1.00  0.00     0.009 C 
ENDBRANCH  20  21
ENDBRANCH  18  20
ENDBRANCH   8  18
BRANCH  17  24
ATOM     24  C   UNL A   1      32.063  25.493  22.224  1.00  0.00     0.429 C 
ATOM     25  F   UNL A   1      31.752  26.382  21.250  1.00  0.00    -0.167 F 
ATOM     26  F   UNL A   1      32.714  26.191  23.188  1.00  0.00    -0.167 F 
ATOM     27  F   UNL A   1      32.959  24.623  21.708  1.00  0.00    -0.167 F 
ENDBRANCH  17  24
ENDBRANCH   4   7
ENDBRANCH   2   3
ENDBRANCH   1   2
BRANCH   1  28
ATOM     28  C   UNL A   1      31.697  28.681  25.773  1.00  0.00     0.023 C 
BRANCH  28  29
ATOM     29  C   UNL A   1      32.653  29.406  26.717  1.00  0.00     0.116 C 
BRANCH  29  30
ATOM     30  N   UNL A   1      32.374  30.826  26.889  1.00  0.00    -0.352 N 
ATOM     31  C   UNL A   1      33.225  31.800  27.360  1.00  0.00     0.251 C 
ATOM     32  H   UNL A   1      31.469  31.123  26.638  1.00  0.00     0.163 HD
ATOM     33  O   UNL A   1      32.838  32.952  27.526  1.00  0.00    -0.269 OA
BRANCH  31  34
ATOM     34  C   UNL A   1      34.604  31.416  27.723  1.00  0.00     0.039 A 
ATOM     35  C   UNL A   1      34.913  30.076  27.962  1.00  0.00     0.014 A 
ATOM     36  C   UNL A   1      35.557  32.414  27.933  1.00  0.00     0.014 A 
ATOM     37  C   UNL A   1      36.106  29.758  28.598  1.00  0.00     0.010 A 
ATOM     38  C   UNL A   1      36.793  32.078  28.494  1.00  0.00     0.010 A 
ATOM     39  C   UNL A   1      37.050  30.757  28.891  1.00  0.00    -0.014 A 
BRANCH  39  40
ATOM     40  C   UNL A   1      38.270  30.390  29.654  1.00  0.00     0.031 A 
ATOM     41  C   UNL A   1      38.444  30.831  31.084  1.00  0.00     0.074 A 
ATOM     42  C   UNL A   1      39.175  29.567  29.088  1.00  0.00     0.049 A 
ATOM     43  N   UNL A   1      39.408  30.543  31.925  1.00  0.00    -0.248 NA
ATOM     44  C   UNL A   1      37.406  31.708  31.650  1.00  0.00     0.031 C 
ATOM     45  C   UNL A   1      39.102  29.058  27.718  1.00  0.00     0.029 A 
ATOM     46  N   UNL A   1      40.301  28.979  29.603  1.00  0.00    -0.354 N 
ATOM     47  C   UNL A   1      39.100  31.211  33.103  1.00  0.00     0.074 A 
ATOM     48  C   UNL A   1      37.876  31.944  32.867  1.00  0.00     0.031 C 
ATOM     49  C   UNL A   1      40.093  28.176  27.524  1.00  0.00     0.029 A 
ATOM     50  C   UNL A   1      40.908  28.105  28.733  1.00  0.00     0.049 A 
ATOM     51  H   UNL A   1      40.642  29.165  30.507  1.00  0.00     0.167 HD
ATOM     52  C   UNL A   1      39.769  31.199  34.280  1.00  0.00     0.037 A 
ATOM     53  C   UNL A   1      42.000  27.333  28.891  1.00  0.00     0.037 A 
ATOM     54  C   UNL A   1      40.967  30.440  34.527  1.00  0.00     0.049 A 
ATOM     55  C   UNL A   1      42.744  27.375  30.195  1.00  0.00     0.074 A 
ATOM     56  C   UNL A   1      41.706  30.353  35.694  1.00  0.00     0.029 A 
ATOM     57  N   UNL A   1      41.595  29.631  33.593  1.00  0.00    -0.354 N 
ATOM     58  N   UNL A   1      42.443  28.016  31.297  1.00  0.00    -0.248 NA
ATOM     59  C   UNL A   1      43.993  26.603  30.270  1.00  0.00     0.031 C 
ATOM     60  C   UNL A   1      42.800  29.516  35.458  1.00  0.00     0.029 A 
ATOM     61  C   UNL A   1      42.724  29.055  34.153  1.00  0.00     0.049 A 
ATOM     62  H   UNL A   1      41.286  29.488  32.670  1.00  0.00     0.167 HD
ATOM     63  C   UNL A   1      43.456  27.720  32.198  1.00  0.00     0.074 A 
ATOM     64  C   UNL A   1      44.370  26.823  31.521  1.00  0.00     0.031 C 
ATOM     65  C   UNL A   1      43.619  28.162  33.467  1.00  0.00     0.037 A 
BRANCH  52  66
ATOM     66  C   UNL A   1      39.228  32.023  35.410  1.00  0.00     0.064 A 
ATOM     67  C   UNL A   1      38.416  31.456  36.404  1.00  0.00     0.173 A 
ATOM     68  C   UNL A   1      39.602  33.368  35.553  1.00  0.00     0.173 A 
ATOM     69  F   UNL A   1      38.022  30.177  36.305  1.00  0.00    -0.203 F 
ATOM     70  C   UNL A   1      37.997  32.208  37.499  1.00  0.00     0.198 A 
ATOM     71  C   UNL A   1      39.198  34.109  36.661  1.00  0.00     0.198 A 
ATOM     72  F   UNL A   1      40.382  33.953  34.633  1.00  0.00    -0.203 F 
ATOM     73  F   UNL A   1      37.206  31.651  38.427  1.00  0.00    -0.200 F 
ATOM     74  C   UNL A   1      38.395  33.529  37.631  1.00  0.00     0.200 A 
ATOM     75  F   UNL A   1      39.594  35.383  36.794  1.00  0.00    -0.200 F 
ATOM     76  F   UNL A   1      38.007  34.244  38.697  1.00  0.00    -0.200 F 
ENDBRANCH  52  66
BRANCH  53  77
ATOM     77  C   UNL A   1      42.446  26.450  27.784  1.00  0.00     0.064 A 
ATOM     78  C   UNL A   1      41.965  25.138  27.674  1.00  0.00     0.173 A 
ATOM     79  C   UNL A   1      43.350  26.900  26.810  1.00  0.00     0.173 A 
ATOM     80  F   UNL A   1      41.115  24.657  28.593  1.00  0.00    -0.203 F 
ATOM     81  C   UNL A   1      42.377  24.307  26.635  1.00  0.00     0.198 A 
ATOM     82  C   UNL A   1      43.740  26.077  25.757  1.00  0.00     0.198 A 
ATOM     83  F   UNL A   1      43.838  28.147  26.872  1.00  0.00    -0.203 F 
ATOM     84  F   UNL A   1      41.929  23.046  26.571  1.00  0.00    -0.200 F 
ATOM     85  C   UNL A   1      43.258  24.781  25.672  1.00  0.00     0.200 A 
ATOM     86  F   UNL A   1      44.579  26.543  24.822  1.00  0.00    -0.200 F 
ATOM     87  F   UNL A   1      43.646  23.984  24.668  1.00  0.00    -0.200 F 
ENDBRANCH  53  77
BRANCH  65  88
ATOM     88  C   UNL A   1      44.828  27.687  34.214  1.00  0.00     0.064 A 
ATOM     89  C   UNL A   1      46.009  28.440  34.235  1.00  0.00     0.173 A 
ATOM     90  C   UNL A   1      44.778  26.511  34.976  1.00  0.00     0.173 A 
ATOM     91  F   UNL A   1      46.106  29.564  33.511  1.00  0.00    -0.203 F 
ATOM     92  C   UNL A   1      47.105  28.026  34.986  1.00  0.00     0.198 A 
ATOM     93  C   UNL A   1      45.868  26.112  35.744  1.00  0.00     0.198 A 
ATOM     94  F   UNL A   1      43.665  25.761  34.992  1.00  0.00    -0.203 F 
ATOM     95  F   UNL A   1      48.235  28.747  34.973  1.00  0.00    -0.200 F 
ATOM     96  C   UNL A   1      47.031  26.869  35.748  1.00  0.00     0.200 A 
ATOM     97  F   UNL A   1      45.790  25.000  36.489  1.00  0.00    -0.200 F 
ATOM     98  F   UNL A   1      48.081  26.481  36.484  1.00  0.00    -0.200 F 
ENDBRANCH  65  88
ENDBRANCH  39  40
ENDBRANCH  31  34
ENDBRANCH  29  30
ENDBRANCH  28  29
ENDBRANCH   1  28
TORSDOF 15
ENDMDL
MODEL 3
REMARK VINA RESULT:     -13.0      1.494      2.523
REMARK SMILES CC(C)CN(C)c1cc2c(cc1Cl)C=C(C(=O)NCCCCNC(=O)c1ccc(-c3c4nc(c(-c5c(F)c(F)c(F)c(F)c5F)c5ccc([nH]5)c(-c5c(F)c(F)c(F)c(F)c5F)c5nc(c(-c6c(F)c(F)c(F)c(F)c6F)c6ccc3[nH]6)C=C5)C=C4)cc1)[C@@H](C(F)(F)F)O2
REMARK SMILES IDX 20 1 19 2 18 3 16 4 17 5 15 7 7 8 8 9 12 10 9 11 11 12 13 13
REMARK SMILES IDX 10 14 94 15 14 16 89 17 5 18 6 19 4 20 2 21 1 22 3 23 90 24
REMARK SMILES IDX 91 25 92 26 93 27 21 28 22 29 23 30 24 31 25 33 26 34 27 35
REMARK SMILES IDX 88 36 28 37 87 38 29 39 30 40 31 41 81 42 32 43 86 44 80 45
REMARK SMILES IDX 82 46 33 47 85 48 79 49 78 50 34 52 66 53 46 54 65 55 47 56
REMARK SMILES IDX 50 57 64 58 83 59 48 60 49 61 63 63 84 64 51 65 35 66 36 67
REMARK SMILES IDX 44 68 37 69 38 70 42 71 45 72 39 73 40 74 43 75 41 76 67 77
REMARK SMILES IDX 68 78 76 79 69 80 70 81 74 82 77 83 71 84 72 85 75 86 73 87
REMARK SMILES IDX 52 88 53 89 61 90 54 91 55 92 59 93 62 94 56 95 57 96 60 97
REMARK SMILES IDX 58 98
REMARK H PARENT 18 6 23 32 82 51 50 62
REMARK Flexibility Score: inf
ROOT
ATOM      1  C   UNL A   1      32.327  30.248  26.831  1.00  0.00     0.023 C 
ENDROOT
BRANCH   1   2
ATOM      2  C   UNL A   1      32.572  29.705  25.426  1.00  0.00     0.116 C 
BRANCH   2   3
ATOM      3  N   UNL A   1      31.335  29.326  24.768  1.00  0.00    -0.352 N 
ATOM      4  C   UNL A   1      30.797  28.187  24.269  1.00  0.00     0.251 C 
ATOM      5  O   UNL A   1      29.652  28.300  23.821  1.00  0.00    -0.270 OA
ATOM      6  H   UNL A   1      30.731  30.095  24.655  1.00  0.00     0.163 HD
BRANCH   4   7
ATOM      7  C   UNL A   1      31.484  26.867  24.214  1.00  0.00     0.067 C 
ATOM      8  C   UNL A   1      33.046  22.171  25.222  1.00  0.00     0.059 A 
ATOM      9  C   UNL A   1      32.643  22.851  24.063  1.00  0.00     0.074 A 
ATOM     10  C   UNL A   1      33.078  22.900  26.432  1.00  0.00     0.065 A 
ATOM     11  C   UNL A   1      32.245  24.183  24.124  1.00  0.00     0.130 A 
ATOM     12  C   UNL A   1      32.600  24.215  26.502  1.00  0.00     0.034 A 
ATOM     13  Cl  UNL A   1      33.704  22.212  27.894  1.00  0.00    -0.082 Cl
ATOM     14  C   UNL A   1      32.160  24.853  25.346  1.00  0.00     0.019 A 
ATOM     15  O   UNL A   1      31.920  24.794  22.943  1.00  0.00    -0.475 OA
ATOM     16  C   UNL A   1      31.566  26.187  25.374  1.00  0.00     0.025 C 
ATOM     17  C   UNL A   1      32.058  26.245  22.973  1.00  0.00     0.314 C 
BRANCH   8  18
ATOM     18  N   UNL A   1      33.359  20.804  25.162  1.00  0.00    -0.373 N 
ATOM     19  C   UNL A   1      34.778  20.500  25.002  1.00  0.00     0.143 C 
BRANCH  18  20
ATOM     20  C   UNL A   1      32.414  19.958  24.404  1.00  0.00     0.119 C 
BRANCH  20  21
ATOM     21  C   UNL A   1      32.973  18.547  24.128  1.00  0.00     0.002 C 
ATOM     22  C   UNL A   1      32.527  17.528  25.180  1.00  0.00     0.009 C 
ATOM     23  C   UNL A   1      32.530  18.049  22.748  1.00  0.00     0.009 C 
ENDBRANCH  20  21
ENDBRANCH  18  20
ENDBRANCH   8  18
BRANCH  17  24
ATOM     24  C   UNL A   1      33.531  26.662  22.747  1.00  0.00     0.429 C 
ATOM     25  F   UNL A   1      34.276  25.593  22.375  1.00  0.00    -0.167 F 
ATOM     26  F   UNL A   1      33.655  27.580  21.756  1.00  0.00    -0.167 F 
ATOM     27  F   UNL A   1      34.111  27.199  23.843  1.00  0.00    -0.167 F 
ENDBRANCH  17  24
ENDBRANCH   4   7
ENDBRANCH   2   3
ENDBRANCH   1   2
BRANCH   1  28
ATOM     28  C   UNL A   1      31.930  31.724  26.876  1.00  0.00     0.023 C 
BRANCH  28  29
ATOM     29  C   UNL A   1      32.920  32.644  27.586  1.00  0.00     0.116 C 
BRANCH  29  30
ATOM     30  N   UNL A   1      32.442  34.006  27.788  1.00  0.00    -0.352 N 
ATOM     31  C   UNL A   1      32.972  34.969  28.618  1.00  0.00     0.251 C 
ATOM     32  H   UNL A   1      31.646  34.267  27.271  1.00  0.00     0.163 HD
ATOM     33  O   UNL A   1      32.425  36.058  28.752  1.00  0.00    -0.269 OA
BRANCH  31  34
ATOM     34  C   UNL A   1      34.184  34.640  29.394  1.00  0.00     0.039 A 
ATOM     35  C   UNL A   1      35.441  34.729  28.795  1.00  0.00     0.014 A 
ATOM     36  C   UNL A   1      34.047  34.134  30.689  1.00  0.00     0.014 A 
ATOM     37  C   UNL A   1      36.531  34.130  29.412  1.00  0.00     0.010 A 
ATOM     38  C   UNL A   1      35.165  33.610  31.344  1.00  0.00     0.010 A 
ATOM     39  C   UNL A   1      36.402  33.544  30.683  1.00  0.00    -0.014 A 
BRANCH  39  40
ATOM     40  C   UNL A   1      37.568  32.832  31.267  1.00  0.00     0.031 A 
ATOM     41  C   UNL A   1      38.022  33.126  32.673  1.00  0.00     0.074 A 
ATOM     42  C   UNL A   1      38.152  31.844  30.563  1.00  0.00     0.049 A 
ATOM     43  N   UNL A   1      38.973  32.552  33.370  1.00  0.00    -0.248 NA
ATOM     44  C   UNL A   1      37.323  34.201  33.397  1.00  0.00     0.031 C 
ATOM     45  C   UNL A   1      37.784  31.456  29.200  1.00  0.00     0.029 A 
ATOM     46  N   UNL A   1      39.141  30.959  30.906  1.00  0.00    -0.354 N 
ATOM     47  C   UNL A   1      38.993  33.202  34.597  1.00  0.00     0.074 A 
ATOM     48  C   UNL A   1      37.983  34.235  34.547  1.00  0.00     0.031 C 
ATOM     49  C   UNL A   1      38.482  30.365  28.851  1.00  0.00     0.029 A 
ATOM     50  C   UNL A   1      39.391  30.015  29.939  1.00  0.00     0.049 A 
ATOM     51  H   UNL A   1      39.626  30.996  31.762  1.00  0.00     0.167 HD
ATOM     52  C   UNL A   1      39.774  32.948  35.674  1.00  0.00     0.037 A 
ATOM     53  C   UNL A   1      40.256  28.983  29.928  1.00  0.00     0.037 A 
ATOM     54  C   UNL A   1      40.756  31.896  35.737  1.00  0.00     0.049 A 
ATOM     55  C   UNL A   1      41.138  28.755  31.122  1.00  0.00     0.074 A 
ATOM     56  C   UNL A   1      41.583  31.553  36.793  1.00  0.00     0.029 A 
ATOM     57  N   UNL A   1      41.034  31.014  34.706  1.00  0.00    -0.354 N 
ATOM     58  N   UNL A   1      41.149  29.382  32.272  1.00  0.00    -0.248 NA
ATOM     59  C   UNL A   1      42.143  27.688  31.008  1.00  0.00     0.031 C 
ATOM     60  C   UNL A   1      42.385  30.482  36.389  1.00  0.00     0.029 A 
ATOM     61  C   UNL A   1      42.034  30.137  35.094  1.00  0.00     0.049 A 
ATOM     62  H   UNL A   1      40.589  31.011  33.828  1.00  0.00     0.167 HD
ATOM     63  C   UNL A   1      42.152  28.783  33.021  1.00  0.00     0.074 A 
ATOM     64  C   UNL A   1      42.713  27.727  32.204  1.00  0.00     0.031 C 
ATOM     65  C   UNL A   1      42.577  29.090  34.269  1.00  0.00     0.037 A 
BRANCH  52  66
ATOM     66  C   UNL A   1      39.606  33.811  36.889  1.00  0.00     0.064 A 
ATOM     67  C   UNL A   1      40.186  35.086  36.963  1.00  0.00     0.173 A 
ATOM     68  C   UNL A   1      38.780  33.400  37.946  1.00  0.00     0.173 A 
ATOM     69  F   UNL A   1      40.993  35.520  35.983  1.00  0.00    -0.203 F 
ATOM     70  C   UNL A   1      39.946  35.917  38.055  1.00  0.00     0.198 A 
ATOM     71  C   UNL A   1      38.526  34.243  39.025  1.00  0.00     0.198 A 
ATOM     72  F   UNL A   1      38.197  32.193  37.917  1.00  0.00    -0.203 F 
ATOM     73  F   UNL A   1      40.526  37.124  38.115  1.00  0.00    -0.200 F 
ATOM     74  C   UNL A   1      39.110  35.500  39.079  1.00  0.00     0.200 A 
ATOM     75  F   UNL A   1      37.707  33.842  40.008  1.00  0.00    -0.200 F 
ATOM     76  F   UNL A   1      38.865  36.309  40.119  1.00  0.00    -0.200 F 
ENDBRANCH  52  66
BRANCH  53  77
ATOM     77  C   UNL A   1      40.320  28.086  28.747  1.00  0.00     0.064 A 
ATOM     78  C   UNL A   1      41.076  28.437  27.620  1.00  0.00     0.173 A 
ATOM     79  C   UNL A   1      39.641  26.860  28.723  1.00  0.00     0.173 A 
ATOM     80  F   UNL A   1      41.727  29.610  27.589  1.00  0.00    -0.203 F 
ATOM     81  C   UNL A   1      41.145  27.598  26.511  1.00  0.00     0.198 A 
ATOM     82  C   UNL A   1      39.732  26.009  27.624  1.00  0.00     0.198 A 
ATOM     83  F   UNL A   1      38.904  26.479  29.777  1.00  0.00    -0.203 F 
ATOM     84  F   UNL A   1      41.848  27.971  25.433  1.00  0.00    -0.200 F 
ATOM     85  C   UNL A   1      40.479  26.380  26.518  1.00  0.00     0.200 A 
ATOM     86  F   UNL A   1      39.099  24.828  27.641  1.00  0.00    -0.200 F 
ATOM     87  F   UNL A   1      40.553  25.569  25.454  1.00  0.00    -0.200 F 
ENDBRANCH  53  77
BRANCH  65  88
ATOM     88  C   UNL A   1      43.702  28.279  34.835  1.00  0.00     0.064 A 
ATOM     89  C   UNL A   1      45.032  28.706  34.723  1.00  0.00     0.173 A 
ATOM     90  C   UNL A   1      43.441  27.107  35.561  1.00  0.00     0.173 A 
ATOM     91  F   UNL A   1      45.329  29.813  34.027  1.00  0.00    -0.203 F 
ATOM     92  C   UNL A   1      46.065  27.982  35.310  1.00  0.00     0.198 A 
ATOM     93  C   UNL A   1      44.475  26.398  36.166  1.00  0.00     0.198 A 
ATOM     94  F   UNL A   1      42.183  26.663  35.702  1.00  0.00    -0.203 F 
ATOM     95  F   UNL A   1      47.334  28.394  35.169  1.00  0.00    -0.200 F 
ATOM     96  C   UNL A   1      45.786  26.835  36.039  1.00  0.00     0.200 A 
ATOM     97  F   UNL A   1      44.203  25.298  36.880  1.00  0.00    -0.200 F 
ATOM     98  F   UNL A   1      46.781  26.149  36.618  1.00  0.00    -0.200 F 
ENDBRANCH  65  88
ENDBRANCH  39  40
ENDBRANCH  31  34
ENDBRANCH  29  30
ENDBRANCH  28  29
ENDBRANCH   1  28
TORSDOF 15
ENDMDL
