MODEL 1
REMARK VINA RESULT:     -11.9      0.000      0.000
REMARK SMILES Cc1ccc(NC(=O)C[C@@H](C(=O)NCCCCNC(=O)c2ccc(-c3c4nc(c(-c5c(F)c(F)c(F)c(F)c5F)c5ccc([nH]5)c(-c5c(F)c(F)c(F)c(F)c5F)c5nc(c(-c6c(F)c(F)c(F)c(F)c6F)c6ccc3[nH]6)C=C5)C=C4)cc2)[NH+](C)C)cc1Cl
REMARK SMILES IDX 15 1 14 2 13 3 11 4 12 5 10 7 9 8 7 9 6 10 8 12 5 13 1 14
REMARK SMILES IDX 2 15 3 16 88 17 4 18 87 19 89 20 84 21 85 22 86 23 16 25
REMARK SMILES IDX 17 26 18 27 19 28 20 30 21 31 22 32 83 33 23 34 82 35 24 36
REMARK SMILES IDX 25 37 26 38 76 39 27 40 81 41 75 42 77 43 28 44 80 45 74 46
REMARK SMILES IDX 73 47 29 49 61 50 41 51 60 52 42 53 45 54 59 55 78 56 43 57
REMARK SMILES IDX 44 58 58 60 79 61 46 62 30 63 31 64 39 65 32 66 33 67 37 68
REMARK SMILES IDX 40 69 34 70 35 71 38 72 36 73 62 74 63 75 71 76 64 77 65 78
REMARK SMILES IDX 69 79 72 80 66 81 67 82 70 83 68 84 47 85 48 86 56 87 49 88
REMARK SMILES IDX 50 89 54 90 57 91 51 92 52 93 55 94 53 95
REMARK H PARENT 13 6 6 11 84 24 18 29 77 48 45 59
REMARK Flexibility Score: inf
ROOT
ATOM      1  C   UNL A   1      36.503  20.125  24.829  1.00  0.00     0.023 C 
ENDROOT
BRANCH   1   2
ATOM      2  C   UNL A   1      36.342  21.555  25.359  1.00  0.00     0.116 C 
BRANCH   2   3
ATOM      3  N   UNL A   1      35.576  21.645  26.591  1.00  0.00    -0.351 N 
ATOM      4  C   UNL A   1      34.295  22.054  26.844  1.00  0.00     0.278 C 
ATOM      5  O   UNL A   1      33.884  21.850  27.989  1.00  0.00    -0.268 OA
ATOM      6  H   UNL A   1      36.070  21.359  27.394  1.00  0.00     0.163 HD
BRANCH   4   7
ATOM      7  C   UNL A   1      33.423  22.699  25.734  1.00  0.00     0.283 C 
BRANCH   7   8
ATOM      8  C   UNL A   1      32.770  24.051  26.093  1.00  0.00     0.175 C 
BRANCH   8   9
ATOM      9  C   UNL A   1      31.395  24.072  26.710  1.00  0.00     0.230 C 
ATOM     10  N   UNL A   1      30.473  25.056  26.491  1.00  0.00    -0.326 N 
ATOM     11  H   UNL A   1      29.641  24.935  27.002  1.00  0.00     0.169 HD
ATOM     12  O   UNL A   1      31.055  23.136  27.445  1.00  0.00    -0.274 OA
BRANCH  10  13
ATOM     13  C   UNL A   1      30.475  26.206  25.684  1.00  0.00     0.042 A 
ATOM     14  C   UNL A   1      30.878  29.181  22.585  1.00  0.00     0.046 C 
ATOM     15  C   UNL A   1      30.661  28.217  23.715  1.00  0.00    -0.032 A 
ATOM     16  C   UNL A   1      29.783  27.140  23.550  1.00  0.00     0.007 A 
ATOM     17  C   UNL A   1      31.344  28.336  24.932  1.00  0.00     0.046 A 
ATOM     18  C   UNL A   1      29.668  26.163  24.542  1.00  0.00     0.026 A 
ATOM     19  C   UNL A   1      31.250  27.336  25.910  1.00  0.00     0.047 A 
ATOM     20  Cl  UNL A   1      32.349  29.704  25.266  1.00  0.00    -0.084 Cl
ENDBRANCH  10  13
ENDBRANCH   8   9
ENDBRANCH   7   8
BRANCH   7  21
ATOM     21  N   UNL A   1      32.427  21.754  25.107  1.00  0.00    -0.329 N 
ATOM     22  C   UNL A   1      32.142  22.047  23.699  1.00  0.00     0.333 C 
ATOM     23  C   UNL A   1      32.739  20.330  25.239  1.00  0.00     0.333 C 
ATOM     24  H   UNL A   1      31.592  21.934  25.665  1.00  0.00     0.348 HD
ENDBRANCH   7  21
ENDBRANCH   4   7
ENDBRANCH   2   3
ENDBRANCH   1   2
BRANCH   1  25
ATOM     25  C   UNL A   1      37.936  19.632  24.651  1.00  0.00     0.023 C 
BRANCH  25  26
ATOM     26  C   UNL A   1      38.894  20.105  25.730  1.00  0.00     0.116 C 
BRANCH  26  27
ATOM     27  N   UNL A   1      40.001  19.178  25.916  1.00  0.00    -0.352 N 
ATOM     28  C   UNL A   1      41.334  19.421  26.118  1.00  0.00     0.251 C 
ATOM     29  H   UNL A   1      39.753  18.225  25.895  1.00  0.00     0.163 HD
ATOM     30  O   UNL A   1      42.144  18.493  26.023  1.00  0.00    -0.269 OA
BRANCH  28  31
ATOM     31  C   UNL A   1      41.820  20.780  26.438  1.00  0.00     0.039 A 
ATOM     32  C   UNL A   1      42.272  21.059  27.730  1.00  0.00     0.014 A 
ATOM     33  C   UNL A   1      41.799  21.792  25.476  1.00  0.00     0.014 A 
ATOM     34  C   UNL A   1      42.749  22.335  28.042  1.00  0.00     0.010 A 
ATOM     35  C   UNL A   1      42.375  23.026  25.753  1.00  0.00     0.010 A 
ATOM     36  C   UNL A   1      42.831  23.321  27.046  1.00  0.00    -0.014 A 
BRANCH  36  37
ATOM     37  C   UNL A   1      43.334  24.688  27.336  1.00  0.00     0.031 A 
ATOM     38  C   UNL A   1      42.407  25.707  27.943  1.00  0.00     0.074 A 
ATOM     39  C   UNL A   1      44.588  25.035  26.986  1.00  0.00     0.049 A 
ATOM     40  N   UNL A   1      42.602  26.983  28.165  1.00  0.00    -0.248 NA
ATOM     41  C   UNL A   1      41.060  25.239  28.311  1.00  0.00     0.031 C 
ATOM     42  C   UNL A   1      45.562  24.153  26.343  1.00  0.00     0.029 A 
ATOM     43  N   UNL A   1      45.253  26.229  27.111  1.00  0.00    -0.354 N 
ATOM     44  C   UNL A   1      41.398  27.468  28.661  1.00  0.00     0.074 A 
ATOM     45  C   UNL A   1      40.460  26.368  28.651  1.00  0.00     0.031 C 
ATOM     46  C   UNL A   1      46.708  24.827  26.154  1.00  0.00     0.029 A 
ATOM     47  C   UNL A   1      46.537  26.197  26.627  1.00  0.00     0.049 A 
ATOM     48  H   UNL A   1      44.846  27.032  27.510  1.00  0.00     0.167 HD
ATOM     49  C   UNL A   1      41.110  28.712  29.113  1.00  0.00     0.037 A 
ATOM     50  C   UNL A   1      47.469  27.168  26.569  1.00  0.00     0.037 A 
ATOM     51  C   UNL A   1      42.065  29.784  29.172  1.00  0.00     0.049 A 
ATOM     52  C   UNL A   1      47.135  28.532  27.110  1.00  0.00     0.074 A 
ATOM     53  C   UNL A   1      41.900  31.061  29.679  1.00  0.00     0.029 A 
ATOM     54  N   UNL A   1      43.373  29.699  28.717  1.00  0.00    -0.354 N 
ATOM     55  N   UNL A   1      46.013  28.963  27.634  1.00  0.00    -0.248 NA
ATOM     56  C   UNL A   1      48.200  29.543  27.060  1.00  0.00     0.031 C 
ATOM     57  C   UNL A   1      43.098  31.760  29.496  1.00  0.00     0.029 A 
ATOM     58  C   UNL A   1      44.023  30.905  28.920  1.00  0.00     0.049 A 
ATOM     59  H   UNL A   1      43.778  28.899  28.309  1.00  0.00     0.167 HD
ATOM     60  C   UNL A   1      46.245  30.280  28.004  1.00  0.00     0.074 A 
ATOM     61  C   UNL A   1      47.620  30.575  27.656  1.00  0.00     0.031 C 
ATOM     62  C   UNL A   1      45.398  31.168  28.581  1.00  0.00     0.037 A 
BRANCH  49  63
ATOM     63  C   UNL A   1      39.711  28.970  29.592  1.00  0.00     0.064 A 
ATOM     64  C   UNL A   1      39.329  28.730  30.921  1.00  0.00     0.173 A 
ATOM     65  C   UNL A   1      38.743  29.488  28.718  1.00  0.00     0.173 A 
ATOM     66  F   UNL A   1      40.212  28.222  31.795  1.00  0.00    -0.203 F 
ATOM     67  C   UNL A   1      38.024  28.965  31.348  1.00  0.00     0.198 A 
ATOM     68  C   UNL A   1      37.447  29.754  29.157  1.00  0.00     0.198 A 
ATOM     69  F   UNL A   1      39.053  29.741  27.438  1.00  0.00    -0.203 F 
ATOM     70  F   UNL A   1      37.671  28.672  32.607  1.00  0.00    -0.200 F 
ATOM     71  C   UNL A   1      37.087  29.483  30.468  1.00  0.00     0.200 A 
ATOM     72  F   UNL A   1      36.546  30.267  28.308  1.00  0.00    -0.200 F 
ATOM     73  F   UNL A   1      35.833  29.714  30.881  1.00  0.00    -0.200 F 
ENDBRANCH  49  63
BRANCH  50  74
ATOM     74  C   UNL A   1      48.815  26.874  26.015  1.00  0.00     0.064 A 
ATOM     75  C   UNL A   1      49.827  26.343  26.828  1.00  0.00     0.173 A 
ATOM     76  C   UNL A   1      49.123  27.112  24.666  1.00  0.00     0.173 A 
ATOM     77  F   UNL A   1      49.587  26.116  28.128  1.00  0.00    -0.203 F 
ATOM     78  C   UNL A   1      51.098  26.083  26.322  1.00  0.00     0.198 A 
ATOM     79  C   UNL A   1      50.386  26.824  24.154  1.00  0.00     0.198 A 
ATOM     80  F   UNL A   1      48.189  27.610  23.844  1.00  0.00    -0.203 F 
ATOM     81  F   UNL A   1      52.057  25.617  27.134  1.00  0.00    -0.200 F 
ATOM     82  C   UNL A   1      51.376  26.318  24.984  1.00  0.00     0.200 A 
ATOM     83  F   UNL A   1      50.645  27.038  22.857  1.00  0.00    -0.200 F 
ATOM     84  F   UNL A   1      52.597  26.062  24.495  1.00  0.00    -0.200 F 
ENDBRANCH  50  74
BRANCH  62  85
ATOM     85  C   UNL A   1      45.942  32.525  28.911  1.00  0.00     0.064 A 
ATOM     86  C   UNL A   1      45.825  33.602  28.021  1.00  0.00     0.173 A 
ATOM     87  C   UNL A   1      46.544  32.761  30.156  1.00  0.00     0.173 A 
ATOM     88  F   UNL A   1      45.270  33.422  26.813  1.00  0.00    -0.203 F 
ATOM     89  C   UNL A   1      46.310  34.863  28.358  1.00  0.00     0.198 A 
ATOM     90  C   UNL A   1      47.002  34.029  30.501  1.00  0.00     0.198 A 
ATOM     91  F   UNL A   1      46.674  31.764  31.045  1.00  0.00    -0.203 F 
ATOM     92  F   UNL A   1      46.225  35.868  27.477  1.00  0.00    -0.200 F 
ATOM     93  C   UNL A   1      46.890  35.077  29.601  1.00  0.00     0.200 A 
ATOM     94  F   UNL A   1      47.548  34.238  31.708  1.00  0.00    -0.200 F 
ATOM     95  F   UNL A   1      47.347  36.293  29.927  1.00  0.00    -0.200 F 
ENDBRANCH  62  85
ENDBRANCH  36  37
ENDBRANCH  28  31
ENDBRANCH  26  27
ENDBRANCH  25  26
ENDBRANCH   1  25
TORSDOF 15
ENDMDL
MODEL 2
REMARK VINA RESULT:     -11.9      5.444     10.960
REMARK SMILES Cc1ccc(NC(=O)C[C@@H](C(=O)NCCCCNC(=O)c2ccc(-c3c4nc(c(-c5c(F)c(F)c(F)c(F)c5F)c5ccc([nH]5)c(-c5c(F)c(F)c(F)c(F)c5F)c5nc(c(-c6c(F)c(F)c(F)c(F)c6F)c6ccc3[nH]6)C=C5)C=C4)cc2)[NH+](C)C)cc1Cl
REMARK SMILES IDX 15 1 14 2 13 3 11 4 12 5 10 7 9 8 7 9 6 10 8 12 5 13 1 14
REMARK SMILES IDX 2 15 3 16 88 17 4 18 87 19 89 20 84 21 85 22 86 23 16 25
REMARK SMILES IDX 17 26 18 27 19 28 20 30 21 31 22 32 83 33 23 34 82 35 24 36
REMARK SMILES IDX 25 37 26 38 76 39 27 40 81 41 75 42 77 43 28 44 80 45 74 46
REMARK SMILES IDX 73 47 29 49 61 50 41 51 60 52 42 53 45 54 59 55 78 56 43 57
REMARK SMILES IDX 44 58 58 60 79 61 46 62 30 63 31 64 39 65 32 66 33 67 37 68
REMARK SMILES IDX 40 69 34 70 35 71 38 72 36 73 62 74 63 75 71 76 64 77 65 78
REMARK SMILES IDX 69 79 72 80 66 81 67 82 70 83 68 84 47 85 48 86 56 87 49 88
REMARK SMILES IDX 50 89 54 90 57 91 51 92 52 93 55 94 53 95
REMARK H PARENT 13 6 6 11 84 24 18 29 77 48 45 59
REMARK Flexibility Score: inf
ROOT
ATOM      1  C   UNL A   1      31.232  30.529  25.771  1.00  0.00     0.023 C 
ENDROOT
BRANCH   1   2
ATOM      2  C   UNL A   1      32.577  29.812  25.932  1.00  0.00     0.116 C 
BRANCH   2   3
ATOM      3  N   UNL A   1      33.342  29.710  24.699  1.00  0.00    -0.351 N 
ATOM      4  C   UNL A   1      33.415  28.730  23.747  1.00  0.00     0.278 C 
ATOM      5  O   UNL A   1      34.040  29.023  22.724  1.00  0.00    -0.268 OA
ATOM      6  H   UNL A   1      33.914  30.490  24.515  1.00  0.00     0.163 HD
BRANCH   4   7
ATOM      7  C   UNL A   1      32.721  27.358  23.950  1.00  0.00     0.283 C 
BRANCH   7   8
ATOM      8  C   UNL A   1      33.569  26.116  23.601  1.00  0.00     0.175 C 
BRANCH   8   9
ATOM      9  C   UNL A   1      33.503  25.538  22.210  1.00  0.00     0.230 C 
ATOM     10  N   UNL A   1      33.542  24.201  21.935  1.00  0.00    -0.326 N 
ATOM     11  H   UNL A   1      33.527  23.997  20.973  1.00  0.00     0.169 HD
ATOM     12  O   UNL A   1      33.383  26.307  21.248  1.00  0.00    -0.274 OA
BRANCH  10  13
ATOM     13  C   UNL A   1      33.599  23.058  22.750  1.00  0.00     0.042 A 
ATOM     14  C   UNL A   1      33.079  19.955  25.703  1.00  0.00     0.046 C 
ATOM     15  C   UNL A   1      33.321  20.957  24.612  1.00  0.00    -0.032 A 
ATOM     16  C   UNL A   1      32.331  21.191  23.651  1.00  0.00     0.007 A 
ATOM     17  C   UNL A   1      34.503  21.705  24.542  1.00  0.00     0.046 A 
ATOM     18  C   UNL A   1      32.486  22.211  22.709  1.00  0.00     0.026 A 
ATOM     19  C   UNL A   1      34.641  22.749  23.616  1.00  0.00     0.047 A 
ATOM     20  Cl  UNL A   1      35.827  21.391  25.610  1.00  0.00    -0.084 Cl
ENDBRANCH  10  13
ENDBRANCH   8   9
ENDBRANCH   7   8
BRANCH   7  21
ATOM     21  N   UNL A   1      31.340  27.272  23.345  1.00  0.00    -0.329 N 
ATOM     22  C   UNL A   1      30.313  26.809  24.282  1.00  0.00     0.333 C 
ATOM     23  C   UNL A   1      30.864  28.488  22.685  1.00  0.00     0.333 C 
ATOM     24  H   UNL A   1      31.477  26.568  22.619  1.00  0.00     0.348 HD
ENDBRANCH   7  21
ENDBRANCH   4   7
ENDBRANCH   2   3
ENDBRANCH   1   2
BRANCH   1  25
ATOM     25  C   UNL A   1      31.185  31.981  26.238  1.00  0.00     0.023 C 
BRANCH  25  26
ATOM     26  C   UNL A   1      32.442  32.445  26.952  1.00  0.00     0.116 C 
BRANCH  26  27
ATOM     27  N   UNL A   1      32.338  33.830  27.388  1.00  0.00    -0.352 N 
ATOM     28  C   UNL A   1      33.005  34.497  28.381  1.00  0.00     0.251 C 
ATOM     29  H   UNL A   1      31.685  34.374  26.891  1.00  0.00     0.163 HD
ATOM     30  O   UNL A   1      32.606  35.610  28.743  1.00  0.00    -0.269 OA
BRANCH  28  31
ATOM     31  C   UNL A   1      34.191  33.903  29.033  1.00  0.00     0.039 A 
ATOM     32  C   UNL A   1      35.460  34.413  28.744  1.00  0.00     0.014 A 
ATOM     33  C   UNL A   1      34.061  32.819  29.904  1.00  0.00     0.014 A 
ATOM     34  C   UNL A   1      36.588  33.871  29.366  1.00  0.00     0.010 A 
ATOM     35  C   UNL A   1      35.167  32.355  30.605  1.00  0.00     0.010 A 
ATOM     36  C   UNL A   1      36.446  32.855  30.325  1.00  0.00    -0.014 A 
BRANCH  36  37
ATOM     37  C   UNL A   1      37.620  32.256  31.009  1.00  0.00     0.031 A 
ATOM     38  C   UNL A   1      38.417  31.183  30.314  1.00  0.00     0.074 A 
ATOM     39  C   UNL A   1      37.919  32.612  32.273  1.00  0.00     0.049 A 
ATOM     40  N   UNL A   1      39.396  30.445  30.772  1.00  0.00    -0.248 NA
ATOM     41  C   UNL A   1      38.031  30.867  28.928  1.00  0.00     0.031 C 
ATOM     42  C   UNL A   1      37.190  33.598  33.070  1.00  0.00     0.029 A 
ATOM     43  N   UNL A   1      38.912  32.174  33.114  1.00  0.00    -0.354 N 
ATOM     44  C   UNL A   1      39.714  29.562  29.747  1.00  0.00     0.074 A 
ATOM     45  C   UNL A   1      38.786  29.812  28.668  1.00  0.00     0.031 C 
ATOM     46  C   UNL A   1      37.775  33.711  34.273  1.00  0.00     0.029 A 
ATOM     47  C   UNL A   1      38.896  32.778  34.347  1.00  0.00     0.049 A 
ATOM     48  H   UNL A   1      39.573  31.491  32.856  1.00  0.00     0.167 HD
ATOM     49  C   UNL A   1      40.710  28.646  29.700  1.00  0.00     0.037 A 
ATOM     50  C   UNL A   1      39.694  32.594  35.415  1.00  0.00     0.037 A 
ATOM     51  C   UNL A   1      41.664  28.443  30.756  1.00  0.00     0.049 A 
ATOM     52  C   UNL A   1      40.816  31.595  35.324  1.00  0.00     0.074 A 
ATOM     53  C   UNL A   1      42.756  27.594  30.783  1.00  0.00     0.029 A 
ATOM     54  N   UNL A   1      41.644  29.110  31.972  1.00  0.00    -0.354 N 
ATOM     55  N   UNL A   1      41.146  30.809  34.328  1.00  0.00    -0.248 NA
ATOM     56  C   UNL A   1      41.683  31.463  36.504  1.00  0.00     0.031 C 
ATOM     57  C   UNL A   1      43.375  27.721  32.030  1.00  0.00     0.029 A 
ATOM     58  C   UNL A   1      42.698  28.682  32.762  1.00  0.00     0.049 A 
ATOM     59  H   UNL A   1      40.978  29.786  32.235  1.00  0.00     0.167 HD
ATOM     60  C   UNL A   1      42.272  30.115  34.746  1.00  0.00     0.074 A 
ATOM     61  C   UNL A   1      42.578  30.581  36.083  1.00  0.00     0.031 C 
ATOM     62  C   UNL A   1      42.991  29.175  34.083  1.00  0.00     0.037 A 
BRANCH  49  63
ATOM     63  C   UNL A   1      40.825  27.808  28.459  1.00  0.00     0.064 A 
ATOM     64  C   UNL A   1      40.171  26.572  28.339  1.00  0.00     0.173 A 
ATOM     65  C   UNL A   1      41.580  28.257  27.364  1.00  0.00     0.173 A 
ATOM     66  F   UNL A   1      39.447  26.090  29.361  1.00  0.00    -0.203 F 
ATOM     67  C   UNL A   1      40.296  25.802  27.186  1.00  0.00     0.198 A 
ATOM     68  C   UNL A   1      41.676  27.499  26.199  1.00  0.00     0.198 A 
ATOM     69  F   UNL A   1      42.223  29.433  27.422  1.00  0.00    -0.203 F 
ATOM     70  F   UNL A   1      39.709  24.599  27.119  1.00  0.00    -0.200 F 
ATOM     71  C   UNL A   1      41.042  26.268  26.115  1.00  0.00     0.200 A 
ATOM     72  F   UNL A   1      42.387  27.957  25.160  1.00  0.00    -0.200 F 
ATOM     73  F   UNL A   1      41.157  25.529  25.003  1.00  0.00    -0.200 F 
ENDBRANCH  49  63
BRANCH  50  74
ATOM     74  C   UNL A   1      39.487  33.401  36.646  1.00  0.00     0.064 A 
ATOM     75  C   UNL A   1      40.135  34.633  36.814  1.00  0.00     0.173 A 
ATOM     76  C   UNL A   1      38.640  32.965  37.675  1.00  0.00     0.173 A 
ATOM     77  F   UNL A   1      40.969  35.083  35.866  1.00  0.00    -0.203 F 
ATOM     78  C   UNL A   1      39.962  35.387  37.973  1.00  0.00     0.198 A 
ATOM     79  C   UNL A   1      38.444  33.734  38.821  1.00  0.00     0.198 A 
ATOM     80  F   UNL A   1      37.989  31.798  37.560  1.00  0.00    -0.203 F 
ATOM     81  F   UNL A   1      40.629  36.539  38.125  1.00  0.00    -0.200 F 
ATOM     82  C   UNL A   1      39.113  34.940  38.973  1.00  0.00     0.200 A 
ATOM     83  F   UNL A   1      37.611  33.305  39.778  1.00  0.00    -0.200 F 
ATOM     84  F   UNL A   1      38.942  35.667  40.085  1.00  0.00    -0.200 F 
ENDBRANCH  50  74
BRANCH  62  85
ATOM     85  C   UNL A   1      44.201  28.620  34.774  1.00  0.00     0.064 A 
ATOM     86  C   UNL A   1      44.137  27.452  35.547  1.00  0.00     0.173 A 
ATOM     87  C   UNL A   1      45.450  29.239  34.617  1.00  0.00     0.173 A 
ATOM     88  F   UNL A   1      42.962  26.832  35.737  1.00  0.00    -0.203 F 
ATOM     89  C   UNL A   1      45.277  26.935  36.155  1.00  0.00     0.198 A 
ATOM     90  C   UNL A   1      46.593  28.704  35.203  1.00  0.00     0.198 A 
ATOM     91  F   UNL A   1      45.565  30.356  33.882  1.00  0.00    -0.203 F 
ATOM     92  F   UNL A   1      45.186  25.842  36.924  1.00  0.00    -0.200 F 
ATOM     93  C   UNL A   1      46.505  27.557  35.977  1.00  0.00     0.200 A 
ATOM     94  F   UNL A   1      47.781  29.297  35.017  1.00  0.00    -0.200 F 
ATOM     95  F   UNL A   1      47.603  27.052  36.555  1.00  0.00    -0.200 F 
ENDBRANCH  62  85
ENDBRANCH  36  37
ENDBRANCH  28  31
ENDBRANCH  26  27
ENDBRANCH  25  26
ENDBRANCH   1  25
TORSDOF 15
ENDMDL
MODEL 3
REMARK VINA RESULT:     -11.9      5.543     11.040
REMARK SMILES Cc1ccc(NC(=O)C[C@@H](C(=O)NCCCCNC(=O)c2ccc(-c3c4nc(c(-c5c(F)c(F)c(F)c(F)c5F)c5ccc([nH]5)c(-c5c(F)c(F)c(F)c(F)c5F)c5nc(c(-c6c(F)c(F)c(F)c(F)c6F)c6ccc3[nH]6)C=C5)C=C4)cc2)[NH+](C)C)cc1Cl
REMARK SMILES IDX 15 1 14 2 13 3 11 4 12 5 10 7 9 8 7 9 6 10 8 12 5 13 1 14
REMARK SMILES IDX 2 15 3 16 88 17 4 18 87 19 89 20 84 21 85 22 86 23 16 25
REMARK SMILES IDX 17 26 18 27 19 28 20 30 21 31 22 32 83 33 23 34 82 35 24 36
REMARK SMILES IDX 25 37 26 38 76 39 27 40 81 41 75 42 77 43 28 44 80 45 74 46
REMARK SMILES IDX 73 47 29 49 61 50 41 51 60 52 42 53 45 54 59 55 78 56 43 57
REMARK SMILES IDX 44 58 58 60 79 61 46 62 30 63 31 64 39 65 32 66 33 67 37 68
REMARK SMILES IDX 40 69 34 70 35 71 38 72 36 73 62 74 63 75 71 76 64 77 65 78
REMARK SMILES IDX 69 79 72 80 66 81 67 82 70 83 68 84 47 85 48 86 56 87 49 88
REMARK SMILES IDX 50 89 54 90 57 91 51 92 52 93 55 94 53 95
REMARK H PARENT 13 6 6 11 84 24 18 29 77 48 45 59
REMARK Flexibility Score: inf
ROOT
ATOM      1  C   UNL A   1      31.201  30.796  25.477  1.00  0.00     0.023 C 
ENDROOT
BRANCH   1   2
ATOM      2  C   UNL A   1      32.379  29.827  25.634  1.00  0.00     0.116 C 
BRANCH   2   3
ATOM      3  N   UNL A   1      33.073  29.534  24.390  1.00  0.00    -0.351 N 
ATOM      4  C   UNL A   1      32.841  28.608  23.410  1.00  0.00     0.278 C 
ATOM      5  O   UNL A   1      33.523  28.729  22.388  1.00  0.00    -0.268 OA
ATOM      6  H   UNL A   1      33.855  30.109  24.221  1.00  0.00     0.163 HD
BRANCH   4   7
ATOM      7  C   UNL A   1      31.763  27.507  23.582  1.00  0.00     0.283 C 
BRANCH   7   8
ATOM      8  C   UNL A   1      32.246  26.054  23.387  1.00  0.00     0.175 C 
BRANCH   8   9
ATOM      9  C   UNL A   1      32.285  25.464  21.999  1.00  0.00     0.230 C 
ATOM     10  N   UNL A   1      32.685  24.188  21.723  1.00  0.00    -0.326 N 
ATOM     11  H   UNL A   1      32.687  23.977  20.762  1.00  0.00     0.169 HD
ATOM     12  O   UNL A   1      31.914  26.158  21.045  1.00  0.00    -0.274 OA
BRANCH  10  13
ATOM     13  C   UNL A   1      33.095  23.117  22.533  1.00  0.00     0.042 A 
ATOM     14  C   UNL A   1      33.713  20.149  25.605  1.00  0.00     0.046 C 
ATOM     15  C   UNL A   1      33.555  21.111  24.463  1.00  0.00    -0.032 A 
ATOM     16  C   UNL A   1      32.361  21.137  23.736  1.00  0.00     0.007 A 
ATOM     17  C   UNL A   1      34.562  22.023  24.119  1.00  0.00     0.046 A 
ATOM     18  C   UNL A   1      32.148  22.111  22.757  1.00  0.00     0.026 A 
ATOM     19  C   UNL A   1      34.332  23.019  23.159  1.00  0.00     0.047 A 
ATOM     20  Cl  UNL A   1      36.114  21.975  24.880  1.00  0.00    -0.084 Cl
ENDBRANCH  10  13
ENDBRANCH   8   9
ENDBRANCH   7   8
BRANCH   7  21
ATOM     21  N   UNL A   1      30.486  27.771  22.820  1.00  0.00    -0.329 N 
ATOM     22  C   UNL A   1      29.282  27.286  23.501  1.00  0.00     0.333 C 
ATOM     23  C   UNL A   1      30.271  29.160  22.412  1.00  0.00     0.333 C 
ATOM     24  H   UNL A   1      30.637  27.227  21.971  1.00  0.00     0.348 HD
ENDBRANCH   7  21
ENDBRANCH   4   7
ENDBRANCH   2   3
ENDBRANCH   1   2
BRANCH   1  25
ATOM     25  C   UNL A   1      31.129  31.935  26.490  1.00  0.00     0.023 C 
BRANCH  25  26
ATOM     26  C   UNL A   1      32.481  32.510  26.874  1.00  0.00     0.116 C 
BRANCH  26  27
ATOM     27  N   UNL A   1      32.370  33.881  27.353  1.00  0.00    -0.352 N 
ATOM     28  C   UNL A   1      33.015  34.512  28.383  1.00  0.00     0.251 C 
ATOM     29  H   UNL A   1      31.732  34.443  26.857  1.00  0.00     0.163 HD
ATOM     30  O   UNL A   1      32.610  35.614  28.772  1.00  0.00    -0.269 OA
BRANCH  28  31
ATOM     31  C   UNL A   1      34.182  33.893  29.046  1.00  0.00     0.039 A 
ATOM     32  C   UNL A   1      35.456  34.426  28.829  1.00  0.00     0.014 A 
ATOM     33  C   UNL A   1      34.031  32.764  29.853  1.00  0.00     0.014 A 
ATOM     34  C   UNL A   1      36.565  33.859  29.461  1.00  0.00     0.010 A 
ATOM     35  C   UNL A   1      35.115  32.270  30.567  1.00  0.00     0.010 A 
ATOM     36  C   UNL A   1      36.399  32.793  30.360  1.00  0.00    -0.014 A 
BRANCH  36  37
ATOM     37  C   UNL A   1      37.552  32.166  31.053  1.00  0.00     0.031 A 
ATOM     38  C   UNL A   1      38.355  31.104  30.348  1.00  0.00     0.074 A 
ATOM     39  C   UNL A   1      37.829  32.489  32.331  1.00  0.00     0.049 A 
ATOM     40  N   UNL A   1      39.318  30.346  30.808  1.00  0.00    -0.248 NA
ATOM     41  C   UNL A   1      37.995  30.826  28.947  1.00  0.00     0.031 C 
ATOM     42  C   UNL A   1      37.091  33.461  33.137  1.00  0.00     0.029 A 
ATOM     43  N   UNL A   1      38.800  32.021  33.181  1.00  0.00    -0.354 N 
ATOM     44  C   UNL A   1      39.649  29.486  29.768  1.00  0.00     0.074 A 
ATOM     45  C   UNL A   1      38.746  29.771  28.676  1.00  0.00     0.031 C 
ATOM     46  C   UNL A   1      37.653  33.539  34.355  1.00  0.00     0.029 A 
ATOM     47  C   UNL A   1      38.763  32.594  34.428  1.00  0.00     0.049 A 
ATOM     48  H   UNL A   1      39.461  31.338  32.920  1.00  0.00     0.167 HD
ATOM     49  C   UNL A   1      40.638  28.562  29.718  1.00  0.00     0.037 A 
ATOM     50  C   UNL A   1      39.538  32.377  35.508  1.00  0.00     0.037 A 
ATOM     51  C   UNL A   1      41.568  28.324  30.788  1.00  0.00     0.049 A 
ATOM     52  C   UNL A   1      40.653  31.370  35.415  1.00  0.00     0.074 A 
ATOM     53  C   UNL A   1      42.652  27.465  30.817  1.00  0.00     0.029 A 
ATOM     54  N   UNL A   1      41.528  28.961  32.020  1.00  0.00    -0.354 N 
ATOM     55  N   UNL A   1      40.996  30.605  34.407  1.00  0.00    -0.248 NA
ATOM     56  C   UNL A   1      41.493  31.201  36.609  1.00  0.00     0.031 C 
ATOM     57  C   UNL A   1      43.246  27.555  32.079  1.00  0.00     0.029 A 
ATOM     58  C   UNL A   1      42.562  28.504  32.821  1.00  0.00     0.049 A 
ATOM     59  H   UNL A   1      40.863  29.637  32.286  1.00  0.00     0.167 HD
ATOM     60  C   UNL A   1      42.108  29.891  34.830  1.00  0.00     0.074 A 
ATOM     61  C   UNL A   1      42.389  30.321  36.184  1.00  0.00     0.031 C 
ATOM     62  C   UNL A   1      42.832  28.961  34.160  1.00  0.00     0.037 A 
BRANCH  49  63
ATOM     63  C   UNL A   1      40.772  27.753  28.459  1.00  0.00     0.064 A 
ATOM     64  C   UNL A   1      41.599  28.163  27.402  1.00  0.00     0.173 A 
ATOM     65  C   UNL A   1      40.082  26.539  28.317  1.00  0.00     0.173 A 
ATOM     66  F   UNL A   1      42.269  29.323  27.482  1.00  0.00    -0.203 F 
ATOM     67  C   UNL A   1      41.703  27.408  26.237  1.00  0.00     0.198 A 
ATOM     68  C   UNL A   1      40.216  25.769  27.163  1.00  0.00     0.198 A 
ATOM     69  F   UNL A   1      39.281  26.096  29.297  1.00  0.00    -0.203 F 
ATOM     70  F   UNL A   1      42.454  27.852  25.220  1.00  0.00    -0.200 F 
ATOM     71  C   UNL A   1      41.018  26.209  26.121  1.00  0.00     0.200 A 
ATOM     72  F   UNL A   1      39.563  24.604  27.058  1.00  0.00    -0.200 F 
ATOM     73  F   UNL A   1      41.124  25.480  25.002  1.00  0.00    -0.200 F 
ENDBRANCH  49  63
BRANCH  50  74
ATOM     74  C   UNL A   1      39.312  33.155  36.753  1.00  0.00     0.064 A 
ATOM     75  C   UNL A   1      39.982  34.366  36.975  1.00  0.00     0.173 A 
ATOM     76  C   UNL A   1      38.425  32.711  37.746  1.00  0.00     0.173 A 
ATOM     77  F   UNL A   1      40.854  34.823  36.063  1.00  0.00    -0.203 F 
ATOM     78  C   UNL A   1      39.791  35.093  38.148  1.00  0.00     0.198 A 
ATOM     79  C   UNL A   1      38.213  33.453  38.906  1.00  0.00     0.198 A 
ATOM     80  F   UNL A   1      37.752  31.563  37.579  1.00  0.00    -0.203 F 
ATOM     81  F   UNL A   1      40.479  36.225  38.351  1.00  0.00    -0.200 F 
ATOM     82  C   UNL A   1      38.903  34.639  39.110  1.00  0.00     0.200 A 
ATOM     83  F   UNL A   1      37.342  33.018  39.826  1.00  0.00    -0.200 F 
ATOM     84  F   UNL A   1      38.715  35.340  40.237  1.00  0.00    -0.200 F 
ENDBRANCH  50  74
BRANCH  62  85
ATOM     85  C   UNL A   1      44.022  28.378  34.861  1.00  0.00     0.064 A 
ATOM     86  C   UNL A   1      45.271  29.013  34.845  1.00  0.00     0.173 A 
ATOM     87  C   UNL A   1      43.894  27.193  35.602  1.00  0.00     0.173 A 
ATOM     88  F   UNL A   1      45.446  30.141  34.139  1.00  0.00    -0.203 F 
ATOM     89  C   UNL A   1      46.357  28.472  35.528  1.00  0.00     0.198 A 
ATOM     90  C   UNL A   1      44.973  26.670  36.308  1.00  0.00     0.198 A 
ATOM     91  F   UNL A   1      42.717  26.551  35.655  1.00  0.00    -0.203 F 
ATOM     92  F   UNL A   1      47.552  29.072  35.465  1.00  0.00    -0.200 F 
ATOM     93  C   UNL A   1      46.204  27.305  36.265  1.00  0.00     0.200 A 
ATOM     94  F   UNL A   1      44.821  25.552  37.031  1.00  0.00    -0.200 F 
ATOM     95  F   UNL A   1      47.248  26.792  36.930  1.00  0.00    -0.200 F 
ENDBRANCH  62  85
ENDBRANCH  36  37
ENDBRANCH  28  31
ENDBRANCH  26  27
ENDBRANCH  25  26
ENDBRANCH   1  25
TORSDOF 15
ENDMDL
