MODEL 1
REMARK VINA RESULT:      -8.9      0.000      0.000
REMARK SMILES NS(=O)(=O)c1ccc(-n2nc(NC(=O)NCCCCCCCCCCC(=O)NCCCCNC(=O)c3ccc(-c4c5nc(c(-c6c(F)c(F)c(F)c(F)c6F)c6ccc([nH]6)c(-c6c(F)c(F)c(F)c(F)c6F)c6nc(c(-c7c(F)c(F)c(F)c(F)c7F)c7ccc4[nH]7)C=C6)C=C5)cc3)cc2-c2ccccc2)cc1
REMARK SMILES IDX 22 1 21 2 20 3 19 4 18 5 17 6 16 7 15 8 12 9 13 10 14 12
REMARK SMILES IDX 11 14 9 15 10 16 100 17 99 18 8 19 5 20 6 21 108 22 7 23
REMARK SMILES IDX 107 24 2 25 3 26 4 27 1 28 101 31 102 32 106 33 103 34
REMARK SMILES IDX 105 35 104 36 23 37 24 38 25 39 26 40 27 41 28 42 29 44
REMARK SMILES IDX 30 45 31 46 32 47 33 48 34 49 35 51 36 52 37 53 98 54 38 55
REMARK SMILES IDX 97 56 39 57 40 58 41 59 91 60 42 61 96 62 90 63 92 64 43 65
REMARK SMILES IDX 95 66 89 67 88 68 44 70 76 71 56 72 75 73 57 74 60 75 74 76
REMARK SMILES IDX 93 77 58 78 59 79 73 81 94 82 61 83 45 84 46 85 54 86 47 87
REMARK SMILES IDX 48 88 52 89 55 90 49 91 50 92 53 93 51 94 77 95 78 96 86 97
REMARK SMILES IDX 79 98 80 99 84 100 87 101 81 102 82 103 85 104 83 105 62 106
REMARK SMILES IDX 63 107 71 108 64 109 65 110 69 111 72 112 66 113 67 114
REMARK SMILES IDX 70 115 68 116
REMARK H PARENT 12 11 15 13 1 29 1 30 28 43 33 50 92 69 60 80
REMARK Flexibility Score: inf
ROOT
ATOM      1  C   UNL A   1      42.429  34.844  31.857  1.00  0.00     0.000 C 
ENDROOT
BRANCH   1   2
ATOM      2  C   UNL A   1      42.345  34.388  30.413  1.00  0.00     0.000 C 
BRANCH   2   3
ATOM      3  C   UNL A   1      43.579  34.741  29.590  1.00  0.00     0.000 C 
BRANCH   3   4
ATOM      4  C   UNL A   1      43.342  35.066  28.110  1.00  0.00     0.000 C 
BRANCH   4   5
ATOM      5  C   UNL A   1      41.957  35.619  27.756  1.00  0.00     0.002 C 
BRANCH   5   6
ATOM      6  C   UNL A   1      41.760  37.118  27.971  1.00  0.00     0.021 C 
BRANCH   6   7
ATOM      7  C   UNL A   1      42.339  38.021  26.894  1.00  0.00     0.117 C 
BRANCH   7   8
ATOM      8  N   UNL A   1      41.447  39.004  26.336  1.00  0.00    -0.338 N 
ATOM      9  N   UNL A   1      42.199  40.942  27.494  1.00  0.00    -0.291 N 
ATOM     10  C   UNL A   1      41.369  40.326  26.617  1.00  0.00     0.320 C 
ATOM     11  H   UNL A   1      41.833  41.769  27.884  1.00  0.00     0.173 HD
ATOM     12  O   UNL A   1      40.419  40.962  26.151  1.00  0.00    -0.248 OA
ATOM     13  H   UNL A   1      40.810  38.671  25.662  1.00  0.00     0.165 HD
BRANCH   9  14
ATOM     14  C   UNL A   1      43.463  40.618  27.933  1.00  0.00     0.157 A 
ATOM     15  N   UNL A   1      45.387  39.721  27.995  1.00  0.00    -0.231 N 
ATOM     16  N   UNL A   1      44.506  40.313  27.157  1.00  0.00    -0.149 NA
ATOM     17  C   UNL A   1      45.106  40.030  29.320  1.00  0.00     0.076 A 
ATOM     18  C   UNL A   1      43.841  40.592  29.293  1.00  0.00     0.078 A 
BRANCH  15  19
ATOM     19  C   UNL A   1      46.386  38.847  27.481  1.00  0.00     0.065 A 
ATOM     20  C   UNL A   1      48.262  37.144  26.316  1.00  0.00     0.082 A 
ATOM     21  C   UNL A   1      48.502  38.519  26.342  1.00  0.00     0.024 A 
ATOM     22  C   UNL A   1      47.119  36.608  26.921  1.00  0.00     0.024 A 
ATOM     23  C   UNL A   1      47.560  39.372  26.917  1.00  0.00     0.030 A 
ATOM     24  C   UNL A   1      46.190  37.460  27.530  1.00  0.00     0.030 A 
BRANCH  20  25
ATOM     25  S   UNL A   1      49.340  36.086  25.391  1.00  0.00     0.238 S 
ATOM     26  O   UNL A   1      50.151  35.312  26.312  1.00  0.00    -0.207 OA
ATOM     27  O   UNL A   1      49.906  36.832  24.302  1.00  0.00    -0.207 OA
BRANCH  25  28
ATOM     28  N   UNL A   1      48.284  34.981  24.707  1.00  0.00    -0.225 NA
ATOM     29  H   UNL A   1      47.558  35.480  24.193  1.00  0.00     0.137 HD
ATOM     30  H   UNL A   1      47.855  34.421  25.443  1.00  0.00     0.137 HD
ENDBRANCH  25  28
ENDBRANCH  20  25
ENDBRANCH  15  19
BRANCH  17  31
ATOM     31  C   UNL A   1      46.027  39.826  30.436  1.00  0.00     0.000 A 
ATOM     32  C   UNL A   1      45.699  38.915  31.452  1.00  0.00     0.010 A 
ATOM     33  C   UNL A   1      47.236  40.523  30.512  1.00  0.00     0.010 A 
ATOM     34  C   UNL A   1      46.553  38.721  32.536  1.00  0.00     0.001 A 
ATOM     35  C   UNL A   1      48.095  40.321  31.596  1.00  0.00     0.001 A 
ATOM     36  C   UNL A   1      47.752  39.423  32.607  1.00  0.00     0.000 A 
ENDBRANCH  17  31
ENDBRANCH   9  14
ENDBRANCH   7   8
ENDBRANCH   6   7
ENDBRANCH   5   6
ENDBRANCH   4   5
ENDBRANCH   3   4
ENDBRANCH   2   3
ENDBRANCH   1   2
BRANCH   1  37
ATOM     37  C   UNL A   1      41.413  34.142  32.762  1.00  0.00     0.001 C 
BRANCH  37  38
ATOM     38  C   UNL A   1      40.621  33.020  32.099  1.00  0.00     0.010 C 
BRANCH  38  39
ATOM     39  C   UNL A   1      39.497  32.382  32.910  1.00  0.00     0.100 C 
BRANCH  39  40
ATOM     40  C   UNL A   1      39.133  33.099  34.194  1.00  0.00     0.219 C 
ATOM     41  O   UNL A   1      39.713  32.823  35.247  1.00  0.00    -0.275 OA
ATOM     42  N   UNL A   1      38.195  34.086  34.226  1.00  0.00    -0.356 N 
ATOM     43  H   UNL A   1      38.087  34.517  35.104  1.00  0.00     0.163 HD
BRANCH  42  44
ATOM     44  C   UNL A   1      37.328  34.612  33.188  1.00  0.00     0.116 C 
BRANCH  44  45
ATOM     45  C   UNL A   1      35.936  33.957  33.218  1.00  0.00     0.023 C 
BRANCH  45  46
ATOM     46  C   UNL A   1      35.167  33.897  31.895  1.00  0.00     0.023 C 
BRANCH  46  47
ATOM     47  C   UNL A   1      34.718  32.503  31.499  1.00  0.00     0.116 C 
BRANCH  47  48
ATOM     48  N   UNL A   1      34.390  32.359  30.072  1.00  0.00    -0.352 N 
ATOM     49  C   UNL A   1      35.248  31.948  29.057  1.00  0.00     0.251 C 
ATOM     50  H   UNL A   1      33.467  32.576  29.807  1.00  0.00     0.163 HD
ATOM     51  O   UNL A   1      35.042  32.196  27.878  1.00  0.00    -0.269 OA
BRANCH  49  52
ATOM     52  C   UNL A   1      36.399  31.129  29.462  1.00  0.00     0.039 A 
ATOM     53  C   UNL A   1      36.378  29.734  29.575  1.00  0.00     0.014 A 
ATOM     54  C   UNL A   1      37.577  31.851  29.585  1.00  0.00     0.014 A 
ATOM     55  C   UNL A   1      37.590  29.072  29.767  1.00  0.00     0.010 A 
ATOM     56  C   UNL A   1      38.749  31.185  29.440  1.00  0.00     0.010 A 
ATOM     57  C   UNL A   1      38.769  29.823  29.696  1.00  0.00    -0.014 A 
BRANCH  57  58
ATOM     58  C   UNL A   1      40.109  29.280  29.817  1.00  0.00     0.031 A 
ATOM     59  C   UNL A   1      40.586  29.147  31.215  1.00  0.00     0.074 A 
ATOM     60  C   UNL A   1      40.653  28.630  28.760  1.00  0.00     0.049 A 
ATOM     61  N   UNL A   1      41.553  29.791  31.778  1.00  0.00    -0.248 NA
ATOM     62  C   UNL A   1      39.790  28.339  32.156  1.00  0.00     0.031 C 
ATOM     63  C   UNL A   1      40.076  28.411  27.422  1.00  0.00     0.029 A 
ATOM     64  N   UNL A   1      41.798  27.900  28.703  1.00  0.00    -0.354 N 
ATOM     65  C   UNL A   1      41.634  29.295  33.077  1.00  0.00     0.074 A 
ATOM     66  C   UNL A   1      40.388  28.620  33.315  1.00  0.00     0.031 C 
ATOM     67  C   UNL A   1      40.751  27.430  26.784  1.00  0.00     0.029 A 
ATOM     68  C   UNL A   1      41.896  27.061  27.589  1.00  0.00     0.049 A 
ATOM     69  H   UNL A   1      42.500  27.957  29.390  1.00  0.00     0.167 HD
ATOM     70  C   UNL A   1      42.835  29.227  33.720  1.00  0.00     0.037 A 
ATOM     71  C   UNL A   1      42.845  26.108  27.404  1.00  0.00     0.037 A 
ATOM     72  C   UNL A   1      43.820  30.013  33.010  1.00  0.00     0.049 A 
ATOM     73  C   UNL A   1      43.965  26.442  28.330  1.00  0.00     0.074 A 
ATOM     74  C   UNL A   1      43.920  31.345  32.653  1.00  0.00     0.029 A 
ATOM     75  N   UNL A   1      44.693  29.340  32.186  1.00  0.00    -0.354 N 
ATOM     76  N   UNL A   1      44.695  27.520  28.202  1.00  0.00    -0.248 NA
ATOM     77  C   UNL A   1      43.902  25.885  29.675  1.00  0.00     0.031 C 
ATOM     78  C   UNL A   1      44.437  31.327  31.324  1.00  0.00     0.029 A 
ATOM     79  C   UNL A   1      44.733  30.005  30.989  1.00  0.00     0.049 A 
ATOM     80  H   UNL A   1      45.199  28.527  32.416  1.00  0.00     0.167 HD
ATOM     81  C   UNL A   1      44.824  28.015  29.494  1.00  0.00     0.074 A 
ATOM     82  C   UNL A   1      44.353  26.938  30.365  1.00  0.00     0.031 C 
ATOM     83  C   UNL A   1      44.990  29.352  29.726  1.00  0.00     0.037 A 
BRANCH  70  84
ATOM     84  C   UNL A   1      43.251  28.150  34.704  1.00  0.00     0.064 A 
ATOM     85  C   UNL A   1      43.655  28.553  35.996  1.00  0.00     0.173 A 
ATOM     86  C   UNL A   1      43.573  26.818  34.367  1.00  0.00     0.173 A 
ATOM     87  F   UNL A   1      43.377  29.785  36.448  1.00  0.00    -0.203 F 
ATOM     88  C   UNL A   1      44.445  27.743  36.814  1.00  0.00     0.198 A 
ATOM     89  C   UNL A   1      44.321  25.995  35.208  1.00  0.00     0.198 A 
ATOM     90  F   UNL A   1      43.275  26.275  33.184  1.00  0.00    -0.203 F 
ATOM     91  F   UNL A   1      44.930  28.232  37.963  1.00  0.00    -0.200 F 
ATOM     92  C   UNL A   1      44.795  26.470  36.410  1.00  0.00     0.200 A 
ATOM     93  F   UNL A   1      44.648  24.761  34.795  1.00  0.00    -0.200 F 
ATOM     94  F   UNL A   1      45.618  25.719  37.152  1.00  0.00    -0.200 F 
ENDBRANCH  70  84
BRANCH  71  95
ATOM     95  C   UNL A   1      42.705  24.784  26.743  1.00  0.00     0.064 A 
ATOM     96  C   UNL A   1      43.342  24.495  25.524  1.00  0.00     0.173 A 
ATOM     97  C   UNL A   1      42.156  23.682  27.431  1.00  0.00     0.173 A 
ATOM     98  F   UNL A   1      43.935  25.475  24.826  1.00  0.00    -0.203 F 
ATOM     99  C   UNL A   1      43.434  23.186  25.032  1.00  0.00     0.198 A 
ATOM    100  C   UNL A   1      42.245  22.379  26.938  1.00  0.00     0.198 A 
ATOM    101  F   UNL A   1      41.599  23.837  28.640  1.00  0.00    -0.203 F 
ATOM    102  F   UNL A   1      44.093  22.943  23.889  1.00  0.00    -0.200 F 
ATOM    103  C   UNL A   1      42.893  22.128  25.744  1.00  0.00     0.200 A 
ATOM    104  F   UNL A   1      41.750  21.362  27.658  1.00  0.00    -0.200 F 
ATOM    105  F   UNL A   1      43.030  20.869  25.304  1.00  0.00    -0.200 F 
ENDBRANCH  71  95
BRANCH  83 106
ATOM    106  C   UNL A   1      45.240  30.260  28.553  1.00  0.00     0.064 A 
ATOM    107  C   UNL A   1      44.226  30.874  27.798  1.00  0.00     0.173 A 
ATOM    108  C   UNL A   1      46.555  30.683  28.322  1.00  0.00     0.173 A 
ATOM    109  F   UNL A   1      42.937  30.599  28.024  1.00  0.00    -0.203 F 
ATOM    110  C   UNL A   1      44.517  31.847  26.842  1.00  0.00     0.198 A 
ATOM    111  C   UNL A   1      46.841  31.678  27.392  1.00  0.00     0.198 A 
ATOM    112  F   UNL A   1      47.559  30.176  29.053  1.00  0.00    -0.203 F 
ATOM    113  F   UNL A   1      43.526  32.420  26.143  1.00  0.00    -0.200 F 
ATOM    114  C   UNL A   1      45.825  32.255  26.648  1.00  0.00     0.200 A 
ATOM    115  F   UNL A   1      48.102  32.108  27.248  1.00  0.00    -0.200 F 
ATOM    116  F   UNL A   1      46.103  33.226  25.768  1.00  0.00    -0.200 F 
ENDBRANCH  83 106
ENDBRANCH  57  58
ENDBRANCH  49  52
ENDBRANCH  47  48
ENDBRANCH  46  47
ENDBRANCH  45  46
ENDBRANCH  44  45
ENDBRANCH  42  44
ENDBRANCH  39  40
ENDBRANCH  38  39
ENDBRANCH  37  38
ENDBRANCH   1  37
TORSDOF 26
ENDMDL
MODEL 2
REMARK VINA RESULT:      -8.7      4.214     11.187
REMARK SMILES NS(=O)(=O)c1ccc(-n2nc(NC(=O)NCCCCCCCCCCC(=O)NCCCCNC(=O)c3ccc(-c4c5nc(c(-c6c(F)c(F)c(F)c(F)c6F)c6ccc([nH]6)c(-c6c(F)c(F)c(F)c(F)c6F)c6nc(c(-c7c(F)c(F)c(F)c(F)c7F)c7ccc4[nH]7)C=C6)C=C5)cc3)cc2-c2ccccc2)cc1
REMARK SMILES IDX 22 1 21 2 20 3 19 4 18 5 17 6 16 7 15 8 12 9 13 10 14 12
REMARK SMILES IDX 11 14 9 15 10 16 100 17 99 18 8 19 5 20 6 21 108 22 7 23
REMARK SMILES IDX 107 24 2 25 3 26 4 27 1 28 101 31 102 32 106 33 103 34
REMARK SMILES IDX 105 35 104 36 23 37 24 38 25 39 26 40 27 41 28 42 29 44
REMARK SMILES IDX 30 45 31 46 32 47 33 48 34 49 35 51 36 52 37 53 98 54 38 55
REMARK SMILES IDX 97 56 39 57 40 58 41 59 91 60 42 61 96 62 90 63 92 64 43 65
REMARK SMILES IDX 95 66 89 67 88 68 44 70 76 71 56 72 75 73 57 74 60 75 74 76
REMARK SMILES IDX 93 77 58 78 59 79 73 81 94 82 61 83 45 84 46 85 54 86 47 87
REMARK SMILES IDX 48 88 52 89 55 90 49 91 50 92 53 93 51 94 77 95 78 96 86 97
REMARK SMILES IDX 79 98 80 99 84 100 87 101 81 102 82 103 85 104 83 105 62 106
REMARK SMILES IDX 63 107 71 108 64 109 65 110 69 111 72 112 66 113 67 114
REMARK SMILES IDX 70 115 68 116
REMARK H PARENT 12 11 15 13 1 29 1 30 28 43 33 50 92 69 60 80
REMARK Flexibility Score: inf
ROOT
ATOM      1  C   UNL A   1      42.514  28.910  29.138  1.00  0.00     0.000 C 
ENDROOT
BRANCH   1   2
ATOM      2  C   UNL A   1      42.967  29.564  30.429  1.00  0.00     0.000 C 
BRANCH   2   3
ATOM      3  C   UNL A   1      44.480  29.551  30.620  1.00  0.00     0.000 C 
BRANCH   3   4
ATOM      4  C   UNL A   1      45.157  28.174  30.623  1.00  0.00     0.000 C 
BRANCH   4   5
ATOM      5  C   UNL A   1      46.217  27.948  31.707  1.00  0.00     0.002 C 
BRANCH   5   6
ATOM      6  C   UNL A   1      47.657  27.823  31.218  1.00  0.00     0.021 C 
BRANCH   6   7
ATOM      7  C   UNL A   1      47.833  27.646  29.719  1.00  0.00     0.117 C 
BRANCH   7   8
ATOM      8  N   UNL A   1      48.539  28.695  29.030  1.00  0.00    -0.338 N 
ATOM      9  N   UNL A   1      48.243  27.978  26.780  1.00  0.00    -0.291 N 
ATOM     10  C   UNL A   1      48.741  28.840  27.699  1.00  0.00     0.320 C 
ATOM     11  H   UNL A   1      48.736  27.964  25.928  1.00  0.00     0.173 HD
ATOM     12  O   UNL A   1      49.520  29.723  27.325  1.00  0.00    -0.248 OA
ATOM     13  H   UNL A   1      48.926  29.398  29.601  1.00  0.00     0.165 HD
BRANCH   9  14
ATOM     14  C   UNL A   1      47.167  27.120  26.826  1.00  0.00     0.157 A 
ATOM     15  N   UNL A   1      45.979  25.388  26.510  1.00  0.00    -0.231 N 
ATOM     16  N   UNL A   1      47.230  25.786  26.832  1.00  0.00    -0.149 NA
ATOM     17  C   UNL A   1      45.057  26.407  26.721  1.00  0.00     0.076 A 
ATOM     18  C   UNL A   1      45.823  27.546  26.901  1.00  0.00     0.078 A 
BRANCH  15  19
ATOM     19  C   UNL A   1      45.760  24.095  25.957  1.00  0.00     0.065 A 
ATOM     20  C   UNL A   1      45.479  21.508  24.953  1.00  0.00     0.082 A 
ATOM     21  C   UNL A   1      44.883  21.843  26.171  1.00  0.00     0.024 A 
ATOM     22  C   UNL A   1      46.164  22.473  24.205  1.00  0.00     0.024 A 
ATOM     23  C   UNL A   1      45.030  23.135  26.677  1.00  0.00     0.030 A 
ATOM     24  C   UNL A   1      46.282  23.779  24.696  1.00  0.00     0.030 A 
BRANCH  20  25
ATOM     25  S   UNL A   1      45.488  19.820  24.420  1.00  0.00     0.238 S 
ATOM     26  O   UNL A   1      46.860  19.359  24.324  1.00  0.00    -0.207 OA
ATOM     27  O   UNL A   1      44.543  19.663  23.349  1.00  0.00    -0.207 OA
BRANCH  25  28
ATOM     28  N   UNL A   1      44.847  19.008  25.736  1.00  0.00    -0.225 NA
ATOM     29  H   UNL A   1      45.503  19.057  26.517  1.00  0.00     0.137 HD
ATOM     30  H   UNL A   1      44.687  18.032  25.489  1.00  0.00     0.137 HD
ENDBRANCH  25  28
ENDBRANCH  20  25
ENDBRANCH  15  19
BRANCH  17  31
ATOM     31  C   UNL A   1      43.609  26.221  26.781  1.00  0.00     0.000 A 
ATOM     32  C   UNL A   1      43.021  25.703  27.945  1.00  0.00     0.010 A 
ATOM     33  C   UNL A   1      42.792  26.551  25.695  1.00  0.00     0.010 A 
ATOM     34  C   UNL A   1      41.645  25.498  28.017  1.00  0.00     0.001 A 
ATOM     35  C   UNL A   1      41.411  26.352  25.772  1.00  0.00     0.001 A 
ATOM     36  C   UNL A   1      40.839  25.824  26.930  1.00  0.00     0.000 A 
ENDBRANCH  17  31
ENDBRANCH   9  14
ENDBRANCH   7   8
ENDBRANCH   6   7
ENDBRANCH   5   6
ENDBRANCH   4   5
ENDBRANCH   3   4
ENDBRANCH   2   3
ENDBRANCH   1   2
BRANCH   1  37
ATOM     37  C   UNL A   1      42.341  29.911  27.993  1.00  0.00     0.001 C 
BRANCH  37  38
ATOM     38  C   UNL A   1      43.516  29.996  27.025  1.00  0.00     0.010 C 
BRANCH  38  39
ATOM     39  C   UNL A   1      44.656  30.945  27.387  1.00  0.00     0.100 C 
BRANCH  39  40
ATOM     40  C   UNL A   1      45.393  31.553  26.211  1.00  0.00     0.219 C 
ATOM     41  O   UNL A   1      46.398  31.004  25.756  1.00  0.00    -0.275 OA
ATOM     42  N   UNL A   1      44.958  32.690  25.600  1.00  0.00    -0.356 N 
ATOM     43  H   UNL A   1      45.485  32.957  24.813  1.00  0.00     0.163 HD
BRANCH  42  44
ATOM     44  C   UNL A   1      43.850  33.576  25.910  1.00  0.00     0.116 C 
BRANCH  44  45
ATOM     45  C   UNL A   1      44.248  35.057  25.779  1.00  0.00     0.023 C 
BRANCH  45  46
ATOM     46  C   UNL A   1      45.441  35.532  26.612  1.00  0.00     0.023 C 
BRANCH  46  47
ATOM     47  C   UNL A   1      45.166  36.768  27.447  1.00  0.00     0.116 C 
BRANCH  47  48
ATOM     48  N   UNL A   1      46.138  36.993  28.528  1.00  0.00    -0.352 N 
ATOM     49  C   UNL A   1      45.971  36.689  29.876  1.00  0.00     0.251 C 
ATOM     50  H   UNL A   1      46.996  37.402  28.272  1.00  0.00     0.163 HD
ATOM     51  O   UNL A   1      46.631  37.218  30.758  1.00  0.00    -0.269 OA
BRANCH  49  52
ATOM     52  C   UNL A   1      44.999  35.634  30.194  1.00  0.00     0.039 A 
ATOM     53  C   UNL A   1      45.214  34.268  29.981  1.00  0.00     0.014 A 
ATOM     54  C   UNL A   1      43.883  36.097  30.876  1.00  0.00     0.014 A 
ATOM     55  C   UNL A   1      44.295  33.366  30.518  1.00  0.00     0.010 A 
ATOM     56  C   UNL A   1      43.203  35.219  31.653  1.00  0.00     0.010 A 
ATOM     57  C   UNL A   1      43.292  33.868  31.355  1.00  0.00    -0.014 A 
BRANCH  57  58
ATOM     58  C   UNL A   1      42.297  33.061  32.036  1.00  0.00     0.031 A 
ATOM     59  C   UNL A   1      40.982  33.015  31.351  1.00  0.00     0.074 A 
ATOM     60  C   UNL A   1      42.701  32.170  32.973  1.00  0.00     0.049 A 
ATOM     61  N   UNL A   1      39.861  33.497  31.773  1.00  0.00    -0.248 NA
ATOM     62  C   UNL A   1      40.930  32.540  29.957  1.00  0.00     0.031 C 
ATOM     63  C   UNL A   1      44.067  31.906  33.459  1.00  0.00     0.029 A 
ATOM     64  N   UNL A   1      41.980  31.202  33.599  1.00  0.00    -0.354 N 
ATOM     65  C   UNL A   1      38.919  33.175  30.799  1.00  0.00     0.074 A 
ATOM     66  C   UNL A   1      39.672  32.834  29.625  1.00  0.00     0.031 C 
ATOM     67  C   UNL A   1      44.104  30.723  34.109  1.00  0.00     0.029 A 
ATOM     68  C   UNL A   1      42.751  30.220  34.227  1.00  0.00     0.049 A 
ATOM     69  H   UNL A   1      40.996  31.193  33.607  1.00  0.00     0.167 HD
ATOM     70  C   UNL A   1      37.622  32.930  31.144  1.00  0.00     0.037 A 
ATOM     71  C   UNL A   1      42.274  29.063  34.753  1.00  0.00     0.037 A 
ATOM     72  C   UNL A   1      37.378  33.372  32.498  1.00  0.00     0.049 A 
ATOM     73  C   UNL A   1      40.809  29.261  34.948  1.00  0.00     0.074 A 
ATOM     74  C   UNL A   1      37.474  34.588  33.150  1.00  0.00     0.029 A 
ATOM     75  N   UNL A   1      37.387  32.417  33.489  1.00  0.00    -0.354 N 
ATOM     76  N   UNL A   1      40.316  30.122  35.800  1.00  0.00    -0.248 NA
ATOM     77  C   UNL A   1      39.939  28.919  33.830  1.00  0.00     0.031 C 
ATOM     78  C   UNL A   1      38.048  34.276  34.418  1.00  0.00     0.029 A 
ATOM     79  C   UNL A   1      38.162  32.888  34.516  1.00  0.00     0.049 A 
ATOM     80  H   UNL A   1      36.920  31.550  33.465  1.00  0.00     0.167 HD
ATOM     81  C   UNL A   1      39.281  30.745  35.115  1.00  0.00     0.074 A 
ATOM     82  C   UNL A   1      39.067  29.928  33.920  1.00  0.00     0.031 C 
ATOM     83  C   UNL A   1      38.914  32.030  35.402  1.00  0.00     0.037 A 
BRANCH  70  84
ATOM     84  C   UNL A   1      36.703  31.929  30.467  1.00  0.00     0.064 A 
ATOM     85  C   UNL A   1      37.213  30.640  30.195  1.00  0.00     0.173 A 
ATOM     86  C   UNL A   1      35.500  32.247  29.803  1.00  0.00     0.173 A 
ATOM     87  F   UNL A   1      38.333  30.206  30.792  1.00  0.00    -0.203 F 
ATOM     88  C   UNL A   1      36.648  29.807  29.226  1.00  0.00     0.198 A 
ATOM     89  C   UNL A   1      34.912  31.391  28.872  1.00  0.00     0.198 A 
ATOM     90  F   UNL A   1      34.883  33.424  29.937  1.00  0.00    -0.203 F 
ATOM     91  F   UNL A   1      37.261  28.662  28.898  1.00  0.00    -0.200 F 
ATOM     92  C   UNL A   1      35.508  30.192  28.551  1.00  0.00     0.200 A 
ATOM     93  F   UNL A   1      33.803  31.786  28.227  1.00  0.00    -0.200 F 
ATOM     94  F   UNL A   1      35.009  29.436  27.565  1.00  0.00    -0.200 F 
ENDBRANCH  70  84
BRANCH  71  95
ATOM     95  C   UNL A   1      42.924  27.727  34.785  1.00  0.00     0.064 A 
ATOM     96  C   UNL A   1      43.125  26.975  33.615  1.00  0.00     0.173 A 
ATOM     97  C   UNL A   1      43.602  27.275  35.935  1.00  0.00     0.173 A 
ATOM     98  F   UNL A   1      42.558  27.359  32.462  1.00  0.00    -0.203 F 
ATOM     99  C   UNL A   1      43.962  25.850  33.595  1.00  0.00     0.198 A 
ATOM    100  C   UNL A   1      44.433  26.153  35.916  1.00  0.00     0.198 A 
ATOM    101  F   UNL A   1      43.543  27.967  37.082  1.00  0.00    -0.203 F 
ATOM    102  F   UNL A   1      44.168  25.187  32.449  1.00  0.00    -0.200 F 
ATOM    103  C   UNL A   1      44.621  25.446  34.745  1.00  0.00     0.200 A 
ATOM    104  F   UNL A   1      45.094  25.797  37.027  1.00  0.00    -0.200 F 
ATOM    105  F   UNL A   1      45.466  24.405  34.714  1.00  0.00    -0.200 F 
ENDBRANCH  71  95
BRANCH  83 106
ATOM    106  C   UNL A   1      39.507  32.693  36.615  1.00  0.00     0.064 A 
ATOM    107  C   UNL A   1      40.648  33.514  36.589  1.00  0.00     0.173 A 
ATOM    108  C   UNL A   1      38.771  32.660  37.805  1.00  0.00     0.173 A 
ATOM    109  F   UNL A   1      41.352  33.679  35.464  1.00  0.00    -0.203 F 
ATOM    110  C   UNL A   1      41.043  34.247  37.708  1.00  0.00     0.198 A 
ATOM    111  C   UNL A   1      39.146  33.418  38.910  1.00  0.00     0.198 A 
ATOM    112  F   UNL A   1      37.639  31.941  37.872  1.00  0.00    -0.203 F 
ATOM    113  F   UNL A   1      42.133  35.028  37.649  1.00  0.00    -0.200 F 
ATOM    114  C   UNL A   1      40.285  34.205  38.865  1.00  0.00     0.200 A 
ATOM    115  F   UNL A   1      38.378  33.416  40.008  1.00  0.00    -0.200 F 
ATOM    116  F   UNL A   1      40.633  34.948  39.924  1.00  0.00    -0.200 F 
ENDBRANCH  83 106
ENDBRANCH  57  58
ENDBRANCH  49  52
ENDBRANCH  47  48
ENDBRANCH  46  47
ENDBRANCH  45  46
ENDBRANCH  44  45
ENDBRANCH  42  44
ENDBRANCH  39  40
ENDBRANCH  38  39
ENDBRANCH  37  38
ENDBRANCH   1  37
TORSDOF 26
ENDMDL
MODEL 3
REMARK VINA RESULT:      -8.6      6.159     13.660
REMARK SMILES NS(=O)(=O)c1ccc(-n2nc(NC(=O)NCCCCCCCCCCC(=O)NCCCCNC(=O)c3ccc(-c4c5nc(c(-c6c(F)c(F)c(F)c(F)c6F)c6ccc([nH]6)c(-c6c(F)c(F)c(F)c(F)c6F)c6nc(c(-c7c(F)c(F)c(F)c(F)c7F)c7ccc4[nH]7)C=C6)C=C5)cc3)cc2-c2ccccc2)cc1
REMARK SMILES IDX 22 1 21 2 20 3 19 4 18 5 17 6 16 7 15 8 12 9 13 10 14 12
REMARK SMILES IDX 11 14 9 15 10 16 100 17 99 18 8 19 5 20 6 21 108 22 7 23
REMARK SMILES IDX 107 24 2 25 3 26 4 27 1 28 101 31 102 32 106 33 103 34
REMARK SMILES IDX 105 35 104 36 23 37 24 38 25 39 26 40 27 41 28 42 29 44
REMARK SMILES IDX 30 45 31 46 32 47 33 48 34 49 35 51 36 52 37 53 98 54 38 55
REMARK SMILES IDX 97 56 39 57 40 58 41 59 91 60 42 61 96 62 90 63 92 64 43 65
REMARK SMILES IDX 95 66 89 67 88 68 44 70 76 71 56 72 75 73 57 74 60 75 74 76
REMARK SMILES IDX 93 77 58 78 59 79 73 81 94 82 61 83 45 84 46 85 54 86 47 87
REMARK SMILES IDX 48 88 52 89 55 90 49 91 50 92 53 93 51 94 77 95 78 96 86 97
REMARK SMILES IDX 79 98 80 99 84 100 87 101 81 102 82 103 85 104 83 105 62 106
REMARK SMILES IDX 63 107 71 108 64 109 65 110 69 111 72 112 66 113 67 114
REMARK SMILES IDX 70 115 68 116
REMARK H PARENT 12 11 15 13 1 29 1 30 28 43 33 50 92 69 60 80
REMARK Flexibility Score: inf
ROOT
ATOM      1  C   UNL A   1      37.702  29.442  27.581  1.00  0.00     0.000 C 
ENDROOT
BRANCH   1   2
ATOM      2  C   UNL A   1      36.296  29.813  28.012  1.00  0.00     0.000 C 
BRANCH   2   3
ATOM      3  C   UNL A   1      35.211  28.985  27.330  1.00  0.00     0.000 C 
BRANCH   3   4
ATOM      4  C   UNL A   1      33.928  29.730  26.940  1.00  0.00     0.000 C 
BRANCH   4   5
ATOM      5  C   UNL A   1      32.611  29.056  27.340  1.00  0.00     0.002 C 
BRANCH   5   6
ATOM      6  C   UNL A   1      32.458  27.592  26.933  1.00  0.00     0.021 C 
BRANCH   6   7
ATOM      7  C   UNL A   1      32.190  27.341  25.459  1.00  0.00     0.117 C 
BRANCH   7   8
ATOM      8  N   UNL A   1      30.900  27.747  24.965  1.00  0.00    -0.338 N 
ATOM      9  N   UNL A   1      30.858  26.558  22.904  1.00  0.00    -0.291 N 
ATOM     10  C   UNL A   1      30.299  27.407  23.801  1.00  0.00     0.320 C 
ATOM     11  H   UNL A   1      30.533  26.671  21.982  1.00  0.00     0.173 HD
ATOM     12  O   UNL A   1      29.261  27.999  23.490  1.00  0.00    -0.248 OA
ATOM     13  H   UNL A   1      30.387  28.350  25.552  1.00  0.00     0.165 HD
BRANCH   9  14
ATOM     14  C   UNL A   1      31.798  25.563  23.056  1.00  0.00     0.157 A 
ATOM     15  N   UNL A   1      32.634  23.632  23.348  1.00  0.00    -0.231 N 
ATOM     16  N   UNL A   1      31.654  24.288  22.686  1.00  0.00    -0.149 NA
ATOM     17  C   UNL A   1      33.626  24.507  23.774  1.00  0.00     0.076 A 
ATOM     18  C   UNL A   1      33.080  25.769  23.612  1.00  0.00     0.078 A 
BRANCH  15  19
ATOM     19  C   UNL A   1      32.520  22.234  23.592  1.00  0.00     0.065 A 
ATOM     20  C   UNL A   1      32.472  19.486  24.059  1.00  0.00     0.082 A 
ATOM     21  C   UNL A   1      32.548  20.367  25.140  1.00  0.00     0.024 A 
ATOM     22  C   UNL A   1      32.359  19.970  22.751  1.00  0.00     0.024 A 
ATOM     23  C   UNL A   1      32.580  21.742  24.906  1.00  0.00     0.030 A 
ATOM     24  C   UNL A   1      32.356  21.350  22.518  1.00  0.00     0.030 A 
BRANCH  20  25
ATOM     25  S   UNL A   1      32.660  17.747  24.335  1.00  0.00     0.238 S 
ATOM     26  O   UNL A   1      32.746  17.069  23.055  1.00  0.00    -0.207 OA
ATOM     27  O   UNL A   1      31.748  17.336  25.367  1.00  0.00    -0.207 OA
BRANCH  25  28
ATOM     28  N   UNL A   1      34.195  17.635  24.991  1.00  0.00    -0.225 NA
ATOM     29  H   UNL A   1      34.192  18.030  25.932  1.00  0.00     0.137 HD
ATOM     30  H   UNL A   1      34.853  18.152  24.408  1.00  0.00     0.137 HD
ENDBRANCH  25  28
ENDBRANCH  20  25
ENDBRANCH  15  19
BRANCH  17  31
ATOM     31  C   UNL A   1      34.955  24.103  24.227  1.00  0.00     0.000 A 
ATOM     32  C   UNL A   1      35.385  24.443  25.518  1.00  0.00     0.010 A 
ATOM     33  C   UNL A   1      35.812  23.377  23.394  1.00  0.00     0.010 A 
ATOM     34  C   UNL A   1      36.656  24.087  25.963  1.00  0.00     0.001 A 
ATOM     35  C   UNL A   1      37.084  23.012  23.845  1.00  0.00     0.001 A 
ATOM     36  C   UNL A   1      37.505  23.369  25.127  1.00  0.00     0.000 A 
ENDBRANCH  17  31
ENDBRANCH   9  14
ENDBRANCH   7   8
ENDBRANCH   6   7
ENDBRANCH   5   6
ENDBRANCH   4   5
ENDBRANCH   3   4
ENDBRANCH   2   3
ENDBRANCH   1   2
BRANCH   1  37
ATOM     37  C   UNL A   1      38.317  28.339  28.446  1.00  0.00     0.001 C 
BRANCH  37  38
ATOM     38  C   UNL A   1      39.645  27.786  27.941  1.00  0.00     0.010 C 
BRANCH  38  39
ATOM     39  C   UNL A   1      40.035  26.380  28.391  1.00  0.00     0.100 C 
BRANCH  39  40
ATOM     40  C   UNL A   1      40.513  25.455  27.291  1.00  0.00     0.219 C 
ATOM     41  O   UNL A   1      40.137  25.624  26.129  1.00  0.00    -0.275 OA
ATOM     42  N   UNL A   1      41.391  24.442  27.534  1.00  0.00    -0.356 N 
ATOM     43  H   UNL A   1      41.672  23.946  26.731  1.00  0.00     0.163 HD
BRANCH  42  44
ATOM     44  C   UNL A   1      41.983  23.969  28.771  1.00  0.00     0.116 C 
BRANCH  44  45
ATOM     45  C   UNL A   1      42.906  22.759  28.539  1.00  0.00     0.023 C 
BRANCH  45  46
ATOM     46  C   UNL A   1      44.409  23.039  28.449  1.00  0.00     0.023 C 
BRANCH  46  47
ATOM     47  C   UNL A   1      44.759  24.504  28.264  1.00  0.00     0.116 C 
BRANCH  47  48
ATOM     48  N   UNL A   1      44.972  24.900  26.863  1.00  0.00    -0.352 N 
ATOM     49  C   UNL A   1      44.620  26.111  26.276  1.00  0.00     0.251 C 
ATOM     50  H   UNL A   1      45.410  24.238  26.279  1.00  0.00     0.163 HD
ATOM     51  O   UNL A   1      44.483  26.244  25.069  1.00  0.00    -0.269 OA
BRANCH  49  52
ATOM     52  C   UNL A   1      44.486  27.263  27.179  1.00  0.00     0.039 A 
ATOM     53  C   UNL A   1      45.544  27.837  27.894  1.00  0.00     0.014 A 
ATOM     54  C   UNL A   1      43.226  27.842  27.154  1.00  0.00     0.014 A 
ATOM     55  C   UNL A   1      45.314  29.047  28.548  1.00  0.00     0.010 A 
ATOM     56  C   UNL A   1      43.119  29.146  27.507  1.00  0.00     0.010 A 
ATOM     57  C   UNL A   1      44.087  29.686  28.340  1.00  0.00    -0.014 A 
BRANCH  57  58
ATOM     58  C   UNL A   1      43.713  30.971  28.899  1.00  0.00     0.031 A 
ATOM     59  C   UNL A   1      44.386  32.129  28.263  1.00  0.00     0.074 A 
ATOM     60  C   UNL A   1      42.588  31.061  29.649  1.00  0.00     0.049 A 
ATOM     61  N   UNL A   1      45.243  32.932  28.801  1.00  0.00    -0.248 NA
ATOM     62  C   UNL A   1      44.237  32.319  26.809  1.00  0.00     0.031 C 
ATOM     63  C   UNL A   1      41.655  29.987  30.034  1.00  0.00     0.029 A 
ATOM     64  N   UNL A   1      41.959  32.171  30.117  1.00  0.00    -0.354 N 
ATOM     65  C   UNL A   1      45.556  33.868  27.818  1.00  0.00     0.074 A 
ATOM     66  C   UNL A   1      45.121  33.291  26.577  1.00  0.00     0.031 C 
ATOM     67  C   UNL A   1      40.490  30.520  30.461  1.00  0.00     0.029 A 
ATOM     68  C   UNL A   1      40.642  31.958  30.533  1.00  0.00     0.049 A 
ATOM     69  H   UNL A   1      42.395  33.052  30.157  1.00  0.00     0.167 HD
ATOM     70  C   UNL A   1      45.868  35.152  28.157  1.00  0.00     0.037 A 
ATOM     71  C   UNL A   1      39.754  32.932  30.862  1.00  0.00     0.037 A 
ATOM     72  C   UNL A   1      46.130  35.238  29.576  1.00  0.00     0.049 A 
ATOM     73  C   UNL A   1      40.556  34.158  31.138  1.00  0.00     0.074 A 
ATOM     74  C   UNL A   1      47.037  34.637  30.430  1.00  0.00     0.029 A 
ATOM     75  N   UNL A   1      45.119  35.712  30.380  1.00  0.00    -0.354 N 
ATOM     76  N   UNL A   1      41.384  34.253  32.146  1.00  0.00    -0.248 NA
ATOM     77  C   UNL A   1      40.845  35.031  30.007  1.00  0.00     0.031 C 
ATOM     78  C   UNL A   1      46.284  34.331  31.602  1.00  0.00     0.029 A 
ATOM     79  C   UNL A   1      45.002  34.860  31.448  1.00  0.00     0.049 A 
ATOM     80  H   UNL A   1      44.576  36.517  30.218  1.00  0.00     0.167 HD
ATOM     81  C   UNL A   1      42.517  34.860  31.618  1.00  0.00     0.074 A 
ATOM     82  C   UNL A   1      42.107  35.358  30.304  1.00  0.00     0.031 C 
ATOM     83  C   UNL A   1      43.757  34.622  32.141  1.00  0.00     0.037 A 
BRANCH  70  84
ATOM     84  C   UNL A   1      45.526  36.387  27.345  1.00  0.00     0.064 A 
ATOM     85  C   UNL A   1      46.573  37.282  27.027  1.00  0.00     0.173 A 
ATOM     86  C   UNL A   1      44.226  36.895  27.141  1.00  0.00     0.173 A 
ATOM     87  F   UNL A   1      47.855  36.906  27.146  1.00  0.00    -0.203 F 
ATOM     88  C   UNL A   1      46.333  38.614  26.684  1.00  0.00     0.198 A 
ATOM     89  C   UNL A   1      43.991  38.212  26.750  1.00  0.00     0.198 A 
ATOM     90  F   UNL A   1      43.121  36.190  27.398  1.00  0.00    -0.203 F 
ATOM     91  F   UNL A   1      47.364  39.458  26.544  1.00  0.00    -0.200 F 
ATOM     92  C   UNL A   1      45.041  39.084  26.565  1.00  0.00     0.200 A 
ATOM     93  F   UNL A   1      42.727  38.648  26.640  1.00  0.00    -0.200 F 
ATOM     94  F   UNL A   1      44.805  40.378  26.315  1.00  0.00    -0.200 F 
ENDBRANCH  70  84
BRANCH  71  95
ATOM     95  C   UNL A   1      38.286  32.957  30.633  1.00  0.00     0.064 A 
ATOM     96  C   UNL A   1      37.738  33.308  29.387  1.00  0.00     0.173 A 
ATOM     97  C   UNL A   1      37.396  32.378  31.560  1.00  0.00     0.173 A 
ATOM     98  F   UNL A   1      38.521  33.820  28.427  1.00  0.00    -0.203 F 
ATOM     99  C   UNL A   1      36.387  33.082  29.086  1.00  0.00     0.198 A 
ATOM    100  C   UNL A   1      36.050  32.156  31.260  1.00  0.00     0.198 A 
ATOM    101  F   UNL A   1      37.835  31.933  32.746  1.00  0.00    -0.203 F 
ATOM    102  F   UNL A   1      35.911  33.385  27.869  1.00  0.00    -0.200 F 
ATOM    103  C   UNL A   1      35.547  32.498  30.020  1.00  0.00     0.200 A 
ATOM    104  F   UNL A   1      35.259  31.555  32.161  1.00  0.00    -0.200 F 
ATOM    105  F   UNL A   1      34.270  32.229  29.713  1.00  0.00    -0.200 F 
ENDBRANCH  71  95
BRANCH  83 106
ATOM    106  C   UNL A   1      43.858  33.856  33.432  1.00  0.00     0.064 A 
ATOM    107  C   UNL A   1      44.056  32.467  33.513  1.00  0.00     0.173 A 
ATOM    108  C   UNL A   1      43.963  34.588  34.621  1.00  0.00     0.173 A 
ATOM    109  F   UNL A   1      44.070  31.707  32.413  1.00  0.00    -0.203 F 
ATOM    110  C   UNL A   1      44.324  31.840  34.730  1.00  0.00     0.198 A 
ATOM    111  C   UNL A   1      44.265  33.966  35.829  1.00  0.00     0.198 A 
ATOM    112  F   UNL A   1      43.842  35.924  34.597  1.00  0.00    -0.203 F 
ATOM    113  F   UNL A   1      44.518  30.513  34.775  1.00  0.00    -0.200 F 
ATOM    114  C   UNL A   1      44.438  32.593  35.886  1.00  0.00     0.200 A 
ATOM    115  F   UNL A   1      44.428  34.707  36.933  1.00  0.00    -0.200 F 
ATOM    116  F   UNL A   1      44.747  32.001  37.047  1.00  0.00    -0.200 F 
ENDBRANCH  83 106
ENDBRANCH  57  58
ENDBRANCH  49  52
ENDBRANCH  47  48
ENDBRANCH  46  47
ENDBRANCH  45  46
ENDBRANCH  44  45
ENDBRANCH  42  44
ENDBRANCH  39  40
ENDBRANCH  38  39
ENDBRANCH  37  38
ENDBRANCH   1  37
TORSDOF 26
ENDMDL
