MODEL 1
REMARK VINA RESULT:     -11.4      0.000      0.000
REMARK SMILES O=C(NCCCCNC(=O)[C@H](CCC(F)(F)F)Cc1ccccc1)c1ccc(-c2c3nc(c(-c4c(F)c(F)c(F)c(F)c4F)c4ccc([nH]4)c(-c4c(F)c(F)c(F)c(F)c4F)c4nc(c(-c5c(F)c(F)c(F)c(F)c5F)c5ccc2[nH]5)C=C4)C=C3)cc1
REMARK SMILES IDX 6 1 5 2 4 3 3 4 1 5 2 6 25 8 26 9 87 10 27 11 86 12 28 13
REMARK SMILES IDX 29 14 30 15 80 16 31 17 85 18 79 19 81 20 32 21 84 22 78 23
REMARK SMILES IDX 77 24 33 26 65 27 45 28 64 29 46 30 49 31 63 32 82 33 47 34
REMARK SMILES IDX 48 35 62 37 83 38 50 39 34 40 35 41 43 42 36 43 37 44 41 45
REMARK SMILES IDX 44 46 38 47 39 48 42 49 40 50 66 51 67 52 75 53 68 54 69 55
REMARK SMILES IDX 73 56 76 57 70 58 71 59 74 60 72 61 51 62 52 63 60 64 53 65
REMARK SMILES IDX 54 66 58 67 61 68 55 69 56 70 59 71 57 72 7 73 8 74 9 75
REMARK SMILES IDX 10 77 11 78 18 79 19 80 20 81 24 82 21 83 23 84 22 85 12 86
REMARK SMILES IDX 13 87 14 88 15 89 16 90 17 91
REMARK H PARENT 3 7 81 25 49 36 8 76
REMARK Flexibility Score: inf
ROOT
ATOM      1  C   UNL A   1      31.367  30.948  25.719  1.00  0.00     0.023 C 
ENDROOT
BRANCH   1   2
ATOM      2  C   UNL A   1      31.327  32.000  26.832  1.00  0.00     0.023 C 
BRANCH   2   3
ATOM      3  C   UNL A   1      32.629  32.758  27.065  1.00  0.00     0.116 C 
BRANCH   3   4
ATOM      4  N   UNL A   1      32.419  34.113  27.549  1.00  0.00    -0.352 N 
ATOM      5  O   UNL A   1      32.686  35.890  28.912  1.00  0.00    -0.269 OA
ATOM      6  C   UNL A   1      33.079  34.787  28.546  1.00  0.00     0.251 C 
ATOM      7  H   UNL A   1      31.703  34.618  27.099  1.00  0.00     0.163 HD
BRANCH   6   8
ATOM      8  C   UNL A   1      34.251  34.167  29.202  1.00  0.00     0.039 A 
ATOM      9  C   UNL A   1      35.549  34.501  28.809  1.00  0.00     0.014 A 
ATOM     10  C   UNL A   1      34.043  33.243  30.230  1.00  0.00     0.014 A 
ATOM     11  C   UNL A   1      36.632  33.817  29.351  1.00  0.00     0.010 A 
ATOM     12  C   UNL A   1      35.137  32.611  30.827  1.00  0.00     0.010 A 
ATOM     13  C   UNL A   1      36.439  32.874  30.373  1.00  0.00    -0.014 A 
BRANCH  13  14
ATOM     14  C   UNL A   1      37.617  32.222  30.995  1.00  0.00     0.031 A 
ATOM     15  C   UNL A   1      38.074  32.594  32.376  1.00  0.00     0.074 A 
ATOM     16  C   UNL A   1      38.266  31.267  30.300  1.00  0.00     0.049 A 
ATOM     17  N   UNL A   1      39.078  32.117  33.069  1.00  0.00    -0.248 NA
ATOM     18  C   UNL A   1      37.311  33.640  33.072  1.00  0.00     0.031 C 
ATOM     19  C   UNL A   1      37.921  30.834  28.945  1.00  0.00     0.029 A 
ATOM     20  N   UNL A   1      39.337  30.482  30.637  1.00  0.00    -0.354 N 
ATOM     21  C   UNL A   1      39.079  32.812  34.271  1.00  0.00     0.074 A 
ATOM     22  C   UNL A   1      37.989  33.764  34.207  1.00  0.00     0.031 C 
ATOM     23  C   UNL A   1      38.738  29.836  28.580  1.00  0.00     0.029 A 
ATOM     24  C   UNL A   1      39.700  29.599  29.651  1.00  0.00     0.049 A 
ATOM     25  H   UNL A   1      39.803  30.544  31.502  1.00  0.00     0.167 HD
ATOM     26  C   UNL A   1      39.909  32.663  35.331  1.00  0.00     0.037 A 
ATOM     27  C   UNL A   1      40.707  28.707  29.604  1.00  0.00     0.037 A 
ATOM     28  C   UNL A   1      40.982  31.702  35.395  1.00  0.00     0.049 A 
ATOM     29  C   UNL A   1      41.622  28.577  30.787  1.00  0.00     0.074 A 
ATOM     30  C   UNL A   1      41.852  31.448  36.440  1.00  0.00     0.029 A 
ATOM     31  N   UNL A   1      41.331  30.838  34.366  1.00  0.00    -0.354 N 
ATOM     32  N   UNL A   1      41.588  29.216  31.930  1.00  0.00    -0.248 NA
ATOM     33  C   UNL A   1      42.716  27.605  30.672  1.00  0.00     0.031 C 
ATOM     34  C   UNL A   1      42.757  30.463  36.030  1.00  0.00     0.029 A 
ATOM     35  C   UNL A   1      42.419  30.067  34.746  1.00  0.00     0.049 A 
ATOM     36  H   UNL A   1      40.874  30.781  33.497  1.00  0.00     0.167 HD
ATOM     37  C   UNL A   1      42.642  28.713  32.679  1.00  0.00     0.074 A 
ATOM     38  C   UNL A   1      43.284  27.701  31.866  1.00  0.00     0.031 C 
ATOM     39  C   UNL A   1      43.044  29.061  33.925  1.00  0.00     0.037 A 
BRANCH  26  40
ATOM     40  C   UNL A   1      39.706  33.566  36.513  1.00  0.00     0.064 A 
ATOM     41  C   UNL A   1      40.308  34.829  36.588  1.00  0.00     0.173 A 
ATOM     42  C   UNL A   1      38.844  33.187  37.555  1.00  0.00     0.173 A 
ATOM     43  F   UNL A   1      41.148  35.235  35.624  1.00  0.00    -0.203 F 
ATOM     44  C   UNL A   1      40.070  35.674  37.670  1.00  0.00     0.198 A 
ATOM     45  C   UNL A   1      38.588  34.045  38.623  1.00  0.00     0.198 A 
ATOM     46  F   UNL A   1      38.236  31.992  37.530  1.00  0.00    -0.203 F 
ATOM     47  F   UNL A   1      40.683  36.864  37.736  1.00  0.00    -0.200 F 
ATOM     48  C   UNL A   1      39.204  35.285  38.681  1.00  0.00     0.200 A 
ATOM     49  F   UNL A   1      37.741  33.672  39.592  1.00  0.00    -0.200 F 
ATOM     50  F   UNL A   1      38.967  36.105  39.715  1.00  0.00    -0.200 F 
ENDBRANCH  26  40
BRANCH  27  51
ATOM     51  C   UNL A   1      40.896  27.874  28.389  1.00  0.00     0.064 A 
ATOM     52  C   UNL A   1      40.297  26.612  28.279  1.00  0.00     0.173 A 
ATOM     53  C   UNL A   1      41.669  28.328  27.310  1.00  0.00     0.173 A 
ATOM     54  F   UNL A   1      39.565  26.127  29.293  1.00  0.00    -0.203 F 
ATOM     55  C   UNL A   1      40.476  25.830  27.140  1.00  0.00     0.198 A 
ATOM     56  C   UNL A   1      41.821  27.558  26.160  1.00  0.00     0.198 A 
ATOM     57  F   UNL A   1      42.258  29.532  27.365  1.00  0.00    -0.203 F 
ATOM     58  F   UNL A   1      39.926  24.610  27.076  1.00  0.00    -0.200 F 
ATOM     59  C   UNL A   1      41.231  26.307  26.079  1.00  0.00     0.200 A 
ATOM     60  F   UNL A   1      42.538  28.030  25.130  1.00  0.00    -0.200 F 
ATOM     61  F   UNL A   1      41.395  25.557  24.981  1.00  0.00    -0.200 F 
ENDBRANCH  27  51
BRANCH  39  62
ATOM     62  C   UNL A   1      44.218  28.321  34.494  1.00  0.00     0.064 A 
ATOM     63  C   UNL A   1      44.057  27.115  35.192  1.00  0.00     0.173 A 
ATOM     64  C   UNL A   1      45.520  28.811  34.314  1.00  0.00     0.173 A 
ATOM     65  F   UNL A   1      42.830  26.617  35.404  1.00  0.00    -0.203 F 
ATOM     66  C   UNL A   1      45.157  26.440  35.714  1.00  0.00     0.198 A 
ATOM     67  C   UNL A   1      46.620  28.118  34.813  1.00  0.00     0.198 A 
ATOM     68  F   UNL A   1      45.726  29.956  33.648  1.00  0.00    -0.203 F 
ATOM     69  F   UNL A   1      44.976  25.316  36.421  1.00  0.00    -0.200 F 
ATOM     70  C   UNL A   1      46.436  26.939  35.519  1.00  0.00     0.200 A 
ATOM     71  F   UNL A   1      47.856  28.595  34.614  1.00  0.00    -0.200 F 
ATOM     72  F   UNL A   1      47.495  26.285  36.019  1.00  0.00    -0.200 F 
ENDBRANCH  39  62
ENDBRANCH  13  14
ENDBRANCH   6   8
ENDBRANCH   3   4
ENDBRANCH   2   3
ENDBRANCH   1   2
BRANCH   1  73
ATOM     73  C   UNL A   1      32.457  29.888  25.879  1.00  0.00     0.116 C 
BRANCH  73  74
ATOM     74  N   UNL A   1      33.223  29.733  24.661  1.00  0.00    -0.356 N 
ATOM     75  C   UNL A   1      33.218  28.726  23.744  1.00  0.00     0.223 C 
ATOM     76  H   UNL A   1      33.847  30.470  24.465  1.00  0.00     0.163 HD
ATOM     77  O   UNL A   1      34.035  28.793  22.825  1.00  0.00    -0.275 OA
BRANCH  75  78
ATOM     78  C   UNL A   1      32.172  27.614  23.830  1.00  0.00     0.083 C 
BRANCH  78  79
ATOM     79  C   UNL A   1      31.355  27.692  22.519  1.00  0.00     0.049 C 
BRANCH  79  80
ATOM     80  C   UNL A   1      30.056  28.461  22.600  1.00  0.00    -0.047 A 
ATOM     81  C   UNL A   1      29.971  29.761  22.078  1.00  0.00     0.004 A 
ATOM     82  C   UNL A   1      28.913  27.902  23.190  1.00  0.00     0.004 A 
ATOM     83  C   UNL A   1      28.758  30.449  22.068  1.00  0.00     0.000 A 
ATOM     84  C   UNL A   1      27.702  28.598  23.195  1.00  0.00     0.000 A 
ATOM     85  C   UNL A   1      27.621  29.864  22.619  1.00  0.00     0.000 A 
ENDBRANCH  79  80
ENDBRANCH  78  79
BRANCH  78  86
ATOM     86  C   UNL A   1      32.916  26.280  24.094  1.00  0.00     0.023 C 
BRANCH  86  87
ATOM     87  C   UNL A   1      32.123  25.171  24.790  1.00  0.00     0.116 C 
BRANCH  87  88
ATOM     88  C   UNL A   1      31.739  25.550  26.208  1.00  0.00     0.389 C 
ATOM     89  F   UNL A   1      32.544  26.530  26.675  1.00  0.00    -0.171 F 
ATOM     90  F   UNL A   1      30.469  26.008  26.259  1.00  0.00    -0.171 F 
ATOM     91  F   UNL A   1      31.837  24.508  27.059  1.00  0.00    -0.171 F 
ENDBRANCH  87  88
ENDBRANCH  86  87
ENDBRANCH  78  86
ENDBRANCH  75  78
ENDBRANCH  73  74
ENDBRANCH   1  73
TORSDOF 16
ENDMDL
MODEL 2
REMARK VINA RESULT:     -11.3      4.400      7.582
REMARK SMILES O=C(NCCCCNC(=O)[C@H](CCC(F)(F)F)Cc1ccccc1)c1ccc(-c2c3nc(c(-c4c(F)c(F)c(F)c(F)c4F)c4ccc([nH]4)c(-c4c(F)c(F)c(F)c(F)c4F)c4nc(c(-c5c(F)c(F)c(F)c(F)c5F)c5ccc2[nH]5)C=C4)C=C3)cc1
REMARK SMILES IDX 6 1 5 2 4 3 3 4 1 5 2 6 25 8 26 9 87 10 27 11 86 12 28 13
REMARK SMILES IDX 29 14 30 15 80 16 31 17 85 18 79 19 81 20 32 21 84 22 78 23
REMARK SMILES IDX 77 24 33 26 65 27 45 28 64 29 46 30 49 31 63 32 82 33 47 34
REMARK SMILES IDX 48 35 62 37 83 38 50 39 34 40 35 41 43 42 36 43 37 44 41 45
REMARK SMILES IDX 44 46 38 47 39 48 42 49 40 50 66 51 67 52 75 53 68 54 69 55
REMARK SMILES IDX 73 56 76 57 70 58 71 59 74 60 72 61 51 62 52 63 60 64 53 65
REMARK SMILES IDX 54 66 58 67 61 68 55 69 56 70 59 71 57 72 7 73 8 74 9 75
REMARK SMILES IDX 10 77 11 78 18 79 19 80 20 81 24 82 21 83 23 84 22 85 12 86
REMARK SMILES IDX 13 87 14 88 15 89 16 90 17 91
REMARK H PARENT 3 7 81 25 49 36 8 76
REMARK Flexibility Score: inf
ROOT
ATOM      1  C   UNL A   1      36.793  33.478  28.837  1.00  0.00     0.023 C 
ENDROOT
BRANCH   1   2
ATOM      2  C   UNL A   1      35.399  33.231  28.251  1.00  0.00     0.023 C 
BRANCH   2   3
ATOM      3  C   UNL A   1      34.504  32.299  29.059  1.00  0.00     0.116 C 
BRANCH   3   4
ATOM      4  N   UNL A   1      33.958  31.208  28.267  1.00  0.00    -0.352 N 
ATOM      5  O   UNL A   1      34.002  29.340  27.004  1.00  0.00    -0.269 OA
ATOM      6  C   UNL A   1      34.594  30.102  27.762  1.00  0.00     0.251 C 
ATOM      7  H   UNL A   1      32.996  31.273  28.065  1.00  0.00     0.163 HD
BRANCH   6   8
ATOM      8  C   UNL A   1      36.008  29.844  28.110  1.00  0.00     0.039 A 
ATOM      9  C   UNL A   1      37.030  30.118  27.198  1.00  0.00     0.014 A 
ATOM     10  C   UNL A   1      36.312  29.325  29.372  1.00  0.00     0.014 A 
ATOM     11  C   UNL A   1      38.338  29.753  27.497  1.00  0.00     0.010 A 
ATOM     12  C   UNL A   1      37.638  29.028  29.699  1.00  0.00     0.010 A 
ATOM     13  C   UNL A   1      38.658  29.214  28.754  1.00  0.00    -0.014 A 
BRANCH  13  14
ATOM     14  C   UNL A   1      40.074  28.914  29.079  1.00  0.00     0.031 A 
ATOM     15  C   UNL A   1      40.900  29.860  29.903  1.00  0.00     0.074 A 
ATOM     16  C   UNL A   1      40.605  27.759  28.635  1.00  0.00     0.049 A 
ATOM     17  N   UNL A   1      42.148  29.746  30.284  1.00  0.00    -0.248 NA
ATOM     18  C   UNL A   1      40.247  31.097  30.356  1.00  0.00     0.031 C 
ATOM     19  C   UNL A   1      39.901  26.771  27.815  1.00  0.00     0.029 A 
ATOM     20  N   UNL A   1      41.849  27.213  28.818  1.00  0.00    -0.354 N 
ATOM     21  C   UNL A   1      42.436  30.898  31.004  1.00  0.00     0.074 A 
ATOM     22  C   UNL A   1      41.238  31.713  30.988  1.00  0.00     0.031 C 
ATOM     23  C   UNL A   1      40.709  25.723  27.597  1.00  0.00     0.029 A 
ATOM     24  C   UNL A   1      42.004  25.991  28.213  1.00  0.00     0.049 A 
ATOM     25  H   UNL A   1      42.563  27.654  29.334  1.00  0.00     0.167 HD
ATOM     26  C   UNL A   1      43.590  31.237  31.627  1.00  0.00     0.037 A 
ATOM     27  C   UNL A   1      43.076  25.180  28.144  1.00  0.00     0.037 A 
ATOM     28  C   UNL A   1      44.772  30.414  31.652  1.00  0.00     0.049 A 
ATOM     29  C   UNL A   1      44.347  25.592  28.828  1.00  0.00     0.074 A 
ATOM     30  C   UNL A   1      45.978  30.654  32.288  1.00  0.00     0.029 A 
ATOM     31  N   UNL A   1      44.897  29.191  31.010  1.00  0.00    -0.354 N 
ATOM     32  N   UNL A   1      44.592  26.667  29.536  1.00  0.00    -0.248 NA
ATOM     33  C   UNL A   1      45.491  24.680  28.702  1.00  0.00     0.031 C 
ATOM     34  C   UNL A   1      46.848  29.598  31.994  1.00  0.00     0.029 A 
ATOM     35  C   UNL A   1      46.169  28.676  31.216  1.00  0.00     0.049 A 
ATOM     36  H   UNL A   1      44.189  28.753  30.485  1.00  0.00     0.167 HD
ATOM     37  C   UNL A   1      45.910  26.555  29.955  1.00  0.00     0.074 A 
ATOM     38  C   UNL A   1      46.406  25.296  29.438  1.00  0.00     0.031 C 
ATOM     39  C   UNL A   1      46.644  27.419  30.696  1.00  0.00     0.037 A 
BRANCH  26  40
ATOM     40  C   UNL A   1      43.645  32.565  32.326  1.00  0.00     0.064 A 
ATOM     41  C   UNL A   1      43.862  33.759  31.624  1.00  0.00     0.173 A 
ATOM     42  C   UNL A   1      43.412  32.650  33.707  1.00  0.00     0.173 A 
ATOM     43  F   UNL A   1      44.098  33.733  30.304  1.00  0.00    -0.203 F 
ATOM     44  C   UNL A   1      43.862  34.988  32.282  1.00  0.00     0.198 A 
ATOM     45  C   UNL A   1      43.387  33.882  34.358  1.00  0.00     0.198 A 
ATOM     46  F   UNL A   1      43.193  31.538  34.426  1.00  0.00    -0.203 F 
ATOM     47  F   UNL A   1      44.104  36.113  31.595  1.00  0.00    -0.200 F 
ATOM     48  C   UNL A   1      43.616  35.048  33.645  1.00  0.00     0.200 A 
ATOM     49  F   UNL A   1      43.138  33.938  35.673  1.00  0.00    -0.200 F 
ATOM     50  F   UNL A   1      43.604  36.233  34.274  1.00  0.00    -0.200 F 
ENDBRANCH  26  40
BRANCH  27  51
ATOM     51  C   UNL A   1      42.984  23.900  27.396  1.00  0.00     0.064 A 
ATOM     52  C   UNL A   1      42.512  22.735  28.013  1.00  0.00     0.173 A 
ATOM     53  C   UNL A   1      43.355  23.821  26.045  1.00  0.00     0.173 A 
ATOM     54  F   UNL A   1      42.164  22.758  29.309  1.00  0.00    -0.203 F 
ATOM     55  C   UNL A   1      42.427  21.535  27.312  1.00  0.00     0.198 A 
ATOM     56  C   UNL A   1      43.241  22.627  25.337  1.00  0.00     0.198 A 
ATOM     57  F   UNL A   1      43.808  24.910  25.408  1.00  0.00    -0.203 F 
ATOM     58  F   UNL A   1      42.010  20.425  27.936  1.00  0.00    -0.200 F 
ATOM     59  C   UNL A   1      42.785  21.484  25.973  1.00  0.00     0.200 A 
ATOM     60  F   UNL A   1      43.572  22.588  24.039  1.00  0.00    -0.200 F 
ATOM     61  F   UNL A   1      42.695  20.330  25.297  1.00  0.00    -0.200 F 
ENDBRANCH  27  51
BRANCH  39  62
ATOM     62  C   UNL A   1      48.053  27.016  31.015  1.00  0.00     0.064 A 
ATOM     63  C   UNL A   1      49.137  27.462  30.245  1.00  0.00     0.173 A 
ATOM     64  C   UNL A   1      48.323  26.193  32.119  1.00  0.00     0.173 A 
ATOM     65  F   UNL A   1      48.927  28.235  29.169  1.00  0.00    -0.203 F 
ATOM     66  C   UNL A   1      50.439  27.079  30.554  1.00  0.00     0.198 A 
ATOM     67  C   UNL A   1      49.629  25.835  32.442  1.00  0.00     0.198 A 
ATOM     68  F   UNL A   1      47.321  25.744  32.890  1.00  0.00    -0.203 F 
ATOM     69  F   UNL A   1      51.454  27.477  29.776  1.00  0.00    -0.200 F 
ATOM     70  C   UNL A   1      50.684  26.271  31.654  1.00  0.00     0.200 A 
ATOM     71  F   UNL A   1      49.865  25.064  33.512  1.00  0.00    -0.200 F 
ATOM     72  F   UNL A   1      51.939  25.905  31.953  1.00  0.00    -0.200 F 
ENDBRANCH  39  62
ENDBRANCH  13  14
ENDBRANCH   6   8
ENDBRANCH   3   4
ENDBRANCH   2   3
ENDBRANCH   1   2
BRANCH   1  73
ATOM     73  C   UNL A   1      37.071  32.755  30.154  1.00  0.00     0.116 C 
BRANCH  73  74
ATOM     74  N   UNL A   1      37.722  33.628  31.108  1.00  0.00    -0.356 N 
ATOM     75  C   UNL A   1      37.638  33.660  32.466  1.00  0.00     0.223 C 
ATOM     76  H   UNL A   1      38.317  34.305  30.712  1.00  0.00     0.163 HD
ATOM     77  O   UNL A   1      38.235  34.566  33.049  1.00  0.00    -0.275 OA
BRANCH  75  78
ATOM     78  C   UNL A   1      36.895  32.554  33.216  1.00  0.00     0.083 C 
BRANCH  78  79
ATOM     79  C   UNL A   1      37.878  32.027  34.287  1.00  0.00     0.049 C 
BRANCH  79  80
ATOM     80  C   UNL A   1      38.640  30.774  33.919  1.00  0.00    -0.047 A 
ATOM     81  C   UNL A   1      38.018  29.765  33.169  1.00  0.00     0.004 A 
ATOM     82  C   UNL A   1      39.974  30.590  34.311  1.00  0.00     0.004 A 
ATOM     83  C   UNL A   1      38.734  28.644  32.749  1.00  0.00     0.000 A 
ATOM     84  C   UNL A   1      40.685  29.459  33.904  1.00  0.00     0.000 A 
ATOM     85  C   UNL A   1      40.070  28.494  33.109  1.00  0.00     0.000 A 
ENDBRANCH  79  80
ENDBRANCH  78  79
BRANCH  78  86
ATOM     86  C   UNL A   1      35.564  33.147  33.743  1.00  0.00     0.023 C 
BRANCH  86  87
ATOM     87  C   UNL A   1      34.429  33.312  32.729  1.00  0.00     0.116 C 
BRANCH  87  88
ATOM     88  C   UNL A   1      34.196  34.768  32.368  1.00  0.00     0.389 C 
ATOM     89  F   UNL A   1      34.397  34.971  31.048  1.00  0.00    -0.171 F 
ATOM     90  F   UNL A   1      32.928  35.138  32.649  1.00  0.00    -0.171 F 
ATOM     91  F   UNL A   1      35.025  35.597  33.035  1.00  0.00    -0.171 F 
ENDBRANCH  87  88
ENDBRANCH  86  87
ENDBRANCH  78  86
ENDBRANCH  75  78
ENDBRANCH  73  74
ENDBRANCH   1  73
TORSDOF 16
ENDMDL
MODEL 3
REMARK VINA RESULT:     -11.3      3.797      5.924
REMARK SMILES O=C(NCCCCNC(=O)[C@H](CCC(F)(F)F)Cc1ccccc1)c1ccc(-c2c3nc(c(-c4c(F)c(F)c(F)c(F)c4F)c4ccc([nH]4)c(-c4c(F)c(F)c(F)c(F)c4F)c4nc(c(-c5c(F)c(F)c(F)c(F)c5F)c5ccc2[nH]5)C=C4)C=C3)cc1
REMARK SMILES IDX 6 1 5 2 4 3 3 4 1 5 2 6 25 8 26 9 87 10 27 11 86 12 28 13
REMARK SMILES IDX 29 14 30 15 80 16 31 17 85 18 79 19 81 20 32 21 84 22 78 23
REMARK SMILES IDX 77 24 33 26 65 27 45 28 64 29 46 30 49 31 63 32 82 33 47 34
REMARK SMILES IDX 48 35 62 37 83 38 50 39 34 40 35 41 43 42 36 43 37 44 41 45
REMARK SMILES IDX 44 46 38 47 39 48 42 49 40 50 66 51 67 52 75 53 68 54 69 55
REMARK SMILES IDX 73 56 76 57 70 58 71 59 74 60 72 61 51 62 52 63 60 64 53 65
REMARK SMILES IDX 54 66 58 67 61 68 55 69 56 70 59 71 57 72 7 73 8 74 9 75
REMARK SMILES IDX 10 77 11 78 18 79 19 80 20 81 24 82 21 83 23 84 22 85 12 86
REMARK SMILES IDX 13 87 14 88 15 89 16 90 17 91
REMARK H PARENT 3 7 81 25 49 36 8 76
REMARK Flexibility Score: inf
ROOT
ATOM      1  C   UNL A   1      31.518  27.620  26.231  1.00  0.00     0.023 C 
ENDROOT
BRANCH   1   2
ATOM      2  C   UNL A   1      32.993  27.661  25.820  1.00  0.00     0.023 C 
BRANCH   2   3
ATOM      3  C   UNL A   1      33.959  28.144  26.895  1.00  0.00     0.116 C 
BRANCH   3   4
ATOM      4  N   UNL A   1      33.712  29.517  27.306  1.00  0.00    -0.352 N 
ATOM      5  O   UNL A   1      34.120  31.469  28.360  1.00  0.00    -0.269 OA
ATOM      6  C   UNL A   1      34.539  30.379  27.982  1.00  0.00     0.251 C 
ATOM      7  H   UNL A   1      32.828  29.878  27.065  1.00  0.00     0.163 HD
BRANCH   6   8
ATOM      8  C   UNL A   1      35.931  29.981  28.282  1.00  0.00     0.039 A 
ATOM      9  C   UNL A   1      36.266  29.430  29.520  1.00  0.00     0.014 A 
ATOM     10  C   UNL A   1      36.913  30.159  27.303  1.00  0.00     0.014 A 
ATOM     11  C   UNL A   1      37.599  29.178  29.827  1.00  0.00     0.010 A 
ATOM     12  C   UNL A   1      38.242  29.835  27.586  1.00  0.00     0.010 A 
ATOM     13  C   UNL A   1      38.600  29.368  28.860  1.00  0.00    -0.014 A 
BRANCH  13  14
ATOM     14  C   UNL A   1      40.003  29.010  29.183  1.00  0.00     0.031 A 
ATOM     15  C   UNL A   1      40.866  29.917  30.013  1.00  0.00     0.074 A 
ATOM     16  C   UNL A   1      40.488  27.837  28.733  1.00  0.00     0.049 A 
ATOM     17  N   UNL A   1      42.108  29.752  30.394  1.00  0.00    -0.248 NA
ATOM     18  C   UNL A   1      40.262  31.176  30.473  1.00  0.00     0.031 C 
ATOM     19  C   UNL A   1      39.746  26.883  27.907  1.00  0.00     0.029 A 
ATOM     20  N   UNL A   1      41.709  27.241  28.913  1.00  0.00    -0.354 N 
ATOM     21  C   UNL A   1      42.440  30.887  31.120  1.00  0.00     0.074 A 
ATOM     22  C   UNL A   1      41.276  31.748  31.109  1.00  0.00     0.031 C 
ATOM     23  C   UNL A   1      40.511  25.805  27.683  1.00  0.00     0.029 A 
ATOM     24  C   UNL A   1      41.816  26.017  28.300  1.00  0.00     0.049 A 
ATOM     25  H   UNL A   1      42.440  27.650  29.431  1.00  0.00     0.167 HD
ATOM     26  C   UNL A   1      43.607  31.177  31.745  1.00  0.00     0.037 A 
ATOM     27  C   UNL A   1      42.855  25.165  28.227  1.00  0.00     0.037 A 
ATOM     28  C   UNL A   1      44.756  30.307  31.766  1.00  0.00     0.049 A 
ATOM     29  C   UNL A   1      44.141  25.523  28.914  1.00  0.00     0.074 A 
ATOM     30  C   UNL A   1      45.970  30.495  32.403  1.00  0.00     0.029 A 
ATOM     31  N   UNL A   1      44.833  29.084  31.116  1.00  0.00    -0.354 N 
ATOM     32  N   UNL A   1      44.428  26.583  29.628  1.00  0.00    -0.248 NA
ATOM     33  C   UNL A   1      45.248  24.566  28.782  1.00  0.00     0.031 C 
ATOM     34  C   UNL A   1      46.798  29.408  32.103  1.00  0.00     0.029 A 
ATOM     35  C   UNL A   1      46.083  28.518  31.319  1.00  0.00     0.049 A 
ATOM     36  H   UNL A   1      44.108  28.677  30.589  1.00  0.00     0.167 HD
ATOM     37  C   UNL A   1      45.740  26.416  30.046  1.00  0.00     0.074 A 
ATOM     38  C   UNL A   1      46.186  25.141  29.522  1.00  0.00     0.031 C 
ATOM     39  C   UNL A   1      46.508  27.246  30.793  1.00  0.00     0.037 A 
BRANCH  26  40
ATOM     40  C   UNL A   1      43.714  32.497  32.452  1.00  0.00     0.064 A 
ATOM     41  C   UNL A   1      43.369  32.640  33.803  1.00  0.00     0.173 A 
ATOM     42  C   UNL A   1      44.232  33.619  31.785  1.00  0.00     0.173 A 
ATOM     43  F   UNL A   1      42.861  31.602  34.483  1.00  0.00    -0.203 F 
ATOM     44  C   UNL A   1      43.521  33.861  34.456  1.00  0.00     0.198 A 
ATOM     45  C   UNL A   1      44.406  34.832  32.448  1.00  0.00     0.198 A 
ATOM     46  F   UNL A   1      44.584  33.535  30.494  1.00  0.00    -0.203 F 
ATOM     47  F   UNL A   1      43.153  33.983  35.740  1.00  0.00    -0.200 F 
ATOM     48  C   UNL A   1      44.047  34.953  33.781  1.00  0.00     0.200 A 
ATOM     49  F   UNL A   1      44.926  35.881  31.797  1.00  0.00    -0.200 F 
ATOM     50  F   UNL A   1      44.203  36.124  34.416  1.00  0.00    -0.200 F 
ENDBRANCH  26  40
BRANCH  27  51
ATOM     51  C   UNL A   1      42.713  23.895  27.471  1.00  0.00     0.064 A 
ATOM     52  C   UNL A   1      43.126  23.799  26.136  1.00  0.00     0.173 A 
ATOM     53  C   UNL A   1      42.173  22.748  28.073  1.00  0.00     0.173 A 
ATOM     54  F   UNL A   1      43.631  24.874  25.512  1.00  0.00    -0.203 F 
ATOM     55  C   UNL A   1      42.992  22.608  25.427  1.00  0.00     0.198 A 
ATOM     56  C   UNL A   1      42.067  21.550  27.371  1.00  0.00     0.198 A 
ATOM     57  F   UNL A   1      41.768  22.787  29.351  1.00  0.00    -0.203 F 
ATOM     58  F   UNL A   1      43.357  22.553  24.139  1.00  0.00    -0.200 F 
ATOM     59  C   UNL A   1      42.469  21.483  26.047  1.00  0.00     0.200 A 
ATOM     60  F   UNL A   1      41.577  20.461  27.981  1.00  0.00    -0.200 F 
ATOM     61  F   UNL A   1      42.348  20.335  25.366  1.00  0.00    -0.200 F 
ENDBRANCH  27  51
BRANCH  39  62
ATOM     62  C   UNL A   1      47.900  26.785  31.109  1.00  0.00     0.064 A 
ATOM     63  C   UNL A   1      48.178  26.014  32.247  1.00  0.00     0.173 A 
ATOM     64  C   UNL A   1      48.963  27.098  30.249  1.00  0.00     0.173 A 
ATOM     65  F   UNL A   1      47.197  25.705  33.108  1.00  0.00    -0.203 F 
ATOM     66  C   UNL A   1      49.475  25.594  32.526  1.00  0.00     0.198 A 
ATOM     67  C   UNL A   1      50.254  26.653  30.516  1.00  0.00     0.198 A 
ATOM     68  F   UNL A   1      48.748  27.829  29.145  1.00  0.00    -0.203 F 
ATOM     69  F   UNL A   1      49.726  24.900  33.645  1.00  0.00    -0.200 F 
ATOM     70  C   UNL A   1      50.510  25.909  31.659  1.00  0.00     0.200 A 
ATOM     71  F   UNL A   1      51.251  26.948  29.672  1.00  0.00    -0.200 F 
ATOM     72  F   UNL A   1      51.759  25.501  31.927  1.00  0.00    -0.200 F 
ENDBRANCH  39  62
ENDBRANCH  13  14
ENDBRANCH   6   8
ENDBRANCH   3   4
ENDBRANCH   2   3
ENDBRANCH   1   2
BRANCH   1  73
ATOM     73  C   UNL A   1      30.698  26.514  25.565  1.00  0.00     0.116 C 
BRANCH  73  74
ATOM     74  N   UNL A   1      30.490  25.399  26.464  1.00  0.00    -0.356 N 
ATOM     75  C   UNL A   1      31.137  24.204  26.543  1.00  0.00     0.223 C 
ATOM     76  H   UNL A   1      29.767  25.523  27.121  1.00  0.00     0.163 HD
ATOM     77  O   UNL A   1      30.709  23.380  27.352  1.00  0.00    -0.275 OA
BRANCH  75  78
ATOM     78  C   UNL A   1      32.393  23.954  25.707  1.00  0.00     0.083 C 
BRANCH  78  79
ATOM     79  C   UNL A   1      33.480  23.478  26.699  1.00  0.00     0.049 C 
BRANCH  79  80
ATOM     80  C   UNL A   1      34.800  23.072  26.083  1.00  0.00    -0.047 A 
ATOM     81  C   UNL A   1      35.667  24.047  25.566  1.00  0.00     0.004 A 
ATOM     82  C   UNL A   1      35.188  21.727  26.013  1.00  0.00     0.004 A 
ATOM     83  C   UNL A   1      36.923  23.695  25.074  1.00  0.00     0.000 A 
ATOM     84  C   UNL A   1      36.440  21.374  25.504  1.00  0.00     0.000 A 
ATOM     85  C   UNL A   1      37.314  22.360  25.050  1.00  0.00     0.000 A 
ENDBRANCH  79  80
ENDBRANCH  78  79
BRANCH  78  86
ATOM     86  C   UNL A   1      32.022  22.965  24.574  1.00  0.00     0.023 C 
BRANCH  86  87
ATOM     87  C   UNL A   1      31.987  23.524  23.149  1.00  0.00     0.116 C 
BRANCH  87  88
ATOM     88  C   UNL A   1      33.363  23.539  22.510  1.00  0.00     0.389 C 
ATOM     89  F   UNL A   1      34.120  22.524  22.983  1.00  0.00    -0.171 F 
ATOM     90  F   UNL A   1      33.276  23.391  21.171  1.00  0.00    -0.171 F 
ATOM     91  F   UNL A   1      34.028  24.686  22.757  1.00  0.00    -0.171 F 
ENDBRANCH  87  88
ENDBRANCH  86  87
ENDBRANCH  78  86
ENDBRANCH  75  78
ENDBRANCH  73  74
ENDBRANCH   1  73
TORSDOF 16
ENDMDL
