MODEL 1
REMARK VINA RESULT:     -11.5      0.000      0.000
REMARK SMILES CC1=C(CCC(=O)NCCCCNC(=O)c2ccc(-c3c4nc(c(-c5c(F)c(F)c(F)c(F)c5F)c5ccc([nH]5)c(-c5c(F)c(F)c(F)c(F)c5F)c5nc(c(-c6c(F)c(F)c(F)c(F)c6F)c6ccc3[nH]6)C=C5)C=C4)cc2)N=N[C@H]1C
REMARK SMILES IDX 10 1 9 2 8 3 6 4 7 5 5 7 4 8 3 9 1 10 2 11 81 12 79 13 80 14
REMARK SMILES IDX 82 15 11 16 12 17 13 18 14 19 15 21 16 22 17 23 78 24 18 25
REMARK SMILES IDX 77 26 19 27 20 28 21 29 71 30 22 31 76 32 70 33 72 34 23 35
REMARK SMILES IDX 75 36 69 37 68 38 24 40 56 41 36 42 55 43 37 44 40 45 54 46
REMARK SMILES IDX 73 47 38 48 39 49 53 51 74 52 41 53 25 54 26 55 34 56 27 57
REMARK SMILES IDX 28 58 32 59 35 60 29 61 30 62 33 63 31 64 57 65 58 66 66 67
REMARK SMILES IDX 59 68 60 69 64 70 67 71 61 72 62 73 65 74 63 75 42 76 43 77
REMARK SMILES IDX 51 78 44 79 45 80 49 81 52 82 46 83 47 84 50 85 48 86
REMARK H PARENT 8 6 13 20 72 39 40 50
REMARK Flexibility Score: inf
ROOT
ATOM      1  C   UNL A   1      40.152  21.236  26.228  1.00  0.00     0.023 C 
ENDROOT
BRANCH   1   2
ATOM      2  C   UNL A   1      38.724  21.244  25.668  1.00  0.00     0.116 C 
BRANCH   2   3
ATOM      3  N   UNL A   1      37.961  22.365  26.182  1.00  0.00    -0.356 N 
ATOM      4  C   UNL A   1      37.121  23.222  25.535  1.00  0.00     0.220 C 
ATOM      5  O   UNL A   1      36.723  24.213  26.153  1.00  0.00    -0.275 OA
ATOM      6  H   UNL A   1      38.065  22.532  27.147  1.00  0.00     0.163 HD
BRANCH   4   7
ATOM      7  C   UNL A   1      36.626  22.944  24.123  1.00  0.00     0.106 C 
BRANCH   7   8
ATOM      8  C   UNL A   1      35.134  22.606  24.003  1.00  0.00     0.068 C 
BRANCH   8   9
ATOM      9  C   UNL A   1      34.357  23.607  23.202  1.00  0.00     0.064 C 
ATOM     10  C   UNL A   1      34.074  25.601  24.796  1.00  0.00     0.044 C 
ATOM     11  C   UNL A   1      33.873  24.798  23.571  1.00  0.00    -0.024 C 
ATOM     12  C   UNL A   1      33.028  25.255  22.430  1.00  0.00     0.153 C 
ATOM     13  N   UNL A   1      34.084  23.342  21.887  1.00  0.00    -0.160 NA
ATOM     14  N   UNL A   1      33.349  24.242  21.394  1.00  0.00    -0.181 NA
ATOM     15  C   UNL A   1      31.535  25.186  22.752  1.00  0.00     0.040 C 
ENDBRANCH   8   9
ENDBRANCH   7   8
ENDBRANCH   4   7
ENDBRANCH   2   3
ENDBRANCH   1   2
BRANCH   1  16
ATOM     16  C   UNL A   1      40.938  19.926  26.217  1.00  0.00     0.023 C 
BRANCH  16  17
ATOM     17  C   UNL A   1      42.351  20.047  26.759  1.00  0.00     0.116 C 
BRANCH  17  18
ATOM     18  N   UNL A   1      43.407  19.591  25.839  1.00  0.00    -0.352 N 
ATOM     19  C   UNL A   1      44.126  20.354  24.916  1.00  0.00     0.251 C 
ATOM     20  H   UNL A   1      43.635  18.634  25.880  1.00  0.00     0.163 HD
ATOM     21  O   UNL A   1      44.735  19.871  23.991  1.00  0.00    -0.269 OA
BRANCH  19  22
ATOM     22  C   UNL A   1      44.150  21.808  25.157  1.00  0.00     0.039 A 
ATOM     23  C   UNL A   1      43.186  22.691  24.659  1.00  0.00     0.014 A 
ATOM     24  C   UNL A   1      45.083  22.205  26.100  1.00  0.00     0.014 A 
ATOM     25  C   UNL A   1      43.104  23.963  25.226  1.00  0.00     0.010 A 
ATOM     26  C   UNL A   1      44.795  23.310  26.836  1.00  0.00     0.010 A 
ATOM     27  C   UNL A   1      43.896  24.246  26.346  1.00  0.00    -0.014 A 
BRANCH  27  28
ATOM     28  C   UNL A   1      43.782  25.466  27.128  1.00  0.00     0.031 A 
ATOM     29  C   UNL A   1      44.719  26.554  26.750  1.00  0.00     0.074 A 
ATOM     30  C   UNL A   1      42.702  25.688  27.912  1.00  0.00     0.049 A 
ATOM     31  N   UNL A   1      45.716  26.998  27.440  1.00  0.00    -0.248 NA
ATOM     32  C   UNL A   1      44.636  27.128  25.399  1.00  0.00     0.031 C 
ATOM     33  C   UNL A   1      41.505  24.854  28.102  1.00  0.00     0.029 A 
ATOM     34  N   UNL A   1      42.389  26.804  28.616  1.00  0.00    -0.354 N 
ATOM     35  C   UNL A   1      46.253  28.055  26.710  1.00  0.00     0.074 A 
ATOM     36  C   UNL A   1      45.695  27.941  25.388  1.00  0.00     0.031 C 
ATOM     37  C   UNL A   1      40.513  25.593  28.642  1.00  0.00     0.029 A 
ATOM     38  C   UNL A   1      41.060  26.879  29.017  1.00  0.00     0.049 A 
ATOM     39  H   UNL A   1      43.048  27.503  28.826  1.00  0.00     0.167 HD
ATOM     40  C   UNL A   1      46.903  29.075  27.342  1.00  0.00     0.037 A 
ATOM     41  C   UNL A   1      40.463  27.958  29.580  1.00  0.00     0.037 A 
ATOM     42  C   UNL A   1      47.193  28.719  28.713  1.00  0.00     0.049 A 
ATOM     43  C   UNL A   1      41.557  28.812  30.126  1.00  0.00     0.074 A 
ATOM     44  C   UNL A   1      47.877  27.678  29.315  1.00  0.00     0.029 A 
ATOM     45  N   UNL A   1      46.390  29.245  29.699  1.00  0.00    -0.354 N 
ATOM     46  N   UNL A   1      42.327  28.443  31.116  1.00  0.00    -0.248 NA
ATOM     47  C   UNL A   1      42.126  29.817  29.237  1.00  0.00     0.031 C 
ATOM     48  C   UNL A   1      47.062  27.305  30.426  1.00  0.00     0.029 A 
ATOM     49  C   UNL A   1      45.995  28.202  30.497  1.00  0.00     0.049 A 
ATOM     50  H   UNL A   1      46.145  30.193  29.810  1.00  0.00     0.167 HD
ATOM     51  C   UNL A   1      43.606  28.831  30.738  1.00  0.00     0.074 A 
ATOM     52  C   UNL A   1      43.409  29.730  29.600  1.00  0.00     0.031 C 
ATOM     53  C   UNL A   1      44.714  28.152  31.164  1.00  0.00     0.037 A 
BRANCH  40  54
ATOM     54  C   UNL A   1      46.931  30.519  26.885  1.00  0.00     0.064 A 
ATOM     55  C   UNL A   1      48.156  31.220  26.950  1.00  0.00     0.173 A 
ATOM     56  C   UNL A   1      45.788  31.323  26.693  1.00  0.00     0.173 A 
ATOM     57  F   UNL A   1      49.313  30.563  27.116  1.00  0.00    -0.203 F 
ATOM     58  C   UNL A   1      48.212  32.617  26.952  1.00  0.00     0.198 A 
ATOM     59  C   UNL A   1      45.855  32.715  26.641  1.00  0.00     0.198 A 
ATOM     60  F   UNL A   1      44.552  30.820  26.657  1.00  0.00    -0.203 F 
ATOM     61  F   UNL A   1      49.381  33.233  27.169  1.00  0.00    -0.200 F 
ATOM     62  C   UNL A   1      47.060  33.363  26.813  1.00  0.00     0.200 A 
ATOM     63  F   UNL A   1      44.723  33.423  26.511  1.00  0.00    -0.200 F 
ATOM     64  F   UNL A   1      47.098  34.699  26.890  1.00  0.00    -0.200 F 
ENDBRANCH  40  54
BRANCH  41  65
ATOM     65  C   UNL A   1      39.072  28.430  29.373  1.00  0.00     0.064 A 
ATOM     66  C   UNL A   1      38.188  28.587  30.451  1.00  0.00     0.173 A 
ATOM     67  C   UNL A   1      38.656  28.981  28.142  1.00  0.00     0.173 A 
ATOM     68  F   UNL A   1      38.524  28.133  31.667  1.00  0.00    -0.203 F 
ATOM     69  C   UNL A   1      36.972  29.267  30.312  1.00  0.00     0.198 A 
ATOM     70  C   UNL A   1      37.441  29.653  28.003  1.00  0.00     0.198 A 
ATOM     71  F   UNL A   1      39.460  28.958  27.069  1.00  0.00    -0.203 F 
ATOM     72  F   UNL A   1      36.179  29.444  31.379  1.00  0.00    -0.200 F 
ATOM     73  C   UNL A   1      36.604  29.807  29.091  1.00  0.00     0.200 A 
ATOM     74  F   UNL A   1      37.115  30.200  26.823  1.00  0.00    -0.200 F 
ATOM     75  F   UNL A   1      35.467  30.507  28.972  1.00  0.00    -0.200 F 
ENDBRANCH  41  65
BRANCH  53  76
ATOM     76  C   UNL A   1      44.561  27.108  32.237  1.00  0.00     0.064 A 
ATOM     77  C   UNL A   1      44.369  25.737  31.988  1.00  0.00     0.173 A 
ATOM     78  C   UNL A   1      44.808  27.486  33.565  1.00  0.00     0.173 A 
ATOM     79  F   UNL A   1      44.232  25.274  30.742  1.00  0.00    -0.203 F 
ATOM     80  C   UNL A   1      44.385  24.800  33.021  1.00  0.00     0.198 A 
ATOM     81  C   UNL A   1      44.860  26.545  34.590  1.00  0.00     0.198 A 
ATOM     82  F   UNL A   1      45.058  28.770  33.860  1.00  0.00    -0.203 F 
ATOM     83  F   UNL A   1      44.195  23.500  32.752  1.00  0.00    -0.200 F 
ATOM     84  C   UNL A   1      44.639  25.204  34.320  1.00  0.00     0.200 A 
ATOM     85  F   UNL A   1      45.160  26.936  35.836  1.00  0.00    -0.200 F 
ATOM     86  F   UNL A   1      44.701  24.301  35.307  1.00  0.00    -0.200 F 
ENDBRANCH  53  76
ENDBRANCH  27  28
ENDBRANCH  19  22
ENDBRANCH  17  18
ENDBRANCH  16  17
ENDBRANCH   1  16
TORSDOF 13
ENDMDL
MODEL 2
REMARK VINA RESULT:     -11.3      2.837      3.942
REMARK SMILES CC1=C(CCC(=O)NCCCCNC(=O)c2ccc(-c3c4nc(c(-c5c(F)c(F)c(F)c(F)c5F)c5ccc([nH]5)c(-c5c(F)c(F)c(F)c(F)c5F)c5nc(c(-c6c(F)c(F)c(F)c(F)c6F)c6ccc3[nH]6)C=C5)C=C4)cc2)N=N[C@H]1C
REMARK SMILES IDX 10 1 9 2 8 3 6 4 7 5 5 7 4 8 3 9 1 10 2 11 81 12 79 13 80 14
REMARK SMILES IDX 82 15 11 16 12 17 13 18 14 19 15 21 16 22 17 23 78 24 18 25
REMARK SMILES IDX 77 26 19 27 20 28 21 29 71 30 22 31 76 32 70 33 72 34 23 35
REMARK SMILES IDX 75 36 69 37 68 38 24 40 56 41 36 42 55 43 37 44 40 45 54 46
REMARK SMILES IDX 73 47 38 48 39 49 53 51 74 52 41 53 25 54 26 55 34 56 27 57
REMARK SMILES IDX 28 58 32 59 35 60 29 61 30 62 33 63 31 64 57 65 58 66 66 67
REMARK SMILES IDX 59 68 60 69 64 70 67 71 61 72 62 73 65 74 63 75 42 76 43 77
REMARK SMILES IDX 51 78 44 79 45 80 49 81 52 82 46 83 47 84 50 85 48 86
REMARK H PARENT 8 6 13 20 72 39 40 50
REMARK Flexibility Score: inf
ROOT
ATOM      1  C   UNL A   1      37.919  22.887  26.096  1.00  0.00     0.023 C 
ENDROOT
BRANCH   1   2
ATOM      2  C   UNL A   1      36.463  23.009  25.629  1.00  0.00     0.116 C 
BRANCH   2   3
ATOM      3  N   UNL A   1      35.577  22.201  26.445  1.00  0.00    -0.356 N 
ATOM      4  C   UNL A   1      34.432  21.542  26.104  1.00  0.00     0.220 C 
ATOM      5  O   UNL A   1      33.750  21.067  27.015  1.00  0.00    -0.275 OA
ATOM      6  H   UNL A   1      35.842  22.116  27.389  1.00  0.00     0.163 HD
BRANCH   4   7
ATOM      7  C   UNL A   1      34.032  21.331  24.651  1.00  0.00     0.106 C 
BRANCH   7   8
ATOM      8  C   UNL A   1      32.605  20.810  24.430  1.00  0.00     0.068 C 
BRANCH   8   9
ATOM      9  C   UNL A   1      32.556  19.428  23.854  1.00  0.00     0.064 C 
ATOM     10  C   UNL A   1      32.758  17.889  25.900  1.00  0.00     0.044 C 
ATOM     11  C   UNL A   1      32.691  18.247  24.467  1.00  0.00    -0.024 C 
ATOM     12  C   UNL A   1      32.748  17.235  23.373  1.00  0.00     0.153 C 
ATOM     13  N   UNL A   1      32.319  19.271  22.514  1.00  0.00    -0.160 NA
ATOM     14  N   UNL A   1      32.401  18.055  22.186  1.00  0.00    -0.181 NA
ATOM     15  C   UNL A   1      34.152  16.658  23.191  1.00  0.00     0.040 C 
ENDBRANCH   8   9
ENDBRANCH   7   8
ENDBRANCH   4   7
ENDBRANCH   2   3
ENDBRANCH   1   2
BRANCH   1  16
ATOM     16  C   UNL A   1      38.724  21.658  25.680  1.00  0.00     0.023 C 
BRANCH  16  17
ATOM     17  C   UNL A   1      39.983  21.435  26.501  1.00  0.00     0.116 C 
BRANCH  17  18
ATOM     18  N   UNL A   1      41.242  21.679  25.777  1.00  0.00    -0.352 N 
ATOM     19  C   UNL A   1      41.973  22.867  25.709  1.00  0.00     0.251 C 
ATOM     20  H   UNL A   1      41.614  20.912  25.284  1.00  0.00     0.163 HD
ATOM     21  O   UNL A   1      42.804  23.083  24.859  1.00  0.00    -0.269 OA
BRANCH  19  22
ATOM     22  C   UNL A   1      41.714  23.848  26.777  1.00  0.00     0.039 A 
ATOM     23  C   UNL A   1      42.422  23.884  27.983  1.00  0.00     0.014 A 
ATOM     24  C   UNL A   1      40.860  24.872  26.404  1.00  0.00     0.014 A 
ATOM     25  C   UNL A   1      42.344  25.042  28.758  1.00  0.00     0.010 A 
ATOM     26  C   UNL A   1      41.035  26.080  27.000  1.00  0.00     0.010 A 
ATOM     27  C   UNL A   1      41.672  26.152  28.231  1.00  0.00    -0.014 A 
BRANCH  27  28
ATOM     28  C   UNL A   1      41.663  27.463  28.859  1.00  0.00     0.031 A 
ATOM     29  C   UNL A   1      42.728  28.393  28.405  1.00  0.00     0.074 A 
ATOM     30  C   UNL A   1      40.586  27.890  29.557  1.00  0.00     0.049 A 
ATOM     31  N   UNL A   1      43.741  28.811  29.088  1.00  0.00    -0.248 NA
ATOM     32  C   UNL A   1      42.758  28.805  26.994  1.00  0.00     0.031 C 
ATOM     33  C   UNL A   1      39.299  27.215  29.782  1.00  0.00     0.029 A 
ATOM     34  N   UNL A   1      40.371  29.109  30.111  1.00  0.00    -0.354 N 
ATOM     35  C   UNL A   1      44.418  29.709  28.268  1.00  0.00     0.074 A 
ATOM     36  C   UNL A   1      43.900  29.496  26.942  1.00  0.00     0.031 C 
ATOM     37  C   UNL A   1      38.374  28.112  30.183  1.00  0.00     0.029 A 
ATOM     38  C   UNL A   1      39.044  29.371  30.433  1.00  0.00     0.049 A 
ATOM     39  H   UNL A   1      41.095  29.755  30.271  1.00  0.00     0.167 HD
ATOM     40  C   UNL A   1      45.152  30.725  28.809  1.00  0.00     0.037 A 
ATOM     41  C   UNL A   1      38.549  30.566  30.836  1.00  0.00     0.037 A 
ATOM     42  C   UNL A   1      45.349  30.509  30.225  1.00  0.00     0.049 A 
ATOM     43  C   UNL A   1      39.709  31.361  31.334  1.00  0.00     0.074 A 
ATOM     44  C   UNL A   1      45.893  29.483  30.977  1.00  0.00     0.029 A 
ATOM     45  N   UNL A   1      44.573  31.231  31.102  1.00  0.00    -0.354 N 
ATOM     46  N   UNL A   1      40.396  31.035  32.397  1.00  0.00    -0.248 NA
ATOM     47  C   UNL A   1      40.417  32.186  30.364  1.00  0.00     0.031 C 
ATOM     48  C   UNL A   1      45.000  29.333  32.081  1.00  0.00     0.029 A 
ATOM     49  C   UNL A   1      44.036  30.339  31.995  1.00  0.00     0.049 A 
ATOM     50  H   UNL A   1      44.429  32.206  31.090  1.00  0.00     0.167 HD
ATOM     51  C   UNL A   1      41.723  31.239  32.041  1.00  0.00     0.074 A 
ATOM     52  C   UNL A   1      41.669  32.009  30.799  1.00  0.00     0.031 C 
ATOM     53  C   UNL A   1      42.734  30.504  32.598  1.00  0.00     0.037 A 
BRANCH  40  54
ATOM     54  C   UNL A   1      45.355  32.093  28.190  1.00  0.00     0.064 A 
ATOM     55  C   UNL A   1      44.213  32.857  27.861  1.00  0.00     0.173 A 
ATOM     56  C   UNL A   1      46.565  32.548  27.627  1.00  0.00     0.173 A 
ATOM     57  F   UNL A   1      43.006  32.530  28.348  1.00  0.00    -0.203 F 
ATOM     58  C   UNL A   1      44.264  33.908  26.942  1.00  0.00     0.198 A 
ATOM     59  C   UNL A   1      46.619  33.633  26.752  1.00  0.00     0.198 A 
ATOM     60  F   UNL A   1      47.726  31.911  27.801  1.00  0.00    -0.203 F 
ATOM     61  F   UNL A   1      43.129  34.501  26.549  1.00  0.00    -0.200 F 
ATOM     62  C   UNL A   1      45.464  34.285  26.376  1.00  0.00     0.200 A 
ATOM     63  F   UNL A   1      47.795  33.980  26.208  1.00  0.00    -0.200 F 
ATOM     64  F   UNL A   1      45.507  35.241  25.439  1.00  0.00    -0.200 F 
ENDBRANCH  40  54
BRANCH  41  65
ATOM     65  C   UNL A   1      37.227  31.152  30.507  1.00  0.00     0.064 A 
ATOM     66  C   UNL A   1      36.302  31.474  31.511  1.00  0.00     0.173 A 
ATOM     67  C   UNL A   1      36.941  31.646  29.216  1.00  0.00     0.173 A 
ATOM     68  F   UNL A   1      36.519  31.083  32.775  1.00  0.00    -0.203 F 
ATOM     69  C   UNL A   1      35.170  32.255  31.246  1.00  0.00     0.198 A 
ATOM     70  C   UNL A   1      35.810  32.419  28.951  1.00  0.00     0.198 A 
ATOM     71  F   UNL A   1      37.799  31.465  28.202  1.00  0.00    -0.203 F 
ATOM     72  F   UNL A   1      34.339  32.587  32.244  1.00  0.00    -0.200 F 
ATOM     73  C   UNL A   1      34.930  32.735  29.969  1.00  0.00     0.200 A 
ATOM     74  F   UNL A   1      35.610  32.904  27.717  1.00  0.00    -0.200 F 
ATOM     75  F   UNL A   1      33.878  33.529  29.727  1.00  0.00    -0.200 F 
ENDBRANCH  41  65
BRANCH  53  76
ATOM     76  C   UNL A   1      42.427  29.619  33.776  1.00  0.00     0.064 A 
ATOM     77  C   UNL A   1      41.955  28.298  33.674  1.00  0.00     0.173 A 
ATOM     78  C   UNL A   1      42.806  30.063  35.051  1.00  0.00     0.173 A 
ATOM     79  F   UNL A   1      41.672  27.756  32.485  1.00  0.00    -0.203 F 
ATOM     80  C   UNL A   1      41.833  27.479  34.797  1.00  0.00     0.198 A 
ATOM     81  C   UNL A   1      42.718  29.233  36.165  1.00  0.00     0.198 A 
ATOM     82  F   UNL A   1      43.319  31.293  35.206  1.00  0.00    -0.203 F 
ATOM     83  F   UNL A   1      41.377  26.225  34.667  1.00  0.00    -0.200 F 
ATOM     84  C   UNL A   1      42.224  27.945  36.040  1.00  0.00     0.200 A 
ATOM     85  F   UNL A   1      43.148  29.672  37.356  1.00  0.00    -0.200 F 
ATOM     86  F   UNL A   1      42.151  27.145  37.112  1.00  0.00    -0.200 F 
ENDBRANCH  53  76
ENDBRANCH  27  28
ENDBRANCH  19  22
ENDBRANCH  17  18
ENDBRANCH  16  17
ENDBRANCH   1  16
TORSDOF 13
ENDMDL
MODEL 3
REMARK VINA RESULT:     -11.2      4.427      9.860
REMARK SMILES CC1=C(CCC(=O)NCCCCNC(=O)c2ccc(-c3c4nc(c(-c5c(F)c(F)c(F)c(F)c5F)c5ccc([nH]5)c(-c5c(F)c(F)c(F)c(F)c5F)c5nc(c(-c6c(F)c(F)c(F)c(F)c6F)c6ccc3[nH]6)C=C5)C=C4)cc2)N=N[C@H]1C
REMARK SMILES IDX 10 1 9 2 8 3 6 4 7 5 5 7 4 8 3 9 1 10 2 11 81 12 79 13 80 14
REMARK SMILES IDX 82 15 11 16 12 17 13 18 14 19 15 21 16 22 17 23 78 24 18 25
REMARK SMILES IDX 77 26 19 27 20 28 21 29 71 30 22 31 76 32 70 33 72 34 23 35
REMARK SMILES IDX 75 36 69 37 68 38 24 40 56 41 36 42 55 43 37 44 40 45 54 46
REMARK SMILES IDX 73 47 38 48 39 49 53 51 74 52 41 53 25 54 26 55 34 56 27 57
REMARK SMILES IDX 28 58 32 59 35 60 29 61 30 62 33 63 31 64 57 65 58 66 66 67
REMARK SMILES IDX 59 68 60 69 64 70 67 71 61 72 62 73 65 74 63 75 42 76 43 77
REMARK SMILES IDX 51 78 44 79 45 80 49 81 52 82 46 83 47 84 50 85 48 86
REMARK H PARENT 8 6 13 20 72 39 40 50
REMARK Flexibility Score: inf
ROOT
ATOM      1  C   UNL A   1      34.726  32.838  28.108  1.00  0.00     0.023 C 
ENDROOT
BRANCH   1   2
ATOM      2  C   UNL A   1      34.313  31.364  28.212  1.00  0.00     0.116 C 
BRANCH   2   3
ATOM      3  N   UNL A   1      33.266  31.041  27.260  1.00  0.00    -0.356 N 
ATOM      4  C   UNL A   1      33.137  29.962  26.436  1.00  0.00     0.220 C 
ATOM      5  O   UNL A   1      32.248  29.995  25.582  1.00  0.00    -0.275 OA
ATOM      6  H   UNL A   1      32.539  31.701  27.200  1.00  0.00     0.163 HD
BRANCH   4   7
ATOM      7  C   UNL A   1      34.005  28.723  26.597  1.00  0.00     0.106 C 
BRANCH   7   8
ATOM      8  C   UNL A   1      33.844  27.659  25.502  1.00  0.00     0.068 C 
BRANCH   8   9
ATOM      9  C   UNL A   1      33.093  26.444  25.956  1.00  0.00     0.064 C 
ATOM     10  C   UNL A   1      34.693  24.497  25.462  1.00  0.00     0.044 C 
ATOM     11  C   UNL A   1      33.431  25.153  25.866  1.00  0.00    -0.024 C 
ATOM     12  C   UNL A   1      32.223  24.393  26.300  1.00  0.00     0.153 C 
ATOM     13  N   UNL A   1      31.887  26.601  26.585  1.00  0.00    -0.160 NA
ATOM     14  N   UNL A   1      31.355  25.480  26.816  1.00  0.00    -0.181 NA
ATOM     15  C   UNL A   1      31.522  23.704  25.130  1.00  0.00     0.040 C 
ENDBRANCH   8   9
ENDBRANCH   7   8
ENDBRANCH   4   7
ENDBRANCH   2   3
ENDBRANCH   1   2
BRANCH   1  16
ATOM     16  C   UNL A   1      33.721  33.913  28.518  1.00  0.00     0.023 C 
BRANCH  16  17
ATOM     17  C   UNL A   1      34.342  35.100  29.233  1.00  0.00     0.116 C 
BRANCH  17  18
ATOM     18  N   UNL A   1      33.594  35.571  30.412  1.00  0.00    -0.352 N 
ATOM     19  C   UNL A   1      33.540  34.988  31.680  1.00  0.00     0.251 C 
ATOM     20  H   UNL A   1      33.070  36.396  30.292  1.00  0.00     0.163 HD
ATOM     21  O   UNL A   1      32.676  35.239  32.486  1.00  0.00    -0.269 OA
BRANCH  19  22
ATOM     22  C   UNL A   1      34.642  34.069  32.017  1.00  0.00     0.039 A 
ATOM     23  C   UNL A   1      34.554  32.678  31.893  1.00  0.00     0.014 A 
ATOM     24  C   UNL A   1      35.848  34.704  32.260  1.00  0.00     0.014 A 
ATOM     25  C   UNL A   1      35.739  31.942  31.898  1.00  0.00     0.010 A 
ATOM     26  C   UNL A   1      36.984  34.022  31.960  1.00  0.00     0.010 A 
ATOM     27  C   UNL A   1      36.956  32.636  31.895  1.00  0.00    -0.014 A 
BRANCH  27  28
ATOM     28  C   UNL A   1      38.250  31.996  31.731  1.00  0.00     0.031 A 
ATOM     29  C   UNL A   1      38.958  31.658  32.992  1.00  0.00     0.074 A 
ATOM     30  C   UNL A   1      38.620  31.474  30.539  1.00  0.00     0.049 A 
ATOM     31  N   UNL A   1      40.033  32.204  33.453  1.00  0.00    -0.248 NA
ATOM     32  C   UNL A   1      38.336  30.704  33.923  1.00  0.00     0.031 C 
ATOM     33  C   UNL A   1      37.861  31.406  29.280  1.00  0.00     0.029 A 
ATOM     34  N   UNL A   1      39.732  30.758  30.241  1.00  0.00    -0.354 N 
ATOM     35  C   UNL A   1      40.348  31.515  34.621  1.00  0.00     0.074 A 
ATOM     36  C   UNL A   1      39.167  30.769  34.967  1.00  0.00     0.031 C 
ATOM     37  C   UNL A   1      38.410  30.484  28.463  1.00  0.00     0.029 A 
ATOM     38  C   UNL A   1      39.659  30.046  29.049  1.00  0.00     0.049 A 
ATOM     39  H   UNL A   1      40.525  30.742  30.823  1.00  0.00     0.167 HD
ATOM     40  C   UNL A   1      41.642  31.423  35.045  1.00  0.00     0.037 A 
ATOM     41  C   UNL A   1      40.562  29.132  28.617  1.00  0.00     0.037 A 
ATOM     42  C   UNL A   1      42.479  32.356  34.323  1.00  0.00     0.049 A 
ATOM     43  C   UNL A   1      41.825  29.395  29.365  1.00  0.00     0.074 A 
ATOM     44  C   UNL A   1      42.456  33.726  34.134  1.00  0.00     0.029 A 
ATOM     45  N   UNL A   1      43.269  31.862  33.310  1.00  0.00    -0.354 N 
ATOM     46  N   UNL A   1      42.529  30.488  29.220  1.00  0.00    -0.248 NA
ATOM     47  C   UNL A   1      42.004  28.703  30.636  1.00  0.00     0.031 C 
ATOM     48  C   UNL A   1      42.759  33.905  32.750  1.00  0.00     0.029 A 
ATOM     49  C   UNL A   1      43.054  32.652  32.209  1.00  0.00     0.049 A 
ATOM     50  H   UNL A   1      43.874  31.087  33.365  1.00  0.00     0.167 HD
ATOM     51  C   UNL A   1      42.896  30.849  30.510  1.00  0.00     0.074 A 
ATOM     52  C   UNL A   1      42.598  29.678  31.333  1.00  0.00     0.031 C 
ATOM     53  C   UNL A   1      43.106  32.157  30.853  1.00  0.00     0.037 A 
BRANCH  40  54
ATOM     54  C   UNL A   1      42.242  30.254  35.798  1.00  0.00     0.064 A 
ATOM     55  C   UNL A   1      43.130  30.526  36.863  1.00  0.00     0.173 A 
ATOM     56  C   UNL A   1      42.241  28.919  35.343  1.00  0.00     0.173 A 
ATOM     57  F   UNL A   1      43.210  31.757  37.391  1.00  0.00    -0.203 F 
ATOM     58  C   UNL A   1      44.032  29.571  37.339  1.00  0.00     0.198 A 
ATOM     59  C   UNL A   1      43.105  27.954  35.860  1.00  0.00     0.198 A 
ATOM     60  F   UNL A   1      41.495  28.510  34.314  1.00  0.00    -0.203 F 
ATOM     61  F   UNL A   1      44.955  29.923  38.243  1.00  0.00    -0.200 F 
ATOM     62  C   UNL A   1      44.029  28.290  36.826  1.00  0.00     0.200 A 
ATOM     63  F   UNL A   1      43.092  26.717  35.343  1.00  0.00    -0.200 F 
ATOM     64  F   UNL A   1      44.940  27.393  37.225  1.00  0.00    -0.200 F 
ENDBRANCH  40  54
BRANCH  41  65
ATOM     65  C   UNL A   1      40.290  27.880  27.870  1.00  0.00     0.064 A 
ATOM     66  C   UNL A   1      40.993  27.566  26.697  1.00  0.00     0.173 A 
ATOM     67  C   UNL A   1      39.514  26.842  28.427  1.00  0.00     0.173 A 
ATOM     68  F   UNL A   1      41.790  28.479  26.125  1.00  0.00    -0.203 F 
ATOM     69  C   UNL A   1      40.936  26.288  26.126  1.00  0.00     0.198 A 
ATOM     70  C   UNL A   1      39.453  25.571  27.855  1.00  0.00     0.198 A 
ATOM     71  F   UNL A   1      38.868  27.012  29.590  1.00  0.00    -0.203 F 
ATOM     72  F   UNL A   1      41.665  26.010  25.035  1.00  0.00    -0.200 F 
ATOM     73  C   UNL A   1      40.174  25.290  26.711  1.00  0.00     0.200 A 
ATOM     74  F   UNL A   1      38.738  24.607  28.452  1.00  0.00    -0.200 F 
ATOM     75  F   UNL A   1      40.166  24.052  26.197  1.00  0.00    -0.200 F 
ENDBRANCH  41  65
BRANCH  53  76
ATOM     76  C   UNL A   1      43.160  33.195  29.765  1.00  0.00     0.064 A 
ATOM     77  C   UNL A   1      42.080  34.020  29.402  1.00  0.00     0.173 A 
ATOM     78  C   UNL A   1      44.407  33.495  29.200  1.00  0.00     0.173 A 
ATOM     79  F   UNL A   1      40.879  33.876  29.970  1.00  0.00    -0.203 F 
ATOM     80  C   UNL A   1      42.235  35.065  28.491  1.00  0.00     0.198 A 
ATOM     81  C   UNL A   1      44.569  34.561  28.319  1.00  0.00     0.198 A 
ATOM     82  F   UNL A   1      45.489  32.783  29.551  1.00  0.00    -0.203 F 
ATOM     83  F   UNL A   1      41.186  35.832  28.162  1.00  0.00    -0.200 F 
ATOM     84  C   UNL A   1      43.482  35.340  27.957  1.00  0.00     0.200 A 
ATOM     85  F   UNL A   1      45.789  34.854  27.848  1.00  0.00    -0.200 F 
ATOM     86  F   UNL A   1      43.644  36.371  27.117  1.00  0.00    -0.200 F 
ENDBRANCH  53  76
ENDBRANCH  27  28
ENDBRANCH  19  22
ENDBRANCH  17  18
ENDBRANCH  16  17
ENDBRANCH   1  16
TORSDOF 13
ENDMDL
