MODEL 1
REMARK VINA RESULT:     -14.2      0.000      0.000
REMARK SMILES Cc1c(C(=O)Nc2ccc(C(=O)Nc3ccccc3C(=O)NCCCCNC(=O)c3ccc(-c4c5nc(c(-c6c(F)c(F)c(F)c(F)c6F)c6ccc([nH]6)c(-c6c(F)c(F)c(F)c(F)c6F)c6nc(c(-c7c(F)c(F)c(F)c(F)c7F)c7ccc4[nH]7)C=C6)C=C5)cc3)cc2)cccc1[N+](=O)[O-]
REMARK SMILES IDX 23 1 22 2 20 3 21 4 19 6 14 7 15 8 16 9 18 10 17 11 13 12
REMARK SMILES IDX 11 13 12 14 10 16 7 17 8 18 94 19 9 20 93 21 6 22 4 23 5 24
REMARK SMILES IDX 3 26 1 27 2 28 98 29 95 30 97 31 96 32 99 33 100 34 101 35
REMARK SMILES IDX 24 36 25 37 26 38 27 39 28 40 29 42 30 43 31 44 92 45 32 46
REMARK SMILES IDX 91 47 33 48 34 49 35 50 85 51 36 52 90 53 84 54 86 55 37 56
REMARK SMILES IDX 89 57 83 58 82 59 38 61 70 62 50 63 69 64 51 65 54 66 68 67
REMARK SMILES IDX 87 68 52 69 53 70 67 72 88 73 55 74 39 75 40 76 48 77 41 78
REMARK SMILES IDX 42 79 46 80 49 81 43 82 44 83 47 84 45 85 71 86 72 87 80 88
REMARK SMILES IDX 73 89 74 90 78 91 81 92 75 93 76 94 79 95 77 96 56 97 57 98
REMARK SMILES IDX 65 99 58 100 59 101 63 102 66 103 60 104 61 105 64 106
REMARK SMILES IDX 62 107
REMARK H PARENT 22 5 13 15 6 25 27 41 86 60 54 71
REMARK Flexibility Score: inf
ROOT
ATOM      1  C   UNL A   1      32.477  28.564  27.225  1.00  0.00     0.116 C 
ENDROOT
BRANCH   1   2
ATOM      2  N   UNL A   1      31.786  29.609  26.477  1.00  0.00    -0.352 N 
ATOM      3  C   UNL A   1      31.483  29.782  25.138  1.00  0.00     0.253 C 
ATOM      4  O   UNL A   1      30.693  30.681  24.848  1.00  0.00    -0.269 OA
ATOM      5  H   UNL A   1      31.468  30.348  27.044  1.00  0.00     0.163 HD
BRANCH   3   6
ATOM      6  C   UNL A   1      32.100  28.971  24.049  1.00  0.00     0.063 A 
ATOM      7  C   UNL A   1      31.412  27.913  23.402  1.00  0.00     0.054 A 
ATOM      8  C   UNL A   1      32.062  27.196  22.379  1.00  0.00     0.027 A 
ATOM      9  C   UNL A   1      33.344  27.543  21.961  1.00  0.00     0.002 A 
ATOM     10  C   UNL A   1      33.440  29.207  23.702  1.00  0.00     0.016 A 
ATOM     11  C   UNL A   1      34.041  28.537  22.634  1.00  0.00     0.001 A 
BRANCH   7  12
ATOM     12  N   UNL A   1      30.080  27.497  23.624  1.00  0.00    -0.321 N 
ATOM     13  C   UNL A   1      29.519  26.269  23.908  1.00  0.00     0.255 C 
ATOM     14  O   UNL A   1      28.294  26.148  23.851  1.00  0.00    -0.269 OA
ATOM     15  H   UNL A   1      29.422  28.226  23.565  1.00  0.00     0.170 HD
BRANCH  13  16
ATOM     16  C   UNL A   1      30.316  25.149  24.480  1.00  0.00     0.040 A 
ATOM     17  C   UNL A   1      31.512  22.844  25.569  1.00  0.00     0.041 A 
ATOM     18  C   UNL A   1      31.181  23.921  26.373  1.00  0.00     0.027 A 
ATOM     19  C   UNL A   1      31.384  22.980  24.184  1.00  0.00     0.027 A 
ATOM     20  C   UNL A   1      30.495  25.005  25.851  1.00  0.00     0.016 A 
ATOM     21  C   UNL A   1      30.792  24.133  23.642  1.00  0.00     0.016 A 
BRANCH  17  22
ATOM     22  N   UNL A   1      31.877  21.598  26.106  1.00  0.00    -0.322 N 
ATOM     23  C   UNL A   1      33.115  20.986  26.229  1.00  0.00     0.256 C 
ATOM     24  O   UNL A   1      33.169  19.816  26.607  1.00  0.00    -0.269 OA
ATOM     25  H   UNL A   1      31.124  21.068  26.454  1.00  0.00     0.170 HD
BRANCH  23  26
ATOM     26  C   UNL A   1      34.401  21.677  25.905  1.00  0.00     0.049 A 
ATOM     27  C   UNL A   1      35.458  19.667  24.747  1.00  0.00     0.053 C 
ATOM     28  C   UNL A   1      35.545  21.039  25.366  1.00  0.00     0.039 A 
ATOM     29  C   UNL A   1      36.769  21.743  25.446  1.00  0.00     0.273 A 
ATOM     30  C   UNL A   1      34.449  23.045  26.238  1.00  0.00     0.014 A 
ATOM     31  C   UNL A   1      36.814  23.101  25.807  1.00  0.00     0.086 A 
ATOM     32  C   UNL A   1      35.640  23.763  26.151  1.00  0.00     0.008 A 
BRANCH  29  33
ATOM     33  N   UNL A   1      38.061  21.058  25.296  1.00  0.00     0.063 N 
ATOM     34  O   UNL A   1      39.050  21.579  25.829  1.00  0.00    -0.258 OA
ATOM     35  O   UNL A   1      38.068  19.963  24.717  1.00  0.00    -0.258 OA
ENDBRANCH  29  33
ENDBRANCH  23  26
ENDBRANCH  17  22
ENDBRANCH  13  16
ENDBRANCH   7  12
ENDBRANCH   3   6
ENDBRANCH   1   2
BRANCH   1  36
ATOM     36  C   UNL A   1      34.012  28.621  27.278  1.00  0.00     0.023 C 
BRANCH  36  37
ATOM     37  C   UNL A   1      34.686  29.983  27.152  1.00  0.00     0.023 C 
BRANCH  37  38
ATOM     38  C   UNL A   1      34.502  30.879  28.363  1.00  0.00     0.116 C 
BRANCH  38  39
ATOM     39  N   UNL A   1      35.534  31.902  28.523  1.00  0.00    -0.352 N 
ATOM     40  C   UNL A   1      36.900  31.750  28.728  1.00  0.00     0.251 C 
ATOM     41  H   UNL A   1      35.216  32.832  28.479  1.00  0.00     0.163 HD
ATOM     42  O   UNL A   1      37.616  32.721  28.891  1.00  0.00    -0.269 OA
BRANCH  40  43
ATOM     43  C   UNL A   1      37.496  30.397  28.597  1.00  0.00     0.039 A 
ATOM     44  C   UNL A   1      37.679  29.649  29.767  1.00  0.00     0.014 A 
ATOM     45  C   UNL A   1      38.099  30.005  27.409  1.00  0.00     0.014 A 
ATOM     46  C   UNL A   1      38.691  28.697  29.806  1.00  0.00     0.010 A 
ATOM     47  C   UNL A   1      39.185  29.162  27.478  1.00  0.00     0.010 A 
ATOM     48  C   UNL A   1      39.524  28.569  28.698  1.00  0.00    -0.014 A 
BRANCH  48  49
ATOM     49  C   UNL A   1      40.821  27.912  28.737  1.00  0.00     0.031 A 
ATOM     50  C   UNL A   1      40.906  26.457  28.515  1.00  0.00     0.074 A 
ATOM     51  C   UNL A   1      41.937  28.664  28.856  1.00  0.00     0.049 A 
ATOM     52  N   UNL A   1      41.923  25.729  28.823  1.00  0.00    -0.248 NA
ATOM     53  C   UNL A   1      39.793  25.687  27.978  1.00  0.00     0.031 C 
ATOM     54  C   UNL A   1      43.321  28.253  28.629  1.00  0.00     0.029 A 
ATOM     55  N   UNL A   1      42.045  29.948  29.421  1.00  0.00    -0.354 N 
ATOM     56  C   UNL A   1      41.723  24.474  28.292  1.00  0.00     0.074 A 
ATOM     57  C   UNL A   1      40.346  24.477  27.865  1.00  0.00     0.031 C 
ATOM     58  C   UNL A   1      44.132  29.078  29.310  1.00  0.00     0.029 A 
ATOM     59  C   UNL A   1      43.282  29.944  30.108  1.00  0.00     0.049 A 
ATOM     60  H   UNL A   1      41.399  30.688  29.355  1.00  0.00     0.167 HD
ATOM     61  C   UNL A   1      42.801  23.644  28.173  1.00  0.00     0.037 A 
ATOM     62  C   UNL A   1      43.335  30.048  31.468  1.00  0.00     0.037 A 
ATOM     63  C   UNL A   1      43.947  24.196  28.903  1.00  0.00     0.049 A 
ATOM     64  C   UNL A   1      43.992  28.865  32.142  1.00  0.00     0.074 A 
ATOM     65  C   UNL A   1      45.082  24.888  28.508  1.00  0.00     0.029 A 
ATOM     66  N   UNL A   1      43.857  24.351  30.285  1.00  0.00    -0.354 N 
ATOM     67  N   UNL A   1      44.127  27.691  31.587  1.00  0.00    -0.248 NA
ATOM     68  C   UNL A   1      44.527  28.908  33.499  1.00  0.00     0.031 C 
ATOM     69  C   UNL A   1      45.631  25.521  29.655  1.00  0.00     0.029 A 
ATOM     70  C   UNL A   1      44.850  25.191  30.750  1.00  0.00     0.049 A 
ATOM     71  H   UNL A   1      43.178  23.919  30.852  1.00  0.00     0.167 HD
ATOM     72  C   UNL A   1      44.726  26.833  32.473  1.00  0.00     0.074 A 
ATOM     73  C   UNL A   1      44.977  27.649  33.647  1.00  0.00     0.031 C 
ATOM     74  C   UNL A   1      44.950  25.519  32.167  1.00  0.00     0.037 A 
BRANCH  61  75
ATOM     75  C   UNL A   1      42.915  22.479  27.197  1.00  0.00     0.064 A 
ATOM     76  C   UNL A   1      42.145  21.307  27.393  1.00  0.00     0.173 A 
ATOM     77  C   UNL A   1      43.812  22.392  26.114  1.00  0.00     0.173 A 
ATOM     78  F   UNL A   1      41.184  21.249  28.325  1.00  0.00    -0.203 F 
ATOM     79  C   UNL A   1      42.331  20.140  26.641  1.00  0.00     0.198 A 
ATOM     80  C   UNL A   1      44.018  21.219  25.379  1.00  0.00     0.198 A 
ATOM     81  F   UNL A   1      44.504  23.443  25.674  1.00  0.00    -0.203 F 
ATOM     82  F   UNL A   1      41.580  19.058  26.895  1.00  0.00    -0.200 F 
ATOM     83  C   UNL A   1      43.286  20.087  25.650  1.00  0.00     0.200 A 
ATOM     84  F   UNL A   1      44.937  21.205  24.402  1.00  0.00    -0.200 F 
ATOM     85  F   UNL A   1      43.485  18.965  24.946  1.00  0.00    -0.200 F 
ENDBRANCH  61  75
BRANCH  62  86
ATOM     86  C   UNL A   1      42.217  30.852  32.035  1.00  0.00     0.064 A 
ATOM     87  C   UNL A   1      42.232  32.247  31.831  1.00  0.00     0.173 A 
ATOM     88  C   UNL A   1      41.002  30.268  32.409  1.00  0.00     0.173 A 
ATOM     89  F   UNL A   1      43.372  32.859  31.471  1.00  0.00    -0.203 F 
ATOM     90  C   UNL A   1      41.062  33.000  31.870  1.00  0.00     0.198 A 
ATOM     91  C   UNL A   1      39.832  31.032  32.467  1.00  0.00     0.198 A 
ATOM     92  F   UNL A   1      40.913  28.945  32.600  1.00  0.00    -0.203 F 
ATOM     93  F   UNL A   1      41.094  34.301  31.545  1.00  0.00    -0.200 F 
ATOM     94  C   UNL A   1      39.856  32.385  32.162  1.00  0.00     0.200 A 
ATOM     95  F   UNL A   1      38.659  30.434  32.719  1.00  0.00    -0.200 F 
ATOM     96  F   UNL A   1      38.715  33.086  32.105  1.00  0.00    -0.200 F 
ENDBRANCH  62  86
BRANCH  74  97
ATOM     97  C   UNL A   1      45.360  24.432  33.138  1.00  0.00     0.064 A 
ATOM     98  C   UNL A   1      44.555  23.334  33.482  1.00  0.00     0.173 A 
ATOM     99  C   UNL A   1      46.682  24.393  33.649  1.00  0.00     0.173 A 
ATOM    100  F   UNL A   1      43.329  23.175  32.966  1.00  0.00    -0.203 F 
ATOM    101  C   UNL A   1      45.009  22.315  34.325  1.00  0.00     0.198 A 
ATOM    102  C   UNL A   1      47.153  23.342  34.435  1.00  0.00     0.198 A 
ATOM    103  F   UNL A   1      47.570  25.360  33.376  1.00  0.00    -0.203 F 
ATOM    104  F   UNL A   1      44.183  21.314  34.659  1.00  0.00    -0.200 F 
ATOM    105  C   UNL A   1      46.311  22.311  34.790  1.00  0.00     0.200 A 
ATOM    106  F   UNL A   1      48.435  23.327  34.828  1.00  0.00    -0.200 F 
ATOM    107  F   UNL A   1      46.757  21.306  35.556  1.00  0.00    -0.200 F 
ENDBRANCH  74  97
ENDBRANCH  48  49
ENDBRANCH  40  43
ENDBRANCH  38  39
ENDBRANCH  37  38
ENDBRANCH  36  37
ENDBRANCH   1  36
TORSDOF 16
ENDMDL
MODEL 2
REMARK VINA RESULT:     -14.2      1.270      2.014
REMARK SMILES Cc1c(C(=O)Nc2ccc(C(=O)Nc3ccccc3C(=O)NCCCCNC(=O)c3ccc(-c4c5nc(c(-c6c(F)c(F)c(F)c(F)c6F)c6ccc([nH]6)c(-c6c(F)c(F)c(F)c(F)c6F)c6nc(c(-c7c(F)c(F)c(F)c(F)c7F)c7ccc4[nH]7)C=C6)C=C5)cc3)cc2)cccc1[N+](=O)[O-]
REMARK SMILES IDX 23 1 22 2 20 3 21 4 19 6 14 7 15 8 16 9 18 10 17 11 13 12
REMARK SMILES IDX 11 13 12 14 10 16 7 17 8 18 94 19 9 20 93 21 6 22 4 23 5 24
REMARK SMILES IDX 3 26 1 27 2 28 98 29 95 30 97 31 96 32 99 33 100 34 101 35
REMARK SMILES IDX 24 36 25 37 26 38 27 39 28 40 29 42 30 43 31 44 92 45 32 46
REMARK SMILES IDX 91 47 33 48 34 49 35 50 85 51 36 52 90 53 84 54 86 55 37 56
REMARK SMILES IDX 89 57 83 58 82 59 38 61 70 62 50 63 69 64 51 65 54 66 68 67
REMARK SMILES IDX 87 68 52 69 53 70 67 72 88 73 55 74 39 75 40 76 48 77 41 78
REMARK SMILES IDX 42 79 46 80 49 81 43 82 44 83 47 84 45 85 71 86 72 87 80 88
REMARK SMILES IDX 73 89 74 90 78 91 81 92 75 93 76 94 79 95 77 96 56 97 57 98
REMARK SMILES IDX 65 99 58 100 59 101 63 102 66 103 60 104 61 105 64 106
REMARK SMILES IDX 62 107
REMARK H PARENT 22 5 13 15 6 25 27 41 86 60 54 71
REMARK Flexibility Score: inf
ROOT
ATOM      1  C   UNL A   1      32.326  28.842  26.882  1.00  0.00     0.116 C 
ENDROOT
BRANCH   1   2
ATOM      2  N   UNL A   1      31.559  29.660  25.949  1.00  0.00    -0.352 N 
ATOM      3  C   UNL A   1      31.051  29.440  24.680  1.00  0.00     0.253 C 
ATOM      4  O   UNL A   1      30.255  30.268  24.238  1.00  0.00    -0.269 OA
ATOM      5  H   UNL A   1      31.360  30.560  26.294  1.00  0.00     0.163 HD
BRANCH   3   6
ATOM      6  C   UNL A   1      31.458  28.287  23.827  1.00  0.00     0.063 A 
ATOM      7  C   UNL A   1      31.075  26.952  24.114  1.00  0.00     0.054 A 
ATOM      8  C   UNL A   1      31.497  25.918  23.256  1.00  0.00     0.027 A 
ATOM      9  C   UNL A   1      32.235  26.192  22.108  1.00  0.00     0.002 A 
ATOM     10  C   UNL A   1      32.318  28.516  22.741  1.00  0.00     0.016 A 
ATOM     11  C   UNL A   1      32.662  27.490  21.859  1.00  0.00     0.001 A 
BRANCH   7  12
ATOM     12  N   UNL A   1      30.247  26.507  25.168  1.00  0.00    -0.321 N 
ATOM     13  C   UNL A   1      30.355  25.468  26.068  1.00  0.00     0.255 C 
ATOM     14  O   UNL A   1      29.378  25.177  26.761  1.00  0.00    -0.269 OA
ATOM     15  H   UNL A   1      29.431  27.046  25.285  1.00  0.00     0.170 HD
BRANCH  13  16
ATOM     16  C   UNL A   1      31.661  24.826  26.381  1.00  0.00     0.040 A 
ATOM     17  C   UNL A   1      34.133  23.498  26.626  1.00  0.00     0.041 A 
ATOM     18  C   UNL A   1      32.965  22.919  27.090  1.00  0.00     0.027 A 
ATOM     19  C   UNL A   1      34.089  24.820  26.173  1.00  0.00     0.027 A 
ATOM     20  C   UNL A   1      31.741  23.527  26.869  1.00  0.00     0.016 A 
ATOM     21  C   UNL A   1      32.855  25.483  26.056  1.00  0.00     0.016 A 
BRANCH  17  22
ATOM     22  N   UNL A   1      35.330  22.772  26.509  1.00  0.00    -0.322 N 
ATOM     23  C   UNL A   1      35.616  21.585  25.853  1.00  0.00     0.256 C 
ATOM     24  O   UNL A   1      36.719  21.063  26.014  1.00  0.00    -0.269 OA
ATOM     25  H   UNL A   1      36.098  23.177  26.973  1.00  0.00     0.170 HD
BRANCH  23  26
ATOM     26  C   UNL A   1      34.635  20.889  24.964  1.00  0.00     0.049 A 
ATOM     27  C   UNL A   1      34.535  22.750  23.226  1.00  0.00     0.053 C 
ATOM     28  C   UNL A   1      34.010  21.476  23.838  1.00  0.00     0.039 A 
ATOM     29  C   UNL A   1      32.868  20.819  23.324  1.00  0.00     0.273 A 
ATOM     30  C   UNL A   1      34.294  19.580  25.356  1.00  0.00     0.014 A 
ATOM     31  C   UNL A   1      32.515  19.524  23.739  1.00  0.00     0.086 A 
ATOM     32  C   UNL A   1      33.266  18.886  24.721  1.00  0.00     0.008 A 
BRANCH  29  33
ATOM     33  N   UNL A   1      31.917  21.510  22.440  1.00  0.00     0.063 N 
ATOM     34  O   UNL A   1      31.344  22.513  22.888  1.00  0.00    -0.258 OA
ATOM     35  O   UNL A   1      31.807  21.097  21.277  1.00  0.00    -0.258 OA
ENDBRANCH  29  33
ENDBRANCH  23  26
ENDBRANCH  17  22
ENDBRANCH  13  16
ENDBRANCH   7  12
ENDBRANCH   3   6
ENDBRANCH   1   2
BRANCH   1  36
ATOM     36  C   UNL A   1      33.859  28.953  26.834  1.00  0.00     0.023 C 
BRANCH  36  37
ATOM     37  C   UNL A   1      34.485  30.335  26.978  1.00  0.00     0.023 C 
BRANCH  37  38
ATOM     38  C   UNL A   1      34.409  30.906  28.383  1.00  0.00     0.116 C 
BRANCH  38  39
ATOM     39  N   UNL A   1      35.421  31.917  28.681  1.00  0.00    -0.352 N 
ATOM     40  C   UNL A   1      36.770  31.755  28.970  1.00  0.00     0.251 C 
ATOM     41  H   UNL A   1      35.100  32.847  28.678  1.00  0.00     0.163 HD
ATOM     42  O   UNL A   1      37.467  32.714  29.246  1.00  0.00    -0.269 OA
BRANCH  40  43
ATOM     43  C   UNL A   1      37.383  30.415  28.790  1.00  0.00     0.039 A 
ATOM     44  C   UNL A   1      37.575  29.627  29.931  1.00  0.00     0.014 A 
ATOM     45  C   UNL A   1      37.991  30.074  27.588  1.00  0.00     0.014 A 
ATOM     46  C   UNL A   1      38.599  28.687  29.936  1.00  0.00     0.010 A 
ATOM     47  C   UNL A   1      39.086  29.243  27.626  1.00  0.00     0.010 A 
ATOM     48  C   UNL A   1      39.434  28.610  28.824  1.00  0.00    -0.014 A 
BRANCH  48  49
ATOM     49  C   UNL A   1      40.739  27.968  28.839  1.00  0.00     0.031 A 
ATOM     50  C   UNL A   1      40.838  26.518  28.596  1.00  0.00     0.074 A 
ATOM     51  C   UNL A   1      41.847  28.732  28.957  1.00  0.00     0.049 A 
ATOM     52  N   UNL A   1      41.867  25.797  28.882  1.00  0.00    -0.248 NA
ATOM     53  C   UNL A   1      39.728  25.742  28.060  1.00  0.00     0.031 C 
ATOM     54  C   UNL A   1      43.233  28.341  28.709  1.00  0.00     0.029 A 
ATOM     55  N   UNL A   1      41.946  30.008  29.539  1.00  0.00    -0.354 N 
ATOM     56  C   UNL A   1      41.677  24.548  28.335  1.00  0.00     0.074 A 
ATOM     57  C   UNL A   1      40.295  24.541  27.923  1.00  0.00     0.031 C 
ATOM     58  C   UNL A   1      44.042  29.166  29.393  1.00  0.00     0.029 A 
ATOM     59  C   UNL A   1      43.190  30.010  30.213  1.00  0.00     0.049 A 
ATOM     60  H   UNL A   1      41.290  30.742  29.491  1.00  0.00     0.167 HD
ATOM     61  C   UNL A   1      42.763  23.732  28.193  1.00  0.00     0.037 A 
ATOM     62  C   UNL A   1      43.257  30.094  31.573  1.00  0.00     0.037 A 
ATOM     63  C   UNL A   1      43.910  24.288  28.918  1.00  0.00     0.049 A 
ATOM     64  C   UNL A   1      43.935  28.910  32.223  1.00  0.00     0.074 A 
ATOM     65  C   UNL A   1      45.032  24.999  28.521  1.00  0.00     0.029 A 
ATOM     66  N   UNL A   1      43.834  24.422  30.303  1.00  0.00    -0.354 N 
ATOM     67  N   UNL A   1      44.078  27.747  31.650  1.00  0.00    -0.248 NA
ATOM     68  C   UNL A   1      44.485  28.941  33.574  1.00  0.00     0.031 C 
ATOM     69  C   UNL A   1      45.586  25.623  29.671  1.00  0.00     0.029 A 
ATOM     70  C   UNL A   1      44.822  25.267  30.769  1.00  0.00     0.049 A 
ATOM     71  H   UNL A   1      43.166  23.974  30.871  1.00  0.00     0.167 HD
ATOM     72  C   UNL A   1      44.698  26.883  32.516  1.00  0.00     0.074 A 
ATOM     73  C   UNL A   1      44.952  27.685  33.699  1.00  0.00     0.031 C 
ATOM     74  C   UNL A   1      44.933  25.576  32.189  1.00  0.00     0.037 A 
BRANCH  61  75
ATOM     75  C   UNL A   1      42.880  22.583  27.199  1.00  0.00     0.064 A 
ATOM     76  C   UNL A   1      42.117  21.403  27.380  1.00  0.00     0.173 A 
ATOM     77  C   UNL A   1      43.773  22.518  26.110  1.00  0.00     0.173 A 
ATOM     78  F   UNL A   1      41.161  21.326  28.315  1.00  0.00    -0.203 F 
ATOM     79  C   UNL A   1      42.307  20.249  26.610  1.00  0.00     0.198 A 
ATOM     80  C   UNL A   1      43.983  21.357  25.358  1.00  0.00     0.198 A 
ATOM     81  F   UNL A   1      44.456  23.580  25.684  1.00  0.00    -0.203 F 
ATOM     82  F   UNL A   1      41.564  19.159  26.851  1.00  0.00    -0.200 F 
ATOM     83  C   UNL A   1      43.259  20.217  25.614  1.00  0.00     0.200 A 
ATOM     84  F   UNL A   1      44.897  21.364  24.376  1.00  0.00    -0.200 F 
ATOM     85  F   UNL A   1      43.462  19.107  24.893  1.00  0.00    -0.200 F 
ENDBRANCH  61  75
BRANCH  62  86
ATOM     86  C   UNL A   1      42.136  30.877  32.164  1.00  0.00     0.064 A 
ATOM     87  C   UNL A   1      42.145  32.277  32.000  1.00  0.00     0.173 A 
ATOM     88  C   UNL A   1      40.924  30.278  32.522  1.00  0.00     0.173 A 
ATOM     89  F   UNL A   1      43.282  32.905  31.656  1.00  0.00    -0.203 F 
ATOM     90  C   UNL A   1      40.971  33.023  32.061  1.00  0.00     0.198 A 
ATOM     91  C   UNL A   1      39.751  31.034  32.603  1.00  0.00     0.198 A 
ATOM     92  F   UNL A   1      40.842  28.949  32.675  1.00  0.00    -0.203 F 
ATOM     93  F   UNL A   1      40.996  34.333  31.773  1.00  0.00    -0.200 F 
ATOM     94  C   UNL A   1      39.768  32.395  32.336  1.00  0.00     0.200 A 
ATOM     95  F   UNL A   1      38.581  30.423  32.840  1.00  0.00    -0.200 F 
ATOM     96  F   UNL A   1      38.624  33.092  32.300  1.00  0.00    -0.200 F 
ENDBRANCH  62  86
BRANCH  74  97
ATOM     97  C   UNL A   1      45.367  24.480  33.139  1.00  0.00     0.064 A 
ATOM     98  C   UNL A   1      44.566  23.386  33.503  1.00  0.00     0.173 A 
ATOM     99  C   UNL A   1      46.705  24.429  33.607  1.00  0.00     0.173 A 
ATOM    100  F   UNL A   1      43.323  23.238  33.026  1.00  0.00    -0.203 F 
ATOM    101  C   UNL A   1      45.040  22.358  34.325  1.00  0.00     0.198 A 
ATOM    102  C   UNL A   1      47.193  23.371  34.371  1.00  0.00     0.198 A 
ATOM    103  F   UNL A   1      47.590  25.392  33.311  1.00  0.00    -0.203 F 
ATOM    104  F   UNL A   1      44.218  21.361  34.680  1.00  0.00    -0.200 F 
ATOM    105  C   UNL A   1      46.356  22.343  34.748  1.00  0.00     0.200 A 
ATOM    106  F   UNL A   1      48.488  23.344  34.722  1.00  0.00    -0.200 F 
ATOM    107  F   UNL A   1      46.820  21.330  35.492  1.00  0.00    -0.200 F 
ENDBRANCH  74  97
ENDBRANCH  48  49
ENDBRANCH  40  43
ENDBRANCH  38  39
ENDBRANCH  37  38
ENDBRANCH  36  37
ENDBRANCH   1  36
TORSDOF 16
ENDMDL
MODEL 3
REMARK VINA RESULT:     -14.1      3.217      9.312
REMARK SMILES Cc1c(C(=O)Nc2ccc(C(=O)Nc3ccccc3C(=O)NCCCCNC(=O)c3ccc(-c4c5nc(c(-c6c(F)c(F)c(F)c(F)c6F)c6ccc([nH]6)c(-c6c(F)c(F)c(F)c(F)c6F)c6nc(c(-c7c(F)c(F)c(F)c(F)c7F)c7ccc4[nH]7)C=C6)C=C5)cc3)cc2)cccc1[N+](=O)[O-]
REMARK SMILES IDX 23 1 22 2 20 3 21 4 19 6 14 7 15 8 16 9 18 10 17 11 13 12
REMARK SMILES IDX 11 13 12 14 10 16 7 17 8 18 94 19 9 20 93 21 6 22 4 23 5 24
REMARK SMILES IDX 3 26 1 27 2 28 98 29 95 30 97 31 96 32 99 33 100 34 101 35
REMARK SMILES IDX 24 36 25 37 26 38 27 39 28 40 29 42 30 43 31 44 92 45 32 46
REMARK SMILES IDX 91 47 33 48 34 49 35 50 85 51 36 52 90 53 84 54 86 55 37 56
REMARK SMILES IDX 89 57 83 58 82 59 38 61 70 62 50 63 69 64 51 65 54 66 68 67
REMARK SMILES IDX 87 68 52 69 53 70 67 72 88 73 55 74 39 75 40 76 48 77 41 78
REMARK SMILES IDX 42 79 46 80 49 81 43 82 44 83 47 84 45 85 71 86 72 87 80 88
REMARK SMILES IDX 73 89 74 90 78 91 81 92 75 93 76 94 79 95 77 96 56 97 57 98
REMARK SMILES IDX 65 99 58 100 59 101 63 102 66 103 60 104 61 105 64 106
REMARK SMILES IDX 62 107
REMARK H PARENT 22 5 13 15 6 25 27 41 86 60 54 71
REMARK Flexibility Score: inf
ROOT
ATOM      1  C   UNL A   1      35.369  24.122  25.210  1.00  0.00     0.116 C 
ENDROOT
BRANCH   1   2
ATOM      2  N   UNL A   1      34.638  23.719  26.407  1.00  0.00    -0.352 N 
ATOM      3  C   UNL A   1      34.125  22.513  26.851  1.00  0.00     0.253 C 
ATOM      4  O   UNL A   1      33.741  22.457  28.019  1.00  0.00    -0.269 OA
ATOM      5  H   UNL A   1      34.475  24.462  27.032  1.00  0.00     0.163 HD
BRANCH   3   6
ATOM      6  C   UNL A   1      33.977  21.316  25.974  1.00  0.00     0.063 A 
ATOM      7  C   UNL A   1      32.713  20.768  25.638  1.00  0.00     0.054 A 
ATOM      8  C   UNL A   1      32.656  19.637  24.800  1.00  0.00     0.027 A 
ATOM      9  C   UNL A   1      33.815  19.086  24.258  1.00  0.00     0.002 A 
ATOM     10  C   UNL A   1      35.132  20.655  25.526  1.00  0.00     0.016 A 
ATOM     11  C   UNL A   1      35.054  19.583  24.634  1.00  0.00     0.001 A 
BRANCH   7  12
ATOM     12  N   UNL A   1      31.441  21.258  26.009  1.00  0.00    -0.321 N 
ATOM     13  C   UNL A   1      30.853  22.502  25.912  1.00  0.00     0.255 C 
ATOM     14  O   UNL A   1      29.793  22.707  26.507  1.00  0.00    -0.269 OA
ATOM     15  H   UNL A   1      30.859  20.578  26.418  1.00  0.00     0.170 HD
BRANCH  13  16
ATOM     16  C   UNL A   1      31.338  23.533  24.954  1.00  0.00     0.040 A 
ATOM     17  C   UNL A   1      32.591  25.383  23.239  1.00  0.00     0.041 A 
ATOM     18  C   UNL A   1      32.068  25.782  24.457  1.00  0.00     0.027 A 
ATOM     19  C   UNL A   1      32.351  24.076  22.805  1.00  0.00     0.027 A 
ATOM     20  C   UNL A   1      31.552  24.850  25.342  1.00  0.00     0.016 A 
ATOM     21  C   UNL A   1      31.721  23.155  23.660  1.00  0.00     0.016 A 
BRANCH  17  22
ATOM     22  N   UNL A   1      33.430  26.215  22.479  1.00  0.00    -0.322 N 
ATOM     23  C   UNL A   1      33.442  27.591  22.315  1.00  0.00     0.256 C 
ATOM     24  O   UNL A   1      34.192  28.087  21.474  1.00  0.00    -0.269 OA
ATOM     25  H   UNL A   1      34.129  25.738  21.977  1.00  0.00     0.170 HD
BRANCH  23  26
ATOM     26  C   UNL A   1      32.567  28.514  23.102  1.00  0.00     0.049 A 
ATOM     27  C   UNL A   1      34.233  28.849  25.001  1.00  0.00     0.053 C 
ATOM     28  C   UNL A   1      32.852  28.973  24.411  1.00  0.00     0.039 A 
ATOM     29  C   UNL A   1      31.780  29.542  25.138  1.00  0.00     0.273 A 
ATOM     30  C   UNL A   1      31.355  28.870  22.480  1.00  0.00     0.014 A 
ATOM     31  C   UNL A   1      30.562  29.869  24.519  1.00  0.00     0.086 A 
ATOM     32  C   UNL A   1      30.374  29.578  23.171  1.00  0.00     0.008 A 
BRANCH  29  33
ATOM     33  N   UNL A   1      31.835  29.686  26.600  1.00  0.00     0.063 N 
ATOM     34  O   UNL A   1      31.479  28.717  27.285  1.00  0.00    -0.258 OA
ATOM     35  O   UNL A   1      32.309  30.735  27.058  1.00  0.00    -0.258 OA
ENDBRANCH  29  33
ENDBRANCH  23  26
ENDBRANCH  17  22
ENDBRANCH  13  16
ENDBRANCH   7  12
ENDBRANCH   3   6
ENDBRANCH   1   2
BRANCH   1  36
ATOM     36  C   UNL A   1      36.851  23.728  25.113  1.00  0.00     0.023 C 
BRANCH  36  37
ATOM     37  C   UNL A   1      37.613  23.468  26.407  1.00  0.00     0.023 C 
BRANCH  37  38
ATOM     38  C   UNL A   1      39.122  23.554  26.265  1.00  0.00     0.116 C 
BRANCH  38  39
ATOM     39  N   UNL A   1      39.774  22.289  25.935  1.00  0.00    -0.352 N 
ATOM     40  C   UNL A   1      41.102  21.913  26.100  1.00  0.00     0.251 C 
ATOM     41  H   UNL A   1      39.189  21.604  25.540  1.00  0.00     0.163 HD
ATOM     42  O   UNL A   1      41.491  20.823  25.721  1.00  0.00    -0.269 OA
BRANCH  40  43
ATOM     43  C   UNL A   1      42.004  22.799  26.878  1.00  0.00     0.039 A 
ATOM     44  C   UNL A   1      42.003  22.667  28.272  1.00  0.00     0.014 A 
ATOM     45  C   UNL A   1      42.609  23.893  26.273  1.00  0.00     0.014 A 
ATOM     46  C   UNL A   1      42.341  23.767  29.052  1.00  0.00     0.010 A 
ATOM     47  C   UNL A   1      42.818  25.022  27.032  1.00  0.00     0.010 A 
ATOM     48  C   UNL A   1      42.608  24.975  28.414  1.00  0.00    -0.014 A 
BRANCH  48  49
ATOM     49  C   UNL A   1      42.598  26.264  29.090  1.00  0.00     0.031 A 
ATOM     50  C   UNL A   1      41.402  27.121  29.003  1.00  0.00     0.074 A 
ATOM     51  C   UNL A   1      43.638  26.598  29.886  1.00  0.00     0.049 A 
ATOM     52  N   UNL A   1      41.382  28.378  29.285  1.00  0.00    -0.248 NA
ATOM     53  C   UNL A   1      40.124  26.624  28.511  1.00  0.00     0.031 C 
ATOM     54  C   UNL A   1      43.703  27.681  30.864  1.00  0.00     0.029 A 
ATOM     55  N   UNL A   1      44.958  26.118  29.811  1.00  0.00    -0.354 N 
ATOM     56  C   UNL A   1      40.069  28.793  29.281  1.00  0.00     0.074 A 
ATOM     57  C   UNL A   1      39.343  27.691  28.700  1.00  0.00     0.031 C 
ATOM     58  C   UNL A   1      44.991  28.002  31.065  1.00  0.00     0.029 A 
ATOM     59  C   UNL A   1      45.773  27.235  30.111  1.00  0.00     0.049 A 
ATOM     60  H   UNL A   1      45.252  25.203  29.595  1.00  0.00     0.167 HD
ATOM     61  C   UNL A   1      39.762  29.974  29.894  1.00  0.00     0.037 A 
ATOM     62  C   UNL A   1      46.603  27.775  29.173  1.00  0.00     0.037 A 
ATOM     63  C   UNL A   1      40.991  30.707  30.220  1.00  0.00     0.049 A 
ATOM     64  C   UNL A   1      46.304  29.223  28.859  1.00  0.00     0.074 A 
ATOM     65  C   UNL A   1      41.714  30.876  31.390  1.00  0.00     0.029 A 
ATOM     66  N   UNL A   1      41.821  31.130  29.184  1.00  0.00    -0.354 N 
ATOM     67  N   UNL A   1      45.162  29.803  29.107  1.00  0.00    -0.248 NA
ATOM     68  C   UNL A   1      47.262  30.123  28.224  1.00  0.00     0.031 C 
ATOM     69  C   UNL A   1      43.013  31.334  31.041  1.00  0.00     0.029 A 
ATOM     70  C   UNL A   1      43.069  31.473  29.664  1.00  0.00     0.049 A 
ATOM     71  H   UNL A   1      41.553  31.178  28.238  1.00  0.00     0.167 HD
ATOM     72  C   UNL A   1      45.202  31.102  28.668  1.00  0.00     0.074 A 
ATOM     73  C   UNL A   1      46.547  31.259  28.144  1.00  0.00     0.031 C 
ATOM     74  C   UNL A   1      44.118  31.930  28.762  1.00  0.00     0.037 A 
BRANCH  61  75
ATOM     75  C   UNL A   1      38.392  30.358  30.437  1.00  0.00     0.064 A 
ATOM     76  C   UNL A   1      37.348  30.715  29.550  1.00  0.00     0.173 A 
ATOM     77  C   UNL A   1      38.049  30.491  31.798  1.00  0.00     0.173 A 
ATOM     78  F   UNL A   1      37.475  30.567  28.225  1.00  0.00    -0.203 F 
ATOM     79  C   UNL A   1      36.126  31.245  29.986  1.00  0.00     0.198 A 
ATOM     80  C   UNL A   1      36.840  31.046  32.235  1.00  0.00     0.198 A 
ATOM     81  F   UNL A   1      38.837  30.054  32.779  1.00  0.00    -0.203 F 
ATOM     82  F   UNL A   1      35.189  31.583  29.089  1.00  0.00    -0.200 F 
ATOM     83  C   UNL A   1      35.882  31.435  31.329  1.00  0.00     0.200 A 
ATOM     84  F   UNL A   1      36.619  31.193  33.549  1.00  0.00    -0.200 F 
ATOM     85  F   UNL A   1      34.726  31.965  31.749  1.00  0.00    -0.200 F 
ENDBRANCH  61  75
BRANCH  62  86
ATOM     86  C   UNL A   1      47.117  26.771  28.201  1.00  0.00     0.064 A 
ATOM     87  C   UNL A   1      46.477  26.670  26.949  1.00  0.00     0.173 A 
ATOM     88  C   UNL A   1      48.397  26.218  28.317  1.00  0.00     0.173 A 
ATOM     89  F   UNL A   1      45.248  27.185  26.782  1.00  0.00    -0.203 F 
ATOM     90  C   UNL A   1      47.137  26.159  25.835  1.00  0.00     0.198 A 
ATOM     91  C   UNL A   1      49.048  25.686  27.200  1.00  0.00     0.198 A 
ATOM     92  F   UNL A   1      49.069  26.296  29.474  1.00  0.00    -0.203 F 
ATOM     93  F   UNL A   1      46.544  26.196  24.632  1.00  0.00    -0.200 F 
ATOM     94  C   UNL A   1      48.434  25.692  25.956  1.00  0.00     0.200 A 
ATOM     95  F   UNL A   1      50.315  25.261  27.308  1.00  0.00    -0.200 F 
ATOM     96  F   UNL A   1      49.107  25.289  24.868  1.00  0.00    -0.200 F 
ENDBRANCH  62  86
BRANCH  74  97
ATOM     97  C   UNL A   1      43.963  33.279  28.091  1.00  0.00     0.064 A 
ATOM     98  C   UNL A   1      43.826  33.461  26.705  1.00  0.00     0.173 A 
ATOM     99  C   UNL A   1      43.794  34.450  28.872  1.00  0.00     0.173 A 
ATOM    100  F   UNL A   1      43.834  32.424  25.858  1.00  0.00    -0.203 F 
ATOM    101  C   UNL A   1      43.608  34.722  26.140  1.00  0.00     0.198 A 
ATOM    102  C   UNL A   1      43.511  35.694  28.310  1.00  0.00     0.198 A 
ATOM    103  F   UNL A   1      43.868  34.418  30.211  1.00  0.00    -0.203 F 
ATOM    104  F   UNL A   1      43.532  34.846  24.807  1.00  0.00    -0.200 F 
ATOM    105  C   UNL A   1      43.437  35.835  26.941  1.00  0.00     0.200 A 
ATOM    106  F   UNL A   1      43.290  36.750  29.106  1.00  0.00    -0.200 F 
ATOM    107  F   UNL A   1      43.177  37.031  26.397  1.00  0.00    -0.200 F 
ENDBRANCH  74  97
ENDBRANCH  48  49
ENDBRANCH  40  43
ENDBRANCH  38  39
ENDBRANCH  37  38
ENDBRANCH  36  37
ENDBRANCH   1  36
TORSDOF 16
ENDMDL
