MODEL 1
REMARK VINA RESULT:     -10.9      0.000      0.000
REMARK SMILES CC(C)N1C(=O)C[C@@H](C(=O)NCCCCNC(=O)c2ccc(-c3c4nc(c(-c5c(F)c(F)c(F)c(F)c5F)c5ccc([nH]5)c(-c5c(F)c(F)c(F)c(F)c5F)c5nc(c(-c6c(F)c(F)c(F)c(F)c6F)c6ccc3[nH]6)C=C5)C=C4)cc2)[C@H]1c1ccccc1
REMARK SMILES IDX 14 1 13 2 12 3 11 4 9 5 10 6 8 8 4 9 5 10 82 11 6 12 7 13
REMARK SMILES IDX 2 14 1 15 3 16 83 17 84 18 88 19 85 20 87 21 86 22 15 23
REMARK SMILES IDX 16 24 17 25 18 27 19 28 20 29 81 30 21 31 80 32 22 33 23 34
REMARK SMILES IDX 24 35 74 36 25 37 79 38 73 39 75 40 26 41 78 42 72 43 71 44
REMARK SMILES IDX 27 46 59 47 39 48 58 49 40 50 43 51 57 52 76 53 41 54 42 55
REMARK SMILES IDX 56 57 77 58 44 59 28 60 29 61 37 62 30 63 31 64 35 65 38 66
REMARK SMILES IDX 32 67 33 68 36 69 34 70 60 71 61 72 69 73 62 74 63 75 67 76
REMARK SMILES IDX 70 77 64 78 65 79 68 80 66 81 45 82 46 83 54 84 47 85 48 86
REMARK SMILES IDX 52 87 55 88 49 89 50 90 53 91 51 92
REMARK H PARENT 11 7 16 26 75 45 43 56
REMARK Flexibility Score: inf
ROOT
ATOM      1  C   UNL A   1      34.461  33.660  27.998  1.00  0.00     0.023 C 
ENDROOT
BRANCH   1   2
ATOM      2  C   UNL A   1      34.017  34.974  28.650  1.00  0.00     0.023 C 
BRANCH   2   3
ATOM      3  C   UNL A   1      33.583  34.850  30.113  1.00  0.00     0.116 C 
BRANCH   3   4
ATOM      4  N   UNL A   1      34.526  35.533  30.976  1.00  0.00    -0.356 N 
ATOM      5  C   UNL A   1      34.943  35.158  32.219  1.00  0.00     0.226 C 
ATOM      6  O   UNL A   1      35.153  36.054  33.033  1.00  0.00    -0.275 OA
ATOM      7  H   UNL A   1      34.912  36.367  30.623  1.00  0.00     0.163 HD
BRANCH   5   8
ATOM      8  C   UNL A   1      35.044  33.678  32.544  1.00  0.00     0.115 C 
ATOM      9  N   UNL A   1      36.992  33.213  33.819  1.00  0.00    -0.332 N 
ATOM     10  C   UNL A   1      35.960  33.453  34.732  1.00  0.00     0.224 C 
ATOM     11  C   UNL A   1      36.446  33.044  32.480  1.00  0.00     0.128 C 
ATOM     12  O   UNL A   1      36.060  33.484  35.953  1.00  0.00    -0.275 OA
ATOM     13  C   UNL A   1      34.642  33.503  34.001  1.00  0.00     0.116 C 
BRANCH   9  14
ATOM     14  C   UNL A   1      38.260  32.652  34.316  1.00  0.00     0.079 C 
ATOM     15  C   UNL A   1      38.558  31.307  33.643  1.00  0.00     0.031 C 
ATOM     16  C   UNL A   1      39.483  33.559  34.221  1.00  0.00     0.031 C 
ENDBRANCH   9  14
BRANCH  11  17
ATOM     17  C   UNL A   1      37.302  33.459  31.300  1.00  0.00    -0.025 A 
ATOM     18  C   UNL A   1      37.228  32.820  30.054  1.00  0.00     0.006 A 
ATOM     19  C   UNL A   1      38.199  34.533  31.431  1.00  0.00     0.006 A 
ATOM     20  C   UNL A   1      38.026  33.220  28.980  1.00  0.00     0.000 A 
ATOM     21  C   UNL A   1      38.981  34.953  30.349  1.00  0.00     0.000 A 
ATOM     22  C   UNL A   1      38.898  34.292  29.126  1.00  0.00     0.000 A 
ENDBRANCH  11  17
ENDBRANCH   5   8
ENDBRANCH   3   4
ENDBRANCH   2   3
ENDBRANCH   1   2
BRANCH   1  23
ATOM     23  C   UNL A   1      34.447  32.445  28.917  1.00  0.00     0.116 C 
BRANCH  23  24
ATOM     24  N   UNL A   1      33.842  31.280  28.293  1.00  0.00    -0.352 N 
ATOM     25  C   UNL A   1      34.429  30.105  27.896  1.00  0.00     0.251 C 
ATOM     26  H   UNL A   1      32.872  31.344  28.132  1.00  0.00     0.163 HD
ATOM     27  O   UNL A   1      33.790  29.288  27.241  1.00  0.00    -0.269 OA
BRANCH  25  28
ATOM     28  C   UNL A   1      35.843  29.835  28.235  1.00  0.00     0.039 A 
ATOM     29  C   UNL A   1      36.146  29.328  29.501  1.00  0.00     0.014 A 
ATOM     30  C   UNL A   1      36.866  30.082  27.316  1.00  0.00     0.014 A 
ATOM     31  C   UNL A   1      37.468  29.021  29.827  1.00  0.00     0.010 A 
ATOM     32  C   UNL A   1      38.172  29.702  27.612  1.00  0.00     0.010 A 
ATOM     33  C   UNL A   1      38.489  29.177  28.875  1.00  0.00    -0.014 A 
BRANCH  33  34
ATOM     34  C   UNL A   1      39.896  28.817  29.188  1.00  0.00     0.031 A 
ATOM     35  C   UNL A   1      40.764  29.771  29.961  1.00  0.00     0.074 A 
ATOM     36  C   UNL A   1      40.409  27.658  28.731  1.00  0.00     0.049 A 
ATOM     37  N   UNL A   1      42.031  29.670  30.278  1.00  0.00    -0.248 NA
ATOM     38  C   UNL A   1      40.131  31.019  30.415  1.00  0.00     0.031 C 
ATOM     39  C   UNL A   1      39.684  26.668  27.933  1.00  0.00     0.029 A 
ATOM     40  N   UNL A   1      41.666  27.122  28.862  1.00  0.00    -0.354 N 
ATOM     41  C   UNL A   1      42.346  30.843  30.952  1.00  0.00     0.074 A 
ATOM     42  C   UNL A   1      41.157  31.667  30.948  1.00  0.00     0.031 C 
ATOM     43  C   UNL A   1      40.499  25.635  27.667  1.00  0.00     0.029 A 
ATOM     44  C   UNL A   1      41.815  25.907  28.237  1.00  0.00     0.049 A 
ATOM     45  H   UNL A   1      42.392  27.565  29.357  1.00  0.00     0.167 HD
ATOM     46  C   UNL A   1      43.513  31.191  31.544  1.00  0.00     0.037 A 
ATOM     47  C   UNL A   1      42.893  25.107  28.131  1.00  0.00     0.037 A 
ATOM     48  C   UNL A   1      44.688  30.360  31.565  1.00  0.00     0.049 A 
ATOM     49  C   UNL A   1      44.183  25.523  28.787  1.00  0.00     0.074 A 
ATOM     50  C   UNL A   1      45.905  30.600  32.181  1.00  0.00     0.029 A 
ATOM     51  N   UNL A   1      44.794  29.127  30.938  1.00  0.00    -0.354 N 
ATOM     52  N   UNL A   1      44.450  26.605  29.479  1.00  0.00    -0.248 NA
ATOM     53  C   UNL A   1      45.319  24.600  28.657  1.00  0.00     0.031 C 
ATOM     54  C   UNL A   1      46.764  29.537  31.881  1.00  0.00     0.029 A 
ATOM     55  C   UNL A   1      46.063  28.605  31.134  1.00  0.00     0.049 A 
ATOM     56  H   UNL A   1      44.076  28.688  30.427  1.00  0.00     0.167 HD
ATOM     57  C   UNL A   1      45.768  26.474  29.899  1.00  0.00     0.074 A 
ATOM     58  C   UNL A   1      46.242  25.203  29.392  1.00  0.00     0.031 C 
ATOM     59  C   UNL A   1      46.517  27.329  30.638  1.00  0.00     0.037 A 
BRANCH  46  60
ATOM     60  C   UNL A   1      43.577  32.532  32.220  1.00  0.00     0.064 A 
ATOM     61  C   UNL A   1      44.008  33.682  31.541  1.00  0.00     0.173 A 
ATOM     62  C   UNL A   1      43.171  32.677  33.556  1.00  0.00     0.173 A 
ATOM     63  F   UNL A   1      44.418  33.598  30.266  1.00  0.00    -0.203 F 
ATOM     64  C   UNL A   1      44.063  34.917  32.181  1.00  0.00     0.198 A 
ATOM     65  C   UNL A   1      43.193  33.920  34.183  1.00  0.00     0.198 A 
ATOM     66  F   UNL A   1      42.743  31.613  34.253  1.00  0.00    -0.203 F 
ATOM     67  F   UNL A   1      44.532  35.988  31.527  1.00  0.00    -0.200 F 
ATOM     68  C   UNL A   1      43.648  35.037  33.498  1.00  0.00     0.200 A 
ATOM     69  F   UNL A   1      42.778  34.036  35.451  1.00  0.00    -0.200 F 
ATOM     70  F   UNL A   1      43.694  36.228  34.112  1.00  0.00    -0.200 F 
ENDBRANCH  46  60
BRANCH  47  71
ATOM     71  C   UNL A   1      42.796  23.820  27.393  1.00  0.00     0.064 A 
ATOM     72  C   UNL A   1      42.332  22.659  28.028  1.00  0.00     0.173 A 
ATOM     73  C   UNL A   1      43.177  23.718  26.047  1.00  0.00     0.173 A 
ATOM     74  F   UNL A   1      41.974  22.701  29.321  1.00  0.00    -0.203 F 
ATOM     75  C   UNL A   1      42.278  21.441  27.354  1.00  0.00     0.198 A 
ATOM     76  C   UNL A   1      43.092  22.506  25.365  1.00  0.00     0.198 A 
ATOM     77  F   UNL A   1      43.623  24.799  25.391  1.00  0.00    -0.203 F 
ATOM     78  F   UNL A   1      41.881  20.338  28.001  1.00  0.00    -0.200 F 
ATOM     79  C   UNL A   1      42.652  21.366  26.021  1.00  0.00     0.200 A 
ATOM     80  F   UNL A   1      43.441  22.441  24.072  1.00  0.00    -0.200 F 
ATOM     81  F   UNL A   1      42.598  20.195  25.373  1.00  0.00    -0.200 F 
ENDBRANCH  47  71
BRANCH  59  82
ATOM     82  C   UNL A   1      47.909  26.895  30.998  1.00  0.00     0.064 A 
ATOM     83  C   UNL A   1      48.168  26.067  32.099  1.00  0.00     0.173 A 
ATOM     84  C   UNL A   1      48.998  27.287  30.202  1.00  0.00     0.173 A 
ATOM     85  F   UNL A   1      47.166  25.674  32.900  1.00  0.00    -0.203 F 
ATOM     86  C   UNL A   1      49.468  25.673  32.409  1.00  0.00     0.198 A 
ATOM     87  C   UNL A   1      50.291  26.862  30.494  1.00  0.00     0.198 A 
ATOM     88  F   UNL A   1      48.805  28.071  29.131  1.00  0.00    -0.203 F 
ATOM     89  F   UNL A   1      49.699  24.927  33.498  1.00  0.00    -0.200 F 
ATOM     90  C   UNL A   1      50.526  26.065  31.603  1.00  0.00     0.200 A 
ATOM     91  F   UNL A   1      51.308  27.228  29.704  1.00  0.00    -0.200 F 
ATOM     92  F   UNL A   1      51.774  25.678  31.899  1.00  0.00    -0.200 F 
ENDBRANCH  59  82
ENDBRANCH  33  34
ENDBRANCH  25  28
ENDBRANCH  23  24
ENDBRANCH   1  23
TORSDOF 13
ENDMDL
MODEL 2
REMARK VINA RESULT:     -10.9      0.342      1.289
REMARK SMILES CC(C)N1C(=O)C[C@@H](C(=O)NCCCCNC(=O)c2ccc(-c3c4nc(c(-c5c(F)c(F)c(F)c(F)c5F)c5ccc([nH]5)c(-c5c(F)c(F)c(F)c(F)c5F)c5nc(c(-c6c(F)c(F)c(F)c(F)c6F)c6ccc3[nH]6)C=C5)C=C4)cc2)[C@H]1c1ccccc1
REMARK SMILES IDX 14 1 13 2 12 3 11 4 9 5 10 6 8 8 4 9 5 10 82 11 6 12 7 13
REMARK SMILES IDX 2 14 1 15 3 16 83 17 84 18 88 19 85 20 87 21 86 22 15 23
REMARK SMILES IDX 16 24 17 25 18 27 19 28 20 29 81 30 21 31 80 32 22 33 23 34
REMARK SMILES IDX 24 35 74 36 25 37 79 38 73 39 75 40 26 41 78 42 72 43 71 44
REMARK SMILES IDX 27 46 59 47 39 48 58 49 40 50 43 51 57 52 76 53 41 54 42 55
REMARK SMILES IDX 56 57 77 58 44 59 28 60 29 61 37 62 30 63 31 64 35 65 38 66
REMARK SMILES IDX 32 67 33 68 36 69 34 70 60 71 61 72 69 73 62 74 63 75 67 76
REMARK SMILES IDX 70 77 64 78 65 79 68 80 66 81 45 82 46 83 54 84 47 85 48 86
REMARK SMILES IDX 52 87 55 88 49 89 50 90 53 91 51 92
REMARK H PARENT 11 7 16 26 75 45 43 56
REMARK Flexibility Score: inf
ROOT
ATOM      1  C   UNL A   1      33.549  33.712  28.047  1.00  0.00     0.023 C 
ENDROOT
BRANCH   1   2
ATOM      2  C   UNL A   1      33.920  34.966  28.846  1.00  0.00     0.023 C 
BRANCH   2   3
ATOM      3  C   UNL A   1      33.460  34.956  30.307  1.00  0.00     0.116 C 
BRANCH   3   4
ATOM      4  N   UNL A   1      34.438  35.621  31.145  1.00  0.00    -0.356 N 
ATOM      5  C   UNL A   1      34.910  35.216  32.359  1.00  0.00     0.226 C 
ATOM      6  O   UNL A   1      35.153  36.093  33.185  1.00  0.00    -0.275 OA
ATOM      7  H   UNL A   1      34.807  36.465  30.796  1.00  0.00     0.163 HD
BRANCH   5   8
ATOM      8  C   UNL A   1      35.028  33.729  32.642  1.00  0.00     0.115 C 
ATOM      9  N   UNL A   1      37.028  33.240  33.824  1.00  0.00    -0.332 N 
ATOM     10  C   UNL A   1      36.034  33.453  34.785  1.00  0.00     0.224 C 
ATOM     11  C   UNL A   1      36.428  33.102  32.505  1.00  0.00     0.128 C 
ATOM     12  O   UNL A   1      36.184  33.454  36.001  1.00  0.00    -0.275 OA
ATOM     13  C   UNL A   1      34.687  33.517  34.110  1.00  0.00     0.116 C 
BRANCH   9  14
ATOM     14  C   UNL A   1      38.317  32.671  34.254  1.00  0.00     0.079 C 
ATOM     15  C   UNL A   1      38.576  31.329  33.560  1.00  0.00     0.031 C 
ATOM     16  C   UNL A   1      39.538  33.574  34.103  1.00  0.00     0.031 C 
ENDBRANCH   9  14
BRANCH  11  17
ATOM     17  C   UNL A   1      37.234  33.549  31.302  1.00  0.00    -0.025 A 
ATOM     18  C   UNL A   1      38.206  34.558  31.377  1.00  0.00     0.006 A 
ATOM     19  C   UNL A   1      37.029  32.932  30.055  1.00  0.00     0.006 A 
ATOM     20  C   UNL A   1      38.937  34.952  30.255  1.00  0.00     0.000 A 
ATOM     21  C   UNL A   1      37.778  33.307  28.935  1.00  0.00     0.000 A 
ATOM     22  C   UNL A   1      38.728  34.321  29.035  1.00  0.00     0.000 A 
ENDBRANCH  11  17
ENDBRANCH   5   8
ENDBRANCH   3   4
ENDBRANCH   2   3
ENDBRANCH   1   2
BRANCH   1  23
ATOM     23  C   UNL A   1      34.474  32.519  28.251  1.00  0.00     0.116 C 
BRANCH  23  24
ATOM     24  N   UNL A   1      33.812  31.249  27.996  1.00  0.00    -0.352 N 
ATOM     25  C   UNL A   1      34.355  29.994  27.890  1.00  0.00     0.251 C 
ATOM     26  H   UNL A   1      32.835  31.299  27.883  1.00  0.00     0.163 HD
ATOM     27  O   UNL A   1      33.662  29.053  27.516  1.00  0.00    -0.269 OA
BRANCH  25  28
ATOM     28  C   UNL A   1      35.784  29.778  28.203  1.00  0.00     0.039 A 
ATOM     29  C   UNL A   1      36.133  29.328  29.478  1.00  0.00     0.014 A 
ATOM     30  C   UNL A   1      36.776  30.022  27.249  1.00  0.00     0.014 A 
ATOM     31  C   UNL A   1      37.472  29.073  29.780  1.00  0.00     0.010 A 
ATOM     32  C   UNL A   1      38.100  29.692  27.525  1.00  0.00     0.010 A 
ATOM     33  C   UNL A   1      38.464  29.223  28.797  1.00  0.00    -0.014 A 
BRANCH  33  34
ATOM     34  C   UNL A   1      39.888  28.917  29.087  1.00  0.00     0.031 A 
ATOM     35  C   UNL A   1      40.738  29.912  29.829  1.00  0.00     0.074 A 
ATOM     36  C   UNL A   1      40.432  27.770  28.636  1.00  0.00     0.049 A 
ATOM     37  N   UNL A   1      42.013  29.860  30.121  1.00  0.00    -0.248 NA
ATOM     38  C   UNL A   1      40.070  31.145  30.278  1.00  0.00     0.031 C 
ATOM     39  C   UNL A   1      39.727  26.743  27.867  1.00  0.00     0.029 A 
ATOM     40  N   UNL A   1      41.710  27.280  28.749  1.00  0.00    -0.354 N 
ATOM     41  C   UNL A   1      42.300  31.053  30.771  1.00  0.00     0.074 A 
ATOM     42  C   UNL A   1      41.083  31.835  30.780  1.00  0.00     0.031 C 
ATOM     43  C   UNL A   1      40.572  25.736  27.599  1.00  0.00     0.029 A 
ATOM     44  C   UNL A   1      41.889  26.062  28.139  1.00  0.00     0.049 A 
ATOM     45  H   UNL A   1      42.430  27.756  29.223  1.00  0.00     0.167 HD
ATOM     46  C   UNL A   1      43.466  31.451  31.335  1.00  0.00     0.037 A 
ATOM     47  C   UNL A   1      42.992  25.299  28.022  1.00  0.00     0.037 A 
ATOM     48  C   UNL A   1      44.670  30.661  31.344  1.00  0.00     0.049 A 
ATOM     49  C   UNL A   1      44.279  25.769  28.646  1.00  0.00     0.074 A 
ATOM     50  C   UNL A   1      45.889  30.952  31.931  1.00  0.00     0.029 A 
ATOM     51  N   UNL A   1      44.806  29.424  30.732  1.00  0.00    -0.354 N 
ATOM     52  N   UNL A   1      44.522  26.869  29.317  1.00  0.00    -0.248 NA
ATOM     53  C   UNL A   1      45.444  24.884  28.507  1.00  0.00     0.031 C 
ATOM     54  C   UNL A   1      46.778  29.916  31.630  1.00  0.00     0.029 A 
ATOM     55  C   UNL A   1      46.097  28.948  30.910  1.00  0.00     0.049 A 
ATOM     56  H   UNL A   1      44.093  28.953  30.243  1.00  0.00     0.167 HD
ATOM     57  C   UNL A   1      45.851  26.791  29.712  1.00  0.00     0.074 A 
ATOM     58  C   UNL A   1      46.359  25.530  29.214  1.00  0.00     0.031 C 
ATOM     59  C   UNL A   1      46.585  27.682  30.424  1.00  0.00     0.037 A 
BRANCH  46  60
ATOM     60  C   UNL A   1      43.496  32.803  31.991  1.00  0.00     0.064 A 
ATOM     61  C   UNL A   1      43.797  33.967  31.267  1.00  0.00     0.173 A 
ATOM     62  C   UNL A   1      43.188  32.942  33.352  1.00  0.00     0.173 A 
ATOM     63  F   UNL A   1      44.110  33.891  29.965  1.00  0.00    -0.203 F 
ATOM     64  C   UNL A   1      43.822  35.213  31.889  1.00  0.00     0.198 A 
ATOM     65  C   UNL A   1      43.180  34.193  33.964  1.00  0.00     0.198 A 
ATOM     66  F   UNL A   1      42.886  31.864  34.092  1.00  0.00    -0.203 F 
ATOM     67  F   UNL A   1      44.168  36.302  31.189  1.00  0.00    -0.200 F 
ATOM     68  C   UNL A   1      43.506  35.326  33.234  1.00  0.00     0.200 A 
ATOM     69  F   UNL A   1      42.858  34.301  35.260  1.00  0.00    -0.200 F 
ATOM     70  F   UNL A   1      43.523  36.527  33.830  1.00  0.00    -0.200 F 
ENDBRANCH  46  60
BRANCH  47  71
ATOM     71  C   UNL A   1      42.926  23.997  27.305  1.00  0.00     0.064 A 
ATOM     72  C   UNL A   1      42.560  22.823  27.977  1.00  0.00     0.173 A 
ATOM     73  C   UNL A   1      43.238  23.897  25.942  1.00  0.00     0.173 A 
ATOM     74  F   UNL A   1      42.270  22.863  29.287  1.00  0.00    -0.203 F 
ATOM     75  C   UNL A   1      42.536  21.594  27.320  1.00  0.00     0.198 A 
ATOM     76  C   UNL A   1      43.183  22.673  25.278  1.00  0.00     0.198 A 
ATOM     77  F   UNL A   1      43.589  24.991  25.251  1.00  0.00    -0.203 F 
ATOM     78  F   UNL A   1      42.235  20.480  28.000  1.00  0.00    -0.200 F 
ATOM     79  C   UNL A   1      42.842  21.521  25.970  1.00  0.00     0.200 A 
ATOM     80  F   UNL A   1      43.465  22.609  23.970  1.00  0.00    -0.200 F 
ATOM     81  F   UNL A   1      42.817  20.339  25.339  1.00  0.00    -0.200 F 
ENDBRANCH  47  71
BRANCH  59  82
ATOM     82  C   UNL A   1      47.998  27.302  30.761  1.00  0.00     0.064 A 
ATOM     83  C   UNL A   1      49.085  27.708  29.972  1.00  0.00     0.173 A 
ATOM     84  C   UNL A   1      48.270  26.549  31.915  1.00  0.00     0.173 A 
ATOM     85  F   UNL A   1      48.880  28.418  28.853  1.00  0.00    -0.203 F 
ATOM     86  C   UNL A   1      50.388  27.348  30.310  1.00  0.00     0.198 A 
ATOM     87  C   UNL A   1      49.576  26.222  32.267  1.00  0.00     0.198 A 
ATOM     88  F   UNL A   1      47.269  26.144  32.709  1.00  0.00    -0.203 F 
ATOM     89  F   UNL A   1      51.406  27.700  29.512  1.00  0.00    -0.200 F 
ATOM     90  C   UNL A   1      50.633  26.612  31.459  1.00  0.00     0.200 A 
ATOM     91  F   UNL A   1      49.811  25.526  33.388  1.00  0.00    -0.200 F 
ATOM     92  F   UNL A   1      51.887  26.274  31.785  1.00  0.00    -0.200 F 
ENDBRANCH  59  82
ENDBRANCH  33  34
ENDBRANCH  25  28
ENDBRANCH  23  24
ENDBRANCH   1  23
TORSDOF 13
ENDMDL
MODEL 3
REMARK VINA RESULT:     -10.7      0.772      7.388
REMARK SMILES CC(C)N1C(=O)C[C@@H](C(=O)NCCCCNC(=O)c2ccc(-c3c4nc(c(-c5c(F)c(F)c(F)c(F)c5F)c5ccc([nH]5)c(-c5c(F)c(F)c(F)c(F)c5F)c5nc(c(-c6c(F)c(F)c(F)c(F)c6F)c6ccc3[nH]6)C=C5)C=C4)cc2)[C@H]1c1ccccc1
REMARK SMILES IDX 14 1 13 2 12 3 11 4 9 5 10 6 8 8 4 9 5 10 82 11 6 12 7 13
REMARK SMILES IDX 2 14 1 15 3 16 83 17 84 18 88 19 85 20 87 21 86 22 15 23
REMARK SMILES IDX 16 24 17 25 18 27 19 28 20 29 81 30 21 31 80 32 22 33 23 34
REMARK SMILES IDX 24 35 74 36 25 37 79 38 73 39 75 40 26 41 78 42 72 43 71 44
REMARK SMILES IDX 27 46 59 47 39 48 58 49 40 50 43 51 57 52 76 53 41 54 42 55
REMARK SMILES IDX 56 57 77 58 44 59 28 60 29 61 37 62 30 63 31 64 35 65 38 66
REMARK SMILES IDX 32 67 33 68 36 69 34 70 60 71 61 72 69 73 62 74 63 75 67 76
REMARK SMILES IDX 70 77 64 78 65 79 68 80 66 81 45 82 46 83 54 84 47 85 48 86
REMARK SMILES IDX 52 87 55 88 49 89 50 90 53 91 51 92
REMARK H PARENT 11 7 16 26 75 45 43 56
REMARK Flexibility Score: inf
ROOT
ATOM      1  C   UNL A   1      33.409  33.535  28.120  1.00  0.00     0.023 C 
ENDROOT
BRANCH   1   2
ATOM      2  C   UNL A   1      33.898  34.806  28.824  1.00  0.00     0.023 C 
BRANCH   2   3
ATOM      3  C   UNL A   1      33.406  34.972  30.265  1.00  0.00     0.116 C 
BRANCH   3   4
ATOM      4  N   UNL A   1      34.417  35.630  31.068  1.00  0.00    -0.356 N 
ATOM      5  C   UNL A   1      34.905  35.239  32.279  1.00  0.00     0.226 C 
ATOM      6  O   UNL A   1      35.186  36.127  33.081  1.00  0.00    -0.275 OA
ATOM      7  H   UNL A   1      34.798  36.457  30.693  1.00  0.00     0.163 HD
BRANCH   5   8
ATOM      8  C   UNL A   1      34.994  33.756  32.592  1.00  0.00     0.115 C 
ATOM      9  N   UNL A   1      36.962  33.257  33.822  1.00  0.00    -0.332 N 
ATOM     10  C   UNL A   1      35.953  33.504  34.759  1.00  0.00     0.224 C 
ATOM     11  C   UNL A   1      36.386  33.105  32.494  1.00  0.00     0.128 C 
ATOM     12  O   UNL A   1      36.080  33.525  35.977  1.00  0.00    -0.275 OA
ATOM     13  C   UNL A   1      34.620  33.576  34.056  1.00  0.00     0.116 C 
BRANCH   9  14
ATOM     14  C   UNL A   1      38.233  32.676  34.287  1.00  0.00     0.079 C 
ATOM     15  C   UNL A   1      39.033  33.701  35.101  1.00  0.00     0.031 C 
ATOM     16  C   UNL A   1      38.134  31.366  35.063  1.00  0.00     0.031 C 
ENDBRANCH   9  14
BRANCH  11  17
ATOM     17  C   UNL A   1      37.222  33.517  31.299  1.00  0.00    -0.025 A 
ATOM     18  C   UNL A   1      37.008  32.996  30.014  1.00  0.00     0.006 A 
ATOM     19  C   UNL A   1      38.244  34.470  31.456  1.00  0.00     0.006 A 
ATOM     20  C   UNL A   1      37.791  33.392  28.927  1.00  0.00     0.000 A 
ATOM     21  C   UNL A   1      39.012  34.887  30.363  1.00  0.00     0.000 A 
ATOM     22  C   UNL A   1      38.789  34.343  29.101  1.00  0.00     0.000 A 
ENDBRANCH  11  17
ENDBRANCH   5   8
ENDBRANCH   3   4
ENDBRANCH   2   3
ENDBRANCH   1   2
BRANCH   1  23
ATOM     23  C   UNL A   1      34.440  32.419  28.012  1.00  0.00     0.116 C 
BRANCH  23  24
ATOM     24  N   UNL A   1      33.831  31.116  27.802  1.00  0.00    -0.352 N 
ATOM     25  C   UNL A   1      34.413  29.873  27.820  1.00  0.00     0.251 C 
ATOM     26  H   UNL A   1      32.864  31.127  27.618  1.00  0.00     0.163 HD
ATOM     27  O   UNL A   1      33.773  28.888  27.466  1.00  0.00    -0.269 OA
BRANCH  25  28
ATOM     28  C   UNL A   1      35.821  29.723  28.245  1.00  0.00     0.039 A 
ATOM     29  C   UNL A   1      36.091  29.339  29.560  1.00  0.00     0.014 A 
ATOM     30  C   UNL A   1      36.873  29.964  27.355  1.00  0.00     0.014 A 
ATOM     31  C   UNL A   1      37.412  29.147  29.970  1.00  0.00     0.010 A 
ATOM     32  C   UNL A   1      38.183  29.695  27.741  1.00  0.00     0.010 A 
ATOM     33  C   UNL A   1      38.468  29.293  29.055  1.00  0.00    -0.014 A 
BRANCH  33  34
ATOM     34  C   UNL A   1      39.877  29.052  29.460  1.00  0.00     0.031 A 
ATOM     35  C   UNL A   1      40.604  27.831  28.966  1.00  0.00     0.074 A 
ATOM     36  C   UNL A   1      40.484  29.900  30.313  1.00  0.00     0.049 A 
ATOM     37  N   UNL A   1      41.810  27.410  29.255  1.00  0.00    -0.248 NA
ATOM     38  C   UNL A   1      39.866  26.951  28.047  1.00  0.00     0.031 C 
ATOM     39  C   UNL A   1      39.873  31.095  30.896  1.00  0.00     0.029 A 
ATOM     40  N   UNL A   1      41.749  29.879  30.847  1.00  0.00    -0.354 N 
ATOM     41  C   UNL A   1      41.966  26.214  28.568  1.00  0.00     0.074 A 
ATOM     42  C   UNL A   1      40.715  25.944  27.894  1.00  0.00     0.031 C 
ATOM     43  C   UNL A   1      40.770  31.706  31.687  1.00  0.00     0.029 A 
ATOM     44  C   UNL A   1      42.003  30.925  31.701  1.00  0.00     0.049 A 
ATOM     45  H   UNL A   1      42.411  29.181  30.638  1.00  0.00     0.167 HD
ATOM     46  C   UNL A   1      43.064  25.424  28.482  1.00  0.00     0.037 A 
ATOM     47  C   UNL A   1      43.105  31.216  32.419  1.00  0.00     0.037 A 
ATOM     48  C   UNL A   1      44.315  25.706  29.136  1.00  0.00     0.049 A 
ATOM     49  C   UNL A   1      44.307  30.316  32.317  1.00  0.00     0.074 A 
ATOM     50  C   UNL A   1      45.501  24.995  29.074  1.00  0.00     0.029 A 
ATOM     51  N   UNL A   1      44.540  26.786  29.978  1.00  0.00    -0.354 N 
ATOM     52  N   UNL A   1      44.466  29.222  31.610  1.00  0.00    -0.248 NA
ATOM     53  C   UNL A   1      45.487  30.696  33.105  1.00  0.00     0.031 C 
ATOM     54  C   UNL A   1      46.427  25.615  29.919  1.00  0.00     0.029 A 
ATOM     55  C   UNL A   1      45.840  26.748  30.457  1.00  0.00     0.049 A 
ATOM     56  H   UNL A   1      43.875  27.476  30.203  1.00  0.00     0.167 HD
ATOM     57  C   UNL A   1      45.772  28.808  31.837  1.00  0.00     0.074 A 
ATOM     58  C   UNL A   1      46.365  29.774  32.738  1.00  0.00     0.031 C 
ATOM     59  C   UNL A   1      46.423  27.726  31.342  1.00  0.00     0.037 A 
BRANCH  46  60
ATOM     60  C   UNL A   1      42.960  24.177  27.650  1.00  0.00     0.064 A 
ATOM     61  C   UNL A   1      43.258  24.176  26.279  1.00  0.00     0.173 A 
ATOM     62  C   UNL A   1      42.588  22.958  28.238  1.00  0.00     0.173 A 
ATOM     63  F   UNL A   1      43.608  25.316  25.664  1.00  0.00    -0.203 F 
ATOM     64  C   UNL A   1      43.156  23.012  25.522  1.00  0.00     0.198 A 
ATOM     65  C   UNL A   1      42.521  21.788  27.485  1.00  0.00     0.198 A 
ATOM     66  F   UNL A   1      42.297  22.897  29.546  1.00  0.00    -0.203 F 
ATOM     67  F   UNL A   1      43.392  23.051  24.203  1.00  0.00    -0.200 F 
ATOM     68  C   UNL A   1      42.795  21.818  26.126  1.00  0.00     0.200 A 
ATOM     69  F   UNL A   1      42.187  20.632  28.075  1.00  0.00    -0.200 F 
ATOM     70  F   UNL A   1      42.705  20.697  25.398  1.00  0.00    -0.200 F 
ENDBRANCH  46  60
BRANCH  47  71
ATOM     71  C   UNL A   1      43.134  32.429  33.280  1.00  0.00     0.064 A 
ATOM     72  C   UNL A   1      43.640  33.643  32.797  1.00  0.00     0.173 A 
ATOM     73  C   UNL A   1      42.671  32.396  34.603  1.00  0.00     0.173 A 
ATOM     74  F   UNL A   1      44.112  33.721  31.543  1.00  0.00    -0.203 F 
ATOM     75  C   UNL A   1      43.707  34.771  33.612  1.00  0.00     0.198 A 
ATOM     76  C   UNL A   1      42.710  33.533  35.408  1.00  0.00     0.198 A 
ATOM     77  F   UNL A   1      42.172  31.261  35.113  1.00  0.00    -0.203 F 
ATOM     78  F   UNL A   1      44.245  35.904  33.140  1.00  0.00    -0.200 F 
ATOM     79  C   UNL A   1      43.237  34.717  34.916  1.00  0.00     0.200 A 
ATOM     80  F   UNL A   1      42.241  33.481  36.662  1.00  0.00    -0.200 F 
ATOM     81  F   UNL A   1      43.301  35.803  35.698  1.00  0.00    -0.200 F 
ENDBRANCH  47  71
BRANCH  59  82
ATOM     82  C   UNL A   1      47.869  27.558  31.713  1.00  0.00     0.064 A 
ATOM     83  C   UNL A   1      48.267  26.803  32.826  1.00  0.00     0.173 A 
ATOM     84  C   UNL A   1      48.872  28.134  30.918  1.00  0.00     0.173 A 
ATOM     85  F   UNL A   1      47.347  26.243  33.626  1.00  0.00    -0.203 F 
ATOM     86  C   UNL A   1      49.615  26.657  33.147  1.00  0.00     0.198 A 
ATOM     87  C   UNL A   1      50.219  27.956  31.222  1.00  0.00     0.198 A 
ATOM     88  F   UNL A   1      48.548  28.858  29.837  1.00  0.00    -0.203 F 
ATOM     89  F   UNL A   1      49.970  25.978  34.246  1.00  0.00    -0.200 F 
ATOM     90  C   UNL A   1      50.589  27.227  32.341  1.00  0.00     0.200 A 
ATOM     91  F   UNL A   1      51.159  28.493  30.432  1.00  0.00    -0.200 F 
ATOM     92  F   UNL A   1      51.885  27.079  32.648  1.00  0.00    -0.200 F 
ENDBRANCH  59  82
ENDBRANCH  33  34
ENDBRANCH  25  28
ENDBRANCH  23  24
ENDBRANCH   1  23
TORSDOF 13
ENDMDL
