MODEL 1
REMARK VINA RESULT:     -13.4      0.000      0.000
REMARK SMILES Cc1ccc(F)c(-c2ncccc2C(=O)NCCCCNC(=O)c2ccc(-c3c4nc(c(-c5c(F)c(F)c(F)c(F)c5F)c5ccc([nH]5)c(-c5c(F)c(F)c(F)c(F)c5F)c5nc(c(-c6c(F)c(F)c(F)c(F)c6F)c6ccc3[nH]6)C=C5)C=C4)cc2)c1
REMARK SMILES IDX 19 1 18 2 17 3 16 4 14 5 15 6 13 8 8 9 9 10 10 11 12 12
REMARK SMILES IDX 11 13 7 14 1 15 2 16 3 17 87 18 4 19 5 20 6 21 20 22 21 23
REMARK SMILES IDX 22 24 23 26 24 27 25 28 86 29 26 30 85 31 27 32 28 33 29 34
REMARK SMILES IDX 79 35 30 36 84 37 78 38 80 39 31 40 83 41 77 42 76 43 32 45
REMARK SMILES IDX 64 46 44 47 63 48 45 49 48 50 62 51 81 52 46 53 47 54 61 56
REMARK SMILES IDX 82 57 49 58 33 59 34 60 42 61 35 62 36 63 40 64 43 65 37 66
REMARK SMILES IDX 38 67 41 68 39 69 65 70 66 71 74 72 67 73 68 74 72 75 75 76
REMARK SMILES IDX 69 77 70 78 73 79 71 80 50 81 51 82 59 83 52 84 53 85 57 86
REMARK SMILES IDX 60 87 54 88 55 89 58 90 56 91
REMARK H PARENT 16 7 21 25 80 44 48 55
REMARK Flexibility Score: inf
ROOT
ATOM      1  C   UNL A   1      34.030  28.307  26.270  1.00  0.00     0.023 C 
ENDROOT
BRANCH   1   2
ATOM      2  C   UNL A   1      33.480  26.886  26.049  1.00  0.00     0.023 C 
BRANCH   2   3
ATOM      3  C   UNL A   1      32.021  26.698  26.465  1.00  0.00     0.116 C 
BRANCH   3   4
ATOM      4  N   UNL A   1      31.582  25.339  26.246  1.00  0.00    -0.352 N 
ATOM      5  C   UNL A   1      31.473  24.505  25.163  1.00  0.00     0.253 C 
ATOM      6  O   UNL A   1      31.014  23.400  25.457  1.00  0.00    -0.269 OA
ATOM      7  H   UNL A   1      31.289  24.905  27.079  1.00  0.00     0.163 HD
BRANCH   5   8
ATOM      8  C   UNL A   1      31.889  24.820  23.750  1.00  0.00     0.066 A 
ATOM      9  C   UNL A   1      33.164  24.435  23.278  1.00  0.00     0.086 A 
ATOM     10  N   UNL A   1      33.652  24.824  22.059  1.00  0.00    -0.255 NA
ATOM     11  C   UNL A   1      32.883  25.595  21.274  1.00  0.00     0.112 A 
ATOM     12  C   UNL A   1      31.100  25.543  22.848  1.00  0.00     0.018 A 
ATOM     13  C   UNL A   1      31.598  25.952  21.611  1.00  0.00     0.021 A 
BRANCH   9  14
ATOM     14  C   UNL A   1      34.079  23.513  23.964  1.00  0.00     0.037 A 
ATOM     15  C   UNL A   1      37.405  23.645  25.846  1.00  0.00     0.044 C 
ATOM     16  C   UNL A   1      36.139  23.121  25.235  1.00  0.00    -0.050 A 
ATOM     17  C   UNL A   1      35.874  21.748  25.232  1.00  0.00     0.006 A 
ATOM     18  C   UNL A   1      35.224  23.995  24.629  1.00  0.00     0.016 A 
ATOM     19  C   UNL A   1      34.725  21.256  24.612  1.00  0.00     0.040 A 
ATOM     20  C   UNL A   1      33.847  22.133  23.980  1.00  0.00     0.132 A 
ATOM     21  F   UNL A   1      32.773  21.618  23.360  1.00  0.00    -0.206 F 
ENDBRANCH   9  14
ENDBRANCH   5   8
ENDBRANCH   3   4
ENDBRANCH   2   3
ENDBRANCH   1   2
BRANCH   1  22
ATOM     22  C   UNL A   1      33.673  28.903  27.623  1.00  0.00     0.116 C 
BRANCH  22  23
ATOM     23  N   UNL A   1      33.836  30.357  27.653  1.00  0.00    -0.352 N 
ATOM     24  C   UNL A   1      34.823  31.094  28.278  1.00  0.00     0.251 C 
ATOM     25  H   UNL A   1      33.156  30.876  27.164  1.00  0.00     0.163 HD
ATOM     26  O   UNL A   1      34.678  32.281  28.525  1.00  0.00    -0.269 OA
BRANCH  24  27
ATOM     27  C   UNL A   1      36.081  30.410  28.607  1.00  0.00     0.039 A 
ATOM     28  C   UNL A   1      36.283  29.749  29.825  1.00  0.00     0.014 A 
ATOM     29  C   UNL A   1      37.069  30.451  27.634  1.00  0.00     0.014 A 
ATOM     30  C   UNL A   1      37.487  29.078  30.039  1.00  0.00     0.010 A 
ATOM     31  C   UNL A   1      38.154  29.641  27.759  1.00  0.00     0.010 A 
ATOM     32  C   UNL A   1      38.408  29.031  28.992  1.00  0.00    -0.014 A 
BRANCH  32  33
ATOM     33  C   UNL A   1      39.756  28.508  29.073  1.00  0.00     0.031 A 
ATOM     34  C   UNL A   1      40.071  27.124  28.720  1.00  0.00     0.074 A 
ATOM     35  C   UNL A   1      40.707  29.453  29.241  1.00  0.00     0.049 A 
ATOM     36  N   UNL A   1      41.141  26.530  29.110  1.00  0.00    -0.248 NA
ATOM     37  C   UNL A   1      39.212  26.290  27.887  1.00  0.00     0.031 C 
ATOM     38  C   UNL A   1      42.135  29.412  28.984  1.00  0.00     0.029 A 
ATOM     39  N   UNL A   1      40.499  30.731  29.786  1.00  0.00    -0.354 N 
ATOM     40  C   UNL A   1      41.290  25.415  28.318  1.00  0.00     0.074 A 
ATOM     41  C   UNL A   1      40.005  25.229  27.683  1.00  0.00     0.031 C 
ATOM     42  C   UNL A   1      42.710  30.444  29.633  1.00  0.00     0.029 A 
ATOM     43  C   UNL A   1      41.684  31.062  30.461  1.00  0.00     0.049 A 
ATOM     44  H   UNL A   1      39.688  31.283  29.710  1.00  0.00     0.167 HD
ATOM     45  C   UNL A   1      42.544  24.901  28.152  1.00  0.00     0.037 A 
ATOM     46  C   UNL A   1      41.646  31.086  31.828  1.00  0.00     0.037 A 
ATOM     47  C   UNL A   1      43.532  25.709  28.874  1.00  0.00     0.049 A 
ATOM     48  C   UNL A   1      42.481  29.990  32.458  1.00  0.00     0.074 A 
ATOM     49  C   UNL A   1      44.433  26.691  28.498  1.00  0.00     0.029 A 
ATOM     50  N   UNL A   1      43.425  25.812  30.247  1.00  0.00    -0.354 N 
ATOM     51  N   UNL A   1      43.034  29.018  31.789  1.00  0.00    -0.248 NA
ATOM     52  C   UNL A   1      42.696  29.860  33.895  1.00  0.00     0.031 C 
ATOM     53  C   UNL A   1      44.882  27.362  29.674  1.00  0.00     0.029 A 
ATOM     54  C   UNL A   1      44.257  26.782  30.763  1.00  0.00     0.049 A 
ATOM     55  H   UNL A   1      42.824  25.256  30.795  1.00  0.00     0.167 HD
ATOM     56  C   UNL A   1      43.629  28.136  32.645  1.00  0.00     0.074 A 
ATOM     57  C   UNL A   1      43.375  28.700  33.960  1.00  0.00     0.031 C 
ATOM     58  C   UNL A   1      44.252  27.002  32.202  1.00  0.00     0.037 A 
BRANCH  45  59
ATOM     59  C   UNL A   1      42.924  23.845  27.141  1.00  0.00     0.064 A 
ATOM     60  C   UNL A   1      42.589  22.489  27.357  1.00  0.00     0.173 A 
ATOM     61  C   UNL A   1      43.609  24.097  25.937  1.00  0.00     0.173 A 
ATOM     62  F   UNL A   1      41.857  22.104  28.409  1.00  0.00    -0.203 F 
ATOM     63  C   UNL A   1      42.990  21.466  26.496  1.00  0.00     0.198 A 
ATOM     64  C   UNL A   1      44.046  23.067  25.094  1.00  0.00     0.198 A 
ATOM     65  F   UNL A   1      43.829  25.346  25.510  1.00  0.00    -0.203 F 
ATOM     66  F   UNL A   1      42.642  20.200  26.765  1.00  0.00    -0.200 F 
ATOM     67  C   UNL A   1      43.743  21.751  25.378  1.00  0.00     0.200 A 
ATOM     68  F   UNL A   1      44.757  23.363  23.996  1.00  0.00    -0.200 F 
ATOM     69  F   UNL A   1      44.151  20.766  24.566  1.00  0.00    -0.200 F 
ENDBRANCH  45  59
BRANCH  46  70
ATOM     70  C   UNL A   1      40.305  31.555  32.328  1.00  0.00     0.064 A 
ATOM     71  C   UNL A   1      39.426  30.588  32.868  1.00  0.00     0.173 A 
ATOM     72  C   UNL A   1      40.090  32.889  32.702  1.00  0.00     0.173 A 
ATOM     73  F   UNL A   1      39.586  29.291  32.556  1.00  0.00    -0.203 F 
ATOM     74  C   UNL A   1      38.490  30.919  33.847  1.00  0.00     0.198 A 
ATOM     75  C   UNL A   1      39.128  33.220  33.662  1.00  0.00     0.198 A 
ATOM     76  F   UNL A   1      40.880  33.863  32.229  1.00  0.00    -0.203 F 
ATOM     77  F   UNL A   1      37.781  29.952  34.450  1.00  0.00    -0.200 F 
ATOM     78  C   UNL A   1      38.360  32.232  34.263  1.00  0.00     0.200 A 
ATOM     79  F   UNL A   1      39.003  34.492  34.068  1.00  0.00    -0.200 F 
ATOM     80  F   UNL A   1      37.524  32.539  35.264  1.00  0.00    -0.200 F 
ENDBRANCH  46  70
BRANCH  58  81
ATOM     81  C   UNL A   1      44.892  25.971  33.095  1.00  0.00     0.064 A 
ATOM     82  C   UNL A   1      46.251  25.642  33.018  1.00  0.00     0.173 A 
ATOM     83  C   UNL A   1      44.129  25.201  34.008  1.00  0.00     0.173 A 
ATOM     84  F   UNL A   1      47.049  26.210  32.102  1.00  0.00    -0.203 F 
ATOM     85  C   UNL A   1      46.825  24.688  33.864  1.00  0.00     0.198 A 
ATOM     86  C   UNL A   1      44.690  24.207  34.802  1.00  0.00     0.198 A 
ATOM     87  F   UNL A   1      42.817  25.395  34.188  1.00  0.00    -0.203 F 
ATOM     88  F   UNL A   1      48.145  24.463  33.809  1.00  0.00    -0.200 F 
ATOM     89  C   UNL A   1      46.045  23.969  34.752  1.00  0.00     0.200 A 
ATOM     90  F   UNL A   1      43.905  23.494  35.624  1.00  0.00    -0.200 F 
ATOM     91  F   UNL A   1      46.594  23.050  35.555  1.00  0.00    -0.200 F 
ENDBRANCH  58  81
ENDBRANCH  32  33
ENDBRANCH  24  27
ENDBRANCH  22  23
ENDBRANCH   1  22
TORSDOF 12
ENDMDL
MODEL 2
REMARK VINA RESULT:     -13.3      3.336      9.348
REMARK SMILES Cc1ccc(F)c(-c2ncccc2C(=O)NCCCCNC(=O)c2ccc(-c3c4nc(c(-c5c(F)c(F)c(F)c(F)c5F)c5ccc([nH]5)c(-c5c(F)c(F)c(F)c(F)c5F)c5nc(c(-c6c(F)c(F)c(F)c(F)c6F)c6ccc3[nH]6)C=C5)C=C4)cc2)c1
REMARK SMILES IDX 19 1 18 2 17 3 16 4 14 5 15 6 13 8 8 9 9 10 10 11 12 12
REMARK SMILES IDX 11 13 7 14 1 15 2 16 3 17 87 18 4 19 5 20 6 21 20 22 21 23
REMARK SMILES IDX 22 24 23 26 24 27 25 28 86 29 26 30 85 31 27 32 28 33 29 34
REMARK SMILES IDX 79 35 30 36 84 37 78 38 80 39 31 40 83 41 77 42 76 43 32 45
REMARK SMILES IDX 64 46 44 47 63 48 45 49 48 50 62 51 81 52 46 53 47 54 61 56
REMARK SMILES IDX 82 57 49 58 33 59 34 60 42 61 35 62 36 63 40 64 43 65 37 66
REMARK SMILES IDX 38 67 41 68 39 69 65 70 66 71 74 72 67 73 68 74 72 75 75 76
REMARK SMILES IDX 69 77 70 78 73 79 71 80 50 81 51 82 59 83 52 84 53 85 57 86
REMARK SMILES IDX 60 87 54 88 55 89 58 90 56 91
REMARK H PARENT 16 7 21 25 80 44 48 55
REMARK Flexibility Score: inf
ROOT
ATOM      1  C   UNL A   1      36.069  23.472  25.930  1.00  0.00     0.023 C 
ENDROOT
BRANCH   1   2
ATOM      2  C   UNL A   1      34.899  23.783  24.979  1.00  0.00     0.023 C 
BRANCH   2   3
ATOM      3  C   UNL A   1      34.076  25.012  25.365  1.00  0.00     0.116 C 
BRANCH   3   4
ATOM      4  N   UNL A   1      34.076  25.999  24.310  1.00  0.00    -0.352 N 
ATOM      5  C   UNL A   1      33.807  27.340  24.218  1.00  0.00     0.253 C 
ATOM      6  O   UNL A   1      33.923  27.773  23.071  1.00  0.00    -0.269 OA
ATOM      7  H   UNL A   1      34.333  25.612  23.441  1.00  0.00     0.163 HD
BRANCH   5   8
ATOM      8  C   UNL A   1      33.447  28.256  25.358  1.00  0.00     0.066 A 
ATOM      9  C   UNL A   1      32.132  28.758  25.483  1.00  0.00     0.086 A 
ATOM     10  N   UNL A   1      31.785  29.709  26.406  1.00  0.00    -0.255 NA
ATOM     11  C   UNL A   1      32.732  30.177  27.235  1.00  0.00     0.112 A 
ATOM     12  C   UNL A   1      34.365  28.713  26.312  1.00  0.00     0.018 A 
ATOM     13  C   UNL A   1      34.019  29.691  27.244  1.00  0.00     0.021 A 
BRANCH   9  14
ATOM     14  C   UNL A   1      30.966  28.277  24.731  1.00  0.00     0.037 A 
ATOM     15  C   UNL A   1      28.478  29.598  22.143  1.00  0.00     0.044 C 
ATOM     16  C   UNL A   1      29.190  28.673  23.087  1.00  0.00    -0.050 A 
ATOM     17  C   UNL A   1      28.692  27.388  23.323  1.00  0.00     0.006 A 
ATOM     18  C   UNL A   1      30.341  29.095  23.768  1.00  0.00     0.016 A 
ATOM     19  C   UNL A   1      29.320  26.549  24.243  1.00  0.00     0.040 A 
ATOM     20  C   UNL A   1      30.439  26.998  24.942  1.00  0.00     0.132 A 
ATOM     21  F   UNL A   1      30.992  26.177  25.849  1.00  0.00    -0.206 F 
ENDBRANCH   9  14
ENDBRANCH   5   8
ENDBRANCH   3   4
ENDBRANCH   2   3
ENDBRANCH   1   2
BRANCH   1  22
ATOM     22  C   UNL A   1      37.441  23.723  25.323  1.00  0.00     0.116 C 
BRANCH  22  23
ATOM     23  N   UNL A   1      38.450  22.785  25.817  1.00  0.00    -0.352 N 
ATOM     24  C   UNL A   1      39.681  23.069  26.375  1.00  0.00     0.251 C 
ATOM     25  H   UNL A   1      38.222  21.830  25.742  1.00  0.00     0.163 HD
ATOM     26  O   UNL A   1      40.567  22.231  26.433  1.00  0.00    -0.269 OA
BRANCH  24  27
ATOM     27  C   UNL A   1      39.884  24.411  26.934  1.00  0.00     0.039 A 
ATOM     28  C   UNL A   1      40.505  25.442  26.216  1.00  0.00     0.014 A 
ATOM     29  C   UNL A   1      39.418  24.610  28.227  1.00  0.00     0.014 A 
ATOM     30  C   UNL A   1      40.611  26.704  26.800  1.00  0.00     0.010 A 
ATOM     31  C   UNL A   1      39.345  25.877  28.716  1.00  0.00     0.010 A 
ATOM     32  C   UNL A   1      40.020  26.902  28.048  1.00  0.00    -0.014 A 
BRANCH  32  33
ATOM     33  C   UNL A   1      40.146  28.092  28.865  1.00  0.00     0.031 A 
ATOM     34  C   UNL A   1      39.162  29.172  28.816  1.00  0.00     0.074 A 
ATOM     35  C   UNL A   1      41.079  27.999  29.837  1.00  0.00     0.049 A 
ATOM     36  N   UNL A   1      39.409  30.363  29.229  1.00  0.00    -0.248 NA
ATOM     37  C   UNL A   1      37.806  29.003  28.306  1.00  0.00     0.031 C 
ATOM     38  C   UNL A   1      41.246  28.758  31.063  1.00  0.00     0.029 A 
ATOM     39  N   UNL A   1      42.181  27.127  29.830  1.00  0.00    -0.354 N 
ATOM     40  C   UNL A   1      38.197  30.995  29.379  1.00  0.00     0.074 A 
ATOM     41  C   UNL A   1      37.251  30.171  28.660  1.00  0.00     0.031 C 
ATOM     42  C   UNL A   1      42.497  28.554  31.520  1.00  0.00     0.029 A 
ATOM     43  C   UNL A   1      43.213  27.799  30.501  1.00  0.00     0.049 A 
ATOM     44  H   UNL A   1      42.221  26.225  29.435  1.00  0.00     0.167 HD
ATOM     45  C   UNL A   1      38.112  32.036  30.258  1.00  0.00     0.037 A 
ATOM     46  C   UNL A   1      44.269  28.240  29.753  1.00  0.00     0.037 A 
ATOM     47  C   UNL A   1      39.402  32.260  30.917  1.00  0.00     0.049 A 
ATOM     48  C   UNL A   1      44.349  29.751  29.683  1.00  0.00     0.074 A 
ATOM     49  C   UNL A   1      39.925  31.919  32.153  1.00  0.00     0.029 A 
ATOM     50  N   UNL A   1      40.491  32.605  30.139  1.00  0.00    -0.354 N 
ATOM     51  N   UNL A   1      43.422  30.553  30.129  1.00  0.00    -0.248 NA
ATOM     52  C   UNL A   1      45.439  30.477  29.038  1.00  0.00     0.031 C 
ATOM     53  C   UNL A   1      41.340  32.094  32.107  1.00  0.00     0.029 A 
ATOM     54  C   UNL A   1      41.674  32.547  30.844  1.00  0.00     0.049 A 
ATOM     55  H   UNL A   1      40.428  32.864  29.191  1.00  0.00     0.167 HD
ATOM     56  C   UNL A   1      43.735  31.848  29.827  1.00  0.00     0.074 A 
ATOM     57  C   UNL A   1      45.004  31.747  29.126  1.00  0.00     0.031 C 
ATOM     58  C   UNL A   1      42.908  32.887  30.151  1.00  0.00     0.037 A 
BRANCH  45  59
ATOM     59  C   UNL A   1      36.827  32.680  30.723  1.00  0.00     0.064 A 
ATOM     60  C   UNL A   1      36.144  33.600  29.897  1.00  0.00     0.173 A 
ATOM     61  C   UNL A   1      36.209  32.430  31.963  1.00  0.00     0.173 A 
ATOM     62  F   UNL A   1      36.556  33.869  28.652  1.00  0.00    -0.203 F 
ATOM     63  C   UNL A   1      35.000  34.284  30.313  1.00  0.00     0.198 A 
ATOM     64  C   UNL A   1      35.085  33.145  32.398  1.00  0.00     0.198 A 
ATOM     65  F   UNL A   1      36.637  31.452  32.770  1.00  0.00    -0.203 F 
ATOM     66  F   UNL A   1      34.405  35.148  29.479  1.00  0.00    -0.200 F 
ATOM     67  C   UNL A   1      34.486  34.078  31.575  1.00  0.00     0.200 A 
ATOM     68  F   UNL A   1      34.582  32.916  33.619  1.00  0.00    -0.200 F 
ATOM     69  F   UNL A   1      33.404  34.754  31.985  1.00  0.00    -0.200 F 
ENDBRANCH  45  59
BRANCH  46  70
ATOM     70  C   UNL A   1      44.561  27.300  28.613  1.00  0.00     0.064 A 
ATOM     71  C   UNL A   1      44.177  27.698  27.312  1.00  0.00     0.173 A 
ATOM     72  C   UNL A   1      45.563  26.323  28.710  1.00  0.00     0.173 A 
ATOM     73  F   UNL A   1      43.229  28.637  27.153  1.00  0.00    -0.203 F 
ATOM     74  C   UNL A   1      44.867  27.261  26.182  1.00  0.00     0.198 A 
ATOM     75  C   UNL A   1      46.231  25.865  27.569  1.00  0.00     0.198 A 
ATOM     76  F   UNL A   1      45.979  25.892  29.909  1.00  0.00    -0.203 F 
ATOM     77  F   UNL A   1      44.577  27.780  24.979  1.00  0.00    -0.200 F 
ATOM     78  C   UNL A   1      45.912  26.365  26.314  1.00  0.00     0.200 A 
ATOM     79  F   UNL A   1      47.246  24.997  27.697  1.00  0.00    -0.200 F 
ATOM     80  F   UNL A   1      46.632  26.011  25.242  1.00  0.00    -0.200 F 
ENDBRANCH  46  70
BRANCH  58  81
ATOM     81  C   UNL A   1      43.174  34.331  29.813  1.00  0.00     0.064 A 
ATOM     82  C   UNL A   1      43.289  34.792  28.495  1.00  0.00     0.173 A 
ATOM     83  C   UNL A   1      43.420  35.298  30.819  1.00  0.00     0.173 A 
ATOM     84  F   UNL A   1      43.207  33.946  27.459  1.00  0.00    -0.203 F 
ATOM     85  C   UNL A   1      43.528  36.139  28.205  1.00  0.00     0.198 A 
ATOM     86  C   UNL A   1      43.722  36.624  30.529  1.00  0.00     0.198 A 
ATOM     87  F   UNL A   1      43.353  35.008  32.125  1.00  0.00    -0.203 F 
ATOM     88  F   UNL A   1      43.551  36.547  26.930  1.00  0.00    -0.200 F 
ATOM     89  C   UNL A   1      43.747  37.053  29.221  1.00  0.00     0.200 A 
ATOM     90  F   UNL A   1      43.972  37.481  31.529  1.00  0.00    -0.200 F 
ATOM     91  F   UNL A   1      43.984  38.340  28.942  1.00  0.00    -0.200 F 
ENDBRANCH  58  81
ENDBRANCH  32  33
ENDBRANCH  24  27
ENDBRANCH  22  23
ENDBRANCH   1  22
TORSDOF 12
ENDMDL
MODEL 3
REMARK VINA RESULT:     -13.3      1.160      2.145
REMARK SMILES Cc1ccc(F)c(-c2ncccc2C(=O)NCCCCNC(=O)c2ccc(-c3c4nc(c(-c5c(F)c(F)c(F)c(F)c5F)c5ccc([nH]5)c(-c5c(F)c(F)c(F)c(F)c5F)c5nc(c(-c6c(F)c(F)c(F)c(F)c6F)c6ccc3[nH]6)C=C5)C=C4)cc2)c1
REMARK SMILES IDX 19 1 18 2 17 3 16 4 14 5 15 6 13 8 8 9 9 10 10 11 12 12
REMARK SMILES IDX 11 13 7 14 1 15 2 16 3 17 87 18 4 19 5 20 6 21 20 22 21 23
REMARK SMILES IDX 22 24 23 26 24 27 25 28 86 29 26 30 85 31 27 32 28 33 29 34
REMARK SMILES IDX 79 35 30 36 84 37 78 38 80 39 31 40 83 41 77 42 76 43 32 45
REMARK SMILES IDX 64 46 44 47 63 48 45 49 48 50 62 51 81 52 46 53 47 54 61 56
REMARK SMILES IDX 82 57 49 58 33 59 34 60 42 61 35 62 36 63 40 64 43 65 37 66
REMARK SMILES IDX 38 67 41 68 39 69 65 70 66 71 74 72 67 73 68 74 72 75 75 76
REMARK SMILES IDX 69 77 70 78 73 79 71 80 50 81 51 82 59 83 52 84 53 85 57 86
REMARK SMILES IDX 60 87 54 88 55 89 58 90 56 91
REMARK H PARENT 16 7 21 25 80 44 48 55
REMARK Flexibility Score: inf
ROOT
ATOM      1  C   UNL A   1      33.769  28.467  25.782  1.00  0.00     0.023 C 
ENDROOT
BRANCH   1   2
ATOM      2  C   UNL A   1      33.040  27.144  25.485  1.00  0.00     0.023 C 
BRANCH   2   3
ATOM      3  C   UNL A   1      33.964  25.952  25.233  1.00  0.00     0.116 C 
BRANCH   3   4
ATOM      4  N   UNL A   1      33.656  24.852  26.117  1.00  0.00    -0.352 N 
ATOM      5  C   UNL A   1      34.233  23.646  26.422  1.00  0.00     0.253 C 
ATOM      6  O   UNL A   1      33.585  23.003  27.250  1.00  0.00    -0.269 OA
ATOM      7  H   UNL A   1      32.827  25.005  26.626  1.00  0.00     0.163 HD
BRANCH   5   8
ATOM      8  C   UNL A   1      35.535  23.118  25.879  1.00  0.00     0.066 A 
ATOM      9  C   UNL A   1      35.560  21.933  25.110  1.00  0.00     0.086 A 
ATOM     10  N   UNL A   1      36.725  21.326  24.720  1.00  0.00    -0.255 NA
ATOM     11  C   UNL A   1      37.892  21.886  25.074  1.00  0.00     0.112 A 
ATOM     12  C   UNL A   1      36.781  23.703  26.135  1.00  0.00     0.018 A 
ATOM     13  C   UNL A   1      37.970  23.081  25.751  1.00  0.00     0.021 A 
BRANCH   9  14
ATOM     14  C   UNL A   1      34.380  21.258  24.554  1.00  0.00     0.037 A 
ATOM     15  C   UNL A   1      32.602  17.884  24.849  1.00  0.00     0.044 C 
ATOM     16  C   UNL A   1      32.920  19.291  24.435  1.00  0.00    -0.050 A 
ATOM     17  C   UNL A   1      32.153  19.927  23.454  1.00  0.00     0.006 A 
ATOM     18  C   UNL A   1      34.007  19.974  25.001  1.00  0.00     0.016 A 
ATOM     19  C   UNL A   1      32.483  21.213  23.028  1.00  0.00     0.040 A 
ATOM     20  C   UNL A   1      33.591  21.862  23.570  1.00  0.00     0.132 A 
ATOM     21  F   UNL A   1      33.901  23.083  23.105  1.00  0.00    -0.206 F 
ENDBRANCH   9  14
ENDBRANCH   5   8
ENDBRANCH   3   4
ENDBRANCH   2   3
ENDBRANCH   1   2
BRANCH   1  22
ATOM     22  C   UNL A   1      33.791  28.841  27.256  1.00  0.00     0.116 C 
BRANCH  22  23
ATOM     23  N   UNL A   1      33.881  30.288  27.463  1.00  0.00    -0.352 N 
ATOM     24  C   UNL A   1      34.789  30.987  28.235  1.00  0.00     0.251 C 
ATOM     25  H   UNL A   1      33.208  30.832  26.992  1.00  0.00     0.163 HD
ATOM     26  O   UNL A   1      34.569  32.129  28.606  1.00  0.00    -0.269 OA
BRANCH  24  27
ATOM     27  C   UNL A   1      36.055  30.322  28.569  1.00  0.00     0.039 A 
ATOM     28  C   UNL A   1      36.278  29.703  29.806  1.00  0.00     0.014 A 
ATOM     29  C   UNL A   1      37.030  30.337  27.582  1.00  0.00     0.014 A 
ATOM     30  C   UNL A   1      37.489  29.047  30.025  1.00  0.00     0.010 A 
ATOM     31  C   UNL A   1      38.122  29.538  27.719  1.00  0.00     0.010 A 
ATOM     32  C   UNL A   1      38.396  28.971  28.967  1.00  0.00    -0.014 A 
BRANCH  32  33
ATOM     33  C   UNL A   1      39.748  28.459  29.047  1.00  0.00     0.031 A 
ATOM     34  C   UNL A   1      40.074  27.076  28.701  1.00  0.00     0.074 A 
ATOM     35  C   UNL A   1      40.692  29.412  29.208  1.00  0.00     0.049 A 
ATOM     36  N   UNL A   1      41.150  26.492  29.090  1.00  0.00    -0.248 NA
ATOM     37  C   UNL A   1      39.219  26.231  27.874  1.00  0.00     0.031 C 
ATOM     38  C   UNL A   1      42.120  29.382  28.947  1.00  0.00     0.029 A 
ATOM     39  N   UNL A   1      40.476  30.692  29.747  1.00  0.00    -0.354 N 
ATOM     40  C   UNL A   1      41.306  25.375  28.304  1.00  0.00     0.074 A 
ATOM     41  C   UNL A   1      40.021  25.175  27.673  1.00  0.00     0.031 C 
ATOM     42  C   UNL A   1      42.689  30.422  29.589  1.00  0.00     0.029 A 
ATOM     43  C   UNL A   1      41.660  31.036  30.417  1.00  0.00     0.049 A 
ATOM     44  H   UNL A   1      39.660  31.237  29.671  1.00  0.00     0.167 HD
ATOM     45  C   UNL A   1      42.563  24.871  28.136  1.00  0.00     0.037 A 
ATOM     46  C   UNL A   1      41.625  31.067  31.784  1.00  0.00     0.037 A 
ATOM     47  C   UNL A   1      43.546  25.690  28.852  1.00  0.00     0.049 A 
ATOM     48  C   UNL A   1      42.471  29.981  32.417  1.00  0.00     0.074 A 
ATOM     49  C   UNL A   1      44.439  26.677  28.468  1.00  0.00     0.029 A 
ATOM     50  N   UNL A   1      43.442  25.799  30.224  1.00  0.00    -0.354 N 
ATOM     51  N   UNL A   1      43.030  29.009  31.751  1.00  0.00    -0.248 NA
ATOM     52  C   UNL A   1      42.691  29.859  33.854  1.00  0.00     0.031 C 
ATOM     53  C   UNL A   1      44.885  27.358  29.640  1.00  0.00     0.029 A 
ATOM     54  C   UNL A   1      44.268  26.779  30.733  1.00  0.00     0.049 A 
ATOM     55  H   UNL A   1      42.848  25.241  30.777  1.00  0.00     0.167 HD
ATOM     56  C   UNL A   1      43.635  28.136  32.611  1.00  0.00     0.074 A 
ATOM     57  C   UNL A   1      43.380  28.705  33.924  1.00  0.00     0.031 C 
ATOM     58  C   UNL A   1      44.265  27.006  32.171  1.00  0.00     0.037 A 
BRANCH  45  59
ATOM     59  C   UNL A   1      42.949  23.812  27.130  1.00  0.00     0.064 A 
ATOM     60  C   UNL A   1      42.605  22.458  27.342  1.00  0.00     0.173 A 
ATOM     61  C   UNL A   1      43.648  24.061  25.934  1.00  0.00     0.173 A 
ATOM     62  F   UNL A   1      41.859  22.077  28.386  1.00  0.00    -0.203 F 
ATOM     63  C   UNL A   1      43.010  21.433  26.486  1.00  0.00     0.198 A 
ATOM     64  C   UNL A   1      44.090  23.029  25.095  1.00  0.00     0.198 A 
ATOM     65  F   UNL A   1      43.879  25.309  25.509  1.00  0.00    -0.203 F 
ATOM     66  F   UNL A   1      42.653  20.169  26.751  1.00  0.00    -0.200 F 
ATOM     67  C   UNL A   1      43.777  21.714  25.376  1.00  0.00     0.200 A 
ATOM     68  F   UNL A   1      44.814  23.321  24.005  1.00  0.00    -0.200 F 
ATOM     69  F   UNL A   1      44.189  20.727  24.569  1.00  0.00    -0.200 F 
ENDBRANCH  45  59
BRANCH  46  70
ATOM     70  C   UNL A   1      40.282  31.527  32.286  1.00  0.00     0.064 A 
ATOM     71  C   UNL A   1      39.412  30.555  32.834  1.00  0.00     0.173 A 
ATOM     72  C   UNL A   1      40.057  32.862  32.652  1.00  0.00     0.173 A 
ATOM     73  F   UNL A   1      39.582  29.258  32.529  1.00  0.00    -0.203 F 
ATOM     74  C   UNL A   1      38.477  30.885  33.813  1.00  0.00     0.198 A 
ATOM     75  C   UNL A   1      39.095  33.189  33.614  1.00  0.00     0.198 A 
ATOM     76  F   UNL A   1      40.838  33.840  32.171  1.00  0.00    -0.203 F 
ATOM     77  F   UNL A   1      37.778  29.915  34.424  1.00  0.00    -0.200 F 
ATOM     78  C   UNL A   1      38.338  32.198  34.223  1.00  0.00     0.200 A 
ATOM     79  F   UNL A   1      38.961  34.463  34.012  1.00  0.00    -0.200 F 
ATOM     80  F   UNL A   1      37.502  32.505  35.224  1.00  0.00    -0.200 F 
ENDBRANCH  46  70
BRANCH  58  81
ATOM     81  C   UNL A   1      44.916  25.985  33.067  1.00  0.00     0.064 A 
ATOM     82  C   UNL A   1      46.279  25.670  32.993  1.00  0.00     0.173 A 
ATOM     83  C   UNL A   1      44.162  25.208  33.982  1.00  0.00     0.173 A 
ATOM     84  F   UNL A   1      47.071  26.244  32.076  1.00  0.00    -0.203 F 
ATOM     85  C   UNL A   1      46.863  24.725  33.841  1.00  0.00     0.198 A 
ATOM     86  C   UNL A   1      44.733  24.223  34.779  1.00  0.00     0.198 A 
ATOM     87  F   UNL A   1      42.847  25.388  34.161  1.00  0.00    -0.203 F 
ATOM     88  F   UNL A   1      48.185  24.515  33.788  1.00  0.00    -0.200 F 
ATOM     89  C   UNL A   1      46.090  24.000  34.731  1.00  0.00     0.200 A 
ATOM     90  F   UNL A   1      43.955  23.504  35.603  1.00  0.00    -0.200 F 
ATOM     91  F   UNL A   1      46.649  23.090  35.537  1.00  0.00    -0.200 F 
ENDBRANCH  58  81
ENDBRANCH  32  33
ENDBRANCH  24  27
ENDBRANCH  22  23
ENDBRANCH   1  22
TORSDOF 12
ENDMDL
