MODEL 1
REMARK VINA RESULT:     -12.9      0.000      0.000
REMARK SMILES Cn1ncc(C(=O)NCCCCNC(=O)c2ccc(-c3c4nc(c(-c5c(F)c(F)c(F)c(F)c5F)c5ccc([nH]5)c(-c5c(F)c(F)c(F)c(F)c5F)c5nc(c(-c6c(F)c(F)c(F)c(F)c6F)c6ccc3[nH]6)C=C5)C=C4)cc2)c1C(=O)Nc1ccccn1
REMARK SMILES IDX 10 1 9 2 8 3 6 4 7 5 5 7 1 8 2 9 3 10 79 11 4 12 80 13 81 14
REMARK SMILES IDX 82 15 83 17 84 18 88 19 85 20 87 21 86 22 11 23 12 24 13 25
REMARK SMILES IDX 14 26 15 28 16 29 17 30 78 31 18 32 77 33 19 34 20 35 21 36
REMARK SMILES IDX 71 37 22 38 76 39 70 40 72 41 23 42 75 43 69 44 68 45 24 47
REMARK SMILES IDX 56 48 36 49 55 50 37 51 40 52 54 53 73 54 38 55 39 56 53 58
REMARK SMILES IDX 74 59 41 60 25 61 26 62 34 63 27 64 28 65 32 66 35 67 29 68
REMARK SMILES IDX 30 69 33 70 31 71 57 72 58 73 66 74 59 75 60 76 64 77 67 78
REMARK SMILES IDX 61 79 62 80 65 81 63 82 42 83 43 84 51 85 44 86 45 87 49 88
REMARK SMILES IDX 52 89 46 90 47 91 50 92 48 93
REMARK H PARENT 8 6 82 16 13 27 72 46 40 57
REMARK Flexibility Score: inf
ROOT
ATOM      1  C   UNL A   1      31.582  30.698  26.258  1.00  0.00     0.023 C 
ENDROOT
BRANCH   1   2
ATOM      2  C   UNL A   1      32.930  30.084  26.614  1.00  0.00     0.116 C 
BRANCH   2   3
ATOM      3  N   UNL A   1      33.695  29.639  25.474  1.00  0.00    -0.352 N 
ATOM      4  C   UNL A   1      33.615  28.500  24.716  1.00  0.00     0.255 C 
ATOM      5  O   UNL A   1      34.458  28.381  23.824  1.00  0.00    -0.269 OA
ATOM      6  H   UNL A   1      34.400  30.265  25.190  1.00  0.00     0.163 HD
BRANCH   4   7
ATOM      7  C   UNL A   1      32.653  27.430  24.958  1.00  0.00     0.090 A 
ATOM      8  C   UNL A   1      30.808  24.359  24.553  1.00  0.00     0.174 C 
ATOM      9  N   UNL A   1      31.371  25.641  24.920  1.00  0.00    -0.262 N 
ATOM     10  N   UNL A   1      31.586  25.852  26.231  1.00  0.00    -0.180 NA
ATOM     11  C   UNL A   1      31.868  26.641  24.109  1.00  0.00     0.139 A 
ATOM     12  C   UNL A   1      32.436  26.875  26.243  1.00  0.00     0.149 A 
BRANCH  11  13
ATOM     13  C   UNL A   1      31.815  26.685  22.672  1.00  0.00     0.275 C 
ATOM     14  O   UNL A   1      32.465  25.888  21.990  1.00  0.00    -0.267 OA
ATOM     15  N   UNL A   1      31.095  27.622  21.972  1.00  0.00    -0.305 N 
ATOM     16  H   UNL A   1      31.433  27.800  21.065  1.00  0.00     0.171 HD
BRANCH  15  17
ATOM     17  C   UNL A   1      29.976  28.361  22.323  1.00  0.00     0.132 A 
ATOM     18  C   UNL A   1      28.901  27.899  23.064  1.00  0.00     0.047 A 
ATOM     19  N   UNL A   1      30.023  29.599  21.790  1.00  0.00    -0.239 NA
ATOM     20  C   UNL A   1      27.790  28.739  23.191  1.00  0.00     0.005 A 
ATOM     21  C   UNL A   1      28.925  30.370  21.889  1.00  0.00     0.113 A 
ATOM     22  C   UNL A   1      27.787  29.984  22.566  1.00  0.00     0.020 A 
ENDBRANCH  15  17
ENDBRANCH  11  13
ENDBRANCH   4   7
ENDBRANCH   2   3
ENDBRANCH   1   2
BRANCH   1  23
ATOM     23  C   UNL A   1      31.401  32.177  26.589  1.00  0.00     0.023 C 
BRANCH  23  24
ATOM     24  C   UNL A   1      32.569  32.866  27.286  1.00  0.00     0.116 C 
BRANCH  24  25
ATOM     25  N   UNL A   1      32.303  34.247  27.663  1.00  0.00    -0.352 N 
ATOM     26  C   UNL A   1      32.934  35.050  28.584  1.00  0.00     0.251 C 
ATOM     27  H   UNL A   1      31.556  34.673  27.184  1.00  0.00     0.163 HD
ATOM     28  O   UNL A   1      32.508  36.179  28.819  1.00  0.00    -0.269 OA
BRANCH  26  29
ATOM     29  C   UNL A   1      34.101  34.539  29.332  1.00  0.00     0.039 A 
ATOM     30  C   UNL A   1      33.899  33.960  30.588  1.00  0.00     0.014 A 
ATOM     31  C   UNL A   1      35.383  34.586  28.780  1.00  0.00     0.014 A 
ATOM     32  C   UNL A   1      34.963  33.334  31.241  1.00  0.00     0.010 A 
ATOM     33  C   UNL A   1      36.420  33.887  29.388  1.00  0.00     0.010 A 
ATOM     34  C   UNL A   1      36.219  33.244  30.620  1.00  0.00    -0.014 A 
BRANCH  34  35
ATOM     35  C   UNL A   1      37.331  32.468  31.229  1.00  0.00     0.031 A 
ATOM     36  C   UNL A   1      37.841  32.827  32.597  1.00  0.00     0.074 A 
ATOM     37  C   UNL A   1      37.940  31.501  30.516  1.00  0.00     0.049 A 
ATOM     38  N   UNL A   1      38.857  32.334  33.258  1.00  0.00    -0.248 NA
ATOM     39  C   UNL A   1      37.134  33.909  33.300  1.00  0.00     0.031 C 
ATOM     40  C   UNL A   1      37.582  31.100  29.154  1.00  0.00     0.029 A 
ATOM     41  N   UNL A   1      38.999  30.687  30.832  1.00  0.00    -0.354 N 
ATOM     42  C   UNL A   1      38.922  33.057  34.441  1.00  0.00     0.074 A 
ATOM     43  C   UNL A   1      37.883  34.061  34.382  1.00  0.00     0.031 C 
ATOM     44  C   UNL A   1      38.392  30.104  28.761  1.00  0.00     0.029 A 
ATOM     45  C   UNL A   1      39.349  29.820  29.825  1.00  0.00     0.049 A 
ATOM     46  H   UNL A   1      39.466  30.722  31.699  1.00  0.00     0.167 HD
ATOM     47  C   UNL A   1      39.757  32.883  35.495  1.00  0.00     0.037 A 
ATOM     48  C   UNL A   1      40.333  28.903  29.766  1.00  0.00     0.037 A 
ATOM     49  C   UNL A   1      40.771  31.865  35.563  1.00  0.00     0.049 A 
ATOM     50  C   UNL A   1      41.239  28.719  30.953  1.00  0.00     0.074 A 
ATOM     51  C   UNL A   1      41.622  31.564  36.612  1.00  0.00     0.029 A 
ATOM     52  N   UNL A   1      41.072  30.981  34.536  1.00  0.00    -0.354 N 
ATOM     53  N   UNL A   1      41.244  29.359  32.097  1.00  0.00    -0.248 NA
ATOM     54  C   UNL A   1      42.273  27.679  30.843  1.00  0.00     0.031 C 
ATOM     55  C   UNL A   1      42.466  30.524  36.205  1.00  0.00     0.029 A 
ATOM     56  C   UNL A   1      42.109  30.145  34.921  1.00  0.00     0.049 A 
ATOM     57  H   UNL A   1      40.616  30.952  33.665  1.00  0.00     0.167 HD
ATOM     58  C   UNL A   1      42.258  28.784  32.852  1.00  0.00     0.074 A 
ATOM     59  C   UNL A   1      42.837  27.734  32.041  1.00  0.00     0.031 C 
ATOM     60  C   UNL A   1      42.670  29.100  34.104  1.00  0.00     0.037 A 
BRANCH  47  61
ATOM     61  C   UNL A   1      39.597  33.815  36.662  1.00  0.00     0.064 A 
ATOM     62  C   UNL A   1      40.215  35.074  36.686  1.00  0.00     0.173 A 
ATOM     63  C   UNL A   1      38.804  33.453  37.760  1.00  0.00     0.173 A 
ATOM     64  F   UNL A   1      40.994  35.464  35.665  1.00  0.00    -0.203 F 
ATOM     65  C   UNL A   1      40.077  35.920  37.784  1.00  0.00     0.198 A 
ATOM     66  C   UNL A   1      38.642  34.315  38.842  1.00  0.00     0.198 A 
ATOM     67  F   UNL A   1      38.185  32.263  37.787  1.00  0.00    -0.203 F 
ATOM     68  F   UNL A   1      40.725  37.093  37.809  1.00  0.00    -0.200 F 
ATOM     69  C   UNL A   1      39.286  35.542  38.858  1.00  0.00     0.200 A 
ATOM     70  F   UNL A   1      37.866  33.954  39.874  1.00  0.00    -0.200 F 
ATOM     71  F   UNL A   1      39.152  36.359  39.912  1.00  0.00    -0.200 F 
ENDBRANCH  47  61
BRANCH  48  72
ATOM     72  C   UNL A   1      40.492  28.066  28.548  1.00  0.00     0.064 A 
ATOM     73  C   UNL A   1      39.872  26.813  28.453  1.00  0.00     0.173 A 
ATOM     74  C   UNL A   1      41.257  28.500  27.456  1.00  0.00     0.173 A 
ATOM     75  F   UNL A   1      39.146  26.345  29.479  1.00  0.00    -0.203 F 
ATOM     76  C   UNL A   1      40.024  26.017  27.319  1.00  0.00     0.198 A 
ATOM     77  C   UNL A   1      41.387  27.715  26.311  1.00  0.00     0.198 A 
ATOM     78  F   UNL A   1      41.867  29.694  27.495  1.00  0.00    -0.203 F 
ATOM     79  F   UNL A   1      39.452  24.807  27.271  1.00  0.00    -0.200 F 
ATOM     80  C   UNL A   1      40.776  26.472  26.246  1.00  0.00     0.200 A 
ATOM     81  F   UNL A   1      42.104  28.165  25.272  1.00  0.00    -0.200 F 
ATOM     82  F   UNL A   1      40.917  25.711  25.153  1.00  0.00    -0.200 F 
ENDBRANCH  48  72
BRANCH  60  83
ATOM     83  C   UNL A   1      43.782  28.279  34.690  1.00  0.00     0.064 A 
ATOM     84  C   UNL A   1      43.530  27.085  35.381  1.00  0.00     0.173 A 
ATOM     85  C   UNL A   1      45.118  28.670  34.517  1.00  0.00     0.173 A 
ATOM     86  F   UNL A   1      42.269  26.677  35.586  1.00  0.00    -0.203 F 
ATOM     87  C   UNL A   1      44.576  26.325  35.898  1.00  0.00     0.198 A 
ATOM     88  C   UNL A   1      46.162  27.893  35.010  1.00  0.00     0.198 A 
ATOM     89  F   UNL A   1      45.412  29.802  33.857  1.00  0.00    -0.203 F 
ATOM     90  F   UNL A   1      44.310  25.211  36.595  1.00  0.00    -0.200 F 
ATOM     91  C   UNL A   1      45.890  26.725  35.706  1.00  0.00     0.200 A 
ATOM     92  F   UNL A   1      47.431  28.274  34.811  1.00  0.00    -0.200 F 
ATOM     93  F   UNL A   1      46.895  25.987  36.196  1.00  0.00    -0.200 F 
ENDBRANCH  60  83
ENDBRANCH  34  35
ENDBRANCH  26  29
ENDBRANCH  24  25
ENDBRANCH  23  24
ENDBRANCH   1  23
TORSDOF 13
ENDMDL
MODEL 2
REMARK VINA RESULT:     -12.8      6.223     11.606
REMARK SMILES Cn1ncc(C(=O)NCCCCNC(=O)c2ccc(-c3c4nc(c(-c5c(F)c(F)c(F)c(F)c5F)c5ccc([nH]5)c(-c5c(F)c(F)c(F)c(F)c5F)c5nc(c(-c6c(F)c(F)c(F)c(F)c6F)c6ccc3[nH]6)C=C5)C=C4)cc2)c1C(=O)Nc1ccccn1
REMARK SMILES IDX 10 1 9 2 8 3 6 4 7 5 5 7 1 8 2 9 3 10 79 11 4 12 80 13 81 14
REMARK SMILES IDX 82 15 83 17 84 18 88 19 85 20 87 21 86 22 11 23 12 24 13 25
REMARK SMILES IDX 14 26 15 28 16 29 17 30 78 31 18 32 77 33 19 34 20 35 21 36
REMARK SMILES IDX 71 37 22 38 76 39 70 40 72 41 23 42 75 43 69 44 68 45 24 47
REMARK SMILES IDX 56 48 36 49 55 50 37 51 40 52 54 53 73 54 38 55 39 56 53 58
REMARK SMILES IDX 74 59 41 60 25 61 26 62 34 63 27 64 28 65 32 66 35 67 29 68
REMARK SMILES IDX 30 69 33 70 31 71 57 72 58 73 66 74 59 75 60 76 64 77 67 78
REMARK SMILES IDX 61 79 62 80 65 81 63 82 42 83 43 84 51 85 44 86 45 87 49 88
REMARK SMILES IDX 52 89 46 90 47 91 50 92 48 93
REMARK H PARENT 8 6 82 16 13 27 72 46 40 57
REMARK Flexibility Score: inf
ROOT
ATOM      1  C   UNL A   1      37.249  20.514  25.006  1.00  0.00     0.023 C 
ENDROOT
BRANCH   1   2
ATOM      2  C   UNL A   1      37.581  21.965  25.329  1.00  0.00     0.116 C 
BRANCH   2   3
ATOM      3  N   UNL A   1      36.616  22.614  26.183  1.00  0.00    -0.352 N 
ATOM      4  C   UNL A   1      35.309  22.968  25.972  1.00  0.00     0.255 C 
ATOM      5  O   UNL A   1      34.753  23.568  26.894  1.00  0.00    -0.269 OA
ATOM      6  H   UNL A   1      36.958  22.846  27.078  1.00  0.00     0.163 HD
BRANCH   4   7
ATOM      7  C   UNL A   1      34.597  22.732  24.721  1.00  0.00     0.090 A 
ATOM      8  C   UNL A   1      31.893  22.317  22.372  1.00  0.00     0.174 C 
ATOM      9  N   UNL A   1      33.138  22.410  23.104  1.00  0.00    -0.262 N 
ATOM     10  N   UNL A   1      34.146  23.064  22.500  1.00  0.00    -0.180 NA
ATOM     11  C   UNL A   1      33.413  22.053  24.409  1.00  0.00     0.139 A 
ATOM     12  C   UNL A   1      34.979  23.338  23.499  1.00  0.00     0.149 A 
BRANCH  11  13
ATOM     13  C   UNL A   1      32.528  21.371  25.315  1.00  0.00     0.275 C 
ATOM     14  O   UNL A   1      31.694  21.995  25.975  1.00  0.00    -0.267 OA
ATOM     15  N   UNL A   1      32.579  20.017  25.542  1.00  0.00    -0.305 N 
ATOM     16  H   UNL A   1      32.230  19.739  26.420  1.00  0.00     0.171 HD
BRANCH  15  17
ATOM     17  C   UNL A   1      33.037  18.975  24.751  1.00  0.00     0.132 A 
ATOM     18  C   UNL A   1      34.211  18.267  24.946  1.00  0.00     0.047 A 
ATOM     19  N   UNL A   1      32.218  18.764  23.701  1.00  0.00    -0.239 NA
ATOM     20  C   UNL A   1      34.589  17.350  23.959  1.00  0.00     0.005 A 
ATOM     21  C   UNL A   1      32.625  17.909  22.745  1.00  0.00     0.113 A 
ATOM     22  C   UNL A   1      33.800  17.190  22.823  1.00  0.00     0.020 A 
ENDBRANCH  15  17
ENDBRANCH  11  13
ENDBRANCH   4   7
ENDBRANCH   2   3
ENDBRANCH   1   2
BRANCH   1  23
ATOM     23  C   UNL A   1      38.421  19.536  24.993  1.00  0.00     0.023 C 
BRANCH  23  24
ATOM     24  C   UNL A   1      39.610  19.888  25.880  1.00  0.00     0.116 C 
BRANCH  24  25
ATOM     25  N   UNL A   1      40.654  18.873  25.901  1.00  0.00    -0.352 N 
ATOM     26  C   UNL A   1      42.009  19.002  26.100  1.00  0.00     0.251 C 
ATOM     27  H   UNL A   1      40.343  17.952  25.749  1.00  0.00     0.163 HD
ATOM     28  O   UNL A   1      42.747  18.024  26.001  1.00  0.00    -0.269 OA
BRANCH  26  29
ATOM     29  C   UNL A   1      42.590  20.330  26.386  1.00  0.00     0.039 A 
ATOM     30  C   UNL A   1      43.143  21.067  25.335  1.00  0.00     0.014 A 
ATOM     31  C   UNL A   1      42.547  20.869  27.674  1.00  0.00     0.014 A 
ATOM     32  C   UNL A   1      43.556  22.383  25.554  1.00  0.00     0.010 A 
ATOM     33  C   UNL A   1      42.876  22.206  27.871  1.00  0.00     0.010 A 
ATOM     34  C   UNL A   1      43.374  22.980  26.812  1.00  0.00    -0.014 A 
BRANCH  34  35
ATOM     35  C   UNL A   1      43.677  24.418  27.038  1.00  0.00     0.031 A 
ATOM     36  C   UNL A   1      45.068  24.940  26.812  1.00  0.00     0.074 A 
ATOM     37  C   UNL A   1      42.724  25.233  27.532  1.00  0.00     0.049 A 
ATOM     38  N   UNL A   1      45.553  26.135  27.041  1.00  0.00    -0.248 NA
ATOM     39  C   UNL A   1      46.055  23.981  26.291  1.00  0.00     0.031 C 
ATOM     40  C   UNL A   1      41.353  24.834  27.855  1.00  0.00     0.029 A 
ATOM     41  N   UNL A   1      42.768  26.564  27.864  1.00  0.00    -0.354 N 
ATOM     42  C   UNL A   1      46.899  26.063  26.712  1.00  0.00     0.074 A 
ATOM     43  C   UNL A   1      47.170  24.696  26.325  1.00  0.00     0.031 C 
ATOM     44  C   UNL A   1      40.681  25.901  28.317  1.00  0.00     0.029 A 
ATOM     45  C   UNL A   1      41.581  27.048  28.358  1.00  0.00     0.049 A 
ATOM     46  H   UNL A   1      43.574  27.120  27.758  1.00  0.00     0.167 HD
ATOM     47  C   UNL A   1      47.823  27.055  26.707  1.00  0.00     0.037 A 
ATOM     48  C   UNL A   1      41.257  28.279  28.799  1.00  0.00     0.037 A 
ATOM     49  C   UNL A   1      47.546  28.420  27.064  1.00  0.00     0.049 A 
ATOM     50  C   UNL A   1      42.296  29.367  28.772  1.00  0.00     0.074 A 
ATOM     51  C   UNL A   1      48.395  29.512  27.028  1.00  0.00     0.029 A 
ATOM     52  N   UNL A   1      46.321  28.881  27.527  1.00  0.00    -0.354 N 
ATOM     53  N   UNL A   1      43.548  29.306  28.389  1.00  0.00    -0.248 NA
ATOM     54  C   UNL A   1      41.874  30.697  29.233  1.00  0.00     0.031 C 
ATOM     55  C   UNL A   1      47.696  30.626  27.507  1.00  0.00     0.029 A 
ATOM     56  C   UNL A   1      46.397  30.239  27.796  1.00  0.00     0.049 A 
ATOM     57  H   UNL A   1      45.517  28.326  27.644  1.00  0.00     0.167 HD
ATOM     58  C   UNL A   1      44.055  30.590  28.535  1.00  0.00     0.074 A 
ATOM     59  C   UNL A   1      42.971  31.413  29.030  1.00  0.00     0.031 C 
ATOM     60  C   UNL A   1      45.307  31.044  28.282  1.00  0.00     0.037 A 
BRANCH  47  61
ATOM     61  C   UNL A   1      49.221  26.692  26.293  1.00  0.00     0.064 A 
ATOM     62  C   UNL A   1      50.147  26.173  27.210  1.00  0.00     0.173 A 
ATOM     63  C   UNL A   1      49.634  26.851  24.962  1.00  0.00     0.173 A 
ATOM     64  F   UNL A   1      49.806  26.013  28.498  1.00  0.00    -0.203 F 
ATOM     65  C   UNL A   1      51.447  25.862  26.818  1.00  0.00     0.198 A 
ATOM     66  C   UNL A   1      50.925  26.507  24.567  1.00  0.00     0.198 A 
ATOM     67  F   UNL A   1      48.787  27.337  24.042  1.00  0.00    -0.203 F 
ATOM     68  F   UNL A   1      52.331  25.423  27.725  1.00  0.00    -0.200 F 
ATOM     69  C   UNL A   1      51.833  26.024  25.497  1.00  0.00     0.200 A 
ATOM     70  F   UNL A   1      51.293  26.652  23.286  1.00  0.00    -0.200 F 
ATOM     71  F   UNL A   1      53.083  25.721  25.121  1.00  0.00    -0.200 F 
ENDBRANCH  47  61
BRANCH  48  72
ATOM     72  C   UNL A   1      39.876  28.555  29.275  1.00  0.00     0.064 A 
ATOM     73  C   UNL A   1      39.520  28.332  30.612  1.00  0.00     0.173 A 
ATOM     74  C   UNL A   1      38.890  29.053  28.411  1.00  0.00     0.173 A 
ATOM     75  F   UNL A   1      40.423  27.838  31.472  1.00  0.00    -0.203 F 
ATOM     76  C   UNL A   1      38.225  28.579  31.064  1.00  0.00     0.198 A 
ATOM     77  C   UNL A   1      37.602  29.325  28.870  1.00  0.00     0.198 A 
ATOM     78  F   UNL A   1      39.182  29.288  27.123  1.00  0.00    -0.203 F 
ATOM     79  F   UNL A   1      37.901  28.319  32.337  1.00  0.00    -0.200 F 
ATOM     80  C   UNL A   1      37.269  29.082  30.194  1.00  0.00     0.200 A 
ATOM     81  F   UNL A   1      36.686  29.824  28.029  1.00  0.00    -0.200 F 
ATOM     82  F   UNL A   1      36.026  29.327  30.629  1.00  0.00    -0.200 F 
ENDBRANCH  48  72
BRANCH  60  83
ATOM     83  C   UNL A   1      45.566  32.506  28.504  1.00  0.00     0.064 A 
ATOM     84  C   UNL A   1      45.315  33.458  27.506  1.00  0.00     0.173 A 
ATOM     85  C   UNL A   1      46.029  32.963  29.748  1.00  0.00     0.173 A 
ATOM     86  F   UNL A   1      44.887  33.070  26.296  1.00  0.00    -0.203 F 
ATOM     87  C   UNL A   1      45.541  34.813  27.738  1.00  0.00     0.198 A 
ATOM     88  C   UNL A   1      46.225  34.319  29.986  1.00  0.00     0.198 A 
ATOM     89  F   UNL A   1      46.278  32.091  30.738  1.00  0.00    -0.203 F 
ATOM     90  F   UNL A   1      45.337  35.701  26.755  1.00  0.00    -0.200 F 
ATOM     91  C   UNL A   1      45.987  35.243  28.979  1.00  0.00     0.200 A 
ATOM     92  F   UNL A   1      46.644  34.734  31.189  1.00  0.00    -0.200 F 
ATOM     93  F   UNL A   1      46.195  36.548  29.203  1.00  0.00    -0.200 F 
ENDBRANCH  60  83
ENDBRANCH  34  35
ENDBRANCH  26  29
ENDBRANCH  24  25
ENDBRANCH  23  24
ENDBRANCH   1  23
TORSDOF 13
ENDMDL
MODEL 3
REMARK VINA RESULT:     -12.6      6.023     10.457
REMARK SMILES Cn1ncc(C(=O)NCCCCNC(=O)c2ccc(-c3c4nc(c(-c5c(F)c(F)c(F)c(F)c5F)c5ccc([nH]5)c(-c5c(F)c(F)c(F)c(F)c5F)c5nc(c(-c6c(F)c(F)c(F)c(F)c6F)c6ccc3[nH]6)C=C5)C=C4)cc2)c1C(=O)Nc1ccccn1
REMARK SMILES IDX 10 1 9 2 8 3 6 4 7 5 5 7 1 8 2 9 3 10 79 11 4 12 80 13 81 14
REMARK SMILES IDX 82 15 83 17 84 18 88 19 85 20 87 21 86 22 11 23 12 24 13 25
REMARK SMILES IDX 14 26 15 28 16 29 17 30 78 31 18 32 77 33 19 34 20 35 21 36
REMARK SMILES IDX 71 37 22 38 76 39 70 40 72 41 23 42 75 43 69 44 68 45 24 47
REMARK SMILES IDX 56 48 36 49 55 50 37 51 40 52 54 53 73 54 38 55 39 56 53 58
REMARK SMILES IDX 74 59 41 60 25 61 26 62 34 63 27 64 28 65 32 66 35 67 29 68
REMARK SMILES IDX 30 69 33 70 31 71 57 72 58 73 66 74 59 75 60 76 64 77 67 78
REMARK SMILES IDX 61 79 62 80 65 81 63 82 42 83 43 84 51 85 44 86 45 87 49 88
REMARK SMILES IDX 52 89 46 90 47 91 50 92 48 93
REMARK H PARENT 8 6 82 16 13 27 72 46 40 57
REMARK Flexibility Score: inf
ROOT
ATOM      1  C   UNL A   1      37.233  21.181  24.845  1.00  0.00     0.023 C 
ENDROOT
BRANCH   1   2
ATOM      2  C   UNL A   1      35.779  20.887  25.191  1.00  0.00     0.116 C 
BRANCH   2   3
ATOM      3  N   UNL A   1      35.360  21.409  26.469  1.00  0.00    -0.352 N 
ATOM      4  C   UNL A   1      34.640  22.527  26.802  1.00  0.00     0.255 C 
ATOM      5  O   UNL A   1      34.487  22.735  28.008  1.00  0.00    -0.269 OA
ATOM      6  H   UNL A   1      35.644  20.866  27.241  1.00  0.00     0.163 HD
BRANCH   4   7
ATOM      7  C   UNL A   1      34.126  23.481  25.825  1.00  0.00     0.090 A 
ATOM      8  C   UNL A   1      31.963  25.886  24.232  1.00  0.00     0.174 C 
ATOM      9  N   UNL A   1      32.978  24.937  24.640  1.00  0.00    -0.262 N 
ATOM     10  N   UNL A   1      34.257  25.299  24.439  1.00  0.00    -0.180 NA
ATOM     11  C   UNL A   1      32.840  23.762  25.350  1.00  0.00     0.139 A 
ATOM     12  C   UNL A   1      34.938  24.477  25.230  1.00  0.00     0.149 A 
BRANCH  11  13
ATOM     13  C   UNL A   1      31.605  23.137  25.741  1.00  0.00     0.275 C 
ATOM     14  O   UNL A   1      30.664  23.807  26.173  1.00  0.00    -0.267 OA
ATOM     15  N   UNL A   1      31.404  21.778  25.708  1.00  0.00    -0.305 N 
ATOM     16  H   UNL A   1      30.720  21.453  26.338  1.00  0.00     0.171 HD
BRANCH  15  17
ATOM     17  C   UNL A   1      31.998  20.785  24.944  1.00  0.00     0.132 A 
ATOM     18  C   UNL A   1      32.111  20.788  23.564  1.00  0.00     0.047 A 
ATOM     19  N   UNL A   1      32.407  19.757  25.713  1.00  0.00    -0.239 NA
ATOM     20  C   UNL A   1      32.604  19.631  22.950  1.00  0.00     0.005 A 
ATOM     21  C   UNL A   1      32.836  18.640  25.097  1.00  0.00     0.113 A 
ATOM     22  C   UNL A   1      32.942  18.525  23.726  1.00  0.00     0.020 A 
ENDBRANCH  15  17
ENDBRANCH  11  13
ENDBRANCH   4   7
ENDBRANCH   2   3
ENDBRANCH   1   2
BRANCH   1  23
ATOM     23  C   UNL A   1      38.212  20.018  24.982  1.00  0.00     0.023 C 
BRANCH  23  24
ATOM     24  C   UNL A   1      39.431  20.256  25.868  1.00  0.00     0.116 C 
BRANCH  24  25
ATOM     25  N   UNL A   1      40.375  19.147  25.886  1.00  0.00    -0.352 N 
ATOM     26  C   UNL A   1      41.732  19.146  26.107  1.00  0.00     0.251 C 
ATOM     27  H   UNL A   1      39.981  18.262  25.714  1.00  0.00     0.163 HD
ATOM     28  O   UNL A   1      42.377  18.105  26.002  1.00  0.00    -0.269 OA
BRANCH  26  29
ATOM     29  C   UNL A   1      42.430  20.409  26.425  1.00  0.00     0.039 A 
ATOM     30  C   UNL A   1      43.025  21.133  25.388  1.00  0.00     0.014 A 
ATOM     31  C   UNL A   1      42.457  20.904  27.730  1.00  0.00     0.014 A 
ATOM     32  C   UNL A   1      43.554  22.400  25.641  1.00  0.00     0.010 A 
ATOM     33  C   UNL A   1      42.902  22.201  27.965  1.00  0.00     0.010 A 
ATOM     34  C   UNL A   1      43.446  22.967  26.921  1.00  0.00    -0.014 A 
BRANCH  34  35
ATOM     35  C   UNL A   1      43.875  24.365  27.189  1.00  0.00     0.031 A 
ATOM     36  C   UNL A   1      42.877  25.384  27.661  1.00  0.00     0.074 A 
ATOM     37  C   UNL A   1      45.142  24.738  26.921  1.00  0.00     0.049 A 
ATOM     38  N   UNL A   1      43.034  26.669  27.860  1.00  0.00    -0.248 NA
ATOM     39  C   UNL A   1      41.510  24.900  27.910  1.00  0.00     0.031 C 
ATOM     40  C   UNL A   1      46.191  23.860  26.399  1.00  0.00     0.029 A 
ATOM     41  N   UNL A   1      45.761  25.957  27.038  1.00  0.00    -0.354 N 
ATOM     42  C   UNL A   1      41.786  27.146  28.236  1.00  0.00     0.074 A 
ATOM     43  C   UNL A   1      40.869  26.028  28.180  1.00  0.00     0.031 C 
ATOM     44  C   UNL A   1      47.326  24.563  26.261  1.00  0.00     0.029 A 
ATOM     45  C   UNL A   1      47.079  25.947  26.649  1.00  0.00     0.049 A 
ATOM     46  H   UNL A   1      45.303  26.764  27.369  1.00  0.00     0.167 HD
ATOM     47  C   UNL A   1      41.439  28.399  28.619  1.00  0.00     0.037 A 
ATOM     48  C   UNL A   1      47.983  26.944  26.606  1.00  0.00     0.037 A 
ATOM     49  C   UNL A   1      42.358  29.502  28.702  1.00  0.00     0.049 A 
ATOM     50  C   UNL A   1      47.578  28.324  27.049  1.00  0.00     0.074 A 
ATOM     51  C   UNL A   1      42.121  30.792  29.142  1.00  0.00     0.029 A 
ATOM     52  N   UNL A   1      43.695  29.444  28.333  1.00  0.00    -0.354 N 
ATOM     53  N   UNL A   1      46.413  28.748  27.474  1.00  0.00    -0.248 NA
ATOM     54  C   UNL A   1      48.618  29.362  27.013  1.00  0.00     0.031 C 
ATOM     55  C   UNL A   1      43.304  31.527  29.001  1.00  0.00     0.029 A 
ATOM     56  C   UNL A   1      44.291  30.682  28.519  1.00  0.00     0.049 A 
ATOM     57  H   UNL A   1      44.152  28.643  27.991  1.00  0.00     0.167 HD
ATOM     58  C   UNL A   1      46.584  30.091  27.781  1.00  0.00     0.074 A 
ATOM     59  C   UNL A   1      47.970  30.408  27.507  1.00  0.00     0.031 C 
ATOM     60  C   UNL A   1      45.673  30.980  28.248  1.00  0.00     0.037 A 
BRANCH  47  61
ATOM     61  C   UNL A   1      40.002  28.634  28.985  1.00  0.00     0.064 A 
ATOM     62  C   UNL A   1      39.528  28.404  30.286  1.00  0.00     0.173 A 
ATOM     63  C   UNL A   1      39.091  29.110  28.031  1.00  0.00     0.173 A 
ATOM     64  F   UNL A   1      40.356  27.936  31.234  1.00  0.00    -0.203 F 
ATOM     65  C   UNL A   1      38.188  28.604  30.607  1.00  0.00     0.198 A 
ATOM     66  C   UNL A   1      37.759  29.341  28.365  1.00  0.00     0.198 A 
ATOM     67  F   UNL A   1      39.491  29.354  26.774  1.00  0.00    -0.203 F 
ATOM     68  F   UNL A   1      37.747  28.320  31.841  1.00  0.00    -0.200 F 
ATOM     69  C   UNL A   1      37.306  29.078  29.648  1.00  0.00     0.200 A 
ATOM     70  F   UNL A   1      36.910  29.812  27.440  1.00  0.00    -0.200 F 
ATOM     71  F   UNL A   1      36.018  29.274  29.961  1.00  0.00    -0.200 F 
ENDBRANCH  47  61
BRANCH  48  72
ATOM     72  C   UNL A   1      49.371  26.664  26.155  1.00  0.00     0.064 A 
ATOM     73  C   UNL A   1      49.752  26.884  24.824  1.00  0.00     0.173 A 
ATOM     74  C   UNL A   1      50.346  26.183  27.041  1.00  0.00     0.173 A 
ATOM     75  F   UNL A   1      48.850  27.325  23.935  1.00  0.00    -0.203 F 
ATOM     76  C   UNL A   1      51.049  26.615  24.391  1.00  0.00     0.198 A 
ATOM     77  C   UNL A   1      51.650  25.940  26.613  1.00  0.00     0.198 A 
ATOM     78  F   UNL A   1      50.034  25.961  28.327  1.00  0.00    -0.203 F 
ATOM     79  F   UNL A   1      51.373  26.797  23.104  1.00  0.00    -0.200 F 
ATOM     80  C   UNL A   1      51.999  26.150  25.288  1.00  0.00     0.200 A 
ATOM     81  F   UNL A   1      52.569  25.503  27.486  1.00  0.00    -0.200 F 
ATOM     82  F   UNL A   1      53.248  25.899  24.873  1.00  0.00    -0.200 F 
ENDBRANCH  48  72
BRANCH  60  83
ATOM     83  C   UNL A   1      46.153  32.375  28.524  1.00  0.00     0.064 A 
ATOM     84  C   UNL A   1      46.069  33.387  27.556  1.00  0.00     0.173 A 
ATOM     85  C   UNL A   1      46.663  32.713  29.787  1.00  0.00     0.173 A 
ATOM     86  F   UNL A   1      45.605  33.111  26.329  1.00  0.00    -0.203 F 
ATOM     87  C   UNL A   1      46.500  34.681  27.838  1.00  0.00     0.198 A 
ATOM     88  C   UNL A   1      47.064  34.013  30.074  1.00  0.00     0.198 A 
ATOM     89  F   UNL A   1      46.757  31.781  30.749  1.00  0.00    -0.203 F 
ATOM     90  F   UNL A   1      46.452  35.623  26.885  1.00  0.00    -0.200 F 
ATOM     91  C   UNL A   1      46.989  34.995  29.097  1.00  0.00     0.200 A 
ATOM     92  F   UNL A   1      47.524  34.318  31.295  1.00  0.00    -0.200 F 
ATOM     93  F   UNL A   1      47.394  36.244  29.369  1.00  0.00    -0.200 F 
ENDBRANCH  60  83
ENDBRANCH  34  35
ENDBRANCH  26  29
ENDBRANCH  24  25
ENDBRANCH  23  24
ENDBRANCH   1  23
TORSDOF 13
ENDMDL
