MODEL 1
REMARK VINA RESULT:     -13.7      0.000      0.000
REMARK SMILES CC1=C(C(=O)NCCCCNC(=O)c2ccc(-c3c4nc(c(-c5c(F)c(F)c(F)c(F)c5F)c5ccc([nH]5)c(-c5c(F)c(F)c(F)c(F)c5F)c5nc(c(-c6c(F)c(F)c(F)c(F)c6F)c6ccc3[nH]6)C=C5)C=C4)cc2)[C@H](c2ccc(Cl)cc2)n2ncnc2N1
REMARK SMILES IDX 9 1 8 2 7 3 6 4 4 5 5 6 3 8 1 9 2 10 90 11 77 12 89 13 85 15
REMARK SMILES IDX 88 16 86 17 87 18 78 19 79 20 84 21 80 22 83 23 81 24 82 25
REMARK SMILES IDX 10 26 11 27 12 28 13 30 14 31 15 32 76 33 16 34 75 35 17 36
REMARK SMILES IDX 18 37 19 38 69 39 20 40 74 41 68 42 70 43 21 44 73 45 67 46
REMARK SMILES IDX 66 47 22 49 54 50 34 51 53 52 35 53 38 54 52 55 71 56 36 57
REMARK SMILES IDX 37 58 51 60 72 61 39 62 23 63 24 64 32 65 25 66 26 67 30 68
REMARK SMILES IDX 33 69 27 70 28 71 31 72 29 73 55 74 56 75 64 76 57 77 58 78
REMARK SMILES IDX 62 79 65 80 59 81 60 82 63 83 61 84 40 85 41 86 49 87 42 88
REMARK SMILES IDX 43 89 47 90 50 91 44 92 45 93 48 94 46 95
REMARK H PARENT 6 7 90 14 11 29 70 48 38 59
REMARK Flexibility Score: inf
ROOT
ATOM      1  C   UNL A   1      38.846  22.115  25.794  1.00  0.00     0.023 C 
ENDROOT
BRANCH   1   2
ATOM      2  C   UNL A   1      38.176  23.370  26.361  1.00  0.00     0.023 C 
BRANCH   2   3
ATOM      3  C   UNL A   1      36.759  23.661  25.845  1.00  0.00     0.116 C 
BRANCH   3   4
ATOM      4  N   UNL A   1      36.711  23.506  24.411  1.00  0.00    -0.352 N 
ATOM      5  C   UNL A   1      35.766  23.176  23.507  1.00  0.00     0.251 C 
ATOM      6  O   UNL A   1      36.231  22.952  22.382  1.00  0.00    -0.270 OA
ATOM      7  H   UNL A   1      37.582  23.684  23.989  1.00  0.00     0.163 HD
BRANCH   5   8
ATOM      8  C   UNL A   1      34.266  23.130  23.677  1.00  0.00     0.065 C 
ATOM      9  C   UNL A   1      33.266  24.687  21.871  1.00  0.00     0.065 C 
ATOM     10  C   UNL A   1      33.227  23.763  23.055  1.00  0.00     0.026 C 
ATOM     11  N   UNL A   1      31.941  23.707  23.607  1.00  0.00    -0.328 N 
ATOM     12  C   UNL A   1      33.927  22.256  24.939  1.00  0.00     0.179 C 
ATOM     13  C   UNL A   1      31.716  23.385  24.889  1.00  0.00     0.226 A 
ATOM     14  H   UNL A   1      31.171  23.911  23.030  1.00  0.00     0.169 HD
ATOM     15  N   UNL A   1      32.709  22.763  25.583  1.00  0.00    -0.219 N 
ATOM     16  N   UNL A   1      30.687  23.582  25.670  1.00  0.00    -0.200 NA
ATOM     17  N   UNL A   1      32.371  22.589  26.877  1.00  0.00    -0.157 NA
ATOM     18  C   UNL A   1      31.135  23.104  26.876  1.00  0.00     0.248 A 
BRANCH  12  19
ATOM     19  C   UNL A   1      33.801  20.750  24.603  1.00  0.00    -0.018 A 
ATOM     20  C   UNL A   1      32.641  20.189  24.029  1.00  0.00     0.008 A 
ATOM     21  C   UNL A   1      34.860  19.872  24.902  1.00  0.00     0.008 A 
ATOM     22  C   UNL A   1      32.541  18.818  23.771  1.00  0.00     0.021 A 
ATOM     23  C   UNL A   1      34.769  18.501  24.626  1.00  0.00     0.021 A 
ATOM     24  C   UNL A   1      33.609  17.980  24.065  1.00  0.00     0.041 A 
ATOM     25  Cl  UNL A   1      33.487  16.295  23.745  1.00  0.00    -0.084 Cl
ENDBRANCH  12  19
ENDBRANCH   5   8
ENDBRANCH   3   4
ENDBRANCH   2   3
ENDBRANCH   1   2
BRANCH   1  26
ATOM     26  C   UNL A   1      39.995  21.590  26.643  1.00  0.00     0.116 C 
BRANCH  26  27
ATOM     27  N   UNL A   1      41.297  21.718  25.985  1.00  0.00    -0.352 N 
ATOM     28  C   UNL A   1      42.007  22.878  25.755  1.00  0.00     0.251 C 
ATOM     29  H   UNL A   1      41.713  20.882  25.670  1.00  0.00     0.163 HD
ATOM     30  O   UNL A   1      42.862  22.948  24.873  1.00  0.00    -0.269 OA
BRANCH  28  31
ATOM     31  C   UNL A   1      41.737  24.029  26.623  1.00  0.00     0.039 A 
ATOM     32  C   UNL A   1      42.188  24.083  27.944  1.00  0.00     0.014 A 
ATOM     33  C   UNL A   1      41.078  25.108  26.035  1.00  0.00     0.014 A 
ATOM     34  C   UNL A   1      42.036  25.274  28.648  1.00  0.00     0.010 A 
ATOM     35  C   UNL A   1      41.072  26.319  26.673  1.00  0.00     0.010 A 
ATOM     36  C   UNL A   1      41.493  26.394  27.996  1.00  0.00    -0.014 A 
BRANCH  36  37
ATOM     37  C   UNL A   1      41.483  27.708  28.629  1.00  0.00     0.031 A 
ATOM     38  C   UNL A   1      42.619  28.582  28.224  1.00  0.00     0.074 A 
ATOM     39  C   UNL A   1      40.418  28.165  29.327  1.00  0.00     0.049 A 
ATOM     40  N   UNL A   1      43.587  29.003  28.966  1.00  0.00    -0.248 NA
ATOM     41  C   UNL A   1      42.788  28.902  26.795  1.00  0.00     0.031 C 
ATOM     42  C   UNL A   1      39.118  27.510  29.533  1.00  0.00     0.029 A 
ATOM     43  N   UNL A   1      40.233  29.370  29.932  1.00  0.00    -0.354 N 
ATOM     44  C   UNL A   1      44.373  29.817  28.154  1.00  0.00     0.074 A 
ATOM     45  C   UNL A   1      43.950  29.561  26.803  1.00  0.00     0.031 C 
ATOM     46  C   UNL A   1      38.221  28.407  30.001  1.00  0.00     0.029 A 
ATOM     47  C   UNL A   1      38.917  29.644  30.296  1.00  0.00     0.049 A 
ATOM     48  H   UNL A   1      40.972  29.999  30.098  1.00  0.00     0.167 HD
ATOM     49  C   UNL A   1      45.114  30.824  28.696  1.00  0.00     0.037 A 
ATOM     50  C   UNL A   1      38.436  30.811  30.797  1.00  0.00     0.037 A 
ATOM     51  C   UNL A   1      45.251  30.637  30.120  1.00  0.00     0.049 A 
ATOM     52  C   UNL A   1      39.598  31.569  31.319  1.00  0.00     0.074 A 
ATOM     53  C   UNL A   1      45.810  29.668  30.930  1.00  0.00     0.029 A 
ATOM     54  N   UNL A   1      44.405  31.357  30.927  1.00  0.00    -0.354 N 
ATOM     55  N   UNL A   1      40.295  31.196  32.355  1.00  0.00    -0.248 NA
ATOM     56  C   UNL A   1      40.269  32.479  30.406  1.00  0.00     0.031 C 
ATOM     57  C   UNL A   1      44.925  29.562  32.045  1.00  0.00     0.029 A 
ATOM     58  C   UNL A   1      43.924  30.524  31.900  1.00  0.00     0.049 A 
ATOM     59  H   UNL A   1      44.182  32.310  30.822  1.00  0.00     0.167 HD
ATOM     60  C   UNL A   1      41.610  31.444  31.996  1.00  0.00     0.074 A 
ATOM     61  C   UNL A   1      41.527  32.318  30.827  1.00  0.00     0.031 C 
ATOM     62  C   UNL A   1      42.621  30.677  32.501  1.00  0.00     0.037 A 
BRANCH  49  63
ATOM     63  C   UNL A   1      45.339  32.178  28.053  1.00  0.00     0.064 A 
ATOM     64  C   UNL A   1      44.217  32.985  27.767  1.00  0.00     0.173 A 
ATOM     65  C   UNL A   1      46.538  32.568  27.419  1.00  0.00     0.173 A 
ATOM     66  F   UNL A   1      43.020  32.711  28.309  1.00  0.00    -0.203 F 
ATOM     67  C   UNL A   1      44.270  34.028  26.837  1.00  0.00     0.198 A 
ATOM     68  C   UNL A   1      46.598  33.642  26.532  1.00  0.00     0.198 A 
ATOM     69  F   UNL A   1      47.673  31.872  27.536  1.00  0.00    -0.203 F 
ATOM     70  F   UNL A   1      43.146  34.671  26.494  1.00  0.00    -0.200 F 
ATOM     71  C   UNL A   1      45.459  34.348  26.211  1.00  0.00     0.200 A 
ATOM     72  F   UNL A   1      47.759  33.926  25.922  1.00  0.00    -0.200 F 
ATOM     73  F   UNL A   1      45.500  35.298  25.268  1.00  0.00    -0.200 F 
ENDBRANCH  49  63
BRANCH  50  74
ATOM     74  C   UNL A   1      37.114  31.454  30.597  1.00  0.00     0.064 A 
ATOM     75  C   UNL A   1      36.223  31.631  31.670  1.00  0.00     0.173 A 
ATOM     76  C   UNL A   1      36.835  32.183  29.426  1.00  0.00     0.173 A 
ATOM     77  F   UNL A   1      36.442  31.008  32.837  1.00  0.00    -0.203 F 
ATOM     78  C   UNL A   1      35.137  32.511  31.587  1.00  0.00     0.198 A 
ATOM     79  C   UNL A   1      35.751  33.061  29.344  1.00  0.00     0.198 A 
ATOM     80  F   UNL A   1      37.668  32.137  28.376  1.00  0.00    -0.203 F 
ATOM     81  F   UNL A   1      34.351  32.706  32.655  1.00  0.00    -0.200 F 
ATOM     82  C   UNL A   1      34.912  33.236  30.430  1.00  0.00     0.200 A 
ATOM     83  F   UNL A   1      35.570  33.790  28.235  1.00  0.00    -0.200 F 
ATOM     84  F   UNL A   1      33.918  34.135  30.376  1.00  0.00    -0.200 F 
ENDBRANCH  50  74
BRANCH  62  85
ATOM     85  C   UNL A   1      42.293  29.773  33.659  1.00  0.00     0.064 A 
ATOM     86  C   UNL A   1      41.833  28.449  33.536  1.00  0.00     0.173 A 
ATOM     87  C   UNL A   1      42.569  30.239  34.950  1.00  0.00     0.173 A 
ATOM     88  F   UNL A   1      41.637  27.894  32.335  1.00  0.00    -0.203 F 
ATOM     89  C   UNL A   1      41.616  27.651  34.659  1.00  0.00     0.198 A 
ATOM     90  C   UNL A   1      42.388  29.428  36.067  1.00  0.00     0.198 A 
ATOM     91  F   UNL A   1      43.059  31.475  35.127  1.00  0.00    -0.203 F 
ATOM     92  F   UNL A   1      41.160  26.398  34.516  1.00  0.00    -0.200 F 
ATOM     93  C   UNL A   1      41.899  28.140  35.922  1.00  0.00     0.200 A 
ATOM     94  F   UNL A   1      42.712  29.890  37.282  1.00  0.00    -0.200 F 
ATOM     95  F   UNL A   1      41.725  27.363  37.001  1.00  0.00    -0.200 F 
ENDBRANCH  62  85
ENDBRANCH  36  37
ENDBRANCH  28  31
ENDBRANCH  26  27
ENDBRANCH   1  26
TORSDOF 12
ENDMDL
MODEL 2
REMARK VINA RESULT:     -13.7      3.397      8.589
REMARK SMILES CC1=C(C(=O)NCCCCNC(=O)c2ccc(-c3c4nc(c(-c5c(F)c(F)c(F)c(F)c5F)c5ccc([nH]5)c(-c5c(F)c(F)c(F)c(F)c5F)c5nc(c(-c6c(F)c(F)c(F)c(F)c6F)c6ccc3[nH]6)C=C5)C=C4)cc2)[C@H](c2ccc(Cl)cc2)n2ncnc2N1
REMARK SMILES IDX 9 1 8 2 7 3 6 4 4 5 5 6 3 8 1 9 2 10 90 11 77 12 89 13 85 15
REMARK SMILES IDX 88 16 86 17 87 18 78 19 79 20 84 21 80 22 83 23 81 24 82 25
REMARK SMILES IDX 10 26 11 27 12 28 13 30 14 31 15 32 76 33 16 34 75 35 17 36
REMARK SMILES IDX 18 37 19 38 69 39 20 40 74 41 68 42 70 43 21 44 73 45 67 46
REMARK SMILES IDX 66 47 22 49 54 50 34 51 53 52 35 53 38 54 52 55 71 56 36 57
REMARK SMILES IDX 37 58 51 60 72 61 39 62 23 63 24 64 32 65 25 66 26 67 30 68
REMARK SMILES IDX 33 69 27 70 28 71 31 72 29 73 55 74 56 75 64 76 57 77 58 78
REMARK SMILES IDX 62 79 65 80 59 81 60 82 63 83 61 84 40 85 41 86 49 87 42 88
REMARK SMILES IDX 43 89 47 90 50 91 44 92 45 93 48 94 46 95
REMARK H PARENT 6 7 90 14 11 29 70 48 38 59
REMARK Flexibility Score: inf
ROOT
ATOM      1  C   UNL A   1      32.312  29.481  26.928  1.00  0.00     0.023 C 
ENDROOT
BRANCH   1   2
ATOM      2  C   UNL A   1      31.763  28.114  27.353  1.00  0.00     0.023 C 
BRANCH   2   3
ATOM      3  C   UNL A   1      31.783  27.022  26.273  1.00  0.00     0.116 C 
BRANCH   3   4
ATOM      4  N   UNL A   1      31.428  25.748  26.849  1.00  0.00    -0.352 N 
ATOM      5  C   UNL A   1      31.243  24.496  26.383  1.00  0.00     0.251 C 
ATOM      6  O   UNL A   1      30.725  23.741  27.216  1.00  0.00    -0.270 OA
ATOM      7  H   UNL A   1      31.284  25.807  27.821  1.00  0.00     0.163 HD
BRANCH   5   8
ATOM      8  C   UNL A   1      31.651  23.911  25.052  1.00  0.00     0.065 C 
ATOM      9  C   UNL A   1      30.560  25.382  23.227  1.00  0.00     0.065 C 
ATOM     10  C   UNL A   1      31.357  24.224  23.754  1.00  0.00     0.026 C 
ATOM     11  N   UNL A   1      31.688  23.331  22.726  1.00  0.00    -0.328 N 
ATOM     12  C   UNL A   1      32.470  22.594  25.309  1.00  0.00     0.179 C 
ATOM     13  C   UNL A   1      31.944  22.034  22.947  1.00  0.00     0.226 A 
ATOM     14  H   UNL A   1      31.735  23.671  21.804  1.00  0.00     0.169 HD
ATOM     15  N   UNL A   1      32.232  21.639  24.218  1.00  0.00    -0.219 N 
ATOM     16  N   UNL A   1      31.945  20.998  22.151  1.00  0.00    -0.200 NA
ATOM     17  N   UNL A   1      32.373  20.300  24.298  1.00  0.00    -0.157 NA
ATOM     18  C   UNL A   1      32.188  19.960  23.016  1.00  0.00     0.248 A 
BRANCH  12  19
ATOM     19  C   UNL A   1      33.983  22.861  25.503  1.00  0.00    -0.018 A 
ATOM     20  C   UNL A   1      34.885  21.866  25.934  1.00  0.00     0.008 A 
ATOM     21  C   UNL A   1      34.503  24.150  25.281  1.00  0.00     0.008 A 
ATOM     22  C   UNL A   1      36.240  22.146  26.137  1.00  0.00     0.021 A 
ATOM     23  C   UNL A   1      35.864  24.427  25.466  1.00  0.00     0.021 A 
ATOM     24  C   UNL A   1      36.725  23.425  25.897  1.00  0.00     0.041 A 
ATOM     25  Cl  UNL A   1      38.392  23.767  26.144  1.00  0.00    -0.084 Cl
ENDBRANCH  12  19
ENDBRANCH   5   8
ENDBRANCH   3   4
ENDBRANCH   2   3
ENDBRANCH   1   2
BRANCH   1  26
ATOM     26  C   UNL A   1      33.610  29.869  27.622  1.00  0.00     0.116 C 
BRANCH  26  27
ATOM     27  N   UNL A   1      34.083  31.202  27.244  1.00  0.00    -0.352 N 
ATOM     28  C   UNL A   1      35.223  31.840  27.686  1.00  0.00     0.251 C 
ATOM     29  H   UNL A   1      33.526  31.698  26.601  1.00  0.00     0.163 HD
ATOM     30  O   UNL A   1      35.337  33.064  27.640  1.00  0.00    -0.269 OA
BRANCH  28  31
ATOM     31  C   UNL A   1      36.324  31.010  28.185  1.00  0.00     0.039 A 
ATOM     32  C   UNL A   1      36.445  29.659  27.849  1.00  0.00     0.014 A 
ATOM     33  C   UNL A   1      37.295  31.658  28.947  1.00  0.00     0.014 A 
ATOM     34  C   UNL A   1      37.601  28.983  28.225  1.00  0.00     0.010 A 
ATOM     35  C   UNL A   1      38.492  31.038  29.177  1.00  0.00     0.010 A 
ATOM     36  C   UNL A   1      38.630  29.688  28.874  1.00  0.00    -0.014 A 
BRANCH  36  37
ATOM     37  C   UNL A   1      39.930  29.073  29.123  1.00  0.00     0.031 A 
ATOM     38  C   UNL A   1      40.239  28.879  30.566  1.00  0.00     0.074 A 
ATOM     39  C   UNL A   1      40.668  28.521  28.132  1.00  0.00     0.049 A 
ATOM     40  N   UNL A   1      41.163  29.461  31.255  1.00  0.00    -0.248 NA
ATOM     41  C   UNL A   1      39.322  28.061  31.381  1.00  0.00     0.031 C 
ATOM     42  C   UNL A   1      40.321  28.380  26.711  1.00  0.00     0.029 A 
ATOM     43  N   UNL A   1      41.864  27.875  28.204  1.00  0.00    -0.354 N 
ATOM     44  C   UNL A   1      41.085  28.925  32.539  1.00  0.00     0.074 A 
ATOM     45  C   UNL A   1      39.828  28.228  32.605  1.00  0.00     0.031 C 
ATOM     46  C   UNL A   1      41.161  27.502  26.119  1.00  0.00     0.029 A 
ATOM     47  C   UNL A   1      42.207  27.155  27.061  1.00  0.00     0.049 A 
ATOM     48  H   UNL A   1      42.440  27.912  29.000  1.00  0.00     0.167 HD
ATOM     49  C   UNL A   1      42.189  28.882  33.336  1.00  0.00     0.037 A 
ATOM     50  C   UNL A   1      43.272  26.327  26.909  1.00  0.00     0.037 A 
ATOM     51  C   UNL A   1      43.208  29.770  32.832  1.00  0.00     0.049 A 
ATOM     52  C   UNL A   1      44.244  26.672  27.974  1.00  0.00     0.074 A 
ATOM     53  C   UNL A   1      43.304  31.131  32.621  1.00  0.00     0.029 A 
ATOM     54  N   UNL A   1      44.212  29.204  32.085  1.00  0.00    -0.354 N 
ATOM     55  N   UNL A   1      44.892  27.802  28.019  1.00  0.00    -0.248 NA
ATOM     56  C   UNL A   1      44.135  25.961  29.236  1.00  0.00     0.031 C 
ATOM     57  C   UNL A   1      44.043  31.266  31.407  1.00  0.00     0.029 A 
ATOM     58  C   UNL A   1      44.431  29.993  30.988  1.00  0.00     0.049 A 
ATOM     59  H   UNL A   1      44.691  28.372  32.301  1.00  0.00     0.167 HD
ATOM     60  C   UNL A   1      44.871  28.161  29.357  1.00  0.00     0.074 A 
ATOM     61  C   UNL A   1      44.475  26.948  30.070  1.00  0.00     0.031 C 
ATOM     62  C   UNL A   1      44.887  29.478  29.720  1.00  0.00     0.037 A 
BRANCH  49  63
ATOM     63  C   UNL A   1      42.526  27.752  34.289  1.00  0.00     0.064 A 
ATOM     64  C   UNL A   1      43.077  26.565  33.761  1.00  0.00     0.173 A 
ATOM     65  C   UNL A   1      42.042  27.655  35.611  1.00  0.00     0.173 A 
ATOM     66  F   UNL A   1      43.567  26.534  32.512  1.00  0.00    -0.203 F 
ATOM     67  C   UNL A   1      43.043  25.355  34.461  1.00  0.00     0.198 A 
ATOM     68  C   UNL A   1      42.057  26.458  36.325  1.00  0.00     0.198 A 
ATOM     69  F   UNL A   1      41.434  28.671  36.231  1.00  0.00    -0.203 F 
ATOM     70  F   UNL A   1      43.447  24.228  33.861  1.00  0.00    -0.200 F 
ATOM     71  C   UNL A   1      42.521  25.300  35.739  1.00  0.00     0.200 A 
ATOM     72  F   UNL A   1      41.531  26.423  37.559  1.00  0.00    -0.200 F 
ATOM     73  F   UNL A   1      42.421  24.133  36.386  1.00  0.00    -0.200 F 
ENDBRANCH  49  63
BRANCH  50  74
ATOM     74  C   UNL A   1      43.394  25.077  26.120  1.00  0.00     0.064 A 
ATOM     75  C   UNL A   1      44.481  24.869  25.252  1.00  0.00     0.173 A 
ATOM     76  C   UNL A   1      42.622  23.944  26.437  1.00  0.00     0.173 A 
ATOM     77  F   UNL A   1      45.295  25.888  24.936  1.00  0.00    -0.203 F 
ATOM     78  C   UNL A   1      44.797  23.598  24.760  1.00  0.00     0.198 A 
ATOM     79  C   UNL A   1      42.938  22.675  25.945  1.00  0.00     0.198 A 
ATOM     80  F   UNL A   1      41.611  24.029  27.313  1.00  0.00    -0.203 F 
ATOM     81  F   UNL A   1      45.883  23.428  23.993  1.00  0.00    -0.200 F 
ATOM     82  C   UNL A   1      44.034  22.500  25.119  1.00  0.00     0.200 A 
ATOM     83  F   UNL A   1      42.219  21.614  26.335  1.00  0.00    -0.200 F 
ATOM     84  F   UNL A   1      44.380  21.271  24.709  1.00  0.00    -0.200 F 
ENDBRANCH  50  74
BRANCH  62  85
ATOM     85  C   UNL A   1      45.221  30.486  28.654  1.00  0.00     0.064 A 
ATOM     86  C   UNL A   1      44.285  31.064  27.776  1.00  0.00     0.173 A 
ATOM     87  C   UNL A   1      46.534  30.971  28.601  1.00  0.00     0.173 A 
ATOM     88  F   UNL A   1      42.991  30.728  27.827  1.00  0.00    -0.203 F 
ATOM     89  C   UNL A   1      44.662  32.045  26.859  1.00  0.00     0.198 A 
ATOM     90  C   UNL A   1      46.899  31.977  27.711  1.00  0.00     0.198 A 
ATOM     91  F   UNL A   1      47.459  30.496  29.449  1.00  0.00    -0.203 F 
ATOM     92  F   UNL A   1      43.754  32.567  26.021  1.00  0.00    -0.200 F 
ATOM     93  C   UNL A   1      45.967  32.504  26.832  1.00  0.00     0.200 A 
ATOM     94  F   UNL A   1      48.152  32.452  27.724  1.00  0.00    -0.200 F 
ATOM     95  F   UNL A   1      46.324  33.471  25.975  1.00  0.00    -0.200 F 
ENDBRANCH  62  85
ENDBRANCH  36  37
ENDBRANCH  28  31
ENDBRANCH  26  27
ENDBRANCH   1  26
TORSDOF 12
ENDMDL
MODEL 3
REMARK VINA RESULT:     -13.6      2.550      3.729
REMARK SMILES CC1=C(C(=O)NCCCCNC(=O)c2ccc(-c3c4nc(c(-c5c(F)c(F)c(F)c(F)c5F)c5ccc([nH]5)c(-c5c(F)c(F)c(F)c(F)c5F)c5nc(c(-c6c(F)c(F)c(F)c(F)c6F)c6ccc3[nH]6)C=C5)C=C4)cc2)[C@H](c2ccc(Cl)cc2)n2ncnc2N1
REMARK SMILES IDX 9 1 8 2 7 3 6 4 4 5 5 6 3 8 1 9 2 10 90 11 77 12 89 13 85 15
REMARK SMILES IDX 88 16 86 17 87 18 78 19 79 20 84 21 80 22 83 23 81 24 82 25
REMARK SMILES IDX 10 26 11 27 12 28 13 30 14 31 15 32 76 33 16 34 75 35 17 36
REMARK SMILES IDX 18 37 19 38 69 39 20 40 74 41 68 42 70 43 21 44 73 45 67 46
REMARK SMILES IDX 66 47 22 49 54 50 34 51 53 52 35 53 38 54 52 55 71 56 36 57
REMARK SMILES IDX 37 58 51 60 72 61 39 62 23 63 24 64 32 65 25 66 26 67 30 68
REMARK SMILES IDX 33 69 27 70 28 71 31 72 29 73 55 74 56 75 64 76 57 77 58 78
REMARK SMILES IDX 62 79 65 80 59 81 60 82 63 83 61 84 40 85 41 86 49 87 42 88
REMARK SMILES IDX 43 89 47 90 50 91 44 92 45 93 48 94 46 95
REMARK H PARENT 6 7 90 14 11 29 70 48 38 59
REMARK Flexibility Score: inf
ROOT
ATOM      1  C   UNL A   1      36.784  23.292  24.852  1.00  0.00     0.023 C 
ENDROOT
BRANCH   1   2
ATOM      2  C   UNL A   1      35.454  24.054  24.814  1.00  0.00     0.023 C 
BRANCH   2   3
ATOM      3  C   UNL A   1      34.420  23.541  23.800  1.00  0.00     0.116 C 
BRANCH   3   4
ATOM      4  N   UNL A   1      34.229  24.513  22.751  1.00  0.00    -0.352 N 
ATOM      5  C   UNL A   1      33.214  25.297  22.336  1.00  0.00     0.251 C 
ATOM      6  O   UNL A   1      33.432  25.830  21.240  1.00  0.00    -0.270 OA
ATOM      7  H   UNL A   1      35.039  24.634  22.204  1.00  0.00     0.163 HD
BRANCH   5   8
ATOM      8  C   UNL A   1      31.934  25.652  23.055  1.00  0.00     0.065 C 
ATOM      9  C   UNL A   1      30.749  23.421  23.605  1.00  0.00     0.065 C 
ATOM     10  C   UNL A   1      30.893  24.914  23.547  1.00  0.00     0.026 C 
ATOM     11  N   UNL A   1      29.711  25.551  23.945  1.00  0.00    -0.328 N 
ATOM     12  C   UNL A   1      31.785  27.216  23.079  1.00  0.00     0.179 C 
ATOM     13  C   UNL A   1      29.384  26.788  23.545  1.00  0.00     0.226 A 
ATOM     14  H   UNL A   1      29.096  25.070  24.544  1.00  0.00     0.169 HD
ATOM     15  N   UNL A   1      30.363  27.581  23.029  1.00  0.00    -0.219 N 
ATOM     16  N   UNL A   1      28.241  27.421  23.517  1.00  0.00    -0.200 NA
ATOM     17  N   UNL A   1      29.865  28.754  22.587  1.00  0.00    -0.157 NA
ATOM     18  C   UNL A   1      28.573  28.604  22.907  1.00  0.00     0.248 A 
BRANCH  12  19
ATOM     19  C   UNL A   1      32.491  27.864  24.295  1.00  0.00    -0.018 A 
ATOM     20  C   UNL A   1      32.436  29.248  24.563  1.00  0.00     0.008 A 
ATOM     21  C   UNL A   1      33.254  27.068  25.171  1.00  0.00     0.008 A 
ATOM     22  C   UNL A   1      33.115  29.810  25.648  1.00  0.00     0.021 A 
ATOM     23  C   UNL A   1      33.918  27.628  26.270  1.00  0.00     0.021 A 
ATOM     24  C   UNL A   1      33.849  28.997  26.501  1.00  0.00     0.041 A 
ATOM     25  Cl  UNL A   1      34.681  29.689  27.837  1.00  0.00    -0.084 Cl
ENDBRANCH  12  19
ENDBRANCH   5   8
ENDBRANCH   3   4
ENDBRANCH   2   3
ENDBRANCH   1   2
BRANCH   1  26
ATOM     26  C   UNL A   1      37.636  23.596  26.076  1.00  0.00     0.116 C 
BRANCH  26  27
ATOM     27  N   UNL A   1      38.735  22.645  26.257  1.00  0.00    -0.352 N 
ATOM     28  C   UNL A   1      40.081  22.931  26.349  1.00  0.00     0.251 C 
ATOM     29  H   UNL A   1      38.486  21.695  26.320  1.00  0.00     0.163 HD
ATOM     30  O   UNL A   1      40.940  22.087  26.101  1.00  0.00    -0.269 OA
BRANCH  28  31
ATOM     31  C   UNL A   1      40.467  24.277  26.790  1.00  0.00     0.039 A 
ATOM     32  C   UNL A   1      40.414  25.380  25.934  1.00  0.00     0.014 A 
ATOM     33  C   UNL A   1      40.811  24.414  28.134  1.00  0.00     0.014 A 
ATOM     34  C   UNL A   1      40.637  26.645  26.470  1.00  0.00     0.010 A 
ATOM     35  C   UNL A   1      40.873  25.665  28.685  1.00  0.00     0.010 A 
ATOM     36  C   UNL A   1      40.847  26.779  27.853  1.00  0.00    -0.014 A 
BRANCH  36  37
ATOM     37  C   UNL A   1      40.901  28.092  28.488  1.00  0.00     0.031 A 
ATOM     38  C   UNL A   1      42.019  28.949  28.006  1.00  0.00     0.074 A 
ATOM     39  C   UNL A   1      39.893  28.562  29.258  1.00  0.00     0.049 A 
ATOM     40  N   UNL A   1      43.042  29.354  28.680  1.00  0.00    -0.248 NA
ATOM     41  C   UNL A   1      42.093  29.270  26.569  1.00  0.00     0.031 C 
ATOM     42  C   UNL A   1      38.601  27.927  29.553  1.00  0.00     0.029 A 
ATOM     43  N   UNL A   1      39.769  29.769  29.876  1.00  0.00    -0.354 N 
ATOM     44  C   UNL A   1      43.782  30.158  27.816  1.00  0.00     0.074 A 
ATOM     45  C   UNL A   1      43.263  29.912  26.497  1.00  0.00     0.031 C 
ATOM     46  C   UNL A   1      37.752  28.835  30.083  1.00  0.00     0.029 A 
ATOM     47  C   UNL A   1      38.485  30.062  30.331  1.00  0.00     0.049 A 
ATOM     48  H   UNL A   1      40.526  30.387  29.991  1.00  0.00     0.167 HD
ATOM     49  C   UNL A   1      44.573  31.152  28.307  1.00  0.00     0.037 A 
ATOM     50  C   UNL A   1      38.057  31.234  30.865  1.00  0.00     0.037 A 
ATOM     51  C   UNL A   1      44.806  30.960  29.718  1.00  0.00     0.049 A 
ATOM     52  C   UNL A   1      39.264  31.974  31.306  1.00  0.00     0.074 A 
ATOM     53  C   UNL A   1      45.405  29.982  30.486  1.00  0.00     0.029 A 
ATOM     54  N   UNL A   1      44.029  31.691  30.582  1.00  0.00    -0.354 N 
ATOM     55  N   UNL A   1      40.026  31.588  32.291  1.00  0.00    -0.248 NA
ATOM     56  C   UNL A   1      39.884  32.876  30.350  1.00  0.00     0.031 C 
ATOM     57  C   UNL A   1      44.598  29.886  31.659  1.00  0.00     0.029 A 
ATOM     58  C   UNL A   1      43.604  30.863  31.585  1.00  0.00     0.049 A 
ATOM     59  H   UNL A   1      43.814  32.648  30.494  1.00  0.00     0.167 HD
ATOM     60  C   UNL A   1      41.316  31.817  31.843  1.00  0.00     0.074 A 
ATOM     61  C   UNL A   1      41.165  32.695  30.683  1.00  0.00     0.031 C 
ATOM     62  C   UNL A   1      42.348  31.034  32.275  1.00  0.00     0.037 A 
BRANCH  49  63
ATOM     63  C   UNL A   1      44.774  32.505  27.651  1.00  0.00     0.064 A 
ATOM     64  C   UNL A   1      45.966  32.737  26.932  1.00  0.00     0.173 A 
ATOM     65  C   UNL A   1      44.024  33.660  27.964  1.00  0.00     0.173 A 
ATOM     66  F   UNL A   1      46.763  31.717  26.581  1.00  0.00    -0.203 F 
ATOM     67  C   UNL A   1      46.422  34.028  26.649  1.00  0.00     0.198 A 
ATOM     68  C   UNL A   1      44.459  34.943  27.633  1.00  0.00     0.198 A 
ATOM     69  F   UNL A   1      42.906  33.616  28.694  1.00  0.00    -0.203 F 
ATOM     70  F   UNL A   1      47.629  34.199  26.093  1.00  0.00    -0.200 F 
ATOM     71  C   UNL A   1      45.673  35.131  27.011  1.00  0.00     0.200 A 
ATOM     72  F   UNL A   1      43.724  36.001  28.009  1.00  0.00    -0.200 F 
ATOM     73  F   UNL A   1      46.139  36.369  26.807  1.00  0.00    -0.200 F 
ENDBRANCH  49  63
BRANCH  50  74
ATOM     74  C   UNL A   1      36.735  31.897  30.758  1.00  0.00     0.064 A 
ATOM     75  C   UNL A   1      35.904  32.047  31.882  1.00  0.00     0.173 A 
ATOM     76  C   UNL A   1      36.402  32.668  29.628  1.00  0.00     0.173 A 
ATOM     77  F   UNL A   1      36.178  31.384  33.016  1.00  0.00    -0.203 F 
ATOM     78  C   UNL A   1      34.827  32.941  31.888  1.00  0.00     0.198 A 
ATOM     79  C   UNL A   1      35.327  33.559  29.634  1.00  0.00     0.198 A 
ATOM     80  F   UNL A   1      37.178  32.648  28.534  1.00  0.00    -0.203 F 
ATOM     81  F   UNL A   1      34.102  33.108  33.002  1.00  0.00    -0.200 F 
ATOM     82  C   UNL A   1      34.549  33.707  30.768  1.00  0.00     0.200 A 
ATOM     83  F   UNL A   1      35.095  34.327  28.560  1.00  0.00    -0.200 F 
ATOM     84  F   UNL A   1      33.564  34.617  30.797  1.00  0.00    -0.200 F 
ENDBRANCH  50  74
BRANCH  62  85
ATOM     85  C   UNL A   1      42.087  30.133  33.452  1.00  0.00     0.064 A 
ATOM     86  C   UNL A   1      41.678  28.790  33.357  1.00  0.00     0.173 A 
ATOM     87  C   UNL A   1      42.380  30.625  34.730  1.00  0.00     0.173 A 
ATOM     88  F   UNL A   1      41.471  28.213  32.168  1.00  0.00    -0.203 F 
ATOM     89  C   UNL A   1      41.523  27.998  34.494  1.00  0.00     0.198 A 
ATOM     90  C   UNL A   1      42.261  29.822  35.860  1.00  0.00     0.198 A 
ATOM     91  F   UNL A   1      42.825  31.882  34.878  1.00  0.00    -0.203 F 
ATOM     92  F   UNL A   1      41.113  26.726  34.378  1.00  0.00    -0.200 F 
ATOM     93  C   UNL A   1      41.820  28.514  35.744  1.00  0.00     0.200 A 
ATOM     94  F   UNL A   1      42.599  30.311  37.061  1.00  0.00    -0.200 F 
ATOM     95  F   UNL A   1      41.706  27.744  36.836  1.00  0.00    -0.200 F 
ENDBRANCH  62  85
ENDBRANCH  36  37
ENDBRANCH  28  31
ENDBRANCH  26  27
ENDBRANCH   1  26
TORSDOF 12
ENDMDL
