MODEL 1
REMARK VINA RESULT:     -11.8      0.000      0.000
REMARK SMILES CC(C)[NH2+][C@]1(C(=O)NCCCCNC(=O)c2ccc(-c3c4nc(c(-c5c(F)c(F)c(F)c(F)c5F)c5ccc([nH]5)c(-c5c(F)c(F)c(F)c(F)c5F)c5nc(c(-c6c(F)c(F)c(F)c(F)c6F)c6ccc3[nH]6)C=C5)C=C4)cc2)CC[C@@H]([N@@H+](C)[C@@H](C)C(C)C)C1
REMARK SMILES IDX 10 1 9 2 8 3 6 4 7 5 5 7 79 8 89 9 80 10 81 11 4 12 2 15
REMARK SMILES IDX 1 16 3 17 82 18 83 19 84 21 85 22 86 23 87 24 88 25 11 26
REMARK SMILES IDX 12 27 13 28 14 29 15 31 16 32 17 33 78 34 18 35 77 36 19 37
REMARK SMILES IDX 20 38 21 39 71 40 22 41 76 42 70 43 72 44 23 45 75 46 69 47
REMARK SMILES IDX 68 48 24 50 56 51 36 52 55 53 37 54 40 55 54 56 73 57 38 58
REMARK SMILES IDX 39 59 53 61 74 62 41 63 25 64 26 65 34 66 27 67 28 68 32 69
REMARK SMILES IDX 35 70 29 71 30 72 33 73 31 74 57 75 58 76 66 77 59 78 60 79
REMARK SMILES IDX 64 80 67 81 61 82 62 83 65 84 63 85 42 86 43 87 51 88 44 89
REMARK SMILES IDX 45 90 49 91 52 92 46 93 47 94 50 95 48 96
REMARK H PARENT 8 6 4 13 4 14 82 20 13 30 72 49 40 60
REMARK Flexibility Score: inf
ROOT
ATOM      1  C   UNL A   1      32.188  30.468  26.868  1.00  0.00     0.023 C 
ENDROOT
BRANCH   1   2
ATOM      2  C   UNL A   1      31.647  29.687  25.668  1.00  0.00     0.116 C 
BRANCH   2   3
ATOM      3  N   UNL A   1      32.600  29.692  24.574  1.00  0.00    -0.351 N 
ATOM      4  C   UNL A   1      32.648  28.902  23.455  1.00  0.00     0.281 C 
ATOM      5  O   UNL A   1      33.687  28.958  22.792  1.00  0.00    -0.268 OA
ATOM      6  H   UNL A   1      33.318  30.363  24.646  1.00  0.00     0.163 HD
BRANCH   4   7
ATOM      7  C   UNL A   1      31.427  28.019  23.032  1.00  0.00     0.181 C 
ATOM      8  C   UNL A   1      31.986  26.887  22.137  1.00  0.00     0.085 C 
ATOM      9  C   UNL A   1      30.803  27.231  24.212  1.00  0.00     0.144 C 
ATOM     10  C   UNL A   1      31.067  25.696  22.316  1.00  0.00     0.072 C 
ATOM     11  C   UNL A   1      30.588  25.769  23.765  1.00  0.00     0.191 C 
BRANCH   7  12
ATOM     12  N   UNL A   1      30.373  28.783  22.310  1.00  0.00    -0.331 N 
ATOM     13  H   UNL A   1      30.816  29.602  21.896  1.00  0.00     0.347 HD
ATOM     14  H   UNL A   1      29.979  28.123  21.639  1.00  0.00     0.347 HD
BRANCH  12  15
ATOM     15  C   UNL A   1      29.227  29.251  23.105  1.00  0.00     0.176 C 
ATOM     16  C   UNL A   1      29.171  30.775  22.961  1.00  0.00     0.075 C 
ATOM     17  C   UNL A   1      27.874  28.643  22.755  1.00  0.00     0.075 C 
ENDBRANCH  12  15
ENDBRANCH   7  12
BRANCH  11  18
ATOM     18  N   UNL A   1      30.966  24.698  24.706  1.00  0.00    -0.332 N 
ATOM     19  C   UNL A   1      31.150  23.426  23.990  1.00  0.00     0.333 C 
ATOM     20  H   UNL A   1      30.147  24.721  25.312  1.00  0.00     0.348 HD
BRANCH  18  21
ATOM     21  C   UNL A   1      32.007  24.881  25.754  1.00  0.00     0.183 C 
ATOM     22  C   UNL A   1      31.985  23.833  26.879  1.00  0.00     0.075 C 
BRANCH  21  23
ATOM     23  C   UNL A   1      33.448  25.134  25.214  1.00  0.00     0.041 C 
ATOM     24  C   UNL A   1      34.014  26.470  25.726  1.00  0.00     0.013 C 
ATOM     25  C   UNL A   1      34.446  24.028  25.587  1.00  0.00     0.013 C 
ENDBRANCH  21  23
ENDBRANCH  18  21
ENDBRANCH  11  18
ENDBRANCH   4   7
ENDBRANCH   2   3
ENDBRANCH   1   2
BRANCH   1  26
ATOM     26  C   UNL A   1      31.803  31.942  26.897  1.00  0.00     0.023 C 
BRANCH  26  27
ATOM     27  C   UNL A   1      32.935  32.881  27.273  1.00  0.00     0.116 C 
BRANCH  27  28
ATOM     28  N   UNL A   1      32.504  34.226  27.627  1.00  0.00    -0.352 N 
ATOM     29  C   UNL A   1      33.026  35.041  28.605  1.00  0.00     0.251 C 
ATOM     30  H   UNL A   1      31.751  34.593  27.108  1.00  0.00     0.163 HD
ATOM     31  O   UNL A   1      32.542  36.133  28.858  1.00  0.00    -0.269 OA
BRANCH  29  32
ATOM     32  C   UNL A   1      34.170  34.526  29.378  1.00  0.00     0.039 A 
ATOM     33  C   UNL A   1      33.923  33.828  30.561  1.00  0.00     0.014 A 
ATOM     34  C   UNL A   1      35.458  34.612  28.844  1.00  0.00     0.014 A 
ATOM     35  C   UNL A   1      34.970  33.145  31.176  1.00  0.00     0.010 A 
ATOM     36  C   UNL A   1      36.476  33.858  29.408  1.00  0.00     0.010 A 
ATOM     37  C   UNL A   1      36.242  33.121  30.580  1.00  0.00    -0.014 A 
BRANCH  37  38
ATOM     38  C   UNL A   1      37.356  32.344  31.171  1.00  0.00     0.031 A 
ATOM     39  C   UNL A   1      37.833  32.679  32.555  1.00  0.00     0.074 A 
ATOM     40  C   UNL A   1      37.988  31.409  30.435  1.00  0.00     0.049 A 
ATOM     41  N   UNL A   1      38.849  32.194  33.221  1.00  0.00    -0.248 NA
ATOM     42  C   UNL A   1      37.094  33.733  33.268  1.00  0.00     0.031 C 
ATOM     43  C   UNL A   1      37.660  31.052  29.054  1.00  0.00     0.029 A 
ATOM     44  N   UNL A   1      39.049  30.597  30.747  1.00  0.00    -0.354 N 
ATOM     45  C   UNL A   1      38.888  32.907  34.411  1.00  0.00     0.074 A 
ATOM     46  C   UNL A   1      37.833  33.894  34.354  1.00  0.00     0.031 C 
ATOM     47  C   UNL A   1      38.488  30.076  28.645  1.00  0.00     0.029 A 
ATOM     48  C   UNL A   1      39.418  29.758  29.723  1.00  0.00     0.049 A 
ATOM     49  H   UNL A   1      39.502  30.615  31.619  1.00  0.00     0.167 HD
ATOM     50  C   UNL A   1      39.713  32.733  35.471  1.00  0.00     0.037 A 
ATOM     51  C   UNL A   1      40.398  28.837  29.670  1.00  0.00     0.037 A 
ATOM     52  C   UNL A   1      40.720  31.710  35.543  1.00  0.00     0.049 A 
ATOM     53  C   UNL A   1      41.261  28.619  30.883  1.00  0.00     0.074 A 
ATOM     54  C   UNL A   1      41.549  31.387  36.600  1.00  0.00     0.029 A 
ATOM     55  N   UNL A   1      41.025  30.836  34.509  1.00  0.00    -0.354 N 
ATOM     56  N   UNL A   1      41.240  29.245  32.035  1.00  0.00    -0.248 NA
ATOM     57  C   UNL A   1      42.277  27.561  30.792  1.00  0.00     0.031 C 
ATOM     58  C   UNL A   1      42.379  30.334  36.197  1.00  0.00     0.029 A 
ATOM     59  C   UNL A   1      42.040  29.979  34.900  1.00  0.00     0.049 A 
ATOM     60  H   UNL A   1      40.586  30.826  33.628  1.00  0.00     0.167 HD
ATOM     61  C   UNL A   1      42.219  28.643  32.814  1.00  0.00     0.074 A 
ATOM     62  C   UNL A   1      42.808  27.594  32.007  1.00  0.00     0.031 C 
ATOM     63  C   UNL A   1      42.600  28.935  34.081  1.00  0.00     0.037 A 
BRANCH  50  64
ATOM     64  C   UNL A   1      39.543  33.661  36.636  1.00  0.00     0.064 A 
ATOM     65  C   UNL A   1      40.177  34.911  36.679  1.00  0.00     0.173 A 
ATOM     66  C   UNL A   1      38.732  33.299  37.721  1.00  0.00     0.173 A 
ATOM     67  F   UNL A   1      40.978  35.297  35.674  1.00  0.00    -0.203 F 
ATOM     68  C   UNL A   1      40.034  35.750  37.780  1.00  0.00     0.198 A 
ATOM     69  C   UNL A   1      38.566  34.153  38.807  1.00  0.00     0.198 A 
ATOM     70  F   UNL A   1      38.101  32.114  37.729  1.00  0.00    -0.203 F 
ATOM     71  F   UNL A   1      40.697  36.914  37.824  1.00  0.00    -0.200 F 
ATOM     72  C   UNL A   1      39.224  35.373  38.840  1.00  0.00     0.200 A 
ATOM     73  F   UNL A   1      37.777  33.792  39.828  1.00  0.00    -0.200 F 
ATOM     74  F   UNL A   1      39.087  36.182  39.901  1.00  0.00    -0.200 F 
ENDBRANCH  50  64
BRANCH  51  75
ATOM     75  C   UNL A   1      40.581  28.020  28.443  1.00  0.00     0.064 A 
ATOM     76  C   UNL A   1      39.964  26.767  28.318  1.00  0.00     0.173 A 
ATOM     77  C   UNL A   1      41.365  28.472  27.373  1.00  0.00     0.173 A 
ATOM     78  F   UNL A   1      39.220  26.284  29.324  1.00  0.00    -0.203 F 
ATOM     79  C   UNL A   1      40.140  25.990  27.175  1.00  0.00     0.198 A 
ATOM     80  C   UNL A   1      41.520  27.704  26.221  1.00  0.00     0.198 A 
ATOM     81  F   UNL A   1      41.970  29.667  27.441  1.00  0.00    -0.203 F 
ATOM     82  F   UNL A   1      39.570  24.779  27.098  1.00  0.00    -0.200 F 
ATOM     83  C   UNL A   1      40.914  26.460  26.125  1.00  0.00     0.200 A 
ATOM     84  F   UNL A   1      42.259  28.168  25.202  1.00  0.00    -0.200 F 
ATOM     85  F   UNL A   1      41.078  25.714  25.025  1.00  0.00    -0.200 F 
ENDBRANCH  51  75
BRANCH  63  86
ATOM     86  C   UNL A   1      43.682  28.091  34.683  1.00  0.00     0.064 A 
ATOM     87  C   UNL A   1      43.391  26.888  35.342  1.00  0.00     0.173 A 
ATOM     88  C   UNL A   1      45.027  28.465  34.551  1.00  0.00     0.173 A 
ATOM     89  F   UNL A   1      42.119  26.498  35.504  1.00  0.00    -0.203 F 
ATOM     90  C   UNL A   1      44.410  26.099  35.866  1.00  0.00     0.198 A 
ATOM     91  C   UNL A   1      46.045  27.660  35.054  1.00  0.00     0.198 A 
ATOM     92  F   UNL A   1      45.354  29.605  33.923  1.00  0.00    -0.203 F 
ATOM     93  F   UNL A   1      44.110  24.972  36.525  1.00  0.00    -0.200 F 
ATOM     94  C   UNL A   1      45.736  26.481  35.716  1.00  0.00     0.200 A 
ATOM     95  F   UNL A   1      47.325  28.026  34.899  1.00  0.00    -0.200 F 
ATOM     96  F   UNL A   1      46.716  25.715  36.213  1.00  0.00    -0.200 F 
ENDBRANCH  63  86
ENDBRANCH  37  38
ENDBRANCH  29  32
ENDBRANCH  27  28
ENDBRANCH  26  27
ENDBRANCH   1  26
TORSDOF 16
ENDMDL
MODEL 2
REMARK VINA RESULT:     -11.6      1.417      7.758
REMARK SMILES CC(C)[NH2+][C@]1(C(=O)NCCCCNC(=O)c2ccc(-c3c4nc(c(-c5c(F)c(F)c(F)c(F)c5F)c5ccc([nH]5)c(-c5c(F)c(F)c(F)c(F)c5F)c5nc(c(-c6c(F)c(F)c(F)c(F)c6F)c6ccc3[nH]6)C=C5)C=C4)cc2)CC[C@@H]([N@@H+](C)[C@@H](C)C(C)C)C1
REMARK SMILES IDX 10 1 9 2 8 3 6 4 7 5 5 7 79 8 89 9 80 10 81 11 4 12 2 15
REMARK SMILES IDX 1 16 3 17 82 18 83 19 84 21 85 22 86 23 87 24 88 25 11 26
REMARK SMILES IDX 12 27 13 28 14 29 15 31 16 32 17 33 78 34 18 35 77 36 19 37
REMARK SMILES IDX 20 38 21 39 71 40 22 41 76 42 70 43 72 44 23 45 75 46 69 47
REMARK SMILES IDX 68 48 24 50 56 51 36 52 55 53 37 54 40 55 54 56 73 57 38 58
REMARK SMILES IDX 39 59 53 61 74 62 41 63 25 64 26 65 34 66 27 67 28 68 32 69
REMARK SMILES IDX 35 70 29 71 30 72 33 73 31 74 57 75 58 76 66 77 59 78 60 79
REMARK SMILES IDX 64 80 67 81 61 82 62 83 65 84 63 85 42 86 43 87 51 88 44 89
REMARK SMILES IDX 45 90 49 91 52 92 46 93 47 94 50 95 48 96
REMARK H PARENT 8 6 4 13 4 14 82 20 13 30 72 49 40 60
REMARK Flexibility Score: inf
ROOT
ATOM      1  C   UNL A   1      32.430  30.029  27.156  1.00  0.00     0.023 C 
ENDROOT
BRANCH   1   2
ATOM      2  C   UNL A   1      31.999  29.047  26.063  1.00  0.00     0.116 C 
BRANCH   2   3
ATOM      3  N   UNL A   1      31.350  27.884  26.639  1.00  0.00    -0.351 N 
ATOM      4  C   UNL A   1      31.307  26.593  26.181  1.00  0.00     0.281 C 
ATOM      5  O   UNL A   1      30.501  25.843  26.738  1.00  0.00    -0.268 OA
ATOM      6  H   UNL A   1      30.869  28.047  27.483  1.00  0.00     0.163 HD
BRANCH   4   7
ATOM      7  C   UNL A   1      32.266  26.103  25.046  1.00  0.00     0.181 C 
ATOM      8  C   UNL A   1      33.692  26.078  25.647  1.00  0.00     0.085 C 
ATOM      9  C   UNL A   1      32.045  24.618  24.655  1.00  0.00     0.144 C 
ATOM     10  C   UNL A   1      34.456  24.996  24.912  1.00  0.00     0.072 C 
ATOM     11  C   UNL A   1      33.421  23.922  24.583  1.00  0.00     0.191 C 
BRANCH   7  12
ATOM     12  N   UNL A   1      32.227  26.964  23.831  1.00  0.00    -0.331 N 
ATOM     13  H   UNL A   1      32.006  27.912  24.134  1.00  0.00     0.347 HD
ATOM     14  H   UNL A   1      33.144  26.855  23.399  1.00  0.00     0.347 HD
BRANCH  12  15
ATOM     15  C   UNL A   1      31.262  26.595  22.784  1.00  0.00     0.176 C 
ATOM     16  C   UNL A   1      30.342  27.802  22.574  1.00  0.00     0.075 C 
ATOM     17  C   UNL A   1      31.855  26.152  21.452  1.00  0.00     0.075 C 
ENDBRANCH  12  15
ENDBRANCH   7  12
BRANCH  11  18
ATOM     18  N   UNL A   1      33.549  22.585  25.193  1.00  0.00    -0.332 N 
ATOM     19  C   UNL A   1      32.488  22.369  26.188  1.00  0.00     0.333 C 
ATOM     20  H   UNL A   1      34.482  22.680  25.592  1.00  0.00     0.348 HD
BRANCH  18  21
ATOM     21  C   UNL A   1      33.791  21.356  24.388  1.00  0.00     0.183 C 
ATOM     22  C   UNL A   1      34.844  20.397  24.969  1.00  0.00     0.075 C 
BRANCH  21  23
ATOM     23  C   UNL A   1      32.503  20.606  23.928  1.00  0.00     0.041 C 
ATOM     24  C   UNL A   1      32.043  21.078  22.538  1.00  0.00     0.013 C 
ATOM     25  C   UNL A   1      32.668  19.080  23.874  1.00  0.00     0.013 C 
ENDBRANCH  21  23
ENDBRANCH  18  21
ENDBRANCH  11  18
ENDBRANCH   4   7
ENDBRANCH   2   3
ENDBRANCH   1   2
BRANCH   1  26
ATOM     26  C   UNL A   1      32.110  31.490  26.863  1.00  0.00     0.023 C 
BRANCH  26  27
ATOM     27  C   UNL A   1      33.121  32.478  27.416  1.00  0.00     0.116 C 
BRANCH  27  28
ATOM     28  N   UNL A   1      32.592  33.819  27.626  1.00  0.00    -0.352 N 
ATOM     29  C   UNL A   1      33.034  34.760  28.529  1.00  0.00     0.251 C 
ATOM     30  H   UNL A   1      31.831  34.082  27.059  1.00  0.00     0.163 HD
ATOM     31  O   UNL A   1      32.472  35.835  28.663  1.00  0.00    -0.269 OA
BRANCH  29  32
ATOM     32  C   UNL A   1      34.188  34.401  29.372  1.00  0.00     0.039 A 
ATOM     33  C   UNL A   1      33.957  33.784  30.602  1.00  0.00     0.014 A 
ATOM     34  C   UNL A   1      35.482  34.546  28.868  1.00  0.00     0.014 A 
ATOM     35  C   UNL A   1      35.032  33.238  31.300  1.00  0.00     0.010 A 
ATOM     36  C   UNL A   1      36.537  33.923  29.519  1.00  0.00     0.010 A 
ATOM     37  C   UNL A   1      36.321  33.267  30.741  1.00  0.00    -0.014 A 
BRANCH  37  38
ATOM     38  C   UNL A   1      37.471  32.631  31.424  1.00  0.00     0.031 A 
ATOM     39  C   UNL A   1      38.187  31.494  30.756  1.00  0.00     0.074 A 
ATOM     40  C   UNL A   1      37.808  33.016  32.671  1.00  0.00     0.049 A 
ATOM     41  N   UNL A   1      39.150  30.736  31.215  1.00  0.00    -0.248 NA
ATOM     42  C   UNL A   1      37.729  31.130  29.406  1.00  0.00     0.031 C 
ATOM     43  C   UNL A   1      37.136  34.058  33.448  1.00  0.00     0.029 A 
ATOM     44  N   UNL A   1      38.796  32.562  33.507  1.00  0.00    -0.354 N 
ATOM     45  C   UNL A   1      39.385  29.792  30.225  1.00  0.00     0.074 A 
ATOM     46  C   UNL A   1      38.429  30.033  29.168  1.00  0.00     0.031 C 
ATOM     47  C   UNL A   1      37.746  34.180  34.639  1.00  0.00     0.029 A 
ATOM     48  C   UNL A   1      38.833  33.209  34.718  1.00  0.00     0.049 A 
ATOM     49  H   UNL A   1      39.419  31.840  33.263  1.00  0.00     0.167 HD
ATOM     50  C   UNL A   1      40.334  28.826  30.191  1.00  0.00     0.037 A 
ATOM     51  C   UNL A   1      39.655  33.035  35.769  1.00  0.00     0.037 A 
ATOM     52  C   UNL A   1      41.317  28.632  31.220  1.00  0.00     0.049 A 
ATOM     53  C   UNL A   1      40.742  31.998  35.681  1.00  0.00     0.074 A 
ATOM     54  C   UNL A   1      42.377  27.745  31.246  1.00  0.00     0.029 A 
ATOM     55  N   UNL A   1      41.362  29.348  32.407  1.00  0.00    -0.354 N 
ATOM     56  N   UNL A   1      41.007  31.161  34.707  1.00  0.00    -0.248 NA
ATOM     57  C   UNL A   1      41.649  31.888  36.832  1.00  0.00     0.031 C 
ATOM     58  C   UNL A   1      43.049  27.904  32.463  1.00  0.00     0.029 A 
ATOM     59  C   UNL A   1      42.427  28.916  33.179  1.00  0.00     0.049 A 
ATOM     60  H   UNL A   1      40.731  30.059  32.664  1.00  0.00     0.167 HD
ATOM     61  C   UNL A   1      42.123  30.442  35.115  1.00  0.00     0.074 A 
ATOM     62  C   UNL A   1      42.493  30.952  36.419  1.00  0.00     0.031 C 
ATOM     63  C   UNL A   1      42.780  29.449  34.470  1.00  0.00     0.037 A 
BRANCH  50  64
ATOM     64  C   UNL A   1      40.356  27.925  28.992  1.00  0.00     0.064 A 
ATOM     65  C   UNL A   1      39.638  26.719  28.966  1.00  0.00     0.173 A 
ATOM     66  C   UNL A   1      41.098  28.273  27.855  1.00  0.00     0.173 A 
ATOM     67  F   UNL A   1      38.927  26.333  30.036  1.00  0.00    -0.203 F 
ATOM     68  C   UNL A   1      39.691  25.878  27.859  1.00  0.00     0.198 A 
ATOM     69  C   UNL A   1      41.124  27.444  26.736  1.00  0.00     0.198 A 
ATOM     70  F   UNL A   1      41.800  29.416  27.828  1.00  0.00    -0.203 F 
ATOM     71  F   UNL A   1      39.046  24.704  27.879  1.00  0.00    -0.200 F 
ATOM     72  C   UNL A   1      40.429  26.244  26.743  1.00  0.00     0.200 A 
ATOM     73  F   UNL A   1      41.830  27.801  25.655  1.00  0.00    -0.200 F 
ATOM     74  F   UNL A   1      40.480  25.433  25.677  1.00  0.00    -0.200 F 
ENDBRANCH  50  64
BRANCH  51  75
ATOM     75  C   UNL A   1      39.513  33.894  36.973  1.00  0.00     0.064 A 
ATOM     76  C   UNL A   1      40.104  35.164  37.019  1.00  0.00     0.173 A 
ATOM     77  C   UNL A   1      38.783  33.471  38.091  1.00  0.00     0.173 A 
ATOM     78  F   UNL A   1      40.828  35.604  35.980  1.00  0.00    -0.203 F 
ATOM     79  C   UNL A   1      39.985  35.972  38.148  1.00  0.00     0.198 A 
ATOM     80  C   UNL A   1      38.645  34.289  39.210  1.00  0.00     0.198 A 
ATOM     81  F   UNL A   1      38.192  32.267  38.093  1.00  0.00    -0.203 F 
ATOM     82  F   UNL A   1      40.593  37.166  38.182  1.00  0.00    -0.200 F 
ATOM     83  C   UNL A   1      39.251  35.536  39.242  1.00  0.00     0.200 A 
ATOM     84  F   UNL A   1      37.923  33.871  40.260  1.00  0.00    -0.200 F 
ATOM     85  F   UNL A   1      39.133  36.315  40.325  1.00  0.00    -0.200 F 
ENDBRANCH  51  75
BRANCH  63  86
ATOM     86  C   UNL A   1      43.982  28.868  35.151  1.00  0.00     0.064 A 
ATOM     87  C   UNL A   1      45.264  29.401  34.955  1.00  0.00     0.173 A 
ATOM     88  C   UNL A   1      43.839  27.800  36.050  1.00  0.00     0.173 A 
ATOM     89  F   UNL A   1      45.450  30.412  34.095  1.00  0.00    -0.203 F 
ATOM     90  C   UNL A   1      46.365  28.871  35.621  1.00  0.00     0.198 A 
ATOM     91  C   UNL A   1      44.939  27.290  36.733  1.00  0.00     0.198 A 
ATOM     92  F   UNL A   1      42.631  27.261  36.273  1.00  0.00    -0.203 F 
ATOM     93  F   UNL A   1      47.587  29.370  35.392  1.00  0.00    -0.200 F 
ATOM     94  C   UNL A   1      46.201  27.821  36.514  1.00  0.00     0.200 A 
ATOM     95  F   UNL A   1      44.777  26.283  37.603  1.00  0.00    -0.200 F 
ATOM     96  F   UNL A   1      47.261  27.320  37.161  1.00  0.00    -0.200 F 
ENDBRANCH  63  86
ENDBRANCH  37  38
ENDBRANCH  29  32
ENDBRANCH  27  28
ENDBRANCH  26  27
ENDBRANCH   1  26
TORSDOF 16
ENDMDL
MODEL 3
REMARK VINA RESULT:     -11.5      0.864      2.316
REMARK SMILES CC(C)[NH2+][C@]1(C(=O)NCCCCNC(=O)c2ccc(-c3c4nc(c(-c5c(F)c(F)c(F)c(F)c5F)c5ccc([nH]5)c(-c5c(F)c(F)c(F)c(F)c5F)c5nc(c(-c6c(F)c(F)c(F)c(F)c6F)c6ccc3[nH]6)C=C5)C=C4)cc2)CC[C@@H]([N@@H+](C)[C@@H](C)C(C)C)C1
REMARK SMILES IDX 10 1 9 2 8 3 6 4 7 5 5 7 79 8 89 9 80 10 81 11 4 12 2 15
REMARK SMILES IDX 1 16 3 17 82 18 83 19 84 21 85 22 86 23 87 24 88 25 11 26
REMARK SMILES IDX 12 27 13 28 14 29 15 31 16 32 17 33 78 34 18 35 77 36 19 37
REMARK SMILES IDX 20 38 21 39 71 40 22 41 76 42 70 43 72 44 23 45 75 46 69 47
REMARK SMILES IDX 68 48 24 50 56 51 36 52 55 53 37 54 40 55 54 56 73 57 38 58
REMARK SMILES IDX 39 59 53 61 74 62 41 63 25 64 26 65 34 66 27 67 28 68 32 69
REMARK SMILES IDX 35 70 29 71 30 72 33 73 31 74 57 75 58 76 66 77 59 78 60 79
REMARK SMILES IDX 64 80 67 81 61 82 62 83 65 84 63 85 42 86 43 87 51 88 44 89
REMARK SMILES IDX 45 90 49 91 52 92 46 93 47 94 50 95 48 96
REMARK H PARENT 8 6 4 13 4 14 82 20 13 30 72 49 40 60
REMARK Flexibility Score: inf
ROOT
ATOM      1  C   UNL A   1      31.772  30.869  25.954  1.00  0.00     0.023 C 
ENDROOT
BRANCH   1   2
ATOM      2  C   UNL A   1      32.849  29.788  25.827  1.00  0.00     0.116 C 
BRANCH   2   3
ATOM      3  N   UNL A   1      33.297  29.663  24.453  1.00  0.00    -0.351 N 
ATOM      4  C   UNL A   1      33.122  28.631  23.568  1.00  0.00     0.281 C 
ATOM      5  O   UNL A   1      33.794  28.678  22.534  1.00  0.00    -0.268 OA
ATOM      6  H   UNL A   1      33.801  30.434  24.104  1.00  0.00     0.163 HD
BRANCH   4   7
ATOM      7  C   UNL A   1      32.091  27.488  23.849  1.00  0.00     0.181 C 
ATOM      8  C   UNL A   1      32.027  26.621  22.568  1.00  0.00     0.085 C 
ATOM      9  C   UNL A   1      32.579  26.470  24.913  1.00  0.00     0.144 C 
ATOM     10  C   UNL A   1      31.670  25.217  23.009  1.00  0.00     0.072 C 
ATOM     11  C   UNL A   1      32.323  25.044  24.379  1.00  0.00     0.191 C 
BRANCH   7  12
ATOM     12  N   UNL A   1      30.737  27.994  24.205  1.00  0.00    -0.331 N 
ATOM     13  H   UNL A   1      30.258  27.254  24.718  1.00  0.00     0.347 HD
ATOM     14  H   UNL A   1      30.904  28.846  24.740  1.00  0.00     0.347 HD
BRANCH  12  15
ATOM     15  C   UNL A   1      29.864  28.402  23.094  1.00  0.00     0.176 C 
ATOM     16  C   UNL A   1      28.511  27.718  23.309  1.00  0.00     0.075 C 
ATOM     17  C   UNL A   1      29.669  29.903  22.911  1.00  0.00     0.075 C 
ENDBRANCH  12  15
ENDBRANCH   7  12
BRANCH  11  18
ATOM     18  N   UNL A   1      33.394  24.044  24.547  1.00  0.00    -0.332 N 
ATOM     19  C   UNL A   1      34.570  24.651  25.189  1.00  0.00     0.333 C 
ATOM     20  H   UNL A   1      33.536  23.795  23.568  1.00  0.00     0.348 HD
BRANCH  18  21
ATOM     21  C   UNL A   1      33.139  22.676  25.075  1.00  0.00     0.183 C 
ATOM     22  C   UNL A   1      31.738  22.462  25.672  1.00  0.00     0.075 C 
BRANCH  21  23
ATOM     23  C   UNL A   1      33.554  21.513  24.121  1.00  0.00     0.041 C 
ATOM     24  C   UNL A   1      34.288  20.396  24.882  1.00  0.00     0.013 C 
ATOM     25  C   UNL A   1      32.371  20.876  23.379  1.00  0.00     0.013 C 
ENDBRANCH  21  23
ENDBRANCH  18  21
ENDBRANCH  11  18
ENDBRANCH   4   7
ENDBRANCH   2   3
ENDBRANCH   1   2
BRANCH   1  26
ATOM     26  C   UNL A   1      31.841  31.691  27.235  1.00  0.00     0.023 C 
BRANCH  26  27
ATOM     27  C   UNL A   1      32.960  32.717  27.264  1.00  0.00     0.116 C 
BRANCH  27  28
ATOM     28  N   UNL A   1      32.524  34.066  27.599  1.00  0.00    -0.352 N 
ATOM     29  C   UNL A   1      33.034  34.891  28.575  1.00  0.00     0.251 C 
ATOM     30  H   UNL A   1      31.777  34.428  27.068  1.00  0.00     0.163 HD
ATOM     31  O   UNL A   1      32.547  35.985  28.812  1.00  0.00    -0.269 OA
BRANCH  29  32
ATOM     32  C   UNL A   1      34.168  34.383  29.368  1.00  0.00     0.039 A 
ATOM     33  C   UNL A   1      33.909  33.538  30.448  1.00  0.00     0.014 A 
ATOM     34  C   UNL A   1      35.474  34.631  28.941  1.00  0.00     0.014 A 
ATOM     35  C   UNL A   1      34.971  32.874  31.059  1.00  0.00     0.010 A 
ATOM     36  C   UNL A   1      36.517  33.901  29.491  1.00  0.00     0.010 A 
ATOM     37  C   UNL A   1      36.275  33.019  30.556  1.00  0.00    -0.014 A 
BRANCH  37  38
ATOM     38  C   UNL A   1      37.413  32.271  31.138  1.00  0.00     0.031 A 
ATOM     39  C   UNL A   1      37.900  32.625  32.513  1.00  0.00     0.074 A 
ATOM     40  C   UNL A   1      38.056  31.345  30.400  1.00  0.00     0.049 A 
ATOM     41  N   UNL A   1      38.935  32.166  33.169  1.00  0.00    -0.248 NA
ATOM     42  C   UNL A   1      37.148  33.668  33.229  1.00  0.00     0.031 C 
ATOM     43  C   UNL A   1      37.719  30.971  29.025  1.00  0.00     0.029 A 
ATOM     44  N   UNL A   1      39.138  30.559  30.703  1.00  0.00    -0.354 N 
ATOM     45  C   UNL A   1      38.973  32.888  34.354  1.00  0.00     0.074 A 
ATOM     46  C   UNL A   1      37.897  33.851  34.305  1.00  0.00     0.031 C 
ATOM     47  C   UNL A   1      38.562  30.011  28.612  1.00  0.00     0.029 A 
ATOM     48  C   UNL A   1      39.513  29.721  29.680  1.00  0.00     0.049 A 
ATOM     49  H   UNL A   1      39.603  30.592  31.569  1.00  0.00     0.167 HD
ATOM     50  C   UNL A   1      39.815  32.739  35.404  1.00  0.00     0.037 A 
ATOM     51  C   UNL A   1      40.512  28.821  29.620  1.00  0.00     0.037 A 
ATOM     52  C   UNL A   1      40.845  31.739  35.470  1.00  0.00     0.049 A 
ATOM     53  C   UNL A   1      41.395  28.630  30.823  1.00  0.00     0.074 A 
ATOM     54  C   UNL A   1      41.695  31.441  36.518  1.00  0.00     0.029 A 
ATOM     55  N   UNL A   1      41.157  30.865  34.438  1.00  0.00    -0.354 N 
ATOM     56  N   UNL A   1      41.375  29.262  31.971  1.00  0.00    -0.248 NA
ATOM     57  C   UNL A   1      42.433  27.594  30.725  1.00  0.00     0.031 C 
ATOM     58  C   UNL A   1      42.543  30.404  36.111  1.00  0.00     0.029 A 
ATOM     59  C   UNL A   1      42.195  30.033  34.821  1.00  0.00     0.049 A 
ATOM     60  H   UNL A   1      40.707  30.840  33.562  1.00  0.00     0.167 HD
ATOM     61  C   UNL A   1      42.377  28.688  32.741  1.00  0.00     0.074 A 
ATOM     62  C   UNL A   1      42.978  27.646  31.934  1.00  0.00     0.031 C 
ATOM     63  C   UNL A   1      42.767  28.996  34.002  1.00  0.00     0.037 A 
BRANCH  50  64
ATOM     64  C   UNL A   1      39.640  33.671  36.566  1.00  0.00     0.064 A 
ATOM     65  C   UNL A   1      38.838  33.331  37.666  1.00  0.00     0.173 A 
ATOM     66  C   UNL A   1      40.284  34.916  36.582  1.00  0.00     0.173 A 
ATOM     67  F   UNL A   1      38.186  32.158  37.690  1.00  0.00    -0.203 F 
ATOM     68  C   UNL A   1      38.660  34.217  38.724  1.00  0.00     0.198 A 
ATOM     69  C   UNL A   1      40.128  35.788  37.656  1.00  0.00     0.198 A 
ATOM     70  F   UNL A   1      41.063  35.289  35.556  1.00  0.00    -0.203 F 
ATOM     71  F   UNL A   1      37.843  33.895  39.736  1.00  0.00    -0.200 F 
ATOM     72  C   UNL A   1      39.310  35.443  38.721  1.00  0.00     0.200 A 
ATOM     73  F   UNL A   1      40.763  36.968  37.657  1.00  0.00    -0.200 F 
ATOM     74  F   UNL A   1      39.137  36.296  39.740  1.00  0.00    -0.200 F 
ENDBRANCH  50  64
BRANCH  51  75
ATOM     75  C   UNL A   1      40.698  28.000  28.396  1.00  0.00     0.064 A 
ATOM     76  C   UNL A   1      41.476  28.471  27.330  1.00  0.00     0.173 A 
ATOM     77  C   UNL A   1      40.113  26.732  28.269  1.00  0.00     0.173 A 
ATOM     78  F   UNL A   1      42.040  29.685  27.398  1.00  0.00    -0.203 F 
ATOM     79  C   UNL A   1      41.647  27.712  26.173  1.00  0.00     0.198 A 
ATOM     80  C   UNL A   1      40.304  25.965  27.122  1.00  0.00     0.198 A 
ATOM     81  F   UNL A   1      39.365  26.235  29.265  1.00  0.00    -0.203 F 
ATOM     82  F   UNL A   1      42.364  28.203  25.153  1.00  0.00    -0.200 F 
ATOM     83  C   UNL A   1      41.065  26.457  26.072  1.00  0.00     0.200 A 
ATOM     84  F   UNL A   1      39.751  24.747  27.033  1.00  0.00    -0.200 F 
ATOM     85  F   UNL A   1      41.233  25.726  24.962  1.00  0.00    -0.200 F 
ENDBRANCH  51  75
BRANCH  63  86
ATOM     86  C   UNL A   1      43.875  28.180  34.595  1.00  0.00     0.064 A 
ATOM     87  C   UNL A   1      45.208  28.611  34.546  1.00  0.00     0.173 A 
ATOM     88  C   UNL A   1      43.591  26.980  35.263  1.00  0.00     0.173 A 
ATOM     89  F   UNL A   1      45.528  29.744  33.905  1.00  0.00    -0.203 F 
ATOM     90  C   UNL A   1      46.222  27.858  35.131  1.00  0.00     0.198 A 
ATOM     91  C   UNL A   1      44.604  26.243  35.869  1.00  0.00     0.198 A 
ATOM     92  F   UNL A   1      42.329  26.531  35.340  1.00  0.00    -0.203 F 
ATOM     93  F   UNL A   1      47.495  28.267  35.041  1.00  0.00    -0.200 F 
ATOM     94  C   UNL A   1      45.919  26.679  35.797  1.00  0.00     0.200 A 
ATOM     95  F   UNL A   1      44.308  25.110  36.521  1.00  0.00    -0.200 F 
ATOM     96  F   UNL A   1      46.895  25.961  36.368  1.00  0.00    -0.200 F 
ENDBRANCH  63  86
ENDBRANCH  37  38
ENDBRANCH  29  32
ENDBRANCH  27  28
ENDBRANCH  26  27
ENDBRANCH   1  26
TORSDOF 16
ENDMDL
