MODEL 1
REMARK VINA RESULT:     -11.0      0.000      0.000
REMARK SMILES C[C@H]1C[NH2+]C[C@@H](CC(=O)NCCCCNC(=O)c2ccc(-c3c4nc(c(-c5c(F)c(F)c(F)c(F)c5F)c5ccc([nH]5)c(-c5c(F)c(F)c(F)c(F)c5F)c5nc(c(-c6c(F)c(F)c(F)c(F)c6F)c6ccc3[nH]6)C=C5)C=C4)cc2)C1
REMARK SMILES IDX 13 1 12 2 11 3 10 4 8 5 9 6 7 8 6 9 1 10 2 11 3 12 81 13
REMARK SMILES IDX 4 14 5 15 14 18 15 19 16 20 17 22 18 23 19 24 80 25 20 26
REMARK SMILES IDX 79 27 21 28 22 29 23 30 73 31 24 32 78 33 72 34 74 35 25 36
REMARK SMILES IDX 77 37 71 38 70 39 26 41 58 42 38 43 57 44 39 45 42 46 56 47
REMARK SMILES IDX 75 48 40 49 41 50 55 52 76 53 43 54 27 55 28 56 36 57 29 58
REMARK SMILES IDX 30 59 34 60 37 61 31 62 32 63 35 64 33 65 59 66 60 67 68 68
REMARK SMILES IDX 61 69 62 70 66 71 69 72 63 73 64 74 67 75 65 76 44 77 45 78
REMARK SMILES IDX 53 79 46 80 47 81 51 82 54 83 48 84 49 85 52 86 50 87
REMARK H PARENT 10 7 4 16 4 17 15 21 74 40 42 51
REMARK Flexibility Score: inf
ROOT
ATOM      1  C   UNL A   1      33.411  34.282  28.950  1.00  0.00     0.023 C 
ENDROOT
BRANCH   1   2
ATOM      2  C   UNL A   1      34.464  33.271  29.363  1.00  0.00     0.023 C 
BRANCH   2   3
ATOM      3  C   UNL A   1      34.548  32.016  28.487  1.00  0.00     0.116 C 
BRANCH   3   4
ATOM      4  N   UNL A   1      33.338  31.846  27.701  1.00  0.00    -0.356 N 
ATOM      5  C   UNL A   1      32.881  30.770  26.997  1.00  0.00     0.220 C 
ATOM      6  O   UNL A   1      31.869  30.914  26.310  1.00  0.00    -0.275 OA
ATOM      7  H   UNL A   1      32.752  32.637  27.673  1.00  0.00     0.163 HD
BRANCH   5   8
ATOM      8  C   UNL A   1      33.589  29.427  27.067  1.00  0.00     0.109 C 
BRANCH   8   9
ATOM      9  C   UNL A   1      32.858  28.288  26.324  1.00  0.00     0.054 C 
ATOM     10  C   UNL A   1      34.365  24.831  25.352  1.00  0.00     0.013 C 
ATOM     11  C   UNL A   1      33.246  25.871  25.469  1.00  0.00     0.041 C 
ATOM     12  C   UNL A   1      32.187  25.430  26.477  1.00  0.00     0.263 C 
ATOM     13  C   UNL A   1      33.847  27.216  25.869  1.00  0.00     0.019 C 
ATOM     14  N   UNL A   1      31.176  26.475  26.659  1.00  0.00    -0.346 N 
ATOM     15  C   UNL A   1      31.777  27.683  27.230  1.00  0.00     0.264 C 
ATOM     16  H   UNL A   1      30.451  26.133  27.289  1.00  0.00     0.346 HD
ATOM     17  H   UNL A   1      30.777  26.706  25.750  1.00  0.00     0.346 HD
ENDBRANCH   8   9
ENDBRANCH   5   8
ENDBRANCH   3   4
ENDBRANCH   2   3
ENDBRANCH   1   2
BRANCH   1  18
ATOM     18  C   UNL A   1      33.650  35.675  29.494  1.00  0.00     0.116 C 
BRANCH  18  19
ATOM     19  N   UNL A   1      32.628  36.121  30.434  1.00  0.00    -0.352 N 
ATOM     20  C   UNL A   1      32.561  35.903  31.793  1.00  0.00     0.251 C 
ATOM     21  H   UNL A   1      31.891  36.646  30.048  1.00  0.00     0.163 HD
ATOM     22  O   UNL A   1      31.595  36.270  32.447  1.00  0.00    -0.269 OA
BRANCH  20  23
ATOM     23  C   UNL A   1      33.667  35.166  32.437  1.00  0.00     0.039 A 
ATOM     24  C   UNL A   1      33.452  33.858  32.875  1.00  0.00     0.014 A 
ATOM     25  C   UNL A   1      34.939  35.736  32.490  1.00  0.00     0.014 A 
ATOM     26  C   UNL A   1      34.542  33.086  33.280  1.00  0.00     0.010 A 
ATOM     27  C   UNL A   1      36.029  34.934  32.781  1.00  0.00     0.010 A 
ATOM     28  C   UNL A   1      35.843  33.603  33.189  1.00  0.00    -0.014 A 
BRANCH  28  29
ATOM     29  C   UNL A   1      37.041  32.808  33.552  1.00  0.00     0.031 A 
ATOM     30  C   UNL A   1      37.723  33.087  34.863  1.00  0.00     0.074 A 
ATOM     31  C   UNL A   1      37.577  31.937  32.676  1.00  0.00     0.049 A 
ATOM     32  N   UNL A   1      38.888  32.679  35.298  1.00  0.00    -0.248 NA
ATOM     33  C   UNL A   1      37.023  33.996  35.786  1.00  0.00     0.031 C 
ATOM     34  C   UNL A   1      37.040  31.619  31.352  1.00  0.00     0.029 A 
ATOM     35  N   UNL A   1      38.712  31.170  32.765  1.00  0.00    -0.354 N 
ATOM     36  C   UNL A   1      39.077  33.326  36.512  1.00  0.00     0.074 A 
ATOM     37  C   UNL A   1      37.938  34.191  36.720  1.00  0.00     0.031 C 
ATOM     38  C   UNL A   1      37.832  30.707  30.763  1.00  0.00     0.029 A 
ATOM     39  C   UNL A   1      38.953  30.408  31.648  1.00  0.00     0.049 A 
ATOM     40  H   UNL A   1      39.300  31.168  33.556  1.00  0.00     0.167 HD
ATOM     41  C   UNL A   1      40.100  33.190  37.389  1.00  0.00     0.037 A 
ATOM     42  C   UNL A   1      39.969  29.569  31.373  1.00  0.00     0.037 A 
ATOM     43  C   UNL A   1      41.189  32.271  37.211  1.00  0.00     0.049 A 
ATOM     44  C   UNL A   1      41.059  29.381  32.395  1.00  0.00     0.074 A 
ATOM     45  C   UNL A   1      42.239  31.998  38.069  1.00  0.00     0.029 A 
ATOM     46  N   UNL A   1      41.352  31.453  36.101  1.00  0.00    -0.354 N 
ATOM     47  N   UNL A   1      41.210  29.967  33.557  1.00  0.00    -0.248 NA
ATOM     48  C   UNL A   1      42.114  28.411  32.069  1.00  0.00     0.031 C 
ATOM     49  C   UNL A   1      43.049  31.027  37.470  1.00  0.00     0.029 A 
ATOM     50  C   UNL A   1      42.483  30.672  36.255  1.00  0.00     0.049 A 
ATOM     51  H   UNL A   1      40.751  31.433  35.321  1.00  0.00     0.167 HD
ATOM     52  C   UNL A   1      42.355  29.417  34.116  1.00  0.00     0.074 A 
ATOM     53  C   UNL A   1      42.857  28.444  33.167  1.00  0.00     0.031 C 
ATOM     54  C   UNL A   1      42.942  29.691  35.307  1.00  0.00     0.037 A 
BRANCH  41  55
ATOM     55  C   UNL A   1      40.070  34.045  38.621  1.00  0.00     0.064 A 
ATOM     56  C   UNL A   1      39.411  33.630  39.788  1.00  0.00     0.173 A 
ATOM     57  C   UNL A   1      40.710  35.293  38.637  1.00  0.00     0.173 A 
ATOM     58  F   UNL A   1      38.766  32.454  39.818  1.00  0.00    -0.203 F 
ATOM     59  C   UNL A   1      39.360  34.449  40.911  1.00  0.00     0.198 A 
ATOM     60  C   UNL A   1      40.686  36.096  39.774  1.00  0.00     0.198 A 
ATOM     61  F   UNL A   1      41.356  35.737  37.547  1.00  0.00    -0.203 F 
ATOM     62  F   UNL A   1      38.671  34.059  41.993  1.00  0.00    -0.200 F 
ATOM     63  C   UNL A   1      40.003  35.678  40.907  1.00  0.00     0.200 A 
ATOM     64  F   UNL A   1      41.315  37.279  39.771  1.00  0.00    -0.200 F 
ATOM     65  F   UNL A   1      39.954  36.466  41.989  1.00  0.00    -0.200 F 
ENDBRANCH  41  55
BRANCH  42  66
ATOM     66  C   UNL A   1      39.985  28.812  30.096  1.00  0.00     0.064 A 
ATOM     67  C   UNL A   1      39.390  27.544  30.011  1.00  0.00     0.173 A 
ATOM     68  C   UNL A   1      40.588  29.327  28.941  1.00  0.00     0.173 A 
ATOM     69  F   UNL A   1      38.818  27.000  31.095  1.00  0.00    -0.203 F 
ATOM     70  C   UNL A   1      39.417  26.813  28.825  1.00  0.00     0.198 A 
ATOM     71  C   UNL A   1      40.594  28.605  27.748  1.00  0.00     0.198 A 
ATOM     72  F   UNL A   1      41.165  30.537  28.968  1.00  0.00    -0.203 F 
ATOM     73  F   UNL A   1      38.878  25.586  28.784  1.00  0.00    -0.200 F 
ATOM     74  C   UNL A   1      40.014  27.346  27.694  1.00  0.00     0.200 A 
ATOM     75  F   UNL A   1      41.161  29.128  26.652  1.00  0.00    -0.200 F 
ATOM     76  F   UNL A   1      40.038  26.644  26.553  1.00  0.00    -0.200 F 
ENDBRANCH  42  66
BRANCH  54  77
ATOM     77  C   UNL A   1      44.155  28.894  35.678  1.00  0.00     0.064 A 
ATOM     78  C   UNL A   1      45.445  29.320  35.338  1.00  0.00     0.173 A 
ATOM     79  C   UNL A   1      44.022  27.721  36.437  1.00  0.00     0.173 A 
ATOM     80  F   UNL A   1      45.619  30.428  34.602  1.00  0.00    -0.203 F 
ATOM     81  C   UNL A   1      46.563  28.592  35.736  1.00  0.00     0.198 A 
ATOM     82  C   UNL A   1      45.143  27.009  36.852  1.00  0.00     0.198 A 
ATOM     83  F   UNL A   1      42.806  27.278  36.790  1.00  0.00    -0.203 F 
ATOM     84  F   UNL A   1      47.788  29.000  35.376  1.00  0.00    -0.200 F 
ATOM     85  C   UNL A   1      46.412  27.444  36.499  1.00  0.00     0.200 A 
ATOM     86  F   UNL A   1      44.996  25.906  37.599  1.00  0.00    -0.200 F 
ATOM     87  F   UNL A   1      47.490  26.752  36.891  1.00  0.00    -0.200 F 
ENDBRANCH  54  77
ENDBRANCH  28  29
ENDBRANCH  20  23
ENDBRANCH  18  19
ENDBRANCH   1  18
TORSDOF 12
ENDMDL
MODEL 2
REMARK VINA RESULT:     -11.0      1.095      1.655
REMARK SMILES C[C@H]1C[NH2+]C[C@@H](CC(=O)NCCCCNC(=O)c2ccc(-c3c4nc(c(-c5c(F)c(F)c(F)c(F)c5F)c5ccc([nH]5)c(-c5c(F)c(F)c(F)c(F)c5F)c5nc(c(-c6c(F)c(F)c(F)c(F)c6F)c6ccc3[nH]6)C=C5)C=C4)cc2)C1
REMARK SMILES IDX 13 1 12 2 11 3 10 4 8 5 9 6 7 8 6 9 1 10 2 11 3 12 81 13
REMARK SMILES IDX 4 14 5 15 14 18 15 19 16 20 17 22 18 23 19 24 80 25 20 26
REMARK SMILES IDX 79 27 21 28 22 29 23 30 73 31 24 32 78 33 72 34 74 35 25 36
REMARK SMILES IDX 77 37 71 38 70 39 26 41 58 42 38 43 57 44 39 45 42 46 56 47
REMARK SMILES IDX 75 48 40 49 41 50 55 52 76 53 43 54 27 55 28 56 36 57 29 58
REMARK SMILES IDX 30 59 34 60 37 61 31 62 32 63 35 64 33 65 59 66 60 67 68 68
REMARK SMILES IDX 61 69 62 70 66 71 69 72 63 73 64 74 67 75 65 76 44 77 45 78
REMARK SMILES IDX 53 79 46 80 47 81 51 82 54 83 48 84 49 85 52 86 50 87
REMARK H PARENT 10 7 4 16 4 17 15 21 74 40 42 51
REMARK Flexibility Score: inf
ROOT
ATOM      1  C   UNL A   1      33.416  34.515  28.825  1.00  0.00     0.023 C 
ENDROOT
BRANCH   1   2
ATOM      2  C   UNL A   1      34.400  33.414  29.174  1.00  0.00     0.023 C 
BRANCH   2   3
ATOM      3  C   UNL A   1      34.081  32.038  28.581  1.00  0.00     0.116 C 
BRANCH   3   4
ATOM      4  N   UNL A   1      35.294  31.354  28.166  1.00  0.00    -0.356 N 
ATOM      5  C   UNL A   1      35.476  30.106  27.646  1.00  0.00     0.220 C 
ATOM      6  O   UNL A   1      36.630  29.709  27.480  1.00  0.00    -0.275 OA
ATOM      7  H   UNL A   1      36.120  31.878  28.278  1.00  0.00     0.163 HD
BRANCH   5   8
ATOM      8  C   UNL A   1      34.291  29.232  27.268  1.00  0.00     0.109 C 
BRANCH   8   9
ATOM      9  C   UNL A   1      33.622  29.619  25.931  1.00  0.00     0.054 C 
ATOM     10  C   UNL A   1      33.024  27.264  22.887  1.00  0.00     0.013 C 
ATOM     11  C   UNL A   1      32.917  28.582  23.661  1.00  0.00     0.041 C 
ATOM     12  C   UNL A   1      31.474  28.865  24.071  1.00  0.00     0.263 C 
ATOM     13  C   UNL A   1      33.826  28.523  24.886  1.00  0.00     0.019 C 
ATOM     14  N   UNL A   1      31.396  30.071  24.899  1.00  0.00    -0.346 N 
ATOM     15  C   UNL A   1      32.127  29.887  26.154  1.00  0.00     0.264 C 
ATOM     16  H   UNL A   1      30.418  30.271  25.108  1.00  0.00     0.346 HD
ATOM     17  H   UNL A   1      31.815  30.848  24.386  1.00  0.00     0.346 HD
ENDBRANCH   8   9
ENDBRANCH   5   8
ENDBRANCH   3   4
ENDBRANCH   2   3
ENDBRANCH   1   2
BRANCH   1  18
ATOM     18  C   UNL A   1      33.680  35.824  29.539  1.00  0.00     0.116 C 
BRANCH  18  19
ATOM     19  N   UNL A   1      32.625  36.208  30.471  1.00  0.00    -0.352 N 
ATOM     20  C   UNL A   1      32.528  35.928  31.816  1.00  0.00     0.251 C 
ATOM     21  H   UNL A   1      31.887  36.735  30.088  1.00  0.00     0.163 HD
ATOM     22  O   UNL A   1      31.538  36.246  32.460  1.00  0.00    -0.269 OA
BRANCH  20  23
ATOM     23  C   UNL A   1      33.632  35.186  32.456  1.00  0.00     0.039 A 
ATOM     24  C   UNL A   1      33.421  33.869  32.869  1.00  0.00     0.014 A 
ATOM     25  C   UNL A   1      34.900  35.762  32.531  1.00  0.00     0.014 A 
ATOM     26  C   UNL A   1      34.511  33.096  33.271  1.00  0.00     0.010 A 
ATOM     27  C   UNL A   1      35.993  34.961  32.817  1.00  0.00     0.010 A 
ATOM     28  C   UNL A   1      35.811  33.622  33.200  1.00  0.00    -0.014 A 
BRANCH  28  29
ATOM     29  C   UNL A   1      37.010  32.827  33.559  1.00  0.00     0.031 A 
ATOM     30  C   UNL A   1      37.694  33.104  34.869  1.00  0.00     0.074 A 
ATOM     31  C   UNL A   1      37.544  31.958  32.681  1.00  0.00     0.049 A 
ATOM     32  N   UNL A   1      38.860  32.696  35.301  1.00  0.00    -0.248 NA
ATOM     33  C   UNL A   1      36.995  34.011  35.795  1.00  0.00     0.031 C 
ATOM     34  C   UNL A   1      37.005  31.642  31.357  1.00  0.00     0.029 A 
ATOM     35  N   UNL A   1      38.680  31.192  32.766  1.00  0.00    -0.354 N 
ATOM     36  C   UNL A   1      39.051  33.341  36.516  1.00  0.00     0.074 A 
ATOM     37  C   UNL A   1      37.912  34.205  36.727  1.00  0.00     0.031 C 
ATOM     38  C   UNL A   1      37.796  30.732  30.764  1.00  0.00     0.029 A 
ATOM     39  C   UNL A   1      38.919  30.431  31.647  1.00  0.00     0.049 A 
ATOM     40  H   UNL A   1      39.269  31.188  33.555  1.00  0.00     0.167 HD
ATOM     41  C   UNL A   1      40.075  33.204  37.390  1.00  0.00     0.037 A 
ATOM     42  C   UNL A   1      39.936  29.594  31.369  1.00  0.00     0.037 A 
ATOM     43  C   UNL A   1      41.165  32.286  37.209  1.00  0.00     0.049 A 
ATOM     44  C   UNL A   1      41.027  29.405  32.388  1.00  0.00     0.074 A 
ATOM     45  C   UNL A   1      42.217  32.013  38.064  1.00  0.00     0.029 A 
ATOM     46  N   UNL A   1      41.327  31.471  36.097  1.00  0.00    -0.354 N 
ATOM     47  N   UNL A   1      41.181  29.989  33.551  1.00  0.00    -0.248 NA
ATOM     48  C   UNL A   1      42.083  28.436  32.058  1.00  0.00     0.031 C 
ATOM     49  C   UNL A   1      43.026  31.043  37.462  1.00  0.00     0.029 A 
ATOM     50  C   UNL A   1      42.458  30.690  36.248  1.00  0.00     0.049 A 
ATOM     51  H   UNL A   1      40.724  31.452  35.319  1.00  0.00     0.167 HD
ATOM     52  C   UNL A   1      42.327  29.438  34.107  1.00  0.00     0.074 A 
ATOM     53  C   UNL A   1      42.828  28.468  33.155  1.00  0.00     0.031 C 
ATOM     54  C   UNL A   1      42.916  29.711  35.297  1.00  0.00     0.037 A 
BRANCH  41  55
ATOM     55  C   UNL A   1      40.047  34.057  38.624  1.00  0.00     0.064 A 
ATOM     56  C   UNL A   1      39.389  33.641  39.791  1.00  0.00     0.173 A 
ATOM     57  C   UNL A   1      40.689  35.305  38.642  1.00  0.00     0.173 A 
ATOM     58  F   UNL A   1      38.743  32.465  39.819  1.00  0.00    -0.203 F 
ATOM     59  C   UNL A   1      39.340  34.458  40.916  1.00  0.00     0.198 A 
ATOM     60  C   UNL A   1      40.666  36.105  39.780  1.00  0.00     0.198 A 
ATOM     61  F   UNL A   1      41.335  35.750  37.553  1.00  0.00    -0.203 F 
ATOM     62  F   UNL A   1      38.652  34.067  41.997  1.00  0.00    -0.200 F 
ATOM     63  C   UNL A   1      39.984  35.687  40.913  1.00  0.00     0.200 A 
ATOM     64  F   UNL A   1      41.297  37.288  39.779  1.00  0.00    -0.200 F 
ATOM     65  F   UNL A   1      39.937  36.472  41.997  1.00  0.00    -0.200 F 
ENDBRANCH  41  55
BRANCH  42  66
ATOM     66  C   UNL A   1      39.949  28.839  30.090  1.00  0.00     0.064 A 
ATOM     67  C   UNL A   1      39.381  27.558  30.012  1.00  0.00     0.173 A 
ATOM     68  C   UNL A   1      40.524  29.369  28.927  1.00  0.00     0.173 A 
ATOM     69  F   UNL A   1      38.837  27.000  31.103  1.00  0.00    -0.203 F 
ATOM     70  C   UNL A   1      39.407  26.830  28.825  1.00  0.00     0.198 A 
ATOM     71  C   UNL A   1      40.528  28.649  27.734  1.00  0.00     0.198 A 
ATOM     72  F   UNL A   1      41.074  30.592  28.948  1.00  0.00    -0.203 F 
ATOM     73  F   UNL A   1      38.894  25.592  28.789  1.00  0.00    -0.200 F 
ATOM     74  C   UNL A   1      39.976  27.378  27.685  1.00  0.00     0.200 A 
ATOM     75  F   UNL A   1      41.068  29.186  26.630  1.00  0.00    -0.200 F 
ATOM     76  F   UNL A   1      39.998  26.677  26.543  1.00  0.00    -0.200 F 
ENDBRANCH  42  66
BRANCH  54  77
ATOM     77  C   UNL A   1      44.130  28.914  35.664  1.00  0.00     0.064 A 
ATOM     78  C   UNL A   1      44.032  27.710  36.373  1.00  0.00     0.173 A 
ATOM     79  C   UNL A   1      45.401  29.333  35.242  1.00  0.00     0.173 A 
ATOM     80  F   UNL A   1      42.838  27.277  36.807  1.00  0.00    -0.203 F 
ATOM     81  C   UNL A   1      45.167  26.957  36.659  1.00  0.00     0.198 A 
ATOM     82  C   UNL A   1      46.531  28.567  35.511  1.00  0.00     0.198 A 
ATOM     83  F   UNL A   1      45.542  30.477  34.556  1.00  0.00    -0.203 F 
ATOM     84  F   UNL A   1      45.056  25.824  37.365  1.00  0.00    -0.200 F 
ATOM     85  C   UNL A   1      46.413  27.381  36.220  1.00  0.00     0.200 A 
ATOM     86  F   UNL A   1      47.732  28.972  35.077  1.00  0.00    -0.200 F 
ATOM     87  F   UNL A   1      47.503  26.649  36.488  1.00  0.00    -0.200 F 
ENDBRANCH  54  77
ENDBRANCH  28  29
ENDBRANCH  20  23
ENDBRANCH  18  19
ENDBRANCH   1  18
TORSDOF 12
ENDMDL
MODEL 3
REMARK VINA RESULT:     -10.9      2.348      3.586
REMARK SMILES C[C@H]1C[NH2+]C[C@@H](CC(=O)NCCCCNC(=O)c2ccc(-c3c4nc(c(-c5c(F)c(F)c(F)c(F)c5F)c5ccc([nH]5)c(-c5c(F)c(F)c(F)c(F)c5F)c5nc(c(-c6c(F)c(F)c(F)c(F)c6F)c6ccc3[nH]6)C=C5)C=C4)cc2)C1
REMARK SMILES IDX 13 1 12 2 11 3 10 4 8 5 9 6 7 8 6 9 1 10 2 11 3 12 81 13
REMARK SMILES IDX 4 14 5 15 14 18 15 19 16 20 17 22 18 23 19 24 80 25 20 26
REMARK SMILES IDX 79 27 21 28 22 29 23 30 73 31 24 32 78 33 72 34 74 35 25 36
REMARK SMILES IDX 77 37 71 38 70 39 26 41 58 42 38 43 57 44 39 45 42 46 56 47
REMARK SMILES IDX 75 48 40 49 41 50 55 52 76 53 43 54 27 55 28 56 36 57 29 58
REMARK SMILES IDX 30 59 34 60 37 61 31 62 32 63 35 64 33 65 59 66 60 67 68 68
REMARK SMILES IDX 61 69 62 70 66 71 69 72 63 73 64 74 67 75 65 76 44 77 45 78
REMARK SMILES IDX 53 79 46 80 47 81 51 82 54 83 48 84 49 85 52 86 50 87
REMARK H PARENT 10 7 4 16 4 17 15 21 74 40 42 51
REMARK Flexibility Score: inf
ROOT
ATOM      1  C   UNL A   1      31.628  32.069  26.679  1.00  0.00     0.023 C 
ENDROOT
BRANCH   1   2
ATOM      2  C   UNL A   1      31.736  30.565  26.847  1.00  0.00     0.023 C 
BRANCH   2   3
ATOM      3  C   UNL A   1      32.616  29.851  25.816  1.00  0.00     0.116 C 
BRANCH   3   4
ATOM      4  N   UNL A   1      32.181  28.479  25.618  1.00  0.00    -0.356 N 
ATOM      5  C   UNL A   1      31.403  27.927  24.643  1.00  0.00     0.220 C 
ATOM      6  O   UNL A   1      31.078  26.744  24.761  1.00  0.00    -0.275 OA
ATOM      7  H   UNL A   1      32.500  27.845  26.300  1.00  0.00     0.163 HD
BRANCH   5   8
ATOM      8  C   UNL A   1      30.960  28.738  23.437  1.00  0.00     0.109 C 
BRANCH   8   9
ATOM      9  C   UNL A   1      29.588  29.427  23.607  1.00  0.00     0.054 C 
ATOM     10  C   UNL A   1      28.827  33.210  23.086  1.00  0.00     0.013 C 
ATOM     11  C   UNL A   1      28.463  31.751  23.380  1.00  0.00     0.041 C 
ATOM     12  C   UNL A   1      27.636  31.151  22.244  1.00  0.00     0.263 C 
ATOM     13  C   UNL A   1      29.740  30.947  23.602  1.00  0.00     0.019 C 
ATOM     14  N   UNL A   1      27.380  29.729  22.483  1.00  0.00    -0.346 N 
ATOM     15  C   UNL A   1      28.634  28.971  22.494  1.00  0.00     0.264 C 
ATOM     16  H   UNL A   1      26.778  29.368  21.745  1.00  0.00     0.346 HD
ATOM     17  H   UNL A   1      26.928  29.626  23.392  1.00  0.00     0.346 HD
ENDBRANCH   8   9
ENDBRANCH   5   8
ENDBRANCH   3   4
ENDBRANCH   2   3
ENDBRANCH   1   2
BRANCH   1  18
ATOM     18  C   UNL A   1      32.797  32.837  27.261  1.00  0.00     0.116 C 
BRANCH  18  19
ATOM     19  N   UNL A   1      32.472  34.212  27.624  1.00  0.00    -0.352 N 
ATOM     20  C   UNL A   1      33.034  34.992  28.611  1.00  0.00     0.251 C 
ATOM     21  H   UNL A   1      31.760  34.638  27.095  1.00  0.00     0.163 HD
ATOM     22  O   UNL A   1      32.602  36.110  28.858  1.00  0.00    -0.269 OA
BRANCH  20  23
ATOM     23  C   UNL A   1      34.144  34.425  29.401  1.00  0.00     0.039 A 
ATOM     24  C   UNL A   1      33.855  33.627  30.510  1.00  0.00     0.014 A 
ATOM     25  C   UNL A   1      35.459  34.590  28.965  1.00  0.00     0.014 A 
ATOM     26  C   UNL A   1      34.884  32.914  31.126  1.00  0.00     0.010 A 
ATOM     27  C   UNL A   1      36.456  33.794  29.503  1.00  0.00     0.010 A 
ATOM     28  C   UNL A   1      36.183  32.954  30.595  1.00  0.00    -0.014 A 
BRANCH  28  29
ATOM     29  C   UNL A   1      37.302  32.173  31.174  1.00  0.00     0.031 A 
ATOM     30  C   UNL A   1      37.791  32.523  32.552  1.00  0.00     0.074 A 
ATOM     31  C   UNL A   1      37.946  31.248  30.437  1.00  0.00     0.049 A 
ATOM     32  N   UNL A   1      38.873  32.133  33.176  1.00  0.00    -0.248 NA
ATOM     33  C   UNL A   1      36.978  33.490  33.309  1.00  0.00     0.031 C 
ATOM     34  C   UNL A   1      37.602  30.857  29.069  1.00  0.00     0.029 A 
ATOM     35  N   UNL A   1      39.044  30.479  30.734  1.00  0.00    -0.354 N 
ATOM     36  C   UNL A   1      38.894  32.848  34.366  1.00  0.00     0.074 A 
ATOM     37  C   UNL A   1      37.751  33.733  34.355  1.00  0.00     0.031 C 
ATOM     38  C   UNL A   1      38.457  29.906  28.655  1.00  0.00     0.029 A 
ATOM     39  C   UNL A   1      39.433  29.650  29.710  1.00  0.00     0.049 A 
ATOM     40  H   UNL A   1      39.510  30.519  31.602  1.00  0.00     0.167 HD
ATOM     41  C   UNL A   1      39.776  32.757  35.389  1.00  0.00     0.037 A 
ATOM     42  C   UNL A   1      40.464  28.789  29.635  1.00  0.00     0.037 A 
ATOM     43  C   UNL A   1      40.865  31.820  35.425  1.00  0.00     0.049 A 
ATOM     44  C   UNL A   1      41.390  28.654  30.814  1.00  0.00     0.074 A 
ATOM     45  C   UNL A   1      41.774  31.590  36.442  1.00  0.00     0.029 A 
ATOM     46  N   UNL A   1      41.174  30.938  34.399  1.00  0.00    -0.354 N 
ATOM     47  N   UNL A   1      41.381  29.306  31.951  1.00  0.00    -0.248 NA
ATOM     48  C   UNL A   1      42.466  27.659  30.702  1.00  0.00     0.031 C 
ATOM     49  C   UNL A   1      42.646  30.580  36.023  1.00  0.00     0.029 A 
ATOM     50  C   UNL A   1      42.258  30.159  34.761  1.00  0.00     0.049 A 
ATOM     51  H   UNL A   1      40.693  30.877  33.543  1.00  0.00     0.167 HD
ATOM     52  C   UNL A   1      42.423  28.781  32.702  1.00  0.00     0.074 A 
ATOM     53  C   UNL A   1      43.042  27.750  31.893  1.00  0.00     0.031 C 
ATOM     54  C   UNL A   1      42.834  29.120  33.949  1.00  0.00     0.037 A 
BRANCH  41  55
ATOM     55  C   UNL A   1      39.580  33.683  36.553  1.00  0.00     0.064 A 
ATOM     56  C   UNL A   1      40.171  34.955  36.586  1.00  0.00     0.173 A 
ATOM     57  C   UNL A   1      38.791  33.296  37.645  1.00  0.00     0.173 A 
ATOM     58  F   UNL A   1      40.951  35.365  35.575  1.00  0.00    -0.203 F 
ATOM     59  C   UNL A   1      40.011  35.790  37.688  1.00  0.00     0.198 A 
ATOM     60  C   UNL A   1      38.606  34.147  38.732  1.00  0.00     0.198 A 
ATOM     61  F   UNL A   1      38.202  32.091  37.663  1.00  0.00    -0.203 F 
ATOM     62  F   UNL A   1      40.636  36.974  37.726  1.00  0.00    -0.200 F 
ATOM     63  C   UNL A   1      39.224  35.388  38.757  1.00  0.00     0.200 A 
ATOM     64  F   UNL A   1      37.837  33.762  39.760  1.00  0.00    -0.200 F 
ATOM     65  F   UNL A   1      39.070  36.193  39.817  1.00  0.00    -0.200 F 
ENDBRANCH  41  55
BRANCH  42  66
ATOM     66  C   UNL A   1      40.654  27.958  28.419  1.00  0.00     0.064 A 
ATOM     67  C   UNL A   1      40.063  26.689  28.324  1.00  0.00     0.173 A 
ATOM     68  C   UNL A   1      41.421  28.403  27.334  1.00  0.00     0.173 A 
ATOM     69  F   UNL A   1      39.337  26.211  29.345  1.00  0.00    -0.203 F 
ATOM     70  C   UNL A   1      40.251  25.890  27.198  1.00  0.00     0.198 A 
ATOM     71  C   UNL A   1      41.588  27.613  26.199  1.00  0.00     0.198 A 
ATOM     72  F   UNL A   1      42.000  29.612  27.374  1.00  0.00    -0.203 F 
ATOM     73  F   UNL A   1      39.710  24.664  27.152  1.00  0.00    -0.200 F 
ATOM     74  C   UNL A   1      41.010  26.354  26.135  1.00  0.00     0.200 A 
ATOM     75  F   UNL A   1      42.312  28.069  25.167  1.00  0.00    -0.200 F 
ATOM     76  F   UNL A   1      41.188  25.586  25.052  1.00  0.00    -0.200 F 
ENDBRANCH  42  66
BRANCH  54  77
ATOM     77  C   UNL A   1      43.967  28.337  34.537  1.00  0.00     0.064 A 
ATOM     78  C   UNL A   1      43.749  27.147  35.245  1.00  0.00     0.173 A 
ATOM     79  C   UNL A   1      45.291  28.753  34.333  1.00  0.00     0.173 A 
ATOM     80  F   UNL A   1      42.499  26.718  35.474  1.00  0.00    -0.203 F 
ATOM     81  C   UNL A   1      44.818  26.407  35.740  1.00  0.00     0.198 A 
ATOM     82  C   UNL A   1      46.358  27.998  34.810  1.00  0.00     0.198 A 
ATOM     83  F   UNL A   1      45.548  29.882  33.657  1.00  0.00    -0.203 F 
ATOM     84  F   UNL A   1      44.588  25.288  36.440  1.00  0.00    -0.200 F 
ATOM     85  C   UNL A   1      46.121  26.828  35.514  1.00  0.00     0.200 A 
ATOM     86  F   UNL A   1      47.617  28.400  34.582  1.00  0.00    -0.200 F 
ATOM     87  F   UNL A   1      47.149  26.106  35.982  1.00  0.00    -0.200 F 
ENDBRANCH  54  77
ENDBRANCH  28  29
ENDBRANCH  20  23
ENDBRANCH  18  19
ENDBRANCH   1  18
TORSDOF 12
ENDMDL
