MODEL 1
REMARK VINA RESULT:     -12.9      0.000      0.000
REMARK SMILES COc1ccc(Cl)c2sc(N3CC(C(=O)NCCCCNC(=O)c4ccc(-c5c6nc(c(-c7c(F)c(F)c(F)c(F)c7F)c7ccc([nH]7)c(-c7c(F)c(F)c(F)c(F)c7F)c7nc(c(-c8c(F)c(F)c(F)c(F)c8F)c8ccc5[nH]8)C=C7)C=C6)cc4)C3)nc12
REMARK SMILES IDX 18 1 17 2 16 3 14 4 15 5 13 7 11 8 12 9 87 10 10 11 3 12
REMARK SMILES IDX 4 13 89 14 5 15 8 16 88 17 6 18 9 19 7 20 2 21 1 22 19 23
REMARK SMILES IDX 20 24 21 25 22 26 23 28 24 29 25 30 86 31 26 32 85 33 27 34
REMARK SMILES IDX 28 35 29 36 79 37 30 38 84 39 78 40 80 41 31 42 83 43 77 44
REMARK SMILES IDX 76 45 32 47 64 48 44 49 63 50 45 51 48 52 62 53 81 54 46 55
REMARK SMILES IDX 47 56 61 58 82 59 49 60 33 61 34 62 42 63 35 64 36 65 40 66
REMARK SMILES IDX 43 67 37 68 38 69 41 70 39 71 65 72 66 73 74 74 67 75 68 76
REMARK SMILES IDX 72 77 75 78 69 79 70 80 73 81 71 82 50 83 51 84 59 85 52 86
REMARK SMILES IDX 53 87 57 88 60 89 54 90 55 91 58 92 56 93
REMARK H PARENT 16 6 21 27 80 46 48 57
REMARK Flexibility Score: inf
ROOT
ATOM      1  C   UNL A   1      36.412  21.370  24.849  1.00  0.00     0.023 C 
ENDROOT
BRANCH   1   2
ATOM      2  C   UNL A   1      35.374  21.392  25.978  1.00  0.00     0.116 C 
BRANCH   2   3
ATOM      3  N   UNL A   1      34.357  20.374  25.801  1.00  0.00    -0.356 N 
ATOM      4  C   UNL A   1      33.026  20.460  25.468  1.00  0.00     0.226 C 
ATOM      5  O   UNL A   1      32.439  19.367  25.396  1.00  0.00    -0.275 OA
ATOM      6  H   UNL A   1      34.678  19.455  25.945  1.00  0.00     0.163 HD
BRANCH   4   7
ATOM      7  C   UNL A   1      32.292  21.775  25.210  1.00  0.00     0.117 C 
ATOM      8  N   UNL A   1      32.672  23.799  25.327  1.00  0.00    -0.346 N 
ATOM      9  C   UNL A   1      32.884  22.847  24.291  1.00  0.00     0.134 C 
ATOM     10  C   UNL A   1      32.157  22.861  26.273  1.00  0.00     0.134 C 
BRANCH   8  11
ATOM     11  C   UNL A   1      32.406  25.121  25.260  1.00  0.00     0.186 A 
ATOM     12  C   UNL A   1      32.592  28.548  26.387  1.00  0.00     0.146 A 
ATOM     13  C   UNL A   1      31.987  29.719  25.896  1.00  0.00     0.050 A 
ATOM     14  C   UNL A   1      32.320  27.305  25.742  1.00  0.00     0.127 A 
ATOM     15  C   UNL A   1      31.120  29.675  24.809  1.00  0.00     0.026 A 
ATOM     16  C   UNL A   1      31.491  27.302  24.615  1.00  0.00     0.079 A 
ATOM     17  N   UNL A   1      32.785  26.039  26.121  1.00  0.00    -0.216 NA
ATOM     18  C   UNL A   1      30.865  28.472  24.155  1.00  0.00     0.060 A 
ATOM     19  S   UNL A   1      31.443  25.710  23.963  1.00  0.00    -0.095 S 
ATOM     20  Cl  UNL A   1      29.799  28.468  22.800  1.00  0.00    -0.083 Cl
BRANCH  12  21
ATOM     21  O   UNL A   1      33.498  28.555  27.422  1.00  0.00    -0.494 OA
ATOM     22  C   UNL A   1      34.784  29.099  27.141  1.00  0.00     0.278 C 
ENDBRANCH  12  21
ENDBRANCH   8  11
ENDBRANCH   4   7
ENDBRANCH   2   3
ENDBRANCH   1   2
BRANCH   1  23
ATOM     23  C   UNL A   1      37.376  22.567  24.794  1.00  0.00     0.023 C 
BRANCH  23  24
ATOM     24  C   UNL A   1      38.116  22.847  26.094  1.00  0.00     0.116 C 
BRANCH  24  25
ATOM     25  N   UNL A   1      39.413  22.182  26.159  1.00  0.00    -0.352 N 
ATOM     26  C   UNL A   1      40.661  22.754  26.290  1.00  0.00     0.251 C 
ATOM     27  H   UNL A   1      39.395  21.199  26.102  1.00  0.00     0.163 HD
ATOM     28  O   UNL A   1      41.667  22.143  25.964  1.00  0.00    -0.269 OA
BRANCH  26  29
ATOM     29  C   UNL A   1      40.774  24.114  26.850  1.00  0.00     0.039 A 
ATOM     30  C   UNL A   1      40.314  25.223  26.130  1.00  0.00     0.014 A 
ATOM     31  C   UNL A   1      41.398  24.279  28.086  1.00  0.00     0.014 A 
ATOM     32  C   UNL A   1      40.446  26.491  26.687  1.00  0.00     0.010 A 
ATOM     33  C   UNL A   1      41.421  25.510  28.689  1.00  0.00     0.010 A 
ATOM     34  C   UNL A   1      41.000  26.621  27.968  1.00  0.00    -0.014 A 
BRANCH  34  35
ATOM     35  C   UNL A   1      41.073  27.915  28.623  1.00  0.00     0.031 A 
ATOM     36  C   UNL A   1      42.236  28.745  28.220  1.00  0.00     0.074 A 
ATOM     37  C   UNL A   1      40.050  28.408  29.353  1.00  0.00     0.049 A 
ATOM     38  N   UNL A   1      43.222  29.129  28.960  1.00  0.00    -0.248 NA
ATOM     39  C   UNL A   1      42.392  29.090  26.796  1.00  0.00     0.031 C 
ATOM     40  C   UNL A   1      38.719  27.829  29.566  1.00  0.00     0.029 A 
ATOM     41  N   UNL A   1      39.959  29.605  29.989  1.00  0.00    -0.354 N 
ATOM     42  C   UNL A   1      44.033  29.916  28.149  1.00  0.00     0.074 A 
ATOM     43  C   UNL A   1      43.573  29.714  26.800  1.00  0.00     0.031 C 
ATOM     44  C   UNL A   1      37.897  28.766  30.088  1.00  0.00     0.029 A 
ATOM     45  C   UNL A   1      38.675  29.956  30.385  1.00  0.00     0.049 A 
ATOM     46  H   UNL A   1      40.742  30.178  30.158  1.00  0.00     0.167 HD
ATOM     47  C   UNL A   1      44.866  30.849  28.688  1.00  0.00     0.037 A 
ATOM     48  C   UNL A   1      38.285  31.156  30.886  1.00  0.00     0.037 A 
ATOM     49  C   UNL A   1      45.050  30.621  30.099  1.00  0.00     0.049 A 
ATOM     50  C   UNL A   1      39.509  31.840  31.379  1.00  0.00     0.074 A 
ATOM     51  C   UNL A   1      45.547  29.572  30.849  1.00  0.00     0.029 A 
ATOM     52  N   UNL A   1      44.328  31.396  30.975  1.00  0.00    -0.354 N 
ATOM     53  N   UNL A   1      40.197  31.429  32.409  1.00  0.00    -0.248 NA
ATOM     54  C   UNL A   1      40.234  32.683  30.439  1.00  0.00     0.031 C 
ATOM     55  C   UNL A   1      44.693  29.500  31.988  1.00  0.00     0.029 A 
ATOM     56  C   UNL A   1      43.780  30.553  31.907  1.00  0.00     0.049 A 
ATOM     57  H   UNL A   1      44.224  32.375  30.939  1.00  0.00     0.167 HD
ATOM     58  C   UNL A   1      41.522  31.587  32.031  1.00  0.00     0.074 A 
ATOM     59  C   UNL A   1      41.483  32.435  30.841  1.00  0.00     0.031 C 
ATOM     60  C   UNL A   1      42.499  30.778  32.534  1.00  0.00     0.037 A 
BRANCH  47  61
ATOM     61  C   UNL A   1      45.220  32.166  28.042  1.00  0.00     0.064 A 
ATOM     62  C   UNL A   1      44.197  33.107  27.801  1.00  0.00     0.173 A 
ATOM     63  C   UNL A   1      46.442  32.415  27.382  1.00  0.00     0.173 A 
ATOM     64  F   UNL A   1      42.988  32.961  28.364  1.00  0.00    -0.203 F 
ATOM     65  C   UNL A   1      44.361  34.162  26.902  1.00  0.00     0.198 A 
ATOM     66  C   UNL A   1      46.619  33.503  26.527  1.00  0.00     0.198 A 
ATOM     67  F   UNL A   1      47.472  31.565  27.439  1.00  0.00    -0.203 F 
ATOM     68  F   UNL A   1      43.319  34.950  26.603  1.00  0.00    -0.200 F 
ATOM     69  C   UNL A   1      45.570  34.356  26.260  1.00  0.00     0.200 A 
ATOM     70  F   UNL A   1      47.794  33.662  25.902  1.00  0.00    -0.200 F 
ATOM     71  F   UNL A   1      45.711  35.328  25.349  1.00  0.00    -0.200 F 
ENDBRANCH  47  61
BRANCH  48  72
ATOM     72  C   UNL A   1      36.993  31.863  30.708  1.00  0.00     0.064 A 
ATOM     73  C   UNL A   1      36.032  31.895  31.732  1.00  0.00     0.173 A 
ATOM     74  C   UNL A   1      36.789  32.752  29.635  1.00  0.00     0.173 A 
ATOM     75  F   UNL A   1      36.173  31.114  32.813  1.00  0.00    -0.203 F 
ATOM     76  C   UNL A   1      34.948  32.780  31.698  1.00  0.00     0.198 A 
ATOM     77  C   UNL A   1      35.704  33.631  29.598  1.00  0.00     0.198 A 
ATOM     78  F   UNL A   1      37.688  32.855  28.646  1.00  0.00    -0.203 F 
ATOM     79  F   UNL A   1      34.086  32.825  32.723  1.00  0.00    -0.200 F 
ATOM     80  C   UNL A   1      34.792  33.655  30.636  1.00  0.00     0.200 A 
ATOM     81  F   UNL A   1      35.586  34.498  28.583  1.00  0.00    -0.200 F 
ATOM     82  F   UNL A   1      33.790  34.545  30.631  1.00  0.00    -0.200 F 
ENDBRANCH  48  72
BRANCH  60  83
ATOM     83  C   UNL A   1      42.151  29.866  33.678  1.00  0.00     0.064 A 
ATOM     84  C   UNL A   1      41.696  28.545  33.520  1.00  0.00     0.173 A 
ATOM     85  C   UNL A   1      42.476  30.282  34.976  1.00  0.00     0.173 A 
ATOM     86  F   UNL A   1      41.452  28.039  32.306  1.00  0.00    -0.203 F 
ATOM     87  C   UNL A   1      41.552  27.691  34.613  1.00  0.00     0.198 A 
ATOM     88  C   UNL A   1      42.367  29.417  36.061  1.00  0.00     0.198 A 
ATOM     89  F   UNL A   1      42.965  31.514  35.183  1.00  0.00    -0.203 F 
ATOM     90  F   UNL A   1      41.120  26.434  34.433  1.00  0.00    -0.200 F 
ATOM     91  C   UNL A   1      41.900  28.125  35.881  1.00  0.00     0.200 A 
ATOM     92  F   UNL A   1      42.752  29.825  37.278  1.00  0.00    -0.200 F 
ATOM     93  F   UNL A   1      41.816  27.288  36.925  1.00  0.00    -0.200 F 
ENDBRANCH  60  83
ENDBRANCH  34  35
ENDBRANCH  26  29
ENDBRANCH  24  25
ENDBRANCH  23  24
ENDBRANCH   1  23
TORSDOF 13
ENDMDL
MODEL 2
REMARK VINA RESULT:     -12.7      3.175      8.851
REMARK SMILES COc1ccc(Cl)c2sc(N3CC(C(=O)NCCCCNC(=O)c4ccc(-c5c6nc(c(-c7c(F)c(F)c(F)c(F)c7F)c7ccc([nH]7)c(-c7c(F)c(F)c(F)c(F)c7F)c7nc(c(-c8c(F)c(F)c(F)c(F)c8F)c8ccc5[nH]8)C=C7)C=C6)cc4)C3)nc12
REMARK SMILES IDX 18 1 17 2 16 3 14 4 15 5 13 7 11 8 12 9 87 10 10 11 3 12
REMARK SMILES IDX 4 13 89 14 5 15 8 16 88 17 6 18 9 19 7 20 2 21 1 22 19 23
REMARK SMILES IDX 20 24 21 25 22 26 23 28 24 29 25 30 86 31 26 32 85 33 27 34
REMARK SMILES IDX 28 35 29 36 79 37 30 38 84 39 78 40 80 41 31 42 83 43 77 44
REMARK SMILES IDX 76 45 32 47 64 48 44 49 63 50 45 51 48 52 62 53 81 54 46 55
REMARK SMILES IDX 47 56 61 58 82 59 49 60 33 61 34 62 42 63 35 64 36 65 40 66
REMARK SMILES IDX 43 67 37 68 38 69 41 70 39 71 65 72 66 73 74 74 67 75 68 76
REMARK SMILES IDX 72 77 75 78 69 79 70 80 73 81 71 82 50 83 51 84 59 85 52 86
REMARK SMILES IDX 53 87 57 88 60 89 54 90 55 91 58 92 56 93
REMARK H PARENT 16 6 21 27 80 46 48 57
REMARK Flexibility Score: inf
ROOT
ATOM      1  C   UNL A   1      31.962  29.849  26.379  1.00  0.00     0.023 C 
ENDROOT
BRANCH   1   2
ATOM      2  C   UNL A   1      32.193  29.583  24.886  1.00  0.00     0.116 C 
BRANCH   2   3
ATOM      3  N   UNL A   1      30.961  29.648  24.125  1.00  0.00    -0.356 N 
ATOM      4  C   UNL A   1      30.182  28.667  23.560  1.00  0.00     0.226 C 
ATOM      5  O   UNL A   1      29.170  29.084  22.972  1.00  0.00    -0.275 OA
ATOM      6  H   UNL A   1      30.620  30.562  23.989  1.00  0.00     0.163 HD
BRANCH   4   7
ATOM      7  C   UNL A   1      30.507  27.175  23.622  1.00  0.00     0.117 C 
ATOM      8  N   UNL A   1      32.034  25.959  24.286  1.00  0.00    -0.346 N 
ATOM      9  C   UNL A   1      30.893  26.501  24.941  1.00  0.00     0.134 C 
ATOM     10  C   UNL A   1      31.787  26.590  23.029  1.00  0.00     0.134 C 
BRANCH   8  11
ATOM     11  C   UNL A   1      32.702  24.806  24.504  1.00  0.00     0.186 A 
ATOM     12  C   UNL A   1      35.508  22.820  25.614  1.00  0.00     0.146 A 
ATOM     13  C   UNL A   1      35.744  21.434  25.552  1.00  0.00     0.050 A 
ATOM     14  C   UNL A   1      34.296  23.340  25.070  1.00  0.00     0.127 A 
ATOM     15  C   UNL A   1      34.827  20.577  24.955  1.00  0.00     0.026 A 
ATOM     16  C   UNL A   1      33.366  22.446  24.530  1.00  0.00     0.079 A 
ATOM     17  N   UNL A   1      33.916  24.686  24.993  1.00  0.00    -0.216 NA
ATOM     18  C   UNL A   1      33.628  21.069  24.442  1.00  0.00     0.060 A 
ATOM     19  S   UNL A   1      31.954  23.318  24.074  1.00  0.00    -0.095 S 
ATOM     20  Cl  UNL A   1      32.511  19.967  23.729  1.00  0.00    -0.083 Cl
BRANCH  12  21
ATOM     21  O   UNL A   1      36.362  23.694  26.245  1.00  0.00    -0.494 OA
ATOM     22  C   UNL A   1      37.746  23.571  25.934  1.00  0.00     0.278 C 
ENDBRANCH  12  21
ENDBRANCH   8  11
ENDBRANCH   4   7
ENDBRANCH   2   3
ENDBRANCH   1   2
BRANCH   1  23
ATOM     23  C   UNL A   1      33.062  29.353  27.332  1.00  0.00     0.023 C 
BRANCH  23  24
ATOM     24  C   UNL A   1      34.353  30.160  27.285  1.00  0.00     0.116 C 
BRANCH  24  25
ATOM     25  N   UNL A   1      34.313  31.338  28.143  1.00  0.00    -0.352 N 
ATOM     26  C   UNL A   1      35.058  31.597  29.275  1.00  0.00     0.251 C 
ATOM     27  H   UNL A   1      33.672  32.039  27.881  1.00  0.00     0.163 HD
ATOM     28  O   UNL A   1      34.684  32.420  30.096  1.00  0.00    -0.269 OA
BRANCH  26  29
ATOM     29  C   UNL A   1      36.331  30.880  29.478  1.00  0.00     0.039 A 
ATOM     30  C   UNL A   1      36.349  29.602  30.048  1.00  0.00     0.014 A 
ATOM     31  C   UNL A   1      37.522  31.523  29.140  1.00  0.00     0.014 A 
ATOM     32  C   UNL A   1      37.570  28.961  30.231  1.00  0.00     0.010 A 
ATOM     33  C   UNL A   1      38.714  30.849  29.208  1.00  0.00     0.010 A 
ATOM     34  C   UNL A   1      38.745  29.595  29.806  1.00  0.00    -0.014 A 
BRANCH  34  35
ATOM     35  C   UNL A   1      40.030  28.924  29.896  1.00  0.00     0.031 A 
ATOM     36  C   UNL A   1      40.573  28.815  31.273  1.00  0.00     0.074 A 
ATOM     37  C   UNL A   1      40.566  28.257  28.851  1.00  0.00     0.049 A 
ATOM     38  N   UNL A   1      41.645  29.361  31.741  1.00  0.00    -0.248 NA
ATOM     39  C   UNL A   1      39.769  28.118  32.291  1.00  0.00     0.031 C 
ATOM     40  C   UNL A   1      39.982  28.016  27.527  1.00  0.00     0.029 A 
ATOM     41  N   UNL A   1      41.730  27.559  28.795  1.00  0.00    -0.354 N 
ATOM     42  C   UNL A   1      41.755  28.934  33.060  1.00  0.00     0.074 A 
ATOM     43  C   UNL A   1      40.496  28.322  33.392  1.00  0.00     0.031 C 
ATOM     44  C   UNL A   1      40.689  27.056  26.890  1.00  0.00     0.029 A 
ATOM     45  C   UNL A   1      41.854  26.726  27.691  1.00  0.00     0.049 A 
ATOM     46  H   UNL A   1      42.431  27.639  29.482  1.00  0.00     0.167 HD
ATOM     47  C   UNL A   1      42.962  28.914  33.690  1.00  0.00     0.037 A 
ATOM     48  C   UNL A   1      42.832  25.807  27.481  1.00  0.00     0.037 A 
ATOM     49  C   UNL A   1      43.929  29.711  32.978  1.00  0.00     0.049 A 
ATOM     50  C   UNL A   1      43.971  26.174  28.361  1.00  0.00     0.074 A 
ATOM     51  C   UNL A   1      44.004  31.045  32.622  1.00  0.00     0.029 A 
ATOM     52  N   UNL A   1      44.831  29.060  32.172  1.00  0.00    -0.354 N 
ATOM     53  N   UNL A   1      44.693  27.248  28.194  1.00  0.00    -0.248 NA
ATOM     54  C   UNL A   1      43.993  25.608  29.703  1.00  0.00     0.031 C 
ATOM     55  C   UNL A   1      44.553  31.042  31.307  1.00  0.00     0.029 A 
ATOM     56  C   UNL A   1      44.855  29.721  30.970  1.00  0.00     0.049 A 
ATOM     57  H   UNL A   1      45.361  28.265  32.412  1.00  0.00     0.167 HD
ATOM     58  C   UNL A   1      44.900  27.735  29.476  1.00  0.00     0.074 A 
ATOM     59  C   UNL A   1      44.512  26.644  30.369  1.00  0.00     0.031 C 
ATOM     60  C   UNL A   1      45.077  29.069  29.702  1.00  0.00     0.037 A 
BRANCH  47  61
ATOM     61  C   UNL A   1      43.379  27.900  34.728  1.00  0.00     0.064 A 
ATOM     62  C   UNL A   1      43.789  28.352  35.999  1.00  0.00     0.173 A 
ATOM     63  C   UNL A   1      43.681  26.553  34.434  1.00  0.00     0.173 A 
ATOM     64  F   UNL A   1      43.568  29.619  36.379  1.00  0.00    -0.203 F 
ATOM     65  C   UNL A   1      44.521  27.542  36.870  1.00  0.00     0.198 A 
ATOM     66  C   UNL A   1      44.364  25.731  35.330  1.00  0.00     0.198 A 
ATOM     67  F   UNL A   1      43.439  26.010  33.238  1.00  0.00    -0.203 F 
ATOM     68  F   UNL A   1      45.005  28.056  38.008  1.00  0.00    -0.200 F 
ATOM     69  C   UNL A   1      44.814  26.234  36.532  1.00  0.00     0.200 A 
ATOM     70  F   UNL A   1      44.653  24.471  34.976  1.00  0.00    -0.200 F 
ATOM     71  F   UNL A   1      45.571  25.475  37.336  1.00  0.00    -0.200 F 
ENDBRANCH  47  61
BRANCH  48  72
ATOM     72  C   UNL A   1      42.740  24.493  26.799  1.00  0.00     0.064 A 
ATOM     73  C   UNL A   1      43.302  24.290  25.527  1.00  0.00     0.173 A 
ATOM     74  C   UNL A   1      42.345  23.334  27.495  1.00  0.00     0.173 A 
ATOM     75  F   UNL A   1      43.748  25.334  24.813  1.00  0.00    -0.203 F 
ATOM     76  C   UNL A   1      43.480  23.007  24.996  1.00  0.00     0.198 A 
ATOM     77  C   UNL A   1      42.517  22.055  26.963  1.00  0.00     0.198 A 
ATOM     78  F   UNL A   1      41.870  23.413  28.747  1.00  0.00    -0.203 F 
ATOM     79  F   UNL A   1      44.076  22.851  23.805  1.00  0.00    -0.200 F 
ATOM     80  C   UNL A   1      43.097  21.890  25.720  1.00  0.00     0.200 A 
ATOM     81  F   UNL A   1      42.177  20.981  27.691  1.00  0.00    -0.200 F 
ATOM     82  F   UNL A   1      43.323  20.659  25.240  1.00  0.00    -0.200 F 
ENDBRANCH  48  72
BRANCH  60  83
ATOM     83  C   UNL A   1      45.276  29.973  28.517  1.00  0.00     0.064 A 
ATOM     84  C   UNL A   1      44.229  30.612  27.831  1.00  0.00     0.173 A 
ATOM     85  C   UNL A   1      46.584  30.355  28.191  1.00  0.00     0.173 A 
ATOM     86  F   UNL A   1      42.950  30.374  28.144  1.00  0.00    -0.203 F 
ATOM     87  C   UNL A   1      44.482  31.570  26.850  1.00  0.00     0.198 A 
ATOM     88  C   UNL A   1      46.834  31.339  27.238  1.00  0.00     0.198 A 
ATOM     89  F   UNL A   1      47.624  29.819  28.850  1.00  0.00    -0.203 F 
ATOM     90  F   UNL A   1      43.463  32.168  26.213  1.00  0.00    -0.200 F 
ATOM     91  C   UNL A   1      45.785  31.942  26.564  1.00  0.00     0.200 A 
ATOM     92  F   UNL A   1      48.094  31.730  27.002  1.00  0.00    -0.200 F 
ATOM     93  F   UNL A   1      46.029  32.903  25.662  1.00  0.00    -0.200 F 
ENDBRANCH  60  83
ENDBRANCH  34  35
ENDBRANCH  26  29
ENDBRANCH  24  25
ENDBRANCH  23  24
ENDBRANCH   1  23
TORSDOF 13
ENDMDL
MODEL 3
REMARK VINA RESULT:     -12.7      2.519      3.625
REMARK SMILES COc1ccc(Cl)c2sc(N3CC(C(=O)NCCCCNC(=O)c4ccc(-c5c6nc(c(-c7c(F)c(F)c(F)c(F)c7F)c7ccc([nH]7)c(-c7c(F)c(F)c(F)c(F)c7F)c7nc(c(-c8c(F)c(F)c(F)c(F)c8F)c8ccc5[nH]8)C=C7)C=C6)cc4)C3)nc12
REMARK SMILES IDX 18 1 17 2 16 3 14 4 15 5 13 7 11 8 12 9 87 10 10 11 3 12
REMARK SMILES IDX 4 13 89 14 5 15 8 16 88 17 6 18 9 19 7 20 2 21 1 22 19 23
REMARK SMILES IDX 20 24 21 25 22 26 23 28 24 29 25 30 86 31 26 32 85 33 27 34
REMARK SMILES IDX 28 35 29 36 79 37 30 38 84 39 78 40 80 41 31 42 83 43 77 44
REMARK SMILES IDX 76 45 32 47 64 48 44 49 63 50 45 51 48 52 62 53 81 54 46 55
REMARK SMILES IDX 47 56 61 58 82 59 49 60 33 61 34 62 42 63 35 64 36 65 40 66
REMARK SMILES IDX 43 67 37 68 38 69 41 70 39 71 65 72 66 73 74 74 67 75 68 76
REMARK SMILES IDX 72 77 75 78 69 79 70 80 73 81 71 82 50 83 51 84 59 85 52 86
REMARK SMILES IDX 53 87 57 88 60 89 54 90 55 91 58 92 56 93
REMARK H PARENT 16 6 21 27 80 46 48 57
REMARK Flexibility Score: inf
ROOT
ATOM      1  C   UNL A   1      40.983  21.192  27.583  1.00  0.00     0.023 C 
ENDROOT
BRANCH   1   2
ATOM      2  C   UNL A   1      40.235  21.856  26.420  1.00  0.00     0.116 C 
BRANCH   2   3
ATOM      3  N   UNL A   1      39.168  21.018  25.909  1.00  0.00    -0.356 N 
ATOM      4  C   UNL A   1      37.920  21.322  25.421  1.00  0.00     0.226 C 
ATOM      5  O   UNL A   1      37.253  20.339  25.056  1.00  0.00    -0.275 OA
ATOM      6  H   UNL A   1      39.376  20.055  25.913  1.00  0.00     0.163 HD
BRANCH   4   7
ATOM      7  C   UNL A   1      37.361  22.742  25.328  1.00  0.00     0.117 C 
ATOM      8  N   UNL A   1      35.610  23.672  24.761  1.00  0.00    -0.346 N 
ATOM      9  C   UNL A   1      36.039  23.120  26.000  1.00  0.00     0.134 C 
ATOM     10  C   UNL A   1      36.785  23.312  24.034  1.00  0.00     0.134 C 
BRANCH   8  11
ATOM     11  C   UNL A   1      34.774  24.701  24.505  1.00  0.00     0.186 A 
ATOM     12  C   UNL A   1      33.184  27.867  25.211  1.00  0.00     0.146 A 
ATOM     13  C   UNL A   1      32.182  28.574  24.522  1.00  0.00     0.050 A 
ATOM     14  C   UNL A   1      33.615  26.606  24.702  1.00  0.00     0.127 A 
ATOM     15  C   UNL A   1      31.600  28.054  23.371  1.00  0.00     0.026 A 
ATOM     16  C   UNL A   1      33.053  26.136  23.510  1.00  0.00     0.079 A 
ATOM     17  N   UNL A   1      34.555  25.741  25.278  1.00  0.00    -0.216 NA
ATOM     18  C   UNL A   1      32.029  26.835  22.850  1.00  0.00     0.060 A 
ATOM     19  S   UNL A   1      33.843  24.675  23.059  1.00  0.00    -0.095 S 
ATOM     20  Cl  UNL A   1      31.293  26.237  21.411  1.00  0.00    -0.083 Cl
BRANCH  12  21
ATOM     21  O   UNL A   1      33.825  28.371  26.319  1.00  0.00    -0.494 OA
ATOM     22  C   UNL A   1      33.008  28.682  27.443  1.00  0.00     0.278 C 
ENDBRANCH  12  21
ENDBRANCH   8  11
ENDBRANCH   4   7
ENDBRANCH   2   3
ENDBRANCH   1   2
BRANCH   1  23
ATOM     23  C   UNL A   1      41.993  20.098  27.201  1.00  0.00     0.023 C 
BRANCH  23  24
ATOM     24  C   UNL A   1      42.054  19.782  25.713  1.00  0.00     0.116 C 
BRANCH  24  25
ATOM     25  N   UNL A   1      43.420  19.660  25.218  1.00  0.00    -0.352 N 
ATOM     26  C   UNL A   1      44.310  20.668  24.908  1.00  0.00     0.251 C 
ATOM     27  H   UNL A   1      43.750  18.741  25.088  1.00  0.00     0.163 HD
ATOM     28  O   UNL A   1      45.260  20.459  24.170  1.00  0.00    -0.269 OA
BRANCH  26  29
ATOM     29  C   UNL A   1      44.114  22.007  25.496  1.00  0.00     0.039 A 
ATOM     30  C   UNL A   1      43.306  22.955  24.858  1.00  0.00     0.014 A 
ATOM     31  C   UNL A   1      44.793  22.327  26.671  1.00  0.00     0.014 A 
ATOM     32  C   UNL A   1      43.152  24.210  25.439  1.00  0.00     0.010 A 
ATOM     33  C   UNL A   1      44.549  23.517  27.307  1.00  0.00     0.010 A 
ATOM     34  C   UNL A   1      43.779  24.478  26.664  1.00  0.00    -0.014 A 
BRANCH  34  35
ATOM     35  C   UNL A   1      43.571  25.743  27.348  1.00  0.00     0.031 A 
ATOM     36  C   UNL A   1      44.538  26.808  26.981  1.00  0.00     0.074 A 
ATOM     37  C   UNL A   1      42.460  25.991  28.073  1.00  0.00     0.049 A 
ATOM     38  N   UNL A   1      45.413  27.371  27.744  1.00  0.00    -0.248 NA
ATOM     39  C   UNL A   1      44.632  27.213  25.568  1.00  0.00     0.031 C 
ATOM     40  C   UNL A   1      41.278  25.141  28.254  1.00  0.00     0.029 A 
ATOM     41  N   UNL A   1      42.113  27.126  28.735  1.00  0.00    -0.354 N 
ATOM     42  C   UNL A   1      46.048  28.331  26.963  1.00  0.00     0.074 A 
ATOM     43  C   UNL A   1      45.655  28.070  25.603  1.00  0.00     0.031 C 
ATOM     44  C   UNL A   1      40.273  25.871  28.784  1.00  0.00     0.029 A 
ATOM     45  C   UNL A   1      40.780  27.190  29.119  1.00  0.00     0.049 A 
ATOM     46  H   UNL A   1      42.756  27.846  28.927  1.00  0.00     0.167 HD
ATOM     47  C   UNL A   1      46.661  29.405  27.535  1.00  0.00     0.037 A 
ATOM     48  C   UNL A   1      40.142  28.269  29.640  1.00  0.00     0.037 A 
ATOM     49  C   UNL A   1      46.875  29.186  28.943  1.00  0.00     0.049 A 
ATOM     50  C   UNL A   1      41.189  29.182  30.167  1.00  0.00     0.074 A 
ATOM     51  C   UNL A   1      47.575  28.246  29.677  1.00  0.00     0.029 A 
ATOM     52  N   UNL A   1      45.998  29.770  29.824  1.00  0.00    -0.354 N 
ATOM     53  N   UNL A   1      41.939  28.899  31.197  1.00  0.00    -0.248 NA
ATOM     54  C   UNL A   1      41.730  30.181  29.256  1.00  0.00     0.031 C 
ATOM     55  C   UNL A   1      46.743  27.968  30.801  1.00  0.00     0.029 A 
ATOM     56  C   UNL A   1      45.630  28.808  30.730  1.00  0.00     0.049 A 
ATOM     57  H   UNL A   1      45.691  30.706  29.809  1.00  0.00     0.167 HD
ATOM     58  C   UNL A   1      43.204  29.341  30.843  1.00  0.00     0.074 A 
ATOM     59  C   UNL A   1      43.000  30.191  29.671  1.00  0.00     0.031 C 
ATOM     60  C   UNL A   1      44.324  28.743  31.343  1.00  0.00     0.037 A 
BRANCH  47  61
ATOM     61  C   UNL A   1      46.737  30.782  26.924  1.00  0.00     0.064 A 
ATOM     62  C   UNL A   1      47.974  31.460  26.916  1.00  0.00     0.173 A 
ATOM     63  C   UNL A   1      45.608  31.577  26.631  1.00  0.00     0.173 A 
ATOM     64  F   UNL A   1      49.113  30.807  27.196  1.00  0.00    -0.203 F 
ATOM     65  C   UNL A   1      48.060  32.839  26.717  1.00  0.00     0.198 A 
ATOM     66  C   UNL A   1      45.705  32.945  26.377  1.00  0.00     0.198 A 
ATOM     67  F   UNL A   1      44.362  31.098  26.691  1.00  0.00    -0.203 F 
ATOM     68  F   UNL A   1      49.240  33.459  26.852  1.00  0.00    -0.200 F 
ATOM     69  C   UNL A   1      46.925  33.582  26.454  1.00  0.00     0.200 A 
ATOM     70  F   UNL A   1      44.589  33.649  26.142  1.00  0.00    -0.200 F 
ATOM     71  F   UNL A   1      46.995  34.913  26.326  1.00  0.00    -0.200 F 
ENDBRANCH  47  61
BRANCH  48  72
ATOM     72  C   UNL A   1      38.732  28.692  29.458  1.00  0.00     0.064 A 
ATOM     73  C   UNL A   1      37.900  28.952  30.561  1.00  0.00     0.173 A 
ATOM     74  C   UNL A   1      38.253  29.118  28.204  1.00  0.00     0.173 A 
ATOM     75  F   UNL A   1      38.298  28.622  31.798  1.00  0.00    -0.203 F 
ATOM     76  C   UNL A   1      36.677  29.620  30.420  1.00  0.00     0.198 A 
ATOM     77  C   UNL A   1      37.031  29.778  28.063  1.00  0.00     0.198 A 
ATOM     78  F   UNL A   1      39.004  28.988  27.101  1.00  0.00    -0.203 F 
ATOM     79  F   UNL A   1      35.941  29.904  31.503  1.00  0.00    -0.200 F 
ATOM     80  C   UNL A   1      36.249  30.041  29.172  1.00  0.00     0.200 A 
ATOM     81  F   UNL A   1      36.646  30.214  26.855  1.00  0.00    -0.200 F 
ATOM     82  F   UNL A   1      35.109  30.734  29.044  1.00  0.00    -0.200 F 
ENDBRANCH  48  72
BRANCH  60  83
ATOM     83  C   UNL A   1      44.164  27.750  32.461  1.00  0.00     0.064 A 
ATOM     84  C   UNL A   1      44.065  26.361  32.270  1.00  0.00     0.173 A 
ATOM     85  C   UNL A   1      44.313  28.208  33.776  1.00  0.00     0.173 A 
ATOM     86  F   UNL A   1      44.014  25.834  31.041  1.00  0.00    -0.203 F 
ATOM     87  C   UNL A   1      44.090  25.477  33.348  1.00  0.00     0.198 A 
ATOM     88  C   UNL A   1      44.375  27.322  34.848  1.00  0.00     0.198 A 
ATOM     89  F   UNL A   1      44.465  29.520  34.017  1.00  0.00    -0.203 F 
ATOM     90  F   UNL A   1      43.998  24.155  33.137  1.00  0.00    -0.200 F 
ATOM     91  C   UNL A   1      44.258  25.959  34.635  1.00  0.00     0.200 A 
ATOM     92  F   UNL A   1      44.588  27.791  36.086  1.00  0.00    -0.200 F 
ATOM     93  F   UNL A   1      44.339  25.107  35.668  1.00  0.00    -0.200 F 
ENDBRANCH  60  83
ENDBRANCH  34  35
ENDBRANCH  26  29
ENDBRANCH  24  25
ENDBRANCH  23  24
ENDBRANCH   1  23
TORSDOF 13
ENDMDL
