MODEL 1
REMARK VINA RESULT:     -13.7      0.000      0.000
REMARK SMILES O=C(NCCCCNC(=O)[C@H]1[C@@H](C(=O)NN2CCOCC2)[C@H]2C=C[C@@H]1CC2)c1ccc(-c2c3nc(c(-c4c(F)c(F)c(F)c(F)c4F)c4ccc([nH]4)c(-c4c(F)c(F)c(F)c(F)c4F)c4nc(c(-c5c(F)c(F)c(F)c(F)c5F)c5ccc2[nH]5)C=C4)C=C3)cc1
REMARK SMILES IDX 5 1 4 2 3 3 1 4 2 5 28 7 29 8 90 9 30 10 89 11 31 12 32 13
REMARK SMILES IDX 33 14 83 15 34 16 88 17 82 18 84 19 35 20 87 21 81 22 80 23
REMARK SMILES IDX 36 25 68 26 48 27 67 28 49 29 52 30 66 31 85 32 50 33 51 34
REMARK SMILES IDX 65 36 86 37 53 38 37 39 38 40 46 41 39 42 40 43 44 44 47 45
REMARK SMILES IDX 41 46 42 47 45 48 43 49 69 50 70 51 78 52 71 53 72 54 76 55
REMARK SMILES IDX 79 56 73 57 74 58 77 59 75 60 54 61 55 62 63 63 56 64 57 65
REMARK SMILES IDX 61 66 64 67 58 68 59 69 62 70 60 71 6 72 7 73 8 74 9 75
REMARK SMILES IDX 10 77 11 78 12 79 25 80 22 81 24 82 26 83 23 84 27 85 13 86
REMARK SMILES IDX 14 87 15 88 16 90 17 91 21 92 18 93 20 94 19 95
REMARK H PARENT 3 6 84 24 52 35 8 76 15 89
REMARK Flexibility Score: inf
ROOT
ATOM      1  C   UNL A   1      31.481  32.433  26.638  1.00  0.00     0.023 C 
ENDROOT
BRANCH   1   2
ATOM      2  C   UNL A   1      32.679  32.987  27.378  1.00  0.00     0.116 C 
BRANCH   2   3
ATOM      3  N   UNL A   1      32.463  34.387  27.720  1.00  0.00    -0.352 N 
ATOM      4  O   UNL A   1      32.527  36.162  29.122  1.00  0.00    -0.269 OA
ATOM      5  C   UNL A   1      33.011  35.097  28.749  1.00  0.00     0.251 C 
ATOM      6  H   UNL A   1      31.846  34.884  27.137  1.00  0.00     0.163 HD
BRANCH   5   7
ATOM      7  C   UNL A   1      34.207  34.540  29.393  1.00  0.00     0.039 A 
ATOM      8  C   UNL A   1      34.065  33.887  30.620  1.00  0.00     0.014 A 
ATOM      9  C   UNL A   1      35.455  34.693  28.793  1.00  0.00     0.014 A 
ATOM     10  C   UNL A   1      35.187  33.504  31.322  1.00  0.00     0.010 A 
ATOM     11  C   UNL A   1      36.574  34.173  29.436  1.00  0.00     0.010 A 
ATOM     12  C   UNL A   1      36.440  33.570  30.698  1.00  0.00    -0.014 A 
BRANCH  12  13
ATOM     13  C   UNL A   1      37.552  32.815  31.305  1.00  0.00     0.031 A 
ATOM     14  C   UNL A   1      38.186  31.659  30.604  1.00  0.00     0.074 A 
ATOM     15  C   UNL A   1      37.963  33.214  32.526  1.00  0.00     0.049 A 
ATOM     16  N   UNL A   1      39.135  30.870  31.033  1.00  0.00    -0.248 NA
ATOM     17  C   UNL A   1      37.693  31.335  29.256  1.00  0.00     0.031 C 
ATOM     18  C   UNL A   1      37.383  34.329  33.287  1.00  0.00     0.029 A 
ATOM     19  N   UNL A   1      38.955  32.745  33.341  1.00  0.00    -0.354 N 
ATOM     20  C   UNL A   1      39.337  29.939  30.026  1.00  0.00     0.074 A 
ATOM     21  C   UNL A   1      38.406  30.254  28.963  1.00  0.00     0.031 C 
ATOM     22  C   UNL A   1      38.052  34.480  34.435  1.00  0.00     0.029 A 
ATOM     23  C   UNL A   1      39.038  33.416  34.537  1.00  0.00     0.049 A 
ATOM     24  H   UNL A   1      39.551  32.000  33.095  1.00  0.00     0.167 HD
ATOM     25  C   UNL A   1      40.222  28.917  30.010  1.00  0.00     0.037 A 
ATOM     26  C   UNL A   1      39.790  33.166  35.622  1.00  0.00     0.037 A 
ATOM     27  C   UNL A   1      41.149  28.641  31.079  1.00  0.00     0.049 A 
ATOM     28  C   UNL A   1      40.728  31.998  35.578  1.00  0.00     0.074 A 
ATOM     29  C   UNL A   1      42.138  27.676  31.131  1.00  0.00     0.029 A 
ATOM     30  N   UNL A   1      41.190  29.322  32.288  1.00  0.00    -0.354 N 
ATOM     31  N   UNL A   1      40.961  31.164  34.594  1.00  0.00    -0.248 NA
ATOM     32  C   UNL A   1      41.498  31.726  36.795  1.00  0.00     0.031 C 
ATOM     33  C   UNL A   1      42.728  27.725  32.397  1.00  0.00     0.029 A 
ATOM     34  C   UNL A   1      42.153  28.762  33.112  1.00  0.00     0.049 A 
ATOM     35  H   UNL A   1      40.619  30.089  32.526  1.00  0.00     0.167 HD
ATOM     36  C   UNL A   1      41.909  30.274  35.068  1.00  0.00     0.074 A 
ATOM     37  C   UNL A   1      42.236  30.694  36.416  1.00  0.00     0.031 C 
ATOM     38  C   UNL A   1      42.454  29.198  34.452  1.00  0.00     0.037 A 
BRANCH  25  39
ATOM     39  C   UNL A   1      40.228  27.993  28.829  1.00  0.00     0.064 A 
ATOM     40  C   UNL A   1      40.957  28.281  27.667  1.00  0.00     0.173 A 
ATOM     41  C   UNL A   1      39.580  26.751  28.908  1.00  0.00     0.173 A 
ATOM     42  F   UNL A   1      41.586  29.459  27.537  1.00  0.00    -0.203 F 
ATOM     43  C   UNL A   1      41.037  27.358  26.627  1.00  0.00     0.198 A 
ATOM     44  C   UNL A   1      39.682  25.820  27.879  1.00  0.00     0.198 A 
ATOM     45  F   UNL A   1      38.871  26.427  30.000  1.00  0.00    -0.203 F 
ATOM     46  F   UNL A   1      41.725  27.659  25.517  1.00  0.00    -0.200 F 
ATOM     47  C   UNL A   1      40.411  26.124  26.739  1.00  0.00     0.200 A 
ATOM     48  F   UNL A   1      39.090  24.624  27.995  1.00  0.00    -0.200 F 
ATOM     49  F   UNL A   1      40.512  25.227  25.748  1.00  0.00    -0.200 F 
ENDBRANCH  25  39
BRANCH  26  50
ATOM     50  C   UNL A   1      39.633  33.994  36.845  1.00  0.00     0.064 A 
ATOM     51  C   UNL A   1      38.831  33.568  37.911  1.00  0.00     0.173 A 
ATOM     52  C   UNL A   1      40.266  35.242  36.964  1.00  0.00     0.173 A 
ATOM     53  F   UNL A   1      38.196  32.389  37.841  1.00  0.00    -0.203 F 
ATOM     54  C   UNL A   1      38.638  34.373  39.031  1.00  0.00     0.198 A 
ATOM     55  C   UNL A   1      40.105  36.028  38.101  1.00  0.00     0.198 A 
ATOM     56  F   UNL A   1      41.054  35.695  35.977  1.00  0.00    -0.203 F 
ATOM     57  F   UNL A   1      37.812  33.970  40.006  1.00  0.00    -0.200 F 
ATOM     58  C   UNL A   1      39.278  35.599  39.128  1.00  0.00     0.200 A 
ATOM     59  F   UNL A   1      40.744  37.201  38.199  1.00  0.00    -0.200 F 
ATOM     60  F   UNL A   1      39.088  36.375  40.203  1.00  0.00    -0.200 F 
ENDBRANCH  26  50
BRANCH  38  61
ATOM     61  C   UNL A   1      43.464  28.412  35.233  1.00  0.00     0.064 A 
ATOM     62  C   UNL A   1      43.081  27.334  36.045  1.00  0.00     0.173 A 
ATOM     63  C   UNL A   1      44.829  28.718  35.144  1.00  0.00     0.173 A 
ATOM     64  F   UNL A   1      41.784  27.016  36.180  1.00  0.00    -0.203 F 
ATOM     65  C   UNL A   1      44.028  26.607  36.759  1.00  0.00     0.198 A 
ATOM     66  C   UNL A   1      45.777  27.967  35.831  1.00  0.00     0.198 A 
ATOM     67  F   UNL A   1      45.246  29.738  34.378  1.00  0.00    -0.203 F 
ATOM     68  F   UNL A   1      43.635  25.616  37.571  1.00  0.00    -0.200 F 
ATOM     69  C   UNL A   1      45.375  26.917  36.644  1.00  0.00     0.200 A 
ATOM     70  F   UNL A   1      47.079  28.258  35.707  1.00  0.00    -0.200 F 
ATOM     71  F   UNL A   1      46.287  26.209  37.324  1.00  0.00    -0.200 F 
ENDBRANCH  38  61
ENDBRANCH  12  13
ENDBRANCH   5   7
ENDBRANCH   2   3
ENDBRANCH   1   2
BRANCH   1  72
ATOM     72  C   UNL A   1      31.571  30.932  26.462  1.00  0.00     0.023 C 
BRANCH  72  73
ATOM     73  C   UNL A   1      32.701  30.267  27.249  1.00  0.00     0.116 C 
BRANCH  73  74
ATOM     74  N   UNL A   1      32.982  28.922  26.800  1.00  0.00    -0.356 N 
ATOM     75  C   UNL A   1      32.735  28.375  25.567  1.00  0.00     0.224 C 
ATOM     76  H   UNL A   1      33.404  28.325  27.460  1.00  0.00     0.163 HD
ATOM     77  O   UNL A   1      33.646  28.199  24.760  1.00  0.00    -0.275 OA
BRANCH  75  78
ATOM     78  C   UNL A   1      31.318  27.834  25.309  1.00  0.00     0.098 C 
ATOM     79  C   UNL A   1      30.871  27.785  23.836  1.00  0.00     0.100 C 
ATOM     80  C   UNL A   1      31.247  26.384  25.908  1.00  0.00     0.025 C 
ATOM     81  C   UNL A   1      31.162  26.285  23.317  1.00  0.00     0.025 C 
ATOM     82  C   UNL A   1      32.410  25.624  25.312  1.00  0.00    -0.027 C 
ATOM     83  C   UNL A   1      29.985  25.605  25.421  1.00  0.00     0.009 C 
ATOM     84  C   UNL A   1      32.369  25.582  23.970  1.00  0.00    -0.027 C 
ATOM     85  C   UNL A   1      30.023  25.407  23.877  1.00  0.00     0.009 C 
BRANCH  79  86
ATOM     86  C   UNL A   1      31.229  28.928  22.836  1.00  0.00     0.238 C 
ATOM     87  O   UNL A   1      32.281  28.845  22.186  1.00  0.00    -0.273 OA
ATOM     88  N   UNL A   1      30.458  30.073  22.575  1.00  0.00    -0.288 N 
ATOM     89  H   UNL A   1      30.927  30.796  22.100  1.00  0.00     0.185 HD
BRANCH  88  90
ATOM     90  N   UNL A   1      29.086  30.341  22.900  1.00  0.00    -0.217 NA
ATOM     91  C   UNL A   1      28.255  30.388  21.659  1.00  0.00     0.136 C 
ATOM     92  C   UNL A   1      28.775  31.627  23.634  1.00  0.00     0.136 C 
ATOM     93  C   UNL A   1      28.304  31.726  20.883  1.00  0.00     0.177 C 
ATOM     94  C   UNL A   1      28.778  32.931  22.823  1.00  0.00     0.177 C 
ATOM     95  O   UNL A   1      27.909  32.829  21.701  1.00  0.00    -0.379 OA
ENDBRANCH  88  90
ENDBRANCH  79  86
ENDBRANCH  75  78
ENDBRANCH  73  74
ENDBRANCH  72  73
ENDBRANCH   1  72
TORSDOF 13
ENDMDL
MODEL 2
REMARK VINA RESULT:     -13.7      0.121      1.127
REMARK SMILES O=C(NCCCCNC(=O)[C@H]1[C@@H](C(=O)NN2CCOCC2)[C@H]2C=C[C@@H]1CC2)c1ccc(-c2c3nc(c(-c4c(F)c(F)c(F)c(F)c4F)c4ccc([nH]4)c(-c4c(F)c(F)c(F)c(F)c4F)c4nc(c(-c5c(F)c(F)c(F)c(F)c5F)c5ccc2[nH]5)C=C4)C=C3)cc1
REMARK SMILES IDX 5 1 4 2 3 3 1 4 2 5 28 7 29 8 90 9 30 10 89 11 31 12 32 13
REMARK SMILES IDX 33 14 83 15 34 16 88 17 82 18 84 19 35 20 87 21 81 22 80 23
REMARK SMILES IDX 36 25 68 26 48 27 67 28 49 29 52 30 66 31 85 32 50 33 51 34
REMARK SMILES IDX 65 36 86 37 53 38 37 39 38 40 46 41 39 42 40 43 44 44 47 45
REMARK SMILES IDX 41 46 42 47 45 48 43 49 69 50 70 51 78 52 71 53 72 54 76 55
REMARK SMILES IDX 79 56 73 57 74 58 77 59 75 60 54 61 55 62 63 63 56 64 57 65
REMARK SMILES IDX 61 66 64 67 58 68 59 69 62 70 60 71 6 72 7 73 8 74 9 75
REMARK SMILES IDX 10 77 11 78 12 79 25 80 22 81 24 82 26 83 23 84 27 85 13 86
REMARK SMILES IDX 14 87 15 88 16 90 17 91 21 92 18 93 20 94 19 95
REMARK H PARENT 3 6 84 24 52 35 8 76 15 89
REMARK Flexibility Score: inf
ROOT
ATOM      1  C   UNL A   1      31.527  32.372  26.716  1.00  0.00     0.023 C 
ENDROOT
BRANCH   1   2
ATOM      2  C   UNL A   1      32.764  32.980  27.340  1.00  0.00     0.116 C 
BRANCH   2   3
ATOM      3  N   UNL A   1      32.514  34.365  27.719  1.00  0.00    -0.352 N 
ATOM      4  O   UNL A   1      32.528  36.100  29.170  1.00  0.00    -0.269 OA
ATOM      5  C   UNL A   1      33.039  35.057  28.772  1.00  0.00     0.251 C 
ATOM      6  H   UNL A   1      31.890  34.864  27.145  1.00  0.00     0.163 HD
BRANCH   5   7
ATOM      7  C   UNL A   1      34.242  34.510  29.409  1.00  0.00     0.039 A 
ATOM      8  C   UNL A   1      34.105  33.811  30.612  1.00  0.00     0.014 A 
ATOM      9  C   UNL A   1      35.491  34.714  28.828  1.00  0.00     0.014 A 
ATOM     10  C   UNL A   1      35.230  33.433  31.312  1.00  0.00     0.010 A 
ATOM     11  C   UNL A   1      36.618  34.201  29.465  1.00  0.00     0.010 A 
ATOM     12  C   UNL A   1      36.486  33.552  30.704  1.00  0.00    -0.014 A 
BRANCH  12  13
ATOM     13  C   UNL A   1      37.612  32.806  31.297  1.00  0.00     0.031 A 
ATOM     14  C   UNL A   1      38.242  31.651  30.590  1.00  0.00     0.074 A 
ATOM     15  C   UNL A   1      38.038  33.210  32.510  1.00  0.00     0.049 A 
ATOM     16  N   UNL A   1      39.202  30.868  31.007  1.00  0.00    -0.248 NA
ATOM     17  C   UNL A   1      37.731  31.320  29.250  1.00  0.00     0.031 C 
ATOM     18  C   UNL A   1      37.462  34.324  33.277  1.00  0.00     0.029 A 
ATOM     19  N   UNL A   1      39.045  32.749  33.312  1.00  0.00    -0.354 N 
ATOM     20  C   UNL A   1      39.394  29.936  29.999  1.00  0.00     0.074 A 
ATOM     21  C   UNL A   1      38.446  30.242  28.949  1.00  0.00     0.031 C 
ATOM     22  C   UNL A   1      38.148  34.482  34.414  1.00  0.00     0.029 A 
ATOM     23  C   UNL A   1      39.141  33.424  34.504  1.00  0.00     0.049 A 
ATOM     24  H   UNL A   1      39.642  32.007  33.060  1.00  0.00     0.167 HD
ATOM     25  C   UNL A   1      40.284  28.918  29.974  1.00  0.00     0.037 A 
ATOM     26  C   UNL A   1      39.910  33.182  35.579  1.00  0.00     0.037 A 
ATOM     27  C   UNL A   1      41.228  28.651  31.030  1.00  0.00     0.049 A 
ATOM     28  C   UNL A   1      40.854  32.018  35.525  1.00  0.00     0.074 A 
ATOM     29  C   UNL A   1      42.224  27.692  31.070  1.00  0.00     0.029 A 
ATOM     30  N   UNL A   1      41.283  29.336  32.236  1.00  0.00    -0.354 N 
ATOM     31  N   UNL A   1      41.077  31.183  34.540  1.00  0.00    -0.248 NA
ATOM     32  C   UNL A   1      41.643  31.754  36.732  1.00  0.00     0.031 C 
ATOM     33  C   UNL A   1      42.832  27.748  32.327  1.00  0.00     0.029 A 
ATOM     34  C   UNL A   1      42.262  28.784  33.048  1.00  0.00     0.049 A 
ATOM     35  H   UNL A   1      40.712  30.100  32.480  1.00  0.00     0.167 HD
ATOM     36  C   UNL A   1      42.038  30.300  35.003  1.00  0.00     0.074 A 
ATOM     37  C   UNL A   1      42.382  30.726  36.345  1.00  0.00     0.031 C 
ATOM     38  C   UNL A   1      42.580  29.225  34.382  1.00  0.00     0.037 A 
BRANCH  25  39
ATOM     39  C   UNL A   1      40.279  27.992  28.795  1.00  0.00     0.064 A 
ATOM     40  C   UNL A   1      41.033  28.253  27.643  1.00  0.00     0.173 A 
ATOM     41  C   UNL A   1      39.591  26.770  28.869  1.00  0.00     0.173 A 
ATOM     42  F   UNL A   1      41.699  29.410  27.519  1.00  0.00    -0.203 F 
ATOM     43  C   UNL A   1      41.099  27.324  26.607  1.00  0.00     0.198 A 
ATOM     44  C   UNL A   1      39.679  25.834  27.843  1.00  0.00     0.198 A 
ATOM     45  F   UNL A   1      38.857  26.472  29.951  1.00  0.00    -0.203 F 
ATOM     46  F   UNL A   1      41.811  27.601  25.506  1.00  0.00    -0.200 F 
ATOM     47  C   UNL A   1      40.433  26.111  26.713  1.00  0.00     0.200 A 
ATOM     48  F   UNL A   1      39.048  24.657  27.954  1.00  0.00    -0.200 F 
ATOM     49  F   UNL A   1      40.520  25.208  25.726  1.00  0.00    -0.200 F 
ENDBRANCH  25  39
BRANCH  26  50
ATOM     50  C   UNL A   1      39.766  34.012  36.802  1.00  0.00     0.064 A 
ATOM     51  C   UNL A   1      38.942  33.609  37.860  1.00  0.00     0.173 A 
ATOM     52  C   UNL A   1      40.436  35.240  36.929  1.00  0.00     0.173 A 
ATOM     53  F   UNL A   1      38.273  32.449  37.782  1.00  0.00    -0.203 F 
ATOM     54  C   UNL A   1      38.762  34.418  38.979  1.00  0.00     0.198 A 
ATOM     55  C   UNL A   1      40.287  36.029  38.067  1.00  0.00     0.198 A 
ATOM     56  F   UNL A   1      41.246  35.670  35.951  1.00  0.00    -0.203 F 
ATOM     57  F   UNL A   1      37.915  34.039  39.946  1.00  0.00    -0.200 F 
ATOM     58  C   UNL A   1      39.438  35.624  39.084  1.00  0.00     0.200 A 
ATOM     59  F   UNL A   1      40.961  37.182  38.172  1.00  0.00    -0.200 F 
ATOM     60  F   UNL A   1      39.261  36.404  40.159  1.00  0.00    -0.200 F 
ENDBRANCH  26  50
BRANCH  38  61
ATOM     61  C   UNL A   1      43.606  28.447  35.150  1.00  0.00     0.064 A 
ATOM     62  C   UNL A   1      44.970  28.771  35.080  1.00  0.00     0.173 A 
ATOM     63  C   UNL A   1      43.220  27.392  35.987  1.00  0.00     0.173 A 
ATOM     64  F   UNL A   1      45.390  29.760  34.276  1.00  0.00    -0.203 F 
ATOM     65  C   UNL A   1      45.912  28.047  35.804  1.00  0.00     0.198 A 
ATOM     66  C   UNL A   1      44.161  26.693  36.736  1.00  0.00     0.198 A 
ATOM     67  F   UNL A   1      41.928  27.046  36.090  1.00  0.00    -0.203 F 
ATOM     68  F   UNL A   1      47.214  28.338  35.681  1.00  0.00    -0.200 F 
ATOM     69  C   UNL A   1      45.507  27.016  36.638  1.00  0.00     0.200 A 
ATOM     70  F   UNL A   1      43.767  25.707  37.553  1.00  0.00    -0.200 F 
ATOM     71  F   UNL A   1      46.414  26.327  37.342  1.00  0.00    -0.200 F 
ENDBRANCH  38  61
ENDBRANCH  12  13
ENDBRANCH   5   7
ENDBRANCH   2   3
ENDBRANCH   1   2
BRANCH   1  72
ATOM     72  C   UNL A   1      31.678  30.881  26.499  1.00  0.00     0.023 C 
BRANCH  72  73
ATOM     73  C   UNL A   1      32.881  30.256  27.207  1.00  0.00     0.116 C 
BRANCH  73  74
ATOM     74  N   UNL A   1      33.114  28.884  26.813  1.00  0.00    -0.356 N 
ATOM     75  C   UNL A   1      32.832  28.293  25.609  1.00  0.00     0.224 C 
ATOM     76  H   UNL A   1      33.526  28.304  27.493  1.00  0.00     0.163 HD
ATOM     77  O   UNL A   1      33.726  28.054  24.798  1.00  0.00    -0.275 OA
BRANCH  75  78
ATOM     78  C   UNL A   1      31.395  27.786  25.392  1.00  0.00     0.098 C 
ATOM     79  C   UNL A   1      30.900  27.762  23.935  1.00  0.00     0.100 C 
ATOM     80  C   UNL A   1      31.312  26.333  25.981  1.00  0.00     0.025 C 
ATOM     81  C   UNL A   1      31.139  26.261  23.393  1.00  0.00     0.025 C 
ATOM     82  C   UNL A   1      32.436  25.553  25.340  1.00  0.00    -0.027 C 
ATOM     83  C   UNL A   1      30.017  25.586  25.528  1.00  0.00     0.009 C 
ATOM     84  C   UNL A   1      32.351  25.525  24.000  1.00  0.00    -0.027 C 
ATOM     85  C   UNL A   1      30.000  25.403  23.982  1.00  0.00     0.009 C 
BRANCH  79  86
ATOM     86  C   UNL A   1      31.250  28.907  22.934  1.00  0.00     0.238 C 
ATOM     87  O   UNL A   1      32.291  28.817  22.267  1.00  0.00    -0.273 OA
ATOM     88  N   UNL A   1      30.485  30.058  22.690  1.00  0.00    -0.288 N 
ATOM     89  H   UNL A   1      30.951  30.780  22.210  1.00  0.00     0.185 HD
BRANCH  88  90
ATOM     90  N   UNL A   1      29.120  30.336  23.039  1.00  0.00    -0.217 NA
ATOM     91  C   UNL A   1      28.257  30.328  21.818  1.00  0.00     0.136 C 
ATOM     92  C   UNL A   1      28.823  31.650  23.725  1.00  0.00     0.136 C 
ATOM     93  C   UNL A   1      28.281  31.633  20.985  1.00  0.00     0.177 C 
ATOM     94  C   UNL A   1      28.800  32.919  22.861  1.00  0.00     0.177 C 
ATOM     95  O   UNL A   1      27.903  32.768  21.767  1.00  0.00    -0.379 OA
ENDBRANCH  88  90
ENDBRANCH  79  86
ENDBRANCH  75  78
ENDBRANCH  73  74
ENDBRANCH  72  73
ENDBRANCH   1  72
TORSDOF 13
ENDMDL
MODEL 3
REMARK VINA RESULT:     -13.4      0.391      7.381
REMARK SMILES O=C(NCCCCNC(=O)[C@H]1[C@@H](C(=O)NN2CCOCC2)[C@H]2C=C[C@@H]1CC2)c1ccc(-c2c3nc(c(-c4c(F)c(F)c(F)c(F)c4F)c4ccc([nH]4)c(-c4c(F)c(F)c(F)c(F)c4F)c4nc(c(-c5c(F)c(F)c(F)c(F)c5F)c5ccc2[nH]5)C=C4)C=C3)cc1
REMARK SMILES IDX 5 1 4 2 3 3 1 4 2 5 28 7 29 8 90 9 30 10 89 11 31 12 32 13
REMARK SMILES IDX 33 14 83 15 34 16 88 17 82 18 84 19 35 20 87 21 81 22 80 23
REMARK SMILES IDX 36 25 68 26 48 27 67 28 49 29 52 30 66 31 85 32 50 33 51 34
REMARK SMILES IDX 65 36 86 37 53 38 37 39 38 40 46 41 39 42 40 43 44 44 47 45
REMARK SMILES IDX 41 46 42 47 45 48 43 49 69 50 70 51 78 52 71 53 72 54 76 55
REMARK SMILES IDX 79 56 73 57 74 58 77 59 75 60 54 61 55 62 63 63 56 64 57 65
REMARK SMILES IDX 61 66 64 67 58 68 59 69 62 70 60 71 6 72 7 73 8 74 9 75
REMARK SMILES IDX 10 77 11 78 12 79 25 80 22 81 24 82 26 83 23 84 27 85 13 86
REMARK SMILES IDX 14 87 15 88 16 90 17 91 21 92 18 93 20 94 19 95
REMARK H PARENT 3 6 84 24 52 35 8 76 15 89
REMARK Flexibility Score: inf
ROOT
ATOM      1  C   UNL A   1      31.533  32.333  26.770  1.00  0.00     0.023 C 
ENDROOT
BRANCH   1   2
ATOM      2  C   UNL A   1      32.775  32.901  27.421  1.00  0.00     0.116 C 
BRANCH   2   3
ATOM      3  N   UNL A   1      32.594  34.317  27.715  1.00  0.00    -0.352 N 
ATOM      4  O   UNL A   1      32.652  36.127  29.071  1.00  0.00    -0.269 OA
ATOM      5  C   UNL A   1      33.116  35.035  28.751  1.00  0.00     0.251 C 
ATOM      6  H   UNL A   1      32.024  34.819  27.088  1.00  0.00     0.163 HD
BRANCH   5   7
ATOM      7  C   UNL A   1      34.256  34.456  29.468  1.00  0.00     0.039 A 
ATOM      8  C   UNL A   1      34.028  33.826  30.695  1.00  0.00     0.014 A 
ATOM      9  C   UNL A   1      35.540  34.563  28.938  1.00  0.00     0.014 A 
ATOM     10  C   UNL A   1      35.097  33.423  31.465  1.00  0.00     0.010 A 
ATOM     11  C   UNL A   1      36.606  34.022  29.650  1.00  0.00     0.010 A 
ATOM     12  C   UNL A   1      36.384  33.443  30.911  1.00  0.00    -0.014 A 
BRANCH  12  13
ATOM     13  C   UNL A   1      37.438  32.667  31.590  1.00  0.00     0.031 A 
ATOM     14  C   UNL A   1      37.901  33.014  32.967  1.00  0.00     0.074 A 
ATOM     15  C   UNL A   1      37.970  31.635  30.904  1.00  0.00     0.049 A 
ATOM     16  N   UNL A   1      38.851  32.456  33.670  1.00  0.00    -0.248 NA
ATOM     17  C   UNL A   1      37.223  34.130  33.645  1.00  0.00     0.031 C 
ATOM     18  C   UNL A   1      37.583  31.240  29.543  1.00  0.00     0.029 A 
ATOM     19  N   UNL A   1      38.936  30.729  31.244  1.00  0.00    -0.354 N 
ATOM     20  C   UNL A   1      38.908  33.167  34.859  1.00  0.00     0.074 A 
ATOM     21  C   UNL A   1      37.901  34.204  34.784  1.00  0.00     0.031 C 
ATOM     22  C   UNL A   1      38.274  30.153  29.182  1.00  0.00     0.029 A 
ATOM     23  C   UNL A   1      39.220  29.836  30.240  1.00  0.00     0.049 A 
ATOM     24  H   UNL A   1      39.383  30.717  32.122  1.00  0.00     0.167 HD
ATOM     25  C   UNL A   1      39.738  32.960  35.906  1.00  0.00     0.037 A 
ATOM     26  C   UNL A   1      40.178  28.898  30.157  1.00  0.00     0.037 A 
ATOM     27  C   UNL A   1      40.720  31.905  35.956  1.00  0.00     0.049 A 
ATOM     28  C   UNL A   1      41.104  28.730  31.324  1.00  0.00     0.074 A 
ATOM     29  C   UNL A   1      41.559  31.562  37.000  1.00  0.00     0.029 A 
ATOM     30  N   UNL A   1      41.001  31.034  34.913  1.00  0.00    -0.354 N 
ATOM     31  N   UNL A   1      41.106  29.361  32.473  1.00  0.00    -0.248 NA
ATOM     32  C   UNL A   1      42.167  27.730  31.183  1.00  0.00     0.031 C 
ATOM     33  C   UNL A   1      42.398  30.532  36.564  1.00  0.00     0.029 A 
ATOM     34  C   UNL A   1      42.039  30.189  35.271  1.00  0.00     0.049 A 
ATOM     35  H   UNL A   1      40.535  31.019  34.046  1.00  0.00     0.167 HD
ATOM     36  C   UNL A   1      42.162  28.831  33.194  1.00  0.00     0.074 A 
ATOM     37  C   UNL A   1      42.754  27.799  32.367  1.00  0.00     0.031 C 
ATOM     38  C   UNL A   1      42.612  29.173  34.425  1.00  0.00     0.037 A 
BRANCH  25  39
ATOM     39  C   UNL A   1      39.660  33.893  37.076  1.00  0.00     0.064 A 
ATOM     40  C   UNL A   1      40.314  35.133  37.081  1.00  0.00     0.173 A 
ATOM     41  C   UNL A   1      38.828  33.584  38.164  1.00  0.00     0.173 A 
ATOM     42  F   UNL A   1      41.129  35.472  36.071  1.00  0.00    -0.203 F 
ATOM     43  C   UNL A   1      40.137  36.030  38.132  1.00  0.00     0.198 A 
ATOM     44  C   UNL A   1      38.634  34.492  39.200  1.00  0.00     0.198 A 
ATOM     45  F   UNL A   1      38.179  32.411  38.206  1.00  0.00    -0.203 F 
ATOM     46  F   UNL A   1      40.785  37.203  38.126  1.00  0.00    -0.200 F 
ATOM     47  C   UNL A   1      39.288  35.715  39.184  1.00  0.00     0.200 A 
ATOM     48  F   UNL A   1      37.801  34.192  40.207  1.00  0.00    -0.200 F 
ATOM     49  F   UNL A   1      39.098  36.591  40.181  1.00  0.00    -0.200 F 
ENDBRANCH  25  39
BRANCH  26  50
ATOM     50  C   UNL A   1      40.343  28.107  28.911  1.00  0.00     0.064 A 
ATOM     51  C   UNL A   1      41.139  28.572  27.857  1.00  0.00     0.173 A 
ATOM     52  C   UNL A   1      39.689  26.876  28.741  1.00  0.00     0.173 A 
ATOM     53  F   UNL A   1      41.775  29.747  27.967  1.00  0.00    -0.203 F 
ATOM     54  C   UNL A   1      41.244  27.857  26.666  1.00  0.00     0.198 A 
ATOM     55  C   UNL A   1      39.828  26.142  27.566  1.00  0.00     0.198 A 
ATOM     56  F   UNL A   1      38.923  26.378  29.723  1.00  0.00    -0.203 F 
ATOM     57  F   UNL A   1      41.957  28.357  25.649  1.00  0.00    -0.200 F 
ATOM     58  C   UNL A   1      40.592  26.641  26.524  1.00  0.00     0.200 A 
ATOM     59  F   UNL A   1      39.215  24.957  27.443  1.00  0.00    -0.200 F 
ATOM     60  F   UNL A   1      40.690  25.955  25.376  1.00  0.00    -0.200 F 
ENDBRANCH  26  50
BRANCH  38  61
ATOM     61  C   UNL A   1      43.796  28.414  34.947  1.00  0.00     0.064 A 
ATOM     62  C   UNL A   1      45.106  28.862  34.722  1.00  0.00     0.173 A 
ATOM     63  C   UNL A   1      43.617  27.248  35.704  1.00  0.00     0.173 A 
ATOM     64  F   UNL A   1      45.329  29.960  33.984  1.00  0.00    -0.203 F 
ATOM     65  C   UNL A   1      46.196  28.153  35.218  1.00  0.00     0.198 A 
ATOM     66  C   UNL A   1      44.708  26.562  36.228  1.00  0.00     0.198 A 
ATOM     67  F   UNL A   1      42.383  26.781  35.949  1.00  0.00    -0.203 F 
ATOM     68  F   UNL A   1      47.441  28.568  34.945  1.00  0.00    -0.200 F 
ATOM     69  C   UNL A   1      45.996  27.011  35.978  1.00  0.00     0.200 A 
ATOM     70  F   UNL A   1      44.513  25.467  36.975  1.00  0.00    -0.200 F 
ATOM     71  F   UNL A   1      47.047  26.335  36.463  1.00  0.00    -0.200 F 
ENDBRANCH  38  61
ENDBRANCH  12  13
ENDBRANCH   5   7
ENDBRANCH   2   3
ENDBRANCH   1   2
BRANCH   1  72
ATOM     72  C   UNL A   1      31.675  30.854  26.477  1.00  0.00     0.023 C 
BRANCH  72  73
ATOM     73  C   UNL A   1      32.795  30.159  27.251  1.00  0.00     0.116 C 
BRANCH  73  74
ATOM     74  N   UNL A   1      33.021  28.800  26.811  1.00  0.00    -0.356 N 
ATOM     75  C   UNL A   1      32.745  28.253  25.585  1.00  0.00     0.224 C 
ATOM     76  H   UNL A   1      33.424  28.193  27.474  1.00  0.00     0.163 HD
ATOM     77  O   UNL A   1      33.644  28.035  24.774  1.00  0.00    -0.275 OA
BRANCH  75  78
ATOM     78  C   UNL A   1      31.307  27.765  25.340  1.00  0.00     0.098 C 
ATOM     79  C   UNL A   1      30.833  27.766  23.874  1.00  0.00     0.100 C 
ATOM     80  C   UNL A   1      31.199  26.304  25.907  1.00  0.00     0.025 C 
ATOM     81  C   UNL A   1      31.065  26.269  23.316  1.00  0.00     0.025 C 
ATOM     82  C   UNL A   1      32.325  25.521  25.272  1.00  0.00    -0.027 C 
ATOM     83  C   UNL A   1      29.903  25.578  25.425  1.00  0.00     0.009 C 
ATOM     84  C   UNL A   1      32.260  25.512  23.931  1.00  0.00    -0.027 C 
ATOM     85  C   UNL A   1      29.908  25.416  23.876  1.00  0.00     0.009 C 
BRANCH  79  86
ATOM     86  C   UNL A   1      31.211  28.920  22.895  1.00  0.00     0.238 C 
ATOM     87  O   UNL A   1      32.267  28.834  22.251  1.00  0.00    -0.273 OA
ATOM     88  N   UNL A   1      30.455  30.076  22.646  1.00  0.00    -0.288 N 
ATOM     89  H   UNL A   1      30.935  30.802  22.185  1.00  0.00     0.185 HD
BRANCH  88  90
ATOM     90  N   UNL A   1      29.084  30.356  22.965  1.00  0.00    -0.217 NA
ATOM     91  C   UNL A   1      28.250  30.367  21.724  1.00  0.00     0.136 C 
ATOM     92  C   UNL A   1      28.775  31.662  23.661  1.00  0.00     0.136 C 
ATOM     93  C   UNL A   1      28.299  31.682  20.909  1.00  0.00     0.177 C 
ATOM     94  C   UNL A   1      28.778  32.942  22.813  1.00  0.00     0.177 C 
ATOM     95  O   UNL A   1      27.907  32.808  21.696  1.00  0.00    -0.379 OA
ENDBRANCH  88  90
ENDBRANCH  79  86
ENDBRANCH  75  78
ENDBRANCH  73  74
ENDBRANCH  72  73
ENDBRANCH   1  72
TORSDOF 13
ENDMDL
