MODEL 1
REMARK VINA RESULT:     -11.7      0.000      0.000
REMARK SMILES C[C@H](c1ccccc1)[N@@H+](CC(=O)NCCCCNC(=O)c1ccc(-c2c3nc(c(-c4c(F)c(F)c(F)c(F)c4F)c4ccc([nH]4)c(-c4c(F)c(F)c(F)c(F)c4F)c4nc(c(-c5c(F)c(F)c(F)c(F)c5F)c5ccc2[nH]5)C=C4)C=C3)cc1)CC(F)(F)F
REMARK SMILES IDX 15 1 14 2 13 3 11 4 12 5 10 7 9 8 2 10 1 11 3 12 4 13 8 14
REMARK SMILES IDX 5 15 7 16 6 17 84 18 85 19 86 20 87 21 88 22 16 23 17 24
REMARK SMILES IDX 18 25 19 26 20 28 21 29 22 30 83 31 23 32 82 33 24 34 25 35
REMARK SMILES IDX 26 36 76 37 27 38 81 39 75 40 77 41 28 42 80 43 74 44 73 45
REMARK SMILES IDX 29 47 61 48 41 49 60 50 42 51 45 52 59 53 78 54 43 55 44 56
REMARK SMILES IDX 58 58 79 59 46 60 30 61 31 62 39 63 32 64 33 65 37 66 40 67
REMARK SMILES IDX 34 68 35 69 38 70 36 71 62 72 63 73 71 74 64 75 65 76 69 77
REMARK SMILES IDX 72 78 66 79 67 80 70 81 68 82 47 83 48 84 56 85 49 86 50 87
REMARK SMILES IDX 54 88 57 89 51 90 52 91 55 92 53 93
REMARK H PARENT 13 6 9 9 18 27 77 46 45 57
REMARK Flexibility Score: inf
ROOT
ATOM      1  C   UNL A   1      31.510  27.737  25.590  1.00  0.00     0.023 C 
ENDROOT
BRANCH   1   2
ATOM      2  C   UNL A   1      30.724  26.426  25.414  1.00  0.00     0.116 C 
BRANCH   2   3
ATOM      3  N   UNL A   1      30.834  25.447  26.490  1.00  0.00    -0.351 N 
ATOM      4  C   UNL A   1      31.132  24.108  26.496  1.00  0.00     0.275 C 
ATOM      5  O   UNL A   1      31.403  23.607  27.590  1.00  0.00    -0.269 OA
ATOM      6  H   UNL A   1      30.661  25.819  27.386  1.00  0.00     0.163 HD
BRANCH   4   7
ATOM      7  C   UNL A   1      31.111  23.252  25.215  1.00  0.00     0.364 C 
BRANCH   7   8
ATOM      8  N   UNL A   1      32.384  22.552  24.869  1.00  0.00    -0.314 N 
ATOM      9  H   UNL A   1      32.956  22.623  25.711  1.00  0.00     0.349 HD
BRANCH   8  10
ATOM     10  C   UNL A   1      33.190  23.259  23.881  1.00  0.00     0.212 C 
ATOM     11  C   UNL A   1      32.900  23.016  22.393  1.00  0.00     0.081 C 
BRANCH  10  12
ATOM     12  C   UNL A   1      34.676  23.469  24.187  1.00  0.00     0.009 A 
ATOM     13  C   UNL A   1      35.095  24.199  25.309  1.00  0.00     0.010 A 
ATOM     14  C   UNL A   1      35.634  22.680  23.517  1.00  0.00     0.010 A 
ATOM     15  C   UNL A   1      36.377  24.025  25.835  1.00  0.00     0.001 A 
ATOM     16  C   UNL A   1      36.918  22.511  24.042  1.00  0.00     0.001 A 
ATOM     17  C   UNL A   1      37.277  23.158  25.221  1.00  0.00     0.000 A 
ENDBRANCH  10  12
ENDBRANCH   8  10
BRANCH   8  18
ATOM     18  C   UNL A   1      32.315  21.080  24.775  1.00  0.00     0.380 C 
BRANCH  18  19
ATOM     19  C   UNL A   1      33.393  20.104  25.300  1.00  0.00     0.438 C 
ATOM     20  F   UNL A   1      32.853  19.064  25.971  1.00  0.00    -0.165 F 
ATOM     21  F   UNL A   1      34.076  19.568  24.258  1.00  0.00    -0.165 F 
ATOM     22  F   UNL A   1      34.294  20.698  26.101  1.00  0.00    -0.165 F 
ENDBRANCH  18  19
ENDBRANCH   8  18
ENDBRANCH   7   8
ENDBRANCH   4   7
ENDBRANCH   2   3
ENDBRANCH   1   2
BRANCH   1  23
ATOM     23  C   UNL A   1      33.027  27.615  25.648  1.00  0.00     0.023 C 
BRANCH  23  24
ATOM     24  C   UNL A   1      33.724  28.902  25.278  1.00  0.00     0.116 C 
BRANCH  24  25
ATOM     25  N   UNL A   1      33.003  30.069  25.781  1.00  0.00    -0.352 N 
ATOM     26  C   UNL A   1      33.306  30.874  26.852  1.00  0.00     0.251 C 
ATOM     27  H   UNL A   1      32.190  30.313  25.282  1.00  0.00     0.163 HD
ATOM     28  O   UNL A   1      32.509  31.695  27.271  1.00  0.00    -0.269 OA
BRANCH  26  29
ATOM     29  C   UNL A   1      34.620  30.700  27.492  1.00  0.00     0.039 A 
ATOM     30  C   UNL A   1      35.485  31.791  27.600  1.00  0.00     0.014 A 
ATOM     31  C   UNL A   1      34.946  29.464  28.052  1.00  0.00     0.014 A 
ATOM     32  C   UNL A   1      36.664  31.649  28.328  1.00  0.00     0.010 A 
ATOM     33  C   UNL A   1      36.045  29.366  28.880  1.00  0.00     0.010 A 
ATOM     34  C   UNL A   1      36.932  30.446  28.999  1.00  0.00    -0.014 A 
BRANCH  34  35
ATOM     35  C   UNL A   1      38.165  30.233  29.786  1.00  0.00     0.031 A 
ATOM     36  C   UNL A   1      39.207  29.296  29.245  1.00  0.00     0.074 A 
ATOM     37  C   UNL A   1      38.280  30.763  31.016  1.00  0.00     0.049 A 
ATOM     38  N   UNL A   1      40.259  28.792  29.834  1.00  0.00    -0.248 NA
ATOM     39  C   UNL A   1      38.996  28.807  27.871  1.00  0.00     0.031 C 
ATOM     40  C   UNL A   1      37.296  31.636  31.658  1.00  0.00     0.029 A 
ATOM     41  N   UNL A   1      39.264  30.615  31.959  1.00  0.00    -0.354 N 
ATOM     42  C   UNL A   1      40.802  27.898  28.921  1.00  0.00     0.074 A 
ATOM     43  C   UNL A   1      39.926  27.873  27.772  1.00  0.00     0.031 C 
ATOM     44  C   UNL A   1      37.729  31.952  32.889  1.00  0.00     0.029 A 
ATOM     45  C   UNL A   1      38.994  31.266  33.137  1.00  0.00     0.049 A 
ATOM     46  H   UNL A   1      40.084  30.093  31.805  1.00  0.00     0.167 HD
ATOM     47  C   UNL A   1      41.945  27.183  29.025  1.00  0.00     0.037 A 
ATOM     48  C   UNL A   1      39.682  31.282  34.293  1.00  0.00     0.037 A 
ATOM     49  C   UNL A   1      42.823  27.260  30.161  1.00  0.00     0.049 A 
ATOM     50  C   UNL A   1      40.969  30.509  34.381  1.00  0.00     0.074 A 
ATOM     51  C   UNL A   1      44.054  26.659  30.342  1.00  0.00     0.029 A 
ATOM     52  N   UNL A   1      42.553  27.988  31.312  1.00  0.00    -0.354 N 
ATOM     53  N   UNL A   1      41.524  29.727  33.485  1.00  0.00    -0.248 NA
ATOM     54  C   UNL A   1      41.730  30.625  35.630  1.00  0.00     0.031 C 
ATOM     55  C   UNL A   1      44.501  26.975  31.629  1.00  0.00     0.029 A 
ATOM     56  C   UNL A   1      43.583  27.828  32.223  1.00  0.00     0.049 A 
ATOM     57  H   UNL A   1      41.749  28.536  31.460  1.00  0.00     0.167 HD
ATOM     58  C   UNL A   1      42.711  29.280  34.048  1.00  0.00     0.074 A 
ATOM     59  C   UNL A   1      42.798  29.883  35.363  1.00  0.00     0.031 C 
ATOM     60  C   UNL A   1      43.648  28.450  33.523  1.00  0.00     0.037 A 
BRANCH  47  61
ATOM     61  C   UNL A   1      42.290  26.260  27.891  1.00  0.00     0.064 A 
ATOM     62  C   UNL A   1      43.228  26.607  26.904  1.00  0.00     0.173 A 
ATOM     63  C   UNL A   1      41.654  25.014  27.774  1.00  0.00     0.173 A 
ATOM     64  F   UNL A   1      43.858  27.792  26.958  1.00  0.00    -0.203 F 
ATOM     65  C   UNL A   1      43.474  25.771  25.819  1.00  0.00     0.198 A 
ATOM     66  C   UNL A   1      41.934  24.161  26.709  1.00  0.00     0.198 A 
ATOM     67  F   UNL A   1      40.753  24.626  28.687  1.00  0.00    -0.203 F 
ATOM     68  F   UNL A   1      44.309  26.165  24.848  1.00  0.00    -0.200 F 
ATOM     69  C   UNL A   1      42.831  24.547  25.724  1.00  0.00     0.200 A 
ATOM     70  F   UNL A   1      41.322  22.972  26.627  1.00  0.00    -0.200 F 
ATOM     71  F   UNL A   1      43.063  23.745  24.676  1.00  0.00    -0.200 F 
ENDBRANCH  47  61
BRANCH  48  72
ATOM     72  C   UNL A   1      39.167  32.078  35.436  1.00  0.00     0.064 A 
ATOM     73  C   UNL A   1      38.398  31.479  36.444  1.00  0.00     0.173 A 
ATOM     74  C   UNL A   1      39.480  33.439  35.575  1.00  0.00     0.173 A 
ATOM     75  F   UNL A   1      38.062  30.185  36.349  1.00  0.00    -0.203 F 
ATOM     76  C   UNL A   1      37.956  32.213  37.543  1.00  0.00     0.198 A 
ATOM     77  C   UNL A   1      39.060  34.164  36.689  1.00  0.00     0.198 A 
ATOM     78  F   UNL A   1      40.223  34.055  34.645  1.00  0.00    -0.203 F 
ATOM     79  F   UNL A   1      37.201  31.623  38.479  1.00  0.00    -0.200 F 
ATOM     80  C   UNL A   1      38.295  33.552  37.670  1.00  0.00     0.200 A 
ATOM     81  F   UNL A   1      39.407  35.452  36.817  1.00  0.00    -0.200 F 
ATOM     82  F   UNL A   1      37.885  34.251  38.736  1.00  0.00    -0.200 F 
ENDBRANCH  48  72
BRANCH  60  83
ATOM     83  C   UNL A   1      44.871  28.176  34.348  1.00  0.00     0.064 A 
ATOM     84  C   UNL A   1      45.989  29.020  34.314  1.00  0.00     0.173 A 
ATOM     85  C   UNL A   1      44.884  27.098  35.246  1.00  0.00     0.173 A 
ATOM     86  F   UNL A   1      46.029  30.057  33.463  1.00  0.00    -0.203 F 
ATOM     87  C   UNL A   1      47.083  28.786  35.142  1.00  0.00     0.198 A 
ATOM     88  C   UNL A   1      45.965  26.887  36.095  1.00  0.00     0.198 A 
ATOM     89  F   UNL A   1      43.833  26.266  35.320  1.00  0.00    -0.203 F 
ATOM     90  F   UNL A   1      48.157  29.585  35.072  1.00  0.00    -0.200 F 
ATOM     91  C   UNL A   1      47.065  27.729  36.040  1.00  0.00     0.200 A 
ATOM     92  F   UNL A   1      45.937  25.875  36.974  1.00  0.00    -0.200 F 
ATOM     93  F   UNL A   1      48.110  27.518  36.852  1.00  0.00    -0.200 F 
ENDBRANCH  60  83
ENDBRANCH  34  35
ENDBRANCH  26  29
ENDBRANCH  24  25
ENDBRANCH  23  24
ENDBRANCH   1  23
TORSDOF 16
ENDMDL
MODEL 2
REMARK VINA RESULT:     -11.6      1.561      2.736
REMARK SMILES C[C@H](c1ccccc1)[N@@H+](CC(=O)NCCCCNC(=O)c1ccc(-c2c3nc(c(-c4c(F)c(F)c(F)c(F)c4F)c4ccc([nH]4)c(-c4c(F)c(F)c(F)c(F)c4F)c4nc(c(-c5c(F)c(F)c(F)c(F)c5F)c5ccc2[nH]5)C=C4)C=C3)cc1)CC(F)(F)F
REMARK SMILES IDX 15 1 14 2 13 3 11 4 12 5 10 7 9 8 2 10 1 11 3 12 4 13 8 14
REMARK SMILES IDX 5 15 7 16 6 17 84 18 85 19 86 20 87 21 88 22 16 23 17 24
REMARK SMILES IDX 18 25 19 26 20 28 21 29 22 30 83 31 23 32 82 33 24 34 25 35
REMARK SMILES IDX 26 36 76 37 27 38 81 39 75 40 77 41 28 42 80 43 74 44 73 45
REMARK SMILES IDX 29 47 61 48 41 49 60 50 42 51 45 52 59 53 78 54 43 55 44 56
REMARK SMILES IDX 58 58 79 59 46 60 30 61 31 62 39 63 32 64 33 65 37 66 40 67
REMARK SMILES IDX 34 68 35 69 38 70 36 71 62 72 63 73 71 74 64 75 65 76 69 77
REMARK SMILES IDX 72 78 66 79 67 80 70 81 68 82 47 83 48 84 56 85 49 86 50 87
REMARK SMILES IDX 54 88 57 89 51 90 52 91 55 92 53 93
REMARK H PARENT 13 6 9 9 18 27 77 46 45 57
REMARK Flexibility Score: inf
ROOT
ATOM      1  C   UNL A   1      31.817  28.543  23.735  1.00  0.00     0.023 C 
ENDROOT
BRANCH   1   2
ATOM      2  C   UNL A   1      31.289  27.838  22.474  1.00  0.00     0.116 C 
BRANCH   2   3
ATOM      3  N   UNL A   1      32.275  27.154  21.644  1.00  0.00    -0.351 N 
ATOM      4  C   UNL A   1      32.531  25.825  21.418  1.00  0.00     0.275 C 
ATOM      5  O   UNL A   1      33.264  25.560  20.461  1.00  0.00    -0.269 OA
ATOM      6  H   UNL A   1      32.870  27.763  21.150  1.00  0.00     0.163 HD
BRANCH   4   7
ATOM      7  C   UNL A   1      31.963  24.710  22.315  1.00  0.00     0.364 C 
BRANCH   7   8
ATOM      8  N   UNL A   1      32.898  24.142  23.333  1.00  0.00    -0.314 N 
ATOM      9  H   UNL A   1      33.776  24.639  23.183  1.00  0.00     0.349 HD
BRANCH   8  10
ATOM     10  C   UNL A   1      33.273  22.757  23.075  1.00  0.00     0.212 C 
ATOM     11  C   UNL A   1      32.173  21.686  23.100  1.00  0.00     0.081 C 
BRANCH  10  12
ATOM     12  C   UNL A   1      34.617  22.266  23.620  1.00  0.00     0.009 A 
ATOM     13  C   UNL A   1      35.809  22.955  23.357  1.00  0.00     0.010 A 
ATOM     14  C   UNL A   1      34.629  21.290  24.639  1.00  0.00     0.010 A 
ATOM     15  C   UNL A   1      36.924  22.791  24.181  1.00  0.00     0.001 A 
ATOM     16  C   UNL A   1      35.748  21.123  25.460  1.00  0.00     0.001 A 
ATOM     17  C   UNL A   1      36.883  21.900  25.251  1.00  0.00     0.000 A 
ENDBRANCH  10  12
ENDBRANCH   8  10
BRANCH   8  18
ATOM     18  C   UNL A   1      32.657  24.540  24.735  1.00  0.00     0.380 C 
BRANCH  18  19
ATOM     19  C   UNL A   1      33.733  25.090  25.699  1.00  0.00     0.438 C 
ATOM     20  F   UNL A   1      34.252  24.121  26.485  1.00  0.00    -0.165 F 
ATOM     21  F   UNL A   1      34.772  25.597  24.990  1.00  0.00    -0.165 F 
ATOM     22  F   UNL A   1      33.276  26.073  26.492  1.00  0.00    -0.165 F 
ENDBRANCH  18  19
ENDBRANCH   8  18
ENDBRANCH   7   8
ENDBRANCH   4   7
ENDBRANCH   2   3
ENDBRANCH   1   2
BRANCH   1  23
ATOM     23  C   UNL A   1      33.332  28.619  23.884  1.00  0.00     0.023 C 
BRANCH  23  24
ATOM     24  C   UNL A   1      33.756  28.939  25.297  1.00  0.00     0.116 C 
BRANCH  24  25
ATOM     25  N   UNL A   1      33.072  30.122  25.812  1.00  0.00    -0.352 N 
ATOM     26  C   UNL A   1      33.410  30.918  26.879  1.00  0.00     0.251 C 
ATOM     27  H   UNL A   1      32.257  30.386  25.326  1.00  0.00     0.163 HD
ATOM     28  O   UNL A   1      32.639  31.758  27.310  1.00  0.00    -0.269 OA
BRANCH  26  29
ATOM     29  C   UNL A   1      34.730  30.713  27.498  1.00  0.00     0.039 A 
ATOM     30  C   UNL A   1      35.608  31.790  27.625  1.00  0.00     0.014 A 
ATOM     31  C   UNL A   1      35.047  29.458  28.021  1.00  0.00     0.014 A 
ATOM     32  C   UNL A   1      36.794  31.616  28.335  1.00  0.00     0.010 A 
ATOM     33  C   UNL A   1      36.154  29.326  28.833  1.00  0.00     0.010 A 
ATOM     34  C   UNL A   1      37.055  30.393  28.970  1.00  0.00    -0.014 A 
BRANCH  34  35
ATOM     35  C   UNL A   1      38.295  30.144  29.736  1.00  0.00     0.031 A 
ATOM     36  C   UNL A   1      39.308  29.191  29.171  1.00  0.00     0.074 A 
ATOM     37  C   UNL A   1      38.439  30.659  30.970  1.00  0.00     0.049 A 
ATOM     38  N   UNL A   1      40.357  28.658  29.739  1.00  0.00    -0.248 NA
ATOM     39  C   UNL A   1      39.066  28.721  27.795  1.00  0.00     0.031 C 
ATOM     40  C   UNL A   1      37.484  31.546  31.636  1.00  0.00     0.029 A 
ATOM     41  N   UNL A   1      39.433  30.479  31.897  1.00  0.00    -0.354 N 
ATOM     42  C   UNL A   1      40.867  27.762  28.809  1.00  0.00     0.074 A 
ATOM     43  C   UNL A   1      39.974  27.768  27.673  1.00  0.00     0.031 C 
ATOM     44  C   UNL A   1      37.941  31.839  32.863  1.00  0.00     0.029 A 
ATOM     45  C   UNL A   1      39.194  31.123  33.085  1.00  0.00     0.049 A 
ATOM     46  H   UNL A   1      40.239  29.942  31.726  1.00  0.00     0.167 HD
ATOM     47  C   UNL A   1      41.996  27.022  28.888  1.00  0.00     0.037 A 
ATOM     48  C   UNL A   1      39.900  31.112  34.231  1.00  0.00     0.037 A 
ATOM     49  C   UNL A   1      42.892  27.067  30.012  1.00  0.00     0.049 A 
ATOM     50  C   UNL A   1      41.171  30.310  34.292  1.00  0.00     0.074 A 
ATOM     51  C   UNL A   1      44.112  26.438  30.169  1.00  0.00     0.029 A 
ATOM     52  N   UNL A   1      42.655  27.789  31.174  1.00  0.00    -0.354 N 
ATOM     53  N   UNL A   1      41.696  29.526  33.380  1.00  0.00    -0.248 NA
ATOM     54  C   UNL A   1      41.953  30.397  35.531  1.00  0.00     0.031 C 
ATOM     55  C   UNL A   1      44.585  26.730  31.452  1.00  0.00     0.029 A 
ATOM     56  C   UNL A   1      43.694  27.596  32.068  1.00  0.00     0.049 A 
ATOM     57  H   UNL A   1      41.865  28.352  31.340  1.00  0.00     0.167 HD
ATOM     58  C   UNL A   1      42.881  29.047  33.921  1.00  0.00     0.074 A 
ATOM     59  C   UNL A   1      42.999  29.634  35.240  1.00  0.00     0.031 C 
ATOM     60  C   UNL A   1      43.791  28.204  33.374  1.00  0.00     0.037 A 
BRANCH  47  61
ATOM     61  C   UNL A   1      42.303  26.103  27.739  1.00  0.00     0.064 A 
ATOM     62  C   UNL A   1      41.723  24.828  27.627  1.00  0.00     0.173 A 
ATOM     63  C   UNL A   1      43.212  26.493  26.744  1.00  0.00     0.173 A 
ATOM     64  F   UNL A   1      40.856  24.396  28.557  1.00  0.00    -0.203 F 
ATOM     65  C   UNL A   1      42.082  23.962  26.599  1.00  0.00     0.198 A 
ATOM     66  C   UNL A   1      43.536  25.640  25.692  1.00  0.00     0.198 A 
ATOM     67  F   UNL A   1      43.794  27.701  26.795  1.00  0.00    -0.203 F 
ATOM     68  F   UNL A   1      41.578  22.721  26.564  1.00  0.00    -0.200 F 
ATOM     69  C   UNL A   1      42.984  24.370  25.629  1.00  0.00     0.200 A 
ATOM     70  F   UNL A   1      44.399  26.043  24.747  1.00  0.00    -0.200 F 
ATOM     71  F   UNL A   1      43.334  23.534  24.641  1.00  0.00    -0.200 F 
ENDBRANCH  47  61
BRANCH  48  72
ATOM     72  C   UNL A   1      39.419  31.907  35.390  1.00  0.00     0.064 A 
ATOM     73  C   UNL A   1      39.787  33.250  35.545  1.00  0.00     0.173 A 
ATOM     74  C   UNL A   1      38.537  31.358  36.334  1.00  0.00     0.173 A 
ATOM     75  F   UNL A   1      40.638  33.815  34.677  1.00  0.00    -0.203 F 
ATOM     76  C   UNL A   1      39.298  34.013  36.605  1.00  0.00     0.198 A 
ATOM     77  C   UNL A   1      38.027  32.130  37.376  1.00  0.00     0.198 A 
ATOM     78  F   UNL A   1      38.144  30.081  36.222  1.00  0.00    -0.203 F 
ATOM     79  F   UNL A   1      39.686  35.287  36.745  1.00  0.00    -0.200 F 
ATOM     80  C   UNL A   1      38.411  33.455  37.514  1.00  0.00     0.200 A 
ATOM     81  F   UNL A   1      37.155  31.592  38.240  1.00  0.00    -0.200 F 
ATOM     82  F   UNL A   1      37.927  34.194  38.520  1.00  0.00    -0.200 F 
ENDBRANCH  48  72
BRANCH  60  83
ATOM     83  C   UNL A   1      45.020  27.894  34.177  1.00  0.00     0.064 A 
ATOM     84  C   UNL A   1      45.088  26.778  35.023  1.00  0.00     0.173 A 
ATOM     85  C   UNL A   1      46.172  28.682  34.029  1.00  0.00     0.173 A 
ATOM     86  F   UNL A   1      44.009  26.002  35.207  1.00  0.00    -0.203 F 
ATOM     87  C   UNL A   1      46.263  26.470  35.702  1.00  0.00     0.198 A 
ATOM     88  C   UNL A   1      47.353  28.352  34.683  1.00  0.00     0.198 A 
ATOM     89  F   UNL A   1      46.158  29.756  33.224  1.00  0.00    -0.203 F 
ATOM     90  F   UNL A   1      46.299  25.419  36.532  1.00  0.00    -0.200 F 
ATOM     91  C   UNL A   1      47.397  27.248  35.522  1.00  0.00     0.200 A 
ATOM     92  F   UNL A   1      48.453  29.094  34.493  1.00  0.00    -0.200 F 
ATOM     93  F   UNL A   1      48.534  26.937  36.159  1.00  0.00    -0.200 F 
ENDBRANCH  60  83
ENDBRANCH  34  35
ENDBRANCH  26  29
ENDBRANCH  24  25
ENDBRANCH  23  24
ENDBRANCH   1  23
TORSDOF 16
ENDMDL
MODEL 3
REMARK VINA RESULT:     -11.5      4.772      9.902
REMARK SMILES C[C@H](c1ccccc1)[N@@H+](CC(=O)NCCCCNC(=O)c1ccc(-c2c3nc(c(-c4c(F)c(F)c(F)c(F)c4F)c4ccc([nH]4)c(-c4c(F)c(F)c(F)c(F)c4F)c4nc(c(-c5c(F)c(F)c(F)c(F)c5F)c5ccc2[nH]5)C=C4)C=C3)cc1)CC(F)(F)F
REMARK SMILES IDX 15 1 14 2 13 3 11 4 12 5 10 7 9 8 2 10 1 11 3 12 4 13 8 14
REMARK SMILES IDX 5 15 7 16 6 17 84 18 85 19 86 20 87 21 88 22 16 23 17 24
REMARK SMILES IDX 18 25 19 26 20 28 21 29 22 30 83 31 23 32 82 33 24 34 25 35
REMARK SMILES IDX 26 36 76 37 27 38 81 39 75 40 77 41 28 42 80 43 74 44 73 45
REMARK SMILES IDX 29 47 61 48 41 49 60 50 42 51 45 52 59 53 78 54 43 55 44 56
REMARK SMILES IDX 58 58 79 59 46 60 30 61 31 62 39 63 32 64 33 65 37 66 40 67
REMARK SMILES IDX 34 68 35 69 38 70 36 71 62 72 63 73 71 74 64 75 65 76 69 77
REMARK SMILES IDX 72 78 66 79 67 80 70 81 68 82 47 83 48 84 56 85 49 86 50 87
REMARK SMILES IDX 54 88 57 89 51 90 52 91 55 92 53 93
REMARK H PARENT 13 6 9 9 18 27 77 46 45 57
REMARK Flexibility Score: inf
ROOT
ATOM      1  C   UNL A   1      36.659  20.254  25.022  1.00  0.00     0.023 C 
ENDROOT
BRANCH   1   2
ATOM      2  C   UNL A   1      36.368  21.745  25.260  1.00  0.00     0.116 C 
BRANCH   2   3
ATOM      3  N   UNL A   1      35.723  22.094  26.521  1.00  0.00    -0.351 N 
ATOM      4  C   UNL A   1      34.464  22.548  26.821  1.00  0.00     0.275 C 
ATOM      5  O   UNL A   1      34.130  22.506  28.008  1.00  0.00    -0.269 OA
ATOM      6  H   UNL A   1      36.302  21.981  27.309  1.00  0.00     0.163 HD
BRANCH   4   7
ATOM      7  C   UNL A   1      33.510  23.108  25.749  1.00  0.00     0.364 C 
BRANCH   7   8
ATOM      8  N   UNL A   1      32.488  22.158  25.214  1.00  0.00    -0.314 N 
ATOM      9  H   UNL A   1      32.472  21.391  25.886  1.00  0.00     0.349 HD
BRANCH   8  10
ATOM     10  C   UNL A   1      32.898  21.490  23.984  1.00  0.00     0.212 C 
ATOM     11  C   UNL A   1      32.636  22.196  22.647  1.00  0.00     0.081 C 
BRANCH  10  12
ATOM     12  C   UNL A   1      32.745  19.968  23.912  1.00  0.00     0.009 A 
ATOM     13  C   UNL A   1      32.262  19.336  22.758  1.00  0.00     0.010 A 
ATOM     14  C   UNL A   1      33.369  19.168  24.892  1.00  0.00     0.010 A 
ATOM     15  C   UNL A   1      32.531  17.987  22.518  1.00  0.00     0.001 A 
ATOM     16  C   UNL A   1      33.633  17.816  24.652  1.00  0.00     0.001 A 
ATOM     17  C   UNL A   1      33.244  17.236  23.449  1.00  0.00     0.000 A 
ENDBRANCH  10  12
ENDBRANCH   8  10
BRANCH   8  18
ATOM     18  C   UNL A   1      31.079  22.583  25.330  1.00  0.00     0.380 C 
BRANCH  18  19
ATOM     19  C   UNL A   1      30.375  22.977  26.649  1.00  0.00     0.438 C 
ATOM     20  F   UNL A   1      29.954  24.260  26.635  1.00  0.00    -0.165 F 
ATOM     21  F   UNL A   1      29.265  22.217  26.824  1.00  0.00    -0.165 F 
ATOM     22  F   UNL A   1      31.151  22.802  27.731  1.00  0.00    -0.165 F 
ENDBRANCH  18  19
ENDBRANCH   8  18
ENDBRANCH   7   8
ENDBRANCH   4   7
ENDBRANCH   2   3
ENDBRANCH   1   2
BRANCH   1  23
ATOM     23  C   UNL A   1      38.104  19.888  24.701  1.00  0.00     0.023 C 
BRANCH  23  24
ATOM     24  C   UNL A   1      39.027  20.108  25.876  1.00  0.00     0.116 C 
BRANCH  24  25
ATOM     25  N   UNL A   1      40.144  19.167  25.867  1.00  0.00    -0.352 N 
ATOM     26  C   UNL A   1      41.485  19.419  26.026  1.00  0.00     0.251 C 
ATOM     27  H   UNL A   1      39.903  18.223  25.729  1.00  0.00     0.163 HD
ATOM     28  O   UNL A   1      42.320  18.561  25.802  1.00  0.00    -0.269 OA
BRANCH  26  29
ATOM     29  C   UNL A   1      41.884  20.769  26.460  1.00  0.00     0.039 A 
ATOM     30  C   UNL A   1      42.189  21.000  27.802  1.00  0.00     0.014 A 
ATOM     31  C   UNL A   1      42.027  21.775  25.504  1.00  0.00     0.014 A 
ATOM     32  C   UNL A   1      42.697  22.242  28.176  1.00  0.00     0.010 A 
ATOM     33  C   UNL A   1      42.652  22.954  25.853  1.00  0.00     0.010 A 
ATOM     34  C   UNL A   1      42.962  23.212  27.197  1.00  0.00    -0.014 A 
BRANCH  34  35
ATOM     35  C   UNL A   1      43.499  24.549  27.529  1.00  0.00     0.031 A 
ATOM     36  C   UNL A   1      42.550  25.597  28.035  1.00  0.00     0.074 A 
ATOM     37  C   UNL A   1      44.780  24.848  27.251  1.00  0.00     0.049 A 
ATOM     38  N   UNL A   1      42.735  26.880  28.193  1.00  0.00    -0.248 NA
ATOM     39  C   UNL A   1      41.181  25.145  28.341  1.00  0.00     0.031 C 
ATOM     40  C   UNL A   1      45.768  23.919  26.700  1.00  0.00     0.029 A 
ATOM     41  N   UNL A   1      45.460  26.033  27.366  1.00  0.00    -0.354 N 
ATOM     42  C   UNL A   1      41.500  27.390  28.570  1.00  0.00     0.074 A 
ATOM     43  C   UNL A   1      40.559  26.294  28.545  1.00  0.00     0.031 C 
ATOM     44  C   UNL A   1      46.931  24.568  26.529  1.00  0.00     0.029 A 
ATOM     45  C   UNL A   1      46.754  25.966  26.914  1.00  0.00     0.049 A 
ATOM     46  H   UNL A   1      45.059  26.852  27.737  1.00  0.00     0.167 HD
ATOM     47  C   UNL A   1      41.188  28.656  28.930  1.00  0.00     0.037 A 
ATOM     48  C   UNL A   1      47.682  26.934  26.801  1.00  0.00     0.037 A 
ATOM     49  C   UNL A   1      42.153  29.719  28.990  1.00  0.00     0.049 A 
ATOM     50  C   UNL A   1      47.330  28.329  27.239  1.00  0.00     0.074 A 
ATOM     51  C   UNL A   1      41.981  31.017  29.429  1.00  0.00     0.029 A 
ATOM     52  N   UNL A   1      43.479  29.598  28.592  1.00  0.00    -0.354 N 
ATOM     53  N   UNL A   1      46.182  28.792  27.673  1.00  0.00    -0.248 NA
ATOM     54  C   UNL A   1      48.399  29.333  27.181  1.00  0.00     0.031 C 
ATOM     55  C   UNL A   1      43.187  31.700  29.240  1.00  0.00     0.029 A 
ATOM     56  C   UNL A   1      44.130  30.810  28.748  1.00  0.00     0.049 A 
ATOM     57  H   UNL A   1      43.894  28.774  28.249  1.00  0.00     0.167 HD
ATOM     58  C   UNL A   1      46.395  30.132  27.967  1.00  0.00     0.074 A 
ATOM     59  C   UNL A   1      47.785  30.405  27.664  1.00  0.00     0.031 C 
ATOM     60  C   UNL A   1      45.521  31.051  28.448  1.00  0.00     0.037 A 
BRANCH  47  61
ATOM     61  C   UNL A   1      39.753  28.945  29.270  1.00  0.00     0.064 A 
ATOM     62  C   UNL A   1      39.250  28.796  30.573  1.00  0.00     0.173 A 
ATOM     63  C   UNL A   1      38.859  29.358  28.271  1.00  0.00     0.173 A 
ATOM     64  F   UNL A   1      40.057  28.390  31.567  1.00  0.00    -0.203 F 
ATOM     65  C   UNL A   1      37.900  28.992  30.850  1.00  0.00     0.198 A 
ATOM     66  C   UNL A   1      37.517  29.596  28.560  1.00  0.00     0.198 A 
ATOM     67  F   UNL A   1      39.283  29.523  27.009  1.00  0.00    -0.203 F 
ATOM     68  F   UNL A   1      37.430  28.759  32.083  1.00  0.00    -0.200 F 
ATOM     69  C   UNL A   1      37.036  29.397  29.845  1.00  0.00     0.200 A 
ATOM     70  F   UNL A   1      36.686  30.001  27.589  1.00  0.00    -0.200 F 
ATOM     71  F   UNL A   1      35.735  29.581  30.110  1.00  0.00    -0.200 F 
ENDBRANCH  47  61
BRANCH  48  72
ATOM     72  C   UNL A   1      49.029  26.594  26.275  1.00  0.00     0.064 A 
ATOM     73  C   UNL A   1      49.364  26.844  24.937  1.00  0.00     0.173 A 
ATOM     74  C   UNL A   1      50.026  26.067  27.110  1.00  0.00     0.173 A 
ATOM     75  F   UNL A   1      48.442  27.334  24.097  1.00  0.00    -0.203 F 
ATOM     76  C   UNL A   1      50.643  26.572  24.453  1.00  0.00     0.198 A 
ATOM     77  C   UNL A   1      51.311  25.822  26.631  1.00  0.00     0.198 A 
ATOM     78  F   UNL A   1      49.759  25.823  28.402  1.00  0.00    -0.203 F 
ATOM     79  F   UNL A   1      50.930  26.796  23.164  1.00  0.00    -0.200 F 
ATOM     80  C   UNL A   1      51.618  26.071  25.302  1.00  0.00     0.200 A 
ATOM     81  F   UNL A   1      52.255  25.357  27.461  1.00  0.00    -0.200 F 
ATOM     82  F   UNL A   1      52.852  25.828  24.840  1.00  0.00    -0.200 F 
ENDBRANCH  48  72
BRANCH  60  83
ATOM     83  C   UNL A   1      46.045  32.429  28.722  1.00  0.00     0.064 A 
ATOM     84  C   UNL A   1      45.989  33.446  27.758  1.00  0.00     0.173 A 
ATOM     85  C   UNL A   1      46.533  32.754  29.997  1.00  0.00     0.173 A 
ATOM     86  F   UNL A   1      45.543  33.182  26.521  1.00  0.00    -0.203 F 
ATOM     87  C   UNL A   1      46.415  34.737  28.060  1.00  0.00     0.198 A 
ATOM     88  C   UNL A   1      46.926  34.052  30.304  1.00  0.00     0.198 A 
ATOM     89  F   UNL A   1      46.598  31.816  30.956  1.00  0.00    -0.203 F 
ATOM     90  F   UNL A   1      46.385  35.687  27.115  1.00  0.00    -0.200 F 
ATOM     91  C   UNL A   1      46.870  35.042  29.334  1.00  0.00     0.200 A 
ATOM     92  F   UNL A   1      47.348  34.348  31.541  1.00  0.00    -0.200 F 
ATOM     93  F   UNL A   1      47.259  36.290  29.628  1.00  0.00    -0.200 F 
ENDBRANCH  60  83
ENDBRANCH  34  35
ENDBRANCH  26  29
ENDBRANCH  24  25
ENDBRANCH  23  24
ENDBRANCH   1  23
TORSDOF 16
ENDMDL
