MODEL 1
REMARK VINA RESULT:     -13.1      0.000      0.000
REMARK SMILES CC1=C(C(=O)NCCCCNC(=O)c2ccc(-c3c4nc(c(-c5c(F)c(F)c(F)c(F)c5F)c5ccc([nH]5)c(-c5c(F)c(F)c(F)c(F)c5F)c5nc(c(-c6c(F)c(F)c(F)c(F)c6F)c6ccc3[nH]6)C=C5)C=C4)cc2)N2C(=O)[C@@H](NC(=O)c3ccn(C)n3)[C@H]2SC1
REMARK SMILES IDX 8 1 7 2 6 3 4 4 5 5 3 7 1 8 2 9 92 10 77 11 91 12 78 13
REMARK SMILES IDX 90 14 79 15 80 16 81 17 82 18 83 20 84 21 85 22 89 23 86 24
REMARK SMILES IDX 87 25 88 26 9 27 10 28 11 29 12 30 13 32 14 33 15 34 76 35
REMARK SMILES IDX 16 36 75 37 17 38 18 39 19 40 69 41 20 42 74 43 68 44 70 45
REMARK SMILES IDX 21 46 73 47 67 48 66 49 22 51 54 52 34 53 53 54 35 55 38 56
REMARK SMILES IDX 52 57 71 58 36 59 37 60 51 62 72 63 39 64 23 65 24 66 32 67
REMARK SMILES IDX 25 68 26 69 30 70 33 71 27 72 28 73 31 74 29 75 55 76 56 77
REMARK SMILES IDX 64 78 57 79 58 80 62 81 65 82 59 83 60 84 63 85 61 86 40 87
REMARK SMILES IDX 41 88 49 89 42 90 43 91 47 92 50 93 44 94 45 95 48 96 46 97
REMARK H PARENT 6 6 81 19 11 31 70 50 38 61
REMARK Flexibility Score: inf
ROOT
ATOM      1  C   UNL A   1      31.404  30.953  25.819  1.00  0.00     0.023 C 
ENDROOT
BRANCH   1   2
ATOM      2  C   UNL A   1      32.645  30.073  25.887  1.00  0.00     0.116 C 
BRANCH   2   3
ATOM      3  N   UNL A   1      33.249  29.702  24.626  1.00  0.00    -0.351 N 
ATOM      4  C   UNL A   1      32.825  28.774  23.710  1.00  0.00     0.268 C 
ATOM      5  O   UNL A   1      33.347  28.761  22.595  1.00  0.00    -0.268 OA
ATOM      6  H   UNL A   1      34.077  30.181  24.394  1.00  0.00     0.163 HD
BRANCH   4   7
ATOM      7  C   UNL A   1      31.773  27.747  24.064  1.00  0.00     0.110 C 
ATOM      8  C   UNL A   1      30.018  28.446  22.376  1.00  0.00     0.043 C 
ATOM      9  C   UNL A   1      30.506  27.684  23.580  1.00  0.00    -0.034 C 
ATOM     10  C   UNL A   1      29.417  26.779  24.164  1.00  0.00     0.104 C 
ATOM     11  N   UNL A   1      32.202  26.692  24.810  1.00  0.00    -0.290 N 
ATOM     12  S   UNL A   1      29.951  25.645  25.492  1.00  0.00    -0.129 SA
ATOM     13  C   UNL A   1      33.216  26.326  25.615  1.00  0.00     0.253 C 
ATOM     14  C   UNL A   1      31.561  25.399  24.717  1.00  0.00     0.181 C 
ATOM     15  O   UNL A   1      34.114  26.929  26.158  1.00  0.00    -0.272 OA
ATOM     16  C   UNL A   1      32.751  24.843  25.520  1.00  0.00     0.206 C 
BRANCH  16  17
ATOM     17  N   UNL A   1      32.462  24.083  26.756  1.00  0.00    -0.336 N 
ATOM     18  C   UNL A   1      33.008  22.865  27.122  1.00  0.00     0.272 C 
ATOM     19  H   UNL A   1      31.817  24.485  27.381  1.00  0.00     0.164 HD
ATOM     20  O   UNL A   1      32.528  22.260  28.079  1.00  0.00    -0.267 OA
BRANCH  18  21
ATOM     21  C   UNL A   1      34.135  22.349  26.327  1.00  0.00     0.150 A 
ATOM     22  C   UNL A   1      34.103  21.327  25.335  1.00  0.00     0.056 A 
ATOM     23  N   UNL A   1      35.395  22.793  26.502  1.00  0.00    -0.168 NA
ATOM     24  C   UNL A   1      35.409  21.144  24.949  1.00  0.00     0.109 A 
ATOM     25  N   UNL A   1      36.130  22.074  25.635  1.00  0.00    -0.275 N 
ATOM     26  C   UNL A   1      37.551  22.302  25.520  1.00  0.00     0.173 C 
ENDBRANCH  18  21
ENDBRANCH  16  17
ENDBRANCH   4   7
ENDBRANCH   2   3
ENDBRANCH   1   2
BRANCH   1  27
ATOM     27  C   UNL A   1      31.282  32.046  26.876  1.00  0.00     0.023 C 
BRANCH  27  28
ATOM     28  C   UNL A   1      32.561  32.800  27.231  1.00  0.00     0.116 C 
BRANCH  28  29
ATOM     29  N   UNL A   1      32.343  34.186  27.624  1.00  0.00    -0.352 N 
ATOM     30  C   UNL A   1      32.997  34.963  28.555  1.00  0.00     0.251 C 
ATOM     31  H   UNL A   1      31.612  34.641  27.147  1.00  0.00     0.163 HD
ATOM     32  O   UNL A   1      32.591  36.095  28.804  1.00  0.00    -0.269 OA
BRANCH  30  33
ATOM     33  C   UNL A   1      34.161  34.424  29.291  1.00  0.00     0.039 A 
ATOM     34  C   UNL A   1      33.949  33.756  30.500  1.00  0.00     0.014 A 
ATOM     35  C   UNL A   1      35.455  34.548  28.781  1.00  0.00     0.014 A 
ATOM     36  C   UNL A   1      35.019  33.123  31.139  1.00  0.00     0.010 A 
ATOM     37  C   UNL A   1      36.497  33.832  29.361  1.00  0.00     0.010 A 
ATOM     38  C   UNL A   1      36.292  33.107  30.545  1.00  0.00    -0.014 A 
BRANCH  38  39
ATOM     39  C   UNL A   1      37.416  32.334  31.140  1.00  0.00     0.031 A 
ATOM     40  C   UNL A   1      37.926  32.676  32.514  1.00  0.00     0.074 A 
ATOM     41  C   UNL A   1      38.025  31.371  30.419  1.00  0.00     0.049 A 
ATOM     42  N   UNL A   1      38.937  32.167  33.174  1.00  0.00    -0.248 NA
ATOM     43  C   UNL A   1      37.225  33.751  33.232  1.00  0.00     0.031 C 
ATOM     44  C   UNL A   1      37.663  30.978  29.055  1.00  0.00     0.029 A 
ATOM     45  N   UNL A   1      39.085  30.553  30.726  1.00  0.00    -0.354 N 
ATOM     46  C   UNL A   1      38.997  32.867  34.372  1.00  0.00     0.074 A 
ATOM     47  C   UNL A   1      37.966  33.880  34.323  1.00  0.00     0.031 C 
ATOM     48  C   UNL A   1      38.464  29.976  28.657  1.00  0.00     0.029 A 
ATOM     49  C   UNL A   1      39.428  29.687  29.714  1.00  0.00     0.049 A 
ATOM     50  H   UNL A   1      39.554  30.583  31.591  1.00  0.00     0.167 HD
ATOM     51  C   UNL A   1      39.817  32.666  35.430  1.00  0.00     0.037 A 
ATOM     52  C   UNL A   1      40.416  28.774  29.641  1.00  0.00     0.037 A 
ATOM     53  C   UNL A   1      40.832  31.646  35.484  1.00  0.00     0.049 A 
ATOM     54  C   UNL A   1      41.334  28.591  30.821  1.00  0.00     0.074 A 
ATOM     55  C   UNL A   1      41.677  31.326  36.531  1.00  0.00     0.029 A 
ATOM     56  N   UNL A   1      41.145  30.787  34.441  1.00  0.00    -0.354 N 
ATOM     57  N   UNL A   1      41.329  29.206  31.979  1.00  0.00    -0.248 NA
ATOM     58  C   UNL A   1      42.393  27.581  30.686  1.00  0.00     0.031 C 
ATOM     59  C   UNL A   1      42.544  30.317  36.102  1.00  0.00     0.029 A 
ATOM     60  C   UNL A   1      42.192  29.957  34.811  1.00  0.00     0.049 A 
ATOM     61  H   UNL A   1      40.690  30.767  33.568  1.00  0.00     0.167 HD
ATOM     62  C   UNL A   1      42.356  28.636  32.720  1.00  0.00     0.074 A 
ATOM     63  C   UNL A   1      42.953  27.613  31.887  1.00  0.00     0.031 C 
ATOM     64  C   UNL A   1      42.769  28.933  33.977  1.00  0.00     0.037 A 
BRANCH  51  65
ATOM     65  C   UNL A   1      39.653  33.568  36.621  1.00  0.00     0.064 A 
ATOM     66  C   UNL A   1      40.295  34.814  36.696  1.00  0.00     0.173 A 
ATOM     67  C   UNL A   1      38.811  33.202  37.682  1.00  0.00     0.173 A 
ATOM     68  F   UNL A   1      41.119  35.210  35.715  1.00  0.00    -0.203 F 
ATOM     69  C   UNL A   1      40.126  35.644  37.802  1.00  0.00     0.198 A 
ATOM     70  C   UNL A   1      38.615  34.050  38.769  1.00  0.00     0.198 A 
ATOM     71  F   UNL A   1      38.167  32.026  37.660  1.00  0.00    -0.203 F 
ATOM     72  F   UNL A   1      40.793  36.804  37.875  1.00  0.00    -0.200 F 
ATOM     73  C   UNL A   1      39.280  35.265  38.832  1.00  0.00     0.200 A 
ATOM     74  F   UNL A   1      37.784  33.690  39.756  1.00  0.00    -0.200 F 
ATOM     75  F   UNL A   1      39.108  36.069  39.891  1.00  0.00    -0.200 F 
ENDBRANCH  51  65
BRANCH  52  76
ATOM     76  C   UNL A   1      40.587  27.950  28.413  1.00  0.00     0.064 A 
ATOM     77  C   UNL A   1      40.004  26.678  28.310  1.00  0.00     0.173 A 
ATOM     78  C   UNL A   1      41.355  28.402  27.329  1.00  0.00     0.173 A 
ATOM     79  F   UNL A   1      39.277  26.191  29.327  1.00  0.00    -0.203 F 
ATOM     80  C   UNL A   1      40.209  25.879  27.187  1.00  0.00     0.198 A 
ATOM     81  C   UNL A   1      41.529  27.616  26.191  1.00  0.00     0.198 A 
ATOM     82  F   UNL A   1      41.930  29.612  27.372  1.00  0.00    -0.203 F 
ATOM     83  F   UNL A   1      39.690  24.643  27.143  1.00  0.00    -0.200 F 
ATOM     84  C   UNL A   1      40.967  26.350  26.126  1.00  0.00     0.200 A 
ATOM     85  F   UNL A   1      42.248  28.083  25.162  1.00  0.00    -0.200 F 
ATOM     86  F   UNL A   1      41.164  25.582  25.046  1.00  0.00    -0.200 F 
ENDBRANCH  52  76
BRANCH  64  87
ATOM     87  C   UNL A   1      43.889  28.114  34.552  1.00  0.00     0.064 A 
ATOM     88  C   UNL A   1      43.654  26.905  35.224  1.00  0.00     0.173 A 
ATOM     89  C   UNL A   1      45.222  28.522  34.385  1.00  0.00     0.173 A 
ATOM     90  F   UNL A   1      42.400  26.476  35.423  1.00  0.00    -0.203 F 
ATOM     91  C   UNL A   1      44.710  26.151  35.731  1.00  0.00     0.198 A 
ATOM     92  C   UNL A   1      46.276  27.747  34.859  1.00  0.00     0.198 A 
ATOM     93  F   UNL A   1      45.504  29.666  33.743  1.00  0.00    -0.203 F 
ATOM     94  F   UNL A   1      44.458  25.027  36.415  1.00  0.00    -0.200 F 
ATOM     95  C   UNL A   1      46.019  26.567  35.540  1.00  0.00     0.200 A 
ATOM     96  F   UNL A   1      47.541  28.142  34.656  1.00  0.00    -0.200 F 
ATOM     97  F   UNL A   1      47.034  25.833  36.017  1.00  0.00    -0.200 F 
ENDBRANCH  64  87
ENDBRANCH  38  39
ENDBRANCH  30  33
ENDBRANCH  28  29
ENDBRANCH  27  28
ENDBRANCH   1  27
TORSDOF 13
ENDMDL
MODEL 2
REMARK VINA RESULT:     -13.1      0.792      2.103
REMARK SMILES CC1=C(C(=O)NCCCCNC(=O)c2ccc(-c3c4nc(c(-c5c(F)c(F)c(F)c(F)c5F)c5ccc([nH]5)c(-c5c(F)c(F)c(F)c(F)c5F)c5nc(c(-c6c(F)c(F)c(F)c(F)c6F)c6ccc3[nH]6)C=C5)C=C4)cc2)N2C(=O)[C@@H](NC(=O)c3ccn(C)n3)[C@H]2SC1
REMARK SMILES IDX 8 1 7 2 6 3 4 4 5 5 3 7 1 8 2 9 92 10 77 11 91 12 78 13
REMARK SMILES IDX 90 14 79 15 80 16 81 17 82 18 83 20 84 21 85 22 89 23 86 24
REMARK SMILES IDX 87 25 88 26 9 27 10 28 11 29 12 30 13 32 14 33 15 34 76 35
REMARK SMILES IDX 16 36 75 37 17 38 18 39 19 40 69 41 20 42 74 43 68 44 70 45
REMARK SMILES IDX 21 46 73 47 67 48 66 49 22 51 54 52 34 53 53 54 35 55 38 56
REMARK SMILES IDX 52 57 71 58 36 59 37 60 51 62 72 63 39 64 23 65 24 66 32 67
REMARK SMILES IDX 25 68 26 69 30 70 33 71 27 72 28 73 31 74 29 75 55 76 56 77
REMARK SMILES IDX 64 78 57 79 58 80 62 81 65 82 59 83 60 84 63 85 61 86 40 87
REMARK SMILES IDX 41 88 49 89 42 90 43 91 47 92 50 93 44 94 45 95 48 96 46 97
REMARK H PARENT 6 6 81 19 11 31 70 50 38 61
REMARK Flexibility Score: inf
ROOT
ATOM      1  C   UNL A   1      31.403  30.987  25.791  1.00  0.00     0.023 C 
ENDROOT
BRANCH   1   2
ATOM      2  C   UNL A   1      32.460  29.902  25.943  1.00  0.00     0.116 C 
BRANCH   2   3
ATOM      3  N   UNL A   1      33.222  29.567  24.760  1.00  0.00    -0.351 N 
ATOM      4  C   UNL A   1      32.794  28.971  23.602  1.00  0.00     0.268 C 
ATOM      5  O   UNL A   1      33.541  28.973  22.623  1.00  0.00    -0.268 OA
ATOM      6  H   UNL A   1      34.179  29.798  24.791  1.00  0.00     0.163 HD
BRANCH   4   7
ATOM      7  C   UNL A   1      31.453  28.275  23.527  1.00  0.00     0.110 C 
ATOM      8  C   UNL A   1      30.313  29.881  21.934  1.00  0.00     0.043 C 
ATOM      9  C   UNL A   1      30.334  28.736  22.911  1.00  0.00    -0.034 C 
ATOM     10  C   UNL A   1      28.948  28.108  23.086  1.00  0.00     0.104 C 
ATOM     11  N   UNL A   1      31.425  26.992  23.978  1.00  0.00    -0.290 N 
ATOM     12  S   UNL A   1      28.887  26.577  24.081  1.00  0.00    -0.129 SA
ATOM     13  C   UNL A   1      32.127  26.140  24.748  1.00  0.00     0.253 C 
ATOM     14  C   UNL A   1      30.485  26.030  23.447  1.00  0.00     0.181 C 
ATOM     15  O   UNL A   1      33.035  26.277  25.537  1.00  0.00    -0.272 OA
ATOM     16  C   UNL A   1      31.300  24.949  24.179  1.00  0.00     0.206 C 
BRANCH  16  17
ATOM     17  N   UNL A   1      30.584  24.044  25.104  1.00  0.00    -0.336 N 
ATOM     18  C   UNL A   1      31.019  22.809  25.552  1.00  0.00     0.272 C 
ATOM     19  H   UNL A   1      29.710  24.352  25.435  1.00  0.00     0.164 HD
ATOM     20  O   UNL A   1      30.232  22.084  26.159  1.00  0.00    -0.267 OA
BRANCH  18  21
ATOM     21  C   UNL A   1      32.410  22.421  25.259  1.00  0.00     0.150 A 
ATOM     22  C   UNL A   1      32.874  21.579  24.208  1.00  0.00     0.056 A 
ATOM     23  N   UNL A   1      33.439  22.818  26.032  1.00  0.00    -0.168 NA
ATOM     24  C   UNL A   1      34.227  21.450  24.408  1.00  0.00     0.109 A 
ATOM     25  N   UNL A   1      34.520  22.246  25.474  1.00  0.00    -0.275 N 
ATOM     26  C   UNL A   1      35.834  22.477  26.027  1.00  0.00     0.173 C 
ENDBRANCH  18  21
ENDBRANCH  16  17
ENDBRANCH   4   7
ENDBRANCH   2   3
ENDBRANCH   1   2
BRANCH   1  27
ATOM     27  C   UNL A   1      31.310  32.015  26.914  1.00  0.00     0.023 C 
BRANCH  27  28
ATOM     28  C   UNL A   1      32.578  32.807  27.223  1.00  0.00     0.116 C 
BRANCH  28  29
ATOM     29  N   UNL A   1      32.334  34.190  27.610  1.00  0.00    -0.352 N 
ATOM     30  C   UNL A   1      32.967  34.981  28.543  1.00  0.00     0.251 C 
ATOM     31  H   UNL A   1      31.599  34.632  27.125  1.00  0.00     0.163 HD
ATOM     32  O   UNL A   1      32.541  36.106  28.785  1.00  0.00    -0.269 OA
BRANCH  30  33
ATOM     33  C   UNL A   1      34.134  34.463  29.291  1.00  0.00     0.039 A 
ATOM     34  C   UNL A   1      33.925  33.822  30.514  1.00  0.00     0.014 A 
ATOM     35  C   UNL A   1      35.427  34.582  28.778  1.00  0.00     0.014 A 
ATOM     36  C   UNL A   1      34.998  33.208  31.166  1.00  0.00     0.010 A 
ATOM     37  C   UNL A   1      36.472  33.883  29.373  1.00  0.00     0.010 A 
ATOM     38  C   UNL A   1      36.271  33.184  30.573  1.00  0.00    -0.014 A 
BRANCH  38  39
ATOM     39  C   UNL A   1      37.399  32.430  31.184  1.00  0.00     0.031 A 
ATOM     40  C   UNL A   1      37.912  32.808  32.548  1.00  0.00     0.074 A 
ATOM     41  C   UNL A   1      38.008  31.451  30.486  1.00  0.00     0.049 A 
ATOM     42  N   UNL A   1      38.925  32.319  33.217  1.00  0.00    -0.248 NA
ATOM     43  C   UNL A   1      37.209  33.899  33.240  1.00  0.00     0.031 C 
ATOM     44  C   UNL A   1      37.643  31.021  29.134  1.00  0.00     0.029 A 
ATOM     45  N   UNL A   1      39.071  30.643  30.812  1.00  0.00    -0.354 N 
ATOM     46  C   UNL A   1      38.987  33.050  34.397  1.00  0.00     0.074 A 
ATOM     47  C   UNL A   1      37.953  34.058  34.325  1.00  0.00     0.031 C 
ATOM     48  C   UNL A   1      38.446  30.011  28.760  1.00  0.00     0.029 A 
ATOM     49  C   UNL A   1      39.414  29.753  29.821  1.00  0.00     0.049 A 
ATOM     50  H   UNL A   1      39.543  30.697  31.674  1.00  0.00     0.167 HD
ATOM     51  C   UNL A   1      39.810  32.878  35.457  1.00  0.00     0.037 A 
ATOM     52  C   UNL A   1      40.404  28.841  29.769  1.00  0.00     0.037 A 
ATOM     53  C   UNL A   1      40.828  31.863  35.535  1.00  0.00     0.049 A 
ATOM     54  C   UNL A   1      41.326  28.690  30.951  1.00  0.00     0.074 A 
ATOM     55  C   UNL A   1      41.676  31.572  36.588  1.00  0.00     0.029 A 
ATOM     56  N   UNL A   1      41.140  30.977  34.513  1.00  0.00    -0.354 N 
ATOM     57  N   UNL A   1      41.322  29.335  32.093  1.00  0.00    -0.248 NA
ATOM     58  C   UNL A   1      42.387  27.679  30.839  1.00  0.00     0.031 C 
ATOM     59  C   UNL A   1      42.545  30.554  36.182  1.00  0.00     0.029 A 
ATOM     60  C   UNL A   1      42.190  30.161  34.902  1.00  0.00     0.049 A 
ATOM     61  H   UNL A   1      40.684  30.935  33.642  1.00  0.00     0.167 HD
ATOM     62  C   UNL A   1      42.353  28.787  32.845  1.00  0.00     0.074 A 
ATOM     63  C   UNL A   1      42.950  27.745  32.037  1.00  0.00     0.031 C 
ATOM     64  C   UNL A   1      42.768  29.117  34.093  1.00  0.00     0.037 A 
BRANCH  51  65
ATOM     65  C   UNL A   1      39.647  33.810  36.626  1.00  0.00     0.064 A 
ATOM     66  C   UNL A   1      38.852  33.471  37.733  1.00  0.00     0.173 A 
ATOM     67  C   UNL A   1      40.327  35.037  36.660  1.00  0.00     0.173 A 
ATOM     68  F   UNL A   1      38.172  32.316  37.749  1.00  0.00    -0.203 F 
ATOM     69  C   UNL A   1      38.718  34.340  38.813  1.00  0.00     0.198 A 
ATOM     70  C   UNL A   1      40.220  35.887  37.758  1.00  0.00     0.198 A 
ATOM     71  F   UNL A   1      41.106  35.408  35.634  1.00  0.00    -0.203 F 
ATOM     72  F   UNL A   1      37.909  34.019  39.832  1.00  0.00    -0.200 F 
ATOM     73  C   UNL A   1      39.409  35.542  38.828  1.00  0.00     0.200 A 
ATOM     74  F   UNL A   1      40.902  37.040  37.780  1.00  0.00    -0.200 F 
ATOM     75  F   UNL A   1      39.289  36.372  39.874  1.00  0.00    -0.200 F 
ENDBRANCH  51  65
BRANCH  52  76
ATOM     76  C   UNL A   1      40.574  27.986  28.562  1.00  0.00     0.064 A 
ATOM     77  C   UNL A   1      41.340  28.420  27.471  1.00  0.00     0.173 A 
ATOM     78  C   UNL A   1      39.954  26.731  28.461  1.00  0.00     0.173 A 
ATOM     79  F   UNL A   1      41.938  29.621  27.508  1.00  0.00    -0.203 F 
ATOM     80  C   UNL A   1      41.454  27.649  26.315  1.00  0.00     0.198 A 
ATOM     81  C   UNL A   1      40.098  25.945  27.319  1.00  0.00     0.198 A 
ATOM     82  F   UNL A   1      39.214  26.264  29.476  1.00  0.00    -0.203 F 
ATOM     83  F   UNL A   1      42.143  28.118  25.265  1.00  0.00    -0.200 F 
ATOM     84  C   UNL A   1      40.837  26.409  26.242  1.00  0.00     0.200 A 
ATOM     85  F   UNL A   1      39.514  24.740  27.261  1.00  0.00    -0.200 F 
ATOM     86  F   UNL A   1      40.947  25.668  25.132  1.00  0.00    -0.200 F 
ENDBRANCH  52  76
BRANCH  64  87
ATOM     87  C   UNL A   1      43.892  28.315  34.686  1.00  0.00     0.064 A 
ATOM     88  C   UNL A   1      45.228  28.733  34.597  1.00  0.00     0.173 A 
ATOM     89  C   UNL A   1      43.620  27.136  35.398  1.00  0.00     0.173 A 
ATOM     90  F   UNL A   1      45.545  29.845  33.917  1.00  0.00    -0.203 F 
ATOM     91  C   UNL A   1      46.252  27.985  35.172  1.00  0.00     0.198 A 
ATOM     92  C   UNL A   1      44.642  26.411  36.004  1.00  0.00     0.198 A 
ATOM     93  F   UNL A   1      42.359  26.696  35.521  1.00  0.00    -0.203 F 
ATOM     94  F   UNL A   1      47.526  28.375  35.028  1.00  0.00    -0.200 F 
ATOM     95  C   UNL A   1      45.958  26.831  35.883  1.00  0.00     0.200 A 
ATOM     96  F   UNL A   1      44.352  25.307  36.707  1.00  0.00    -0.200 F 
ATOM     97  F   UNL A   1      46.944  26.120  36.448  1.00  0.00    -0.200 F 
ENDBRANCH  64  87
ENDBRANCH  38  39
ENDBRANCH  30  33
ENDBRANCH  28  29
ENDBRANCH  27  28
ENDBRANCH   1  27
TORSDOF 13
ENDMDL
MODEL 3
REMARK VINA RESULT:     -13.0      0.582      7.127
REMARK SMILES CC1=C(C(=O)NCCCCNC(=O)c2ccc(-c3c4nc(c(-c5c(F)c(F)c(F)c(F)c5F)c5ccc([nH]5)c(-c5c(F)c(F)c(F)c(F)c5F)c5nc(c(-c6c(F)c(F)c(F)c(F)c6F)c6ccc3[nH]6)C=C5)C=C4)cc2)N2C(=O)[C@@H](NC(=O)c3ccn(C)n3)[C@H]2SC1
REMARK SMILES IDX 8 1 7 2 6 3 4 4 5 5 3 7 1 8 2 9 92 10 77 11 91 12 78 13
REMARK SMILES IDX 90 14 79 15 80 16 81 17 82 18 83 20 84 21 85 22 89 23 86 24
REMARK SMILES IDX 87 25 88 26 9 27 10 28 11 29 12 30 13 32 14 33 15 34 76 35
REMARK SMILES IDX 16 36 75 37 17 38 18 39 19 40 69 41 20 42 74 43 68 44 70 45
REMARK SMILES IDX 21 46 73 47 67 48 66 49 22 51 54 52 34 53 53 54 35 55 38 56
REMARK SMILES IDX 52 57 71 58 36 59 37 60 51 62 72 63 39 64 23 65 24 66 32 67
REMARK SMILES IDX 25 68 26 69 30 70 33 71 27 72 28 73 31 74 29 75 55 76 56 77
REMARK SMILES IDX 64 78 57 79 58 80 62 81 65 82 59 83 60 84 63 85 61 86 40 87
REMARK SMILES IDX 41 88 49 89 42 90 43 91 47 92 50 93 44 94 45 95 48 96 46 97
REMARK H PARENT 6 6 81 19 11 31 70 50 38 61
REMARK Flexibility Score: inf
ROOT
ATOM      1  C   UNL A   1      31.550  30.958  25.847  1.00  0.00     0.023 C 
ENDROOT
BRANCH   1   2
ATOM      2  C   UNL A   1      32.747  30.019  25.873  1.00  0.00     0.116 C 
BRANCH   2   3
ATOM      3  N   UNL A   1      33.306  29.643  24.593  1.00  0.00    -0.351 N 
ATOM      4  C   UNL A   1      32.853  28.708  23.698  1.00  0.00     0.268 C 
ATOM      5  O   UNL A   1      33.335  28.691  22.565  1.00  0.00    -0.268 OA
ATOM      6  H   UNL A   1      34.124  30.123  24.328  1.00  0.00     0.163 HD
BRANCH   4   7
ATOM      7  C   UNL A   1      31.818  27.679  24.095  1.00  0.00     0.110 C 
ATOM      8  C   UNL A   1      30.013  28.341  22.445  1.00  0.00     0.043 C 
ATOM      9  C   UNL A   1      30.539  27.600  23.646  1.00  0.00    -0.034 C 
ATOM     10  C   UNL A   1      29.473  26.696  24.273  1.00  0.00     0.104 C 
ATOM     11  N   UNL A   1      32.275  26.638  24.844  1.00  0.00    -0.290 N 
ATOM     12  S   UNL A   1      30.051  25.586  25.603  1.00  0.00    -0.129 SA
ATOM     13  C   UNL A   1      33.313  26.291  25.627  1.00  0.00     0.253 C 
ATOM     14  C   UNL A   1      31.641  25.340  24.788  1.00  0.00     0.181 C 
ATOM     15  O   UNL A   1      34.221  26.909  26.137  1.00  0.00    -0.272 OA
ATOM     16  C   UNL A   1      32.857  24.804  25.567  1.00  0.00     0.206 C 
BRANCH  16  17
ATOM     17  N   UNL A   1      32.606  24.061  26.821  1.00  0.00    -0.336 N 
ATOM     18  C   UNL A   1      33.183  22.860  27.198  1.00  0.00     0.272 C 
ATOM     19  H   UNL A   1      31.966  24.462  27.453  1.00  0.00     0.164 HD
ATOM     20  O   UNL A   1      32.733  22.263  28.175  1.00  0.00    -0.267 OA
BRANCH  18  21
ATOM     21  C   UNL A   1      34.304  22.351  26.389  1.00  0.00     0.150 A 
ATOM     22  C   UNL A   1      34.270  21.313  25.413  1.00  0.00     0.056 A 
ATOM     23  N   UNL A   1      35.559  22.818  26.534  1.00  0.00    -0.168 NA
ATOM     24  C   UNL A   1      35.571  21.147  25.005  1.00  0.00     0.109 A 
ATOM     25  N   UNL A   1      36.289  22.099  25.664  1.00  0.00    -0.275 N 
ATOM     26  C   UNL A   1      37.704  22.349  25.519  1.00  0.00     0.173 C 
ENDBRANCH  18  21
ENDBRANCH  16  17
ENDBRANCH   4   7
ENDBRANCH   2   3
ENDBRANCH   1   2
BRANCH   1  27
ATOM     27  C   UNL A   1      31.422  31.936  27.012  1.00  0.00     0.023 C 
BRANCH  27  28
ATOM     28  C   UNL A   1      32.653  32.778  27.336  1.00  0.00     0.116 C 
BRANCH  28  29
ATOM     29  N   UNL A   1      32.354  34.167  27.657  1.00  0.00    -0.352 N 
ATOM     30  C   UNL A   1      32.951  35.025  28.554  1.00  0.00     0.251 C 
ATOM     31  H   UNL A   1      31.605  34.557  27.150  1.00  0.00     0.163 HD
ATOM     32  O   UNL A   1      32.481  36.143  28.741  1.00  0.00    -0.269 OA
BRANCH  30  33
ATOM     33  C   UNL A   1      34.135  34.589  29.328  1.00  0.00     0.039 A 
ATOM     34  C   UNL A   1      33.957  34.129  30.636  1.00  0.00     0.014 A 
ATOM     35  C   UNL A   1      35.410  34.604  28.762  1.00  0.00     0.014 A 
ATOM     36  C   UNL A   1      35.040  33.587  31.332  1.00  0.00     0.010 A 
ATOM     37  C   UNL A   1      36.462  33.970  29.415  1.00  0.00     0.010 A 
ATOM     38  C   UNL A   1      36.291  33.450  30.706  1.00  0.00    -0.014 A 
BRANCH  38  39
ATOM     39  C   UNL A   1      37.425  32.762  31.381  1.00  0.00     0.031 A 
ATOM     40  C   UNL A   1      38.098  31.588  30.722  1.00  0.00     0.074 A 
ATOM     41  C   UNL A   1      37.806  33.148  32.615  1.00  0.00     0.049 A 
ATOM     42  N   UNL A   1      39.052  30.816  31.179  1.00  0.00    -0.248 NA
ATOM     43  C   UNL A   1      37.615  31.213  29.385  1.00  0.00     0.031 C 
ATOM     44  C   UNL A   1      37.202  34.238  33.386  1.00  0.00     0.029 A 
ATOM     45  N   UNL A   1      38.786  32.662  33.446  1.00  0.00    -0.354 N 
ATOM     46  C   UNL A   1      39.272  29.863  30.193  1.00  0.00     0.074 A 
ATOM     47  C   UNL A   1      38.308  30.110  29.143  1.00  0.00     0.031 C 
ATOM     48  C   UNL A   1      37.844  34.356  34.560  1.00  0.00     0.029 A 
ATOM     49  C   UNL A   1      38.870  33.323  34.649  1.00  0.00     0.049 A 
ATOM     50  H   UNL A   1      39.373  31.910  33.203  1.00  0.00     0.167 HD
ATOM     51  C   UNL A   1      40.211  28.889  30.151  1.00  0.00     0.037 A 
ATOM     52  C   UNL A   1      39.675  33.111  35.709  1.00  0.00     0.037 A 
ATOM     53  C   UNL A   1      41.180  28.655  31.189  1.00  0.00     0.049 A 
ATOM     54  C   UNL A   1      40.691  32.001  35.649  1.00  0.00     0.074 A 
ATOM     55  C   UNL A   1      42.208  27.729  31.216  1.00  0.00     0.029 A 
ATOM     56  N   UNL A   1      41.236  29.349  32.389  1.00  0.00    -0.354 N 
ATOM     57  N   UNL A   1      40.941  31.157  34.677  1.00  0.00    -0.248 NA
ATOM     58  C   UNL A   1      41.542  31.816  36.833  1.00  0.00     0.031 C 
ATOM     59  C   UNL A   1      42.845  27.817  32.457  1.00  0.00     0.029 A 
ATOM     60  C   UNL A   1      42.262  28.849  33.175  1.00  0.00     0.049 A 
ATOM     61  H   UNL A   1      40.637  30.087  32.644  1.00  0.00     0.167 HD
ATOM     62  C   UNL A   1      41.995  30.368  35.116  1.00  0.00     0.074 A 
ATOM     63  C   UNL A   1      42.351  30.844  36.436  1.00  0.00     0.031 C 
ATOM     64  C   UNL A   1      42.614  29.340  34.484  1.00  0.00     0.037 A 
BRANCH  51  65
ATOM     65  C   UNL A   1      40.237  27.997  28.941  1.00  0.00     0.064 A 
ATOM     66  C   UNL A   1      40.963  28.340  27.788  1.00  0.00     0.173 A 
ATOM     67  C   UNL A   1      39.566  26.765  28.947  1.00  0.00     0.173 A 
ATOM     68  F   UNL A   1      41.615  29.511  27.723  1.00  0.00    -0.203 F 
ATOM     69  C   UNL A   1      40.987  27.500  26.678  1.00  0.00     0.198 A 
ATOM     70  C   UNL A   1      39.623  25.910  27.850  1.00  0.00     0.198 A 
ATOM     71  F   UNL A   1      38.864  26.382  30.024  1.00  0.00    -0.203 F 
ATOM     72  F   UNL A   1      41.640  27.876  25.570  1.00  0.00    -0.200 F 
ATOM     73  C   UNL A   1      40.325  26.282  26.714  1.00  0.00     0.200 A 
ATOM     74  F   UNL A   1      38.997  24.726  27.892  1.00  0.00    -0.200 F 
ATOM     75  F   UNL A   1      40.359  25.468  25.649  1.00  0.00    -0.200 F 
ENDBRANCH  51  65
BRANCH  52  76
ATOM     76  C   UNL A   1      39.567  33.975  36.917  1.00  0.00     0.064 A 
ATOM     77  C   UNL A   1      38.802  33.577  38.023  1.00  0.00     0.173 A 
ATOM     78  C   UNL A   1      40.202  35.224  36.983  1.00  0.00     0.173 A 
ATOM     79  F   UNL A   1      38.157  32.400  38.003  1.00  0.00    -0.203 F 
ATOM     80  C   UNL A   1      38.649  34.407  39.132  1.00  0.00     0.198 A 
ATOM     81  C   UNL A   1      40.078  36.038  38.108  1.00  0.00     0.198 A 
ATOM     82  F   UNL A   1      40.950  35.652  35.956  1.00  0.00    -0.203 F 
ATOM     83  F   UNL A   1      37.862  34.027  40.148  1.00  0.00    -0.200 F 
ATOM     84  C   UNL A   1      39.292  35.635  39.176  1.00  0.00     0.200 A 
ATOM     85  F   UNL A   1      40.716  37.216  38.152  1.00  0.00    -0.200 F 
ATOM     86  F   UNL A   1      39.146  36.433  40.242  1.00  0.00    -0.200 F 
ENDBRANCH  52  76
BRANCH  64  87
ATOM     87  C   UNL A   1      43.772  28.688  35.186  1.00  0.00     0.064 A 
ATOM     88  C   UNL A   1      43.596  27.591  36.042  1.00  0.00     0.173 A 
ATOM     89  C   UNL A   1      45.082  29.140  34.959  1.00  0.00     0.173 A 
ATOM     90  F   UNL A   1      42.366  27.128  36.304  1.00  0.00    -0.203 F 
ATOM     91  C   UNL A   1      44.686  26.989  36.666  1.00  0.00     0.198 A 
ATOM     92  C   UNL A   1      46.172  28.511  35.554  1.00  0.00     0.198 A 
ATOM     93  F   UNL A   1      45.307  30.181  34.143  1.00  0.00    -0.203 F 
ATOM     94  F   UNL A   1      44.490  25.976  37.520  1.00  0.00    -0.200 F 
ATOM     95  C   UNL A   1      45.973  27.442  36.414  1.00  0.00     0.200 A 
ATOM     96  F   UNL A   1      47.415  28.940  35.294  1.00  0.00    -0.200 F 
ATOM     97  F   UNL A   1      47.021  26.853  37.006  1.00  0.00    -0.200 F 
ENDBRANCH  64  87
ENDBRANCH  38  39
ENDBRANCH  30  33
ENDBRANCH  28  29
ENDBRANCH  27  28
ENDBRANCH   1  27
TORSDOF 13
ENDMDL
