MODEL 1
REMARK VINA RESULT:     -12.7      0.000      0.000
REMARK SMILES CCn1cc(CNC(=O)[C@H]2CC=CC[C@@H]2C(=O)NCCCCNC(=O)c2ccc(-c3c4nc(c(-c5c(F)c(F)c(F)c(F)c5F)c5ccc([nH]5)c(-c5c(F)c(F)c(F)c(F)c5F)c5nc(c(-c6c(F)c(F)c(F)c(F)c6F)c6ccc3[nH]6)C=C5)C=C4)cc2)cn1
REMARK SMILES IDX 19 1 18 2 16 3 17 4 15 6 10 7 11 8 12 9 14 10 13 11 8 12
REMARK SMILES IDX 7 13 9 15 6 16 5 17 3 18 4 19 90 20 89 21 2 22 1 23 20 24
REMARK SMILES IDX 21 25 22 26 23 27 24 28 25 30 26 31 27 32 88 33 28 34 87 35
REMARK SMILES IDX 29 36 30 37 31 38 81 39 32 40 86 41 80 42 82 43 33 44 85 45
REMARK SMILES IDX 79 46 78 47 34 49 66 50 46 51 65 52 47 53 50 54 64 55 83 56
REMARK SMILES IDX 48 57 49 58 63 60 84 61 51 62 35 63 36 64 44 65 37 66 38 67
REMARK SMILES IDX 42 68 45 69 39 70 40 71 43 72 41 73 67 74 68 75 76 76 69 77
REMARK SMILES IDX 70 78 74 79 77 80 71 81 72 82 75 83 73 84 52 85 53 86 61 87
REMARK SMILES IDX 54 88 55 89 59 90 62 91 56 92 57 93 60 94 58 95
REMARK H PARENT 18 5 7 14 23 29 82 48 50 59
REMARK Flexibility Score: inf
ROOT
ATOM      1  C   UNL A   1      32.422  27.097  26.337  1.00  0.00     0.116 C 
ENDROOT
BRANCH   1   2
ATOM      2  N   UNL A   1      32.843  25.717  26.461  1.00  0.00    -0.356 N 
ATOM      3  C   UNL A   1      33.457  24.855  25.601  1.00  0.00     0.224 C 
ATOM      4  O   UNL A   1      33.738  23.750  26.073  1.00  0.00    -0.275 OA
ATOM      5  H   UNL A   1      32.648  25.324  27.342  1.00  0.00     0.163 HD
BRANCH   3   6
ATOM      6  C   UNL A   1      33.869  25.262  24.175  1.00  0.00     0.095 C 
ATOM      7  C   UNL A   1      32.681  25.599  23.250  1.00  0.00     0.095 C 
ATOM      8  C   UNL A   1      31.853  24.328  22.939  1.00  0.00     0.041 C 
ATOM      9  C   UNL A   1      32.669  23.094  22.695  1.00  0.00    -0.030 C 
ATOM     10  C   UNL A   1      34.758  24.174  23.521  1.00  0.00     0.041 C 
ATOM     11  C   UNL A   1      33.984  23.030  22.935  1.00  0.00    -0.030 C 
BRANCH   7  12
ATOM     12  C   UNL A   1      33.106  26.334  21.970  1.00  0.00     0.224 C 
ATOM     13  N   UNL A   1      33.270  27.688  21.949  1.00  0.00    -0.352 N 
ATOM     14  H   UNL A   1      33.590  28.040  21.087  1.00  0.00     0.163 HD
ATOM     15  O   UNL A   1      33.260  25.747  20.897  1.00  0.00    -0.275 OA
BRANCH  13  16
ATOM     16  C   UNL A   1      33.061  28.701  22.957  1.00  0.00     0.155 C 
BRANCH  16  17
ATOM     17  C   UNL A   1      31.642  29.126  22.991  1.00  0.00     0.009 A 
ATOM     18  N   UNL A   1      29.574  29.648  22.433  1.00  0.00    -0.273 N 
ATOM     19  C   UNL A   1      30.797  29.325  21.917  1.00  0.00     0.114 A 
ATOM     20  N   UNL A   1      29.563  29.657  23.779  1.00  0.00    -0.181 NA
ATOM     21  C   UNL A   1      30.814  29.340  24.115  1.00  0.00     0.140 A 
BRANCH  18  22
ATOM     22  C   UNL A   1      28.348  29.986  21.733  1.00  0.00     0.141 C 
ATOM     23  C   UNL A   1      28.320  31.353  21.067  1.00  0.00     0.029 C 
ENDBRANCH  18  22
ENDBRANCH  16  17
ENDBRANCH  13  16
ENDBRANCH   7  12
ENDBRANCH   3   6
ENDBRANCH   1   2
BRANCH   1  24
ATOM     24  C   UNL A   1      33.515  28.089  26.737  1.00  0.00     0.023 C 
BRANCH  24  25
ATOM     25  C   UNL A   1      33.005  29.434  27.261  1.00  0.00     0.023 C 
BRANCH  25  26
ATOM     26  C   UNL A   1      33.974  30.593  27.056  1.00  0.00     0.116 C 
BRANCH  26  27
ATOM     27  N   UNL A   1      33.929  31.573  28.137  1.00  0.00    -0.352 N 
ATOM     28  C   UNL A   1      34.834  31.722  29.172  1.00  0.00     0.251 C 
ATOM     29  H   UNL A   1      33.169  32.198  28.128  1.00  0.00     0.163 HD
ATOM     30  O   UNL A   1      34.550  32.326  30.188  1.00  0.00    -0.269 OA
BRANCH  28  31
ATOM     31  C   UNL A   1      36.168  31.118  29.007  1.00  0.00     0.039 A 
ATOM     32  C   UNL A   1      37.313  31.916  29.023  1.00  0.00     0.014 A 
ATOM     33  C   UNL A   1      36.251  29.730  28.915  1.00  0.00     0.014 A 
ATOM     34  C   UNL A   1      38.560  31.296  29.037  1.00  0.00     0.010 A 
ATOM     35  C   UNL A   1      37.480  29.120  29.035  1.00  0.00     0.010 A 
ATOM     36  C   UNL A   1      38.641  29.895  29.072  1.00  0.00    -0.014 A 
BRANCH  36  37
ATOM     37  C   UNL A   1      39.937  29.243  29.272  1.00  0.00     0.031 A 
ATOM     38  C   UNL A   1      40.336  28.996  30.693  1.00  0.00     0.074 A 
ATOM     39  C   UNL A   1      40.634  28.681  28.262  1.00  0.00     0.049 A 
ATOM     40  N   UNL A   1      41.417  29.368  31.301  1.00  0.00    -0.248 NA
ATOM     41  C   UNL A   1      39.384  28.285  31.563  1.00  0.00     0.031 C 
ATOM     42  C   UNL A   1      40.247  28.540  26.854  1.00  0.00     0.029 A 
ATOM     43  N   UNL A   1      41.812  27.999  28.320  1.00  0.00    -0.354 N 
ATOM     44  C   UNL A   1      41.357  28.823  32.585  1.00  0.00     0.074 A 
ATOM     45  C   UNL A   1      40.038  28.262  32.726  1.00  0.00     0.031 C 
ATOM     46  C   UNL A   1      41.046  27.629  26.256  1.00  0.00     0.029 A 
ATOM     47  C   UNL A   1      42.099  27.259  27.182  1.00  0.00     0.049 A 
ATOM     48  H   UNL A   1      42.409  28.030  29.102  1.00  0.00     0.167 HD
ATOM     49  C   UNL A   1      42.461  28.716  33.378  1.00  0.00     0.037 A 
ATOM     50  C   UNL A   1      43.112  26.375  27.022  1.00  0.00     0.037 A 
ATOM     51  C   UNL A   1      43.514  29.592  32.936  1.00  0.00     0.049 A 
ATOM     52  C   UNL A   1      44.130  26.671  28.056  1.00  0.00     0.074 A 
ATOM     53  C   UNL A   1      43.639  30.960  32.795  1.00  0.00     0.029 A 
ATOM     54  N   UNL A   1      44.557  29.056  32.225  1.00  0.00    -0.354 N 
ATOM     55  N   UNL A   1      44.853  27.755  28.080  1.00  0.00    -0.248 NA
ATOM     56  C   UNL A   1      44.046  25.948  29.316  1.00  0.00     0.031 C 
ATOM     57  C   UNL A   1      44.407  31.136  31.606  1.00  0.00     0.029 A 
ATOM     58  C   UNL A   1      44.747  29.867  31.136  1.00  0.00     0.049 A 
ATOM     59  H   UNL A   1      45.070  28.248  32.452  1.00  0.00     0.167 HD
ATOM     60  C   UNL A   1      44.952  28.081  29.423  1.00  0.00     0.074 A 
ATOM     61  C   UNL A   1      44.527  26.882  30.139  1.00  0.00     0.031 C 
ATOM     62  C   UNL A   1      45.103  29.378  29.825  1.00  0.00     0.037 A 
BRANCH  49  63
ATOM     63  C   UNL A   1      42.706  27.604  34.369  1.00  0.00     0.064 A 
ATOM     64  C   UNL A   1      43.277  26.390  33.933  1.00  0.00     0.173 A 
ATOM     65  C   UNL A   1      42.135  27.575  35.659  1.00  0.00     0.173 A 
ATOM     66  F   UNL A   1      43.827  26.292  32.713  1.00  0.00    -0.203 F 
ATOM     67  C   UNL A   1      43.218  25.224  34.702  1.00  0.00     0.198 A 
ATOM     68  C   UNL A   1      42.124  26.424  36.446  1.00  0.00     0.198 A 
ATOM     69  F   UNL A   1      41.469  28.622  36.162  1.00  0.00    -0.203 F 
ATOM     70  F   UNL A   1      43.665  24.067  34.196  1.00  0.00    -0.200 F 
ATOM     71  C   UNL A   1      42.636  25.241  35.957  1.00  0.00     0.200 A 
ATOM     72  F   UNL A   1      41.538  26.456  37.651  1.00  0.00    -0.200 F 
ATOM     73  F   UNL A   1      42.524  24.113  36.672  1.00  0.00    -0.200 F 
ENDBRANCH  49  63
BRANCH  50  74
ATOM     74  C   UNL A   1      43.125  25.134  26.218  1.00  0.00     0.064 A 
ATOM     75  C   UNL A   1      44.109  24.911  25.243  1.00  0.00     0.173 A 
ATOM     76  C   UNL A   1      42.336  24.025  26.580  1.00  0.00     0.173 A 
ATOM     77  F   UNL A   1      44.928  25.906  24.873  1.00  0.00    -0.203 F 
ATOM     78  C   UNL A   1      44.310  23.646  24.683  1.00  0.00     0.198 A 
ATOM     79  C   UNL A   1      42.532  22.764  26.015  1.00  0.00     0.198 A 
ATOM     80  F   UNL A   1      41.422  24.122  27.558  1.00  0.00    -0.203 F 
ATOM     81  F   UNL A   1      45.300  23.456  23.799  1.00  0.00    -0.200 F 
ATOM     82  C   UNL A   1      43.529  22.572  25.078  1.00  0.00     0.200 A 
ATOM     83  F   UNL A   1      41.792  21.727  26.433  1.00  0.00    -0.200 F 
ATOM     84  F   UNL A   1      43.762  21.347  24.587  1.00  0.00    -0.200 F 
ENDBRANCH  50  74
BRANCH  62  85
ATOM     85  C   UNL A   1      45.412  30.408  28.775  1.00  0.00     0.064 A 
ATOM     86  C   UNL A   1      44.434  31.094  28.033  1.00  0.00     0.173 A 
ATOM     87  C   UNL A   1      46.742  30.820  28.614  1.00  0.00     0.173 A 
ATOM     88  F   UNL A   1      43.132  30.838  28.204  1.00  0.00    -0.203 F 
ATOM     89  C   UNL A   1      44.776  32.107  27.139  1.00  0.00     0.198 A 
ATOM     90  C   UNL A   1      47.078  31.859  27.749  1.00  0.00     0.198 A 
ATOM     91  F   UNL A   1      47.716  30.246  29.338  1.00  0.00    -0.203 F 
ATOM     92  F   UNL A   1      43.822  32.733  26.434  1.00  0.00    -0.200 F 
ATOM     93  C   UNL A   1      46.098  32.493  27.003  1.00  0.00     0.200 A 
ATOM     94  F   UNL A   1      48.353  32.264  27.659  1.00  0.00    -0.200 F 
ATOM     95  F   UNL A   1      46.425  33.495  26.174  1.00  0.00    -0.200 F 
ENDBRANCH  62  85
ENDBRANCH  36  37
ENDBRANCH  28  31
ENDBRANCH  26  27
ENDBRANCH  25  26
ENDBRANCH  24  25
ENDBRANCH   1  24
TORSDOF 15
ENDMDL
MODEL 2
REMARK VINA RESULT:     -12.5      3.803      9.204
REMARK SMILES CCn1cc(CNC(=O)[C@H]2CC=CC[C@@H]2C(=O)NCCCCNC(=O)c2ccc(-c3c4nc(c(-c5c(F)c(F)c(F)c(F)c5F)c5ccc([nH]5)c(-c5c(F)c(F)c(F)c(F)c5F)c5nc(c(-c6c(F)c(F)c(F)c(F)c6F)c6ccc3[nH]6)C=C5)C=C4)cc2)cn1
REMARK SMILES IDX 19 1 18 2 16 3 17 4 15 6 10 7 11 8 12 9 14 10 13 11 8 12
REMARK SMILES IDX 7 13 9 15 6 16 5 17 3 18 4 19 90 20 89 21 2 22 1 23 20 24
REMARK SMILES IDX 21 25 22 26 23 27 24 28 25 30 26 31 27 32 88 33 28 34 87 35
REMARK SMILES IDX 29 36 30 37 31 38 81 39 32 40 86 41 80 42 82 43 33 44 85 45
REMARK SMILES IDX 79 46 78 47 34 49 66 50 46 51 65 52 47 53 50 54 64 55 83 56
REMARK SMILES IDX 48 57 49 58 63 60 84 61 51 62 35 63 36 64 44 65 37 66 38 67
REMARK SMILES IDX 42 68 45 69 39 70 40 71 43 72 41 73 67 74 68 75 76 76 69 77
REMARK SMILES IDX 70 78 74 79 77 80 71 81 72 82 75 83 73 84 52 85 53 86 61 87
REMARK SMILES IDX 54 88 55 89 59 90 62 91 56 92 57 93 60 94 58 95
REMARK H PARENT 18 5 7 14 23 29 82 48 50 59
REMARK Flexibility Score: inf
ROOT
ATOM      1  C   UNL A   1      36.395  20.821  25.266  1.00  0.00     0.116 C 
ENDROOT
BRANCH   1   2
ATOM      2  N   UNL A   1      35.897  21.617  26.369  1.00  0.00    -0.356 N 
ATOM      3  C   UNL A   1      34.795  22.407  26.518  1.00  0.00     0.224 C 
ATOM      4  O   UNL A   1      34.642  22.891  27.642  1.00  0.00    -0.275 OA
ATOM      5  H   UNL A   1      36.467  21.580  27.170  1.00  0.00     0.163 HD
BRANCH   3   6
ATOM      6  C   UNL A   1      33.757  22.598  25.398  1.00  0.00     0.095 C 
ATOM      7  C   UNL A   1      34.371  22.750  23.991  1.00  0.00     0.095 C 
ATOM      8  C   UNL A   1      35.144  24.087  23.874  1.00  0.00     0.041 C 
ATOM      9  C   UNL A   1      34.475  25.257  24.533  1.00  0.00    -0.030 C 
ATOM     10  C   UNL A   1      32.826  23.799  25.703  1.00  0.00     0.041 C 
ATOM     11  C   UNL A   1      33.415  25.130  25.339  1.00  0.00    -0.030 C 
BRANCH   7  12
ATOM     12  C   UNL A   1      33.341  22.583  22.865  1.00  0.00     0.224 C 
ATOM     13  N   UNL A   1      32.289  21.723  22.986  1.00  0.00    -0.352 N 
ATOM     14  H   UNL A   1      31.670  21.736  22.221  1.00  0.00     0.163 HD
ATOM     15  O   UNL A   1      33.447  23.169  21.786  1.00  0.00    -0.275 OA
BRANCH  13  16
ATOM     16  C   UNL A   1      31.916  20.795  24.028  1.00  0.00     0.155 C 
BRANCH  16  17
ATOM     17  C   UNL A   1      32.397  19.429  23.715  1.00  0.00     0.009 A 
ATOM     18  N   UNL A   1      33.121  17.353  23.868  1.00  0.00    -0.273 N 
ATOM     19  C   UNL A   1      32.845  18.471  24.602  1.00  0.00     0.114 A 
ATOM     20  N   UNL A   1      32.867  17.516  22.556  1.00  0.00    -0.181 NA
ATOM     21  C   UNL A   1      32.428  18.772  22.465  1.00  0.00     0.140 A 
BRANCH  18  22
ATOM     22  C   UNL A   1      33.651  16.076  24.312  1.00  0.00     0.141 C 
ATOM     23  C   UNL A   1      35.013  16.122  24.988  1.00  0.00     0.029 C 
ENDBRANCH  18  22
ENDBRANCH  16  17
ENDBRANCH  13  16
ENDBRANCH   7  12
ENDBRANCH   3   6
ENDBRANCH   1   2
BRANCH   1  24
ATOM     24  C   UNL A   1      37.895  21.006  25.032  1.00  0.00     0.023 C 
BRANCH  24  25
ATOM     25  C   UNL A   1      38.502  22.248  25.690  1.00  0.00     0.023 C 
BRANCH  25  26
ATOM     26  C   UNL A   1      39.653  21.951  26.643  1.00  0.00     0.116 C 
BRANCH  26  27
ATOM     27  N   UNL A   1      40.962  22.028  26.001  1.00  0.00    -0.352 N 
ATOM     28  C   UNL A   1      41.742  23.155  25.820  1.00  0.00     0.251 C 
ATOM     29  H   UNL A   1      41.330  21.182  25.659  1.00  0.00     0.163 HD
ATOM     30  O   UNL A   1      42.639  23.186  25.000  1.00  0.00    -0.269 OA
BRANCH  28  31
ATOM     31  C   UNL A   1      41.450  24.332  26.656  1.00  0.00     0.039 A 
ATOM     32  C   UNL A   1      42.000  24.447  27.934  1.00  0.00     0.014 A 
ATOM     33  C   UNL A   1      40.678  25.352  26.104  1.00  0.00     0.014 A 
ATOM     34  C   UNL A   1      41.843  25.645  28.625  1.00  0.00     0.010 A 
ATOM     35  C   UNL A   1      40.614  26.570  26.745  1.00  0.00     0.010 A 
ATOM     36  C   UNL A   1      41.172  26.718  28.016  1.00  0.00    -0.014 A 
BRANCH  36  37
ATOM     37  C   UNL A   1      41.163  28.033  28.659  1.00  0.00     0.031 A 
ATOM     38  C   UNL A   1      42.260  28.969  28.257  1.00  0.00     0.074 A 
ATOM     39  C   UNL A   1      40.119  28.482  29.386  1.00  0.00     0.049 A 
ATOM     40  N   UNL A   1      43.116  29.578  29.015  1.00  0.00    -0.248 NA
ATOM     41  C   UNL A   1      42.461  29.220  26.820  1.00  0.00     0.031 C 
ATOM     42  C   UNL A   1      38.823  27.834  29.618  1.00  0.00     0.029 A 
ATOM     43  N   UNL A   1      39.959  29.696  29.984  1.00  0.00    -0.354 N 
ATOM     44  C   UNL A   1      43.873  30.398  28.178  1.00  0.00     0.074 A 
ATOM     45  C   UNL A   1      43.502  30.055  26.829  1.00  0.00     0.031 C 
ATOM     46  C   UNL A   1      37.944  28.742  30.094  1.00  0.00     0.029 A 
ATOM     47  C   UNL A   1      38.655  29.978  30.363  1.00  0.00     0.049 A 
ATOM     48  H   UNL A   1      40.706  30.319  30.134  1.00  0.00     0.167 HD
ATOM     49  C   UNL A   1      44.625  31.428  28.661  1.00  0.00     0.037 A 
ATOM     50  C   UNL A   1      38.182  31.155  30.834  1.00  0.00     0.037 A 
ATOM     51  C   UNL A   1      44.882  31.278  30.068  1.00  0.00     0.049 A 
ATOM     52  C   UNL A   1      39.340  31.936  31.326  1.00  0.00     0.074 A 
ATOM     53  C   UNL A   1      45.527  30.330  30.838  1.00  0.00     0.029 A 
ATOM     54  N   UNL A   1      44.147  32.026  30.953  1.00  0.00    -0.354 N 
ATOM     55  N   UNL A   1      40.050  31.610  32.369  1.00  0.00    -0.248 NA
ATOM     56  C   UNL A   1      39.977  32.860  30.400  1.00  0.00     0.031 C 
ATOM     57  C   UNL A   1      44.745  30.232  32.028  1.00  0.00     0.029 A 
ATOM     58  C   UNL A   1      43.713  31.165  31.929  1.00  0.00     0.049 A 
ATOM     59  H   UNL A   1      43.966  32.991  30.899  1.00  0.00     0.167 HD
ATOM     60  C   UNL A   1      41.353  31.930  32.021  1.00  0.00     0.074 A 
ATOM     61  C   UNL A   1      41.233  32.788  30.846  1.00  0.00     0.031 C 
ATOM     62  C   UNL A   1      42.412  31.247  32.548  1.00  0.00     0.037 A 
BRANCH  49  63
ATOM     63  C   UNL A   1      44.874  32.728  27.934  1.00  0.00     0.064 A 
ATOM     64  C   UNL A   1      46.150  32.999  27.398  1.00  0.00     0.173 A 
ATOM     65  C   UNL A   1      43.999  33.834  28.002  1.00  0.00     0.173 A 
ATOM     66  F   UNL A   1      47.074  32.029  27.309  1.00  0.00    -0.203 F 
ATOM     67  C   UNL A   1      46.540  34.289  27.025  1.00  0.00     0.198 A 
ATOM     68  C   UNL A   1      44.373  35.109  27.580  1.00  0.00     0.198 A 
ATOM     69  F   UNL A   1      42.795  33.748  28.580  1.00  0.00    -0.203 F 
ATOM     70  F   UNL A   1      47.801  34.519  26.636  1.00  0.00    -0.200 F 
ATOM     71  C   UNL A   1      45.652  35.344  27.121  1.00  0.00     0.200 A 
ATOM     72  F   UNL A   1      43.504  36.123  27.700  1.00  0.00    -0.200 F 
ATOM     73  F   UNL A   1      46.040  36.592  26.822  1.00  0.00    -0.200 F 
ENDBRANCH  49  63
BRANCH  50  74
ATOM     74  C   UNL A   1      36.843  31.750  30.631  1.00  0.00     0.064 A 
ATOM     75  C   UNL A   1      35.973  31.964  31.712  1.00  0.00     0.173 A 
ATOM     76  C   UNL A   1      36.500  32.372  29.415  1.00  0.00     0.173 A 
ATOM     77  F   UNL A   1      36.251  31.441  32.914  1.00  0.00    -0.203 F 
ATOM     78  C   UNL A   1      34.841  32.775  31.589  1.00  0.00     0.198 A 
ATOM     79  C   UNL A   1      35.365  33.175  29.292  1.00  0.00     0.198 A 
ATOM     80  F   UNL A   1      37.309  32.289  28.348  1.00  0.00    -0.203 F 
ATOM     81  F   UNL A   1      34.066  33.007  32.658  1.00  0.00    -0.200 F 
ATOM     82  C   UNL A   1      34.545  33.388  30.382  1.00  0.00     0.200 A 
ATOM     83  F   UNL A   1      35.110  33.790  28.128  1.00  0.00    -0.200 F 
ATOM     84  F   UNL A   1      33.494  34.215  30.282  1.00  0.00    -0.200 F 
ENDBRANCH  50  74
BRANCH  62  85
ATOM     85  C   UNL A   1      42.146  30.317  33.699  1.00  0.00     0.064 A 
ATOM     86  C   UNL A   1      41.761  28.973  33.551  1.00  0.00     0.173 A 
ATOM     87  C   UNL A   1      42.431  30.762  34.997  1.00  0.00     0.173 A 
ATOM     88  F   UNL A   1      41.574  28.437  32.341  1.00  0.00    -0.203 F 
ATOM     89  C   UNL A   1      41.620  28.131  34.654  1.00  0.00     0.198 A 
ATOM     90  C   UNL A   1      42.327  29.909  36.093  1.00  0.00     0.198 A 
ATOM     91  F   UNL A   1      42.861  32.017  35.198  1.00  0.00    -0.203 F 
ATOM     92  F   UNL A   1      41.237  26.857  34.483  1.00  0.00    -0.200 F 
ATOM     93  C   UNL A   1      41.910  28.599  35.923  1.00  0.00     0.200 A 
ATOM     94  F   UNL A   1      42.658  30.351  37.315  1.00  0.00    -0.200 F 
ATOM     95  F   UNL A   1      41.815  27.780  36.981  1.00  0.00    -0.200 F 
ENDBRANCH  62  85
ENDBRANCH  36  37
ENDBRANCH  28  31
ENDBRANCH  26  27
ENDBRANCH  25  26
ENDBRANCH  24  25
ENDBRANCH   1  24
TORSDOF 15
ENDMDL
MODEL 3
REMARK VINA RESULT:     -12.4      3.228      8.522
REMARK SMILES CCn1cc(CNC(=O)[C@H]2CC=CC[C@@H]2C(=O)NCCCCNC(=O)c2ccc(-c3c4nc(c(-c5c(F)c(F)c(F)c(F)c5F)c5ccc([nH]5)c(-c5c(F)c(F)c(F)c(F)c5F)c5nc(c(-c6c(F)c(F)c(F)c(F)c6F)c6ccc3[nH]6)C=C5)C=C4)cc2)cn1
REMARK SMILES IDX 19 1 18 2 16 3 17 4 15 6 10 7 11 8 12 9 14 10 13 11 8 12
REMARK SMILES IDX 7 13 9 15 6 16 5 17 3 18 4 19 90 20 89 21 2 22 1 23 20 24
REMARK SMILES IDX 21 25 22 26 23 27 24 28 25 30 26 31 27 32 88 33 28 34 87 35
REMARK SMILES IDX 29 36 30 37 31 38 81 39 32 40 86 41 80 42 82 43 33 44 85 45
REMARK SMILES IDX 79 46 78 47 34 49 66 50 46 51 65 52 47 53 50 54 64 55 83 56
REMARK SMILES IDX 48 57 49 58 63 60 84 61 51 62 35 63 36 64 44 65 37 66 38 67
REMARK SMILES IDX 42 68 45 69 39 70 40 71 43 72 41 73 67 74 68 75 76 76 69 77
REMARK SMILES IDX 70 78 74 79 77 80 71 81 72 82 75 83 73 84 52 85 53 86 61 87
REMARK SMILES IDX 54 88 55 89 59 90 62 91 56 92 57 93 60 94 58 95
REMARK H PARENT 18 5 7 14 23 29 82 48 50 59
REMARK Flexibility Score: inf
ROOT
ATOM      1  C   UNL A   1      36.583  23.509  25.619  1.00  0.00     0.116 C 
ENDROOT
BRANCH   1   2
ATOM      2  N   UNL A   1      35.627  23.047  26.604  1.00  0.00    -0.356 N 
ATOM      3  C   UNL A   1      34.264  22.997  26.621  1.00  0.00     0.224 C 
ATOM      4  O   UNL A   1      33.768  22.463  27.617  1.00  0.00    -0.275 OA
ATOM      5  H   UNL A   1      36.045  22.699  27.424  1.00  0.00     0.163 HD
BRANCH   3   6
ATOM      6  C   UNL A   1      33.404  23.474  25.436  1.00  0.00     0.095 C 
ATOM      7  C   UNL A   1      31.914  23.094  25.549  1.00  0.00     0.095 C 
ATOM      8  C   UNL A   1      31.729  21.562  25.416  1.00  0.00     0.041 C 
ATOM      9  C   UNL A   1      32.594  20.915  24.375  1.00  0.00    -0.030 C 
ATOM     10  C   UNL A   1      33.982  22.965  24.091  1.00  0.00     0.041 C 
ATOM     11  C   UNL A   1      33.595  21.554  23.760  1.00  0.00    -0.030 C 
BRANCH   7  12
ATOM     12  C   UNL A   1      31.021  23.866  24.566  1.00  0.00     0.224 C 
ATOM     13  N   UNL A   1      30.481  25.074  24.895  1.00  0.00    -0.352 N 
ATOM     14  H   UNL A   1      29.967  25.495  24.169  1.00  0.00     0.163 HD
ATOM     15  O   UNL A   1      30.706  23.407  23.466  1.00  0.00    -0.275 OA
BRANCH  13  16
ATOM     16  C   UNL A   1      30.523  25.850  26.112  1.00  0.00     0.155 C 
BRANCH  16  17
ATOM     17  C   UNL A   1      31.257  27.120  25.903  1.00  0.00     0.009 A 
ATOM     18  N   UNL A   1      32.675  28.800  26.076  1.00  0.00    -0.273 N 
ATOM     19  C   UNL A   1      32.255  27.656  26.693  1.00  0.00     0.114 A 
ATOM     20  N   UNL A   1      32.023  29.038  24.923  1.00  0.00    -0.181 NA
ATOM     21  C   UNL A   1      31.166  28.021  24.819  1.00  0.00     0.140 A 
BRANCH  18  22
ATOM     22  C   UNL A   1      33.680  29.754  26.508  1.00  0.00     0.141 C 
ATOM     23  C   UNL A   1      34.710  29.231  27.497  1.00  0.00     0.029 C 
ENDBRANCH  18  22
ENDBRANCH  16  17
ENDBRANCH  13  16
ENDBRANCH   7  12
ENDBRANCH   3   6
ENDBRANCH   1   2
BRANCH   1  24
ATOM     24  C   UNL A   1      38.023  23.476  26.130  1.00  0.00     0.023 C 
BRANCH  24  25
ATOM     25  C   UNL A   1      38.804  22.209  25.774  1.00  0.00     0.023 C 
BRANCH  25  26
ATOM     26  C   UNL A   1      40.003  21.938  26.677  1.00  0.00     0.116 C 
BRANCH  26  27
ATOM     27  N   UNL A   1      41.282  22.091  25.990  1.00  0.00    -0.352 N 
ATOM     28  C   UNL A   1      41.976  23.264  25.760  1.00  0.00     0.251 C 
ATOM     29  H   UNL A   1      41.697  21.264  25.653  1.00  0.00     0.163 HD
ATOM     30  O   UNL A   1      42.842  23.339  24.910  1.00  0.00    -0.269 OA
BRANCH  28  31
ATOM     31  C   UNL A   1      41.629  24.437  26.581  1.00  0.00     0.039 A 
ATOM     32  C   UNL A   1      42.077  24.536  27.900  1.00  0.00     0.014 A 
ATOM     33  C   UNL A   1      40.912  25.469  25.980  1.00  0.00     0.014 A 
ATOM     34  C   UNL A   1      41.877  25.730  28.587  1.00  0.00     0.010 A 
ATOM     35  C   UNL A   1      40.809  26.682  26.624  1.00  0.00     0.010 A 
ATOM     36  C   UNL A   1      41.266  26.814  27.937  1.00  0.00    -0.014 A 
BRANCH  36  37
ATOM     37  C   UNL A   1      41.218  28.123  28.589  1.00  0.00     0.031 A 
ATOM     38  C   UNL A   1      42.305  29.083  28.218  1.00  0.00     0.074 A 
ATOM     39  C   UNL A   1      40.150  28.548  29.296  1.00  0.00     0.049 A 
ATOM     40  N   UNL A   1      43.133  29.702  28.999  1.00  0.00    -0.248 NA
ATOM     41  C   UNL A   1      42.533  29.349  26.788  1.00  0.00     0.031 C 
ATOM     42  C   UNL A   1      38.861  27.873  29.495  1.00  0.00     0.029 A 
ATOM     43  N   UNL A   1      39.954  29.753  29.899  1.00  0.00    -0.354 N 
ATOM     44  C   UNL A   1      43.893  30.542  28.184  1.00  0.00     0.074 A 
ATOM     45  C   UNL A   1      43.557  30.203  26.826  1.00  0.00     0.031 C 
ATOM     46  C   UNL A   1      37.955  28.761  29.958  1.00  0.00     0.029 A 
ATOM     47  C   UNL A   1      38.636  30.008  30.251  1.00  0.00     0.049 A 
ATOM     48  H   UNL A   1      40.685  30.389  30.070  1.00  0.00     0.167 HD
ATOM     49  C   UNL A   1      44.614  31.583  28.691  1.00  0.00     0.037 A 
ATOM     50  C   UNL A   1      38.131  31.173  30.720  1.00  0.00     0.037 A 
ATOM     51  C   UNL A   1      44.843  31.427  30.103  1.00  0.00     0.049 A 
ATOM     52  C   UNL A   1      39.263  31.971  31.244  1.00  0.00     0.074 A 
ATOM     53  C   UNL A   1      45.489  30.485  30.880  1.00  0.00     0.029 A 
ATOM     54  N   UNL A   1      44.075  32.154  30.977  1.00  0.00    -0.354 N 
ATOM     55  N   UNL A   1      39.956  31.650  32.299  1.00  0.00    -0.248 NA
ATOM     56  C   UNL A   1      39.903  32.914  30.339  1.00  0.00     0.031 C 
ATOM     57  C   UNL A   1      44.683  30.363  32.052  1.00  0.00     0.029 A 
ATOM     58  C   UNL A   1      43.636  31.278  31.937  1.00  0.00     0.049 A 
ATOM     59  H   UNL A   1      43.877  33.116  30.926  1.00  0.00     0.167 HD
ATOM     60  C   UNL A   1      41.260  31.997  31.983  1.00  0.00     0.074 A 
ATOM     61  C   UNL A   1      41.150  32.862  30.811  1.00  0.00     0.031 C 
ATOM     62  C   UNL A   1      42.320  31.331  32.528  1.00  0.00     0.037 A 
BRANCH  49  63
ATOM     63  C   UNL A   1      44.854  32.893  27.980  1.00  0.00     0.064 A 
ATOM     64  C   UNL A   1      46.141  33.200  27.492  1.00  0.00     0.173 A 
ATOM     65  C   UNL A   1      43.948  33.974  28.021  1.00  0.00     0.173 A 
ATOM     66  F   UNL A   1      47.094  32.256  27.432  1.00  0.00    -0.203 F 
ATOM     67  C   UNL A   1      46.509  34.502  27.139  1.00  0.00     0.198 A 
ATOM     68  C   UNL A   1      44.303  35.261  27.618  1.00  0.00     0.198 A 
ATOM     69  F   UNL A   1      42.726  33.854  28.554  1.00  0.00    -0.203 F 
ATOM     70  F   UNL A   1      47.778  34.768  26.797  1.00  0.00    -0.200 F 
ATOM     71  C   UNL A   1      45.591  35.533  27.207  1.00  0.00     0.200 A 
ATOM     72  F   UNL A   1      43.403  36.251  27.711  1.00  0.00    -0.200 F 
ATOM     73  F   UNL A   1      45.955  36.792  26.928  1.00  0.00    -0.200 F 
ENDBRANCH  49  63
BRANCH  50  74
ATOM     74  C   UNL A   1      36.787  31.744  30.493  1.00  0.00     0.064 A 
ATOM     75  C   UNL A   1      35.980  32.151  31.566  1.00  0.00     0.173 A 
ATOM     76  C   UNL A   1      36.378  32.154  29.209  1.00  0.00     0.173 A 
ATOM     77  F   UNL A   1      36.323  31.836  32.823  1.00  0.00    -0.203 F 
ATOM     78  C   UNL A   1      34.847  32.946  31.369  1.00  0.00     0.198 A 
ATOM     79  C   UNL A   1      35.242  32.941  29.012  1.00  0.00     0.198 A 
ATOM     80  F   UNL A   1      37.126  31.879  28.129  1.00  0.00    -0.203 F 
ATOM     81  F   UNL A   1      34.135  33.368  32.424  1.00  0.00    -0.200 F 
ATOM     82  C   UNL A   1      34.486  33.349  30.094  1.00  0.00     0.200 A 
ATOM     83  F   UNL A   1      34.925  33.352  27.776  1.00  0.00    -0.200 F 
ATOM     84  F   UNL A   1      33.435  34.161  29.911  1.00  0.00    -0.200 F 
ENDBRANCH  50  74
BRANCH  62  85
ATOM     85  C   UNL A   1      42.047  30.386  33.666  1.00  0.00     0.064 A 
ATOM     86  C   UNL A   1      41.699  29.034  33.500  1.00  0.00     0.173 A 
ATOM     87  C   UNL A   1      42.286  30.830  34.973  1.00  0.00     0.173 A 
ATOM     88  F   UNL A   1      41.558  28.502  32.282  1.00  0.00    -0.203 F 
ATOM     89  C   UNL A   1      41.550  28.183  34.593  1.00  0.00     0.198 A 
ATOM     90  C   UNL A   1      42.174  29.968  36.062  1.00  0.00     0.198 A 
ATOM     91  F   UNL A   1      42.679  32.095  35.193  1.00  0.00    -0.203 F 
ATOM     92  F   UNL A   1      41.203  26.900  34.404  1.00  0.00    -0.200 F 
ATOM     93  C   UNL A   1      41.794  28.649  35.873  1.00  0.00     0.200 A 
ATOM     94  F   UNL A   1      42.462  30.410  37.294  1.00  0.00    -0.200 F 
ATOM     95  F   UNL A   1      41.692  27.821  36.922  1.00  0.00    -0.200 F 
ENDBRANCH  62  85
ENDBRANCH  36  37
ENDBRANCH  28  31
ENDBRANCH  26  27
ENDBRANCH  25  26
ENDBRANCH  24  25
ENDBRANCH   1  24
TORSDOF 15
ENDMDL
