MODEL 1
REMARK VINA RESULT:     -11.8      0.000      0.000
REMARK SMILES C[NH2+][C@H](CC(=O)NCCCCNC(=O)c1ccc(-c2c3nc(c(-c4c(F)c(F)c(F)c(F)c4F)c4ccc([nH]4)c(-c4c(F)c(F)c(F)c(F)c4F)c4nc(c(-c5c(F)c(F)c(F)c(F)c5F)c5ccc2[nH]5)C=C4)C=C3)cc1)c1cccc(C2CC2)c1
REMARK SMILES IDX 9 1 8 2 7 3 5 4 6 5 4 7 3 8 2 9 1 10 78 13 79 14 86 15 80 16
REMARK SMILES IDX 82 17 81 18 83 19 84 20 85 21 10 22 11 23 12 24 13 25 14 27
REMARK SMILES IDX 15 28 16 29 77 30 17 31 76 32 18 33 19 34 20 35 70 36 21 37
REMARK SMILES IDX 75 38 69 39 71 40 22 41 74 42 68 43 67 44 23 46 55 47 35 48
REMARK SMILES IDX 54 49 36 50 39 51 53 52 72 53 37 54 38 55 52 57 73 58 40 59
REMARK SMILES IDX 24 60 25 61 33 62 26 63 27 64 31 65 34 66 28 67 29 68 32 69
REMARK SMILES IDX 30 70 56 71 57 72 65 73 58 74 59 75 63 76 66 77 60 78 61 79
REMARK SMILES IDX 64 80 62 81 41 82 42 83 50 84 43 85 44 86 48 87 51 88 45 89
REMARK SMILES IDX 46 90 49 91 47 92
REMARK H PARENT 7 6 2 11 2 12 12 26 71 45 39 56
REMARK Flexibility Score: inf
ROOT
ATOM      1  C   UNL A   1      31.137  30.803  25.427  1.00  0.00     0.023 C 
ENDROOT
BRANCH   1   2
ATOM      2  C   UNL A   1      32.278  29.820  25.702  1.00  0.00     0.116 C 
BRANCH   2   3
ATOM      3  N   UNL A   1      33.212  29.698  24.602  1.00  0.00    -0.356 N 
ATOM      4  C   UNL A   1      33.378  28.722  23.670  1.00  0.00     0.226 C 
ATOM      5  O   UNL A   1      34.136  28.966  22.728  1.00  0.00    -0.275 OA
ATOM      6  H   UNL A   1      33.836  30.454  24.513  1.00  0.00     0.163 HD
BRANCH   4   7
ATOM      7  C   UNL A   1      32.624  27.411  23.744  1.00  0.00     0.170 C 
BRANCH   7   8
ATOM      8  C   UNL A   1      31.608  27.161  22.612  1.00  0.00     0.222 C 
BRANCH   8   9
ATOM      9  N   UNL A   1      31.590  25.741  22.199  1.00  0.00    -0.342 N 
ATOM     10  C   UNL A   1      32.892  25.095  22.309  1.00  0.00     0.331 C 
ATOM     11  H   UNL A   1      30.928  25.239  22.790  1.00  0.00     0.346 HD
ATOM     12  H   UNL A   1      31.321  25.715  21.215  1.00  0.00     0.346 HD
ENDBRANCH   8   9
BRANCH   8  13
ATOM     13  C   UNL A   1      30.197  27.629  22.953  1.00  0.00     0.010 A 
ATOM     14  C   UNL A   1      29.373  26.787  23.706  1.00  0.00     0.010 A 
ATOM     15  C   UNL A   1      29.663  28.854  22.519  1.00  0.00     0.014 A 
ATOM     16  C   UNL A   1      28.022  27.052  23.872  1.00  0.00     0.001 A 
ATOM     17  C   UNL A   1      28.324  29.217  22.786  1.00  0.00    -0.044 A 
ATOM     18  C   UNL A   1      27.507  28.253  23.404  1.00  0.00     0.004 A 
BRANCH  17  19
ATOM     19  C   UNL A   1      27.735  30.585  22.511  1.00  0.00     0.019 C 
ATOM     20  C   UNL A   1      27.620  31.579  23.644  1.00  0.00     0.009 C 
ATOM     21  C   UNL A   1      28.541  31.853  22.488  1.00  0.00     0.009 C 
ENDBRANCH  17  19
ENDBRANCH   8  13
ENDBRANCH   7   8
ENDBRANCH   4   7
ENDBRANCH   2   3
ENDBRANCH   1   2
BRANCH   1  22
ATOM     22  C   UNL A   1      31.026  31.988  26.390  1.00  0.00     0.023 C 
BRANCH  22  23
ATOM     23  C   UNL A   1      32.358  32.396  27.002  1.00  0.00     0.116 C 
BRANCH  23  24
ATOM     24  N   UNL A   1      32.356  33.809  27.354  1.00  0.00    -0.352 N 
ATOM     25  C   UNL A   1      33.005  34.469  28.364  1.00  0.00     0.251 C 
ATOM     26  H   UNL A   1      31.801  34.381  26.775  1.00  0.00     0.163 HD
ATOM     27  O   UNL A   1      32.625  35.586  28.699  1.00  0.00    -0.269 OA
BRANCH  25  28
ATOM     28  C   UNL A   1      34.171  33.857  29.037  1.00  0.00     0.039 A 
ATOM     29  C   UNL A   1      35.441  34.395  28.808  1.00  0.00     0.014 A 
ATOM     30  C   UNL A   1      34.030  32.713  29.825  1.00  0.00     0.014 A 
ATOM     31  C   UNL A   1      36.560  33.795  29.385  1.00  0.00     0.010 A 
ATOM     32  C   UNL A   1      35.132  32.174  30.479  1.00  0.00     0.010 A 
ATOM     33  C   UNL A   1      36.412  32.690  30.237  1.00  0.00    -0.014 A 
BRANCH  33  34
ATOM     34  C   UNL A   1      37.593  32.033  30.843  1.00  0.00     0.031 A 
ATOM     35  C   UNL A   1      38.031  32.403  32.234  1.00  0.00     0.074 A 
ATOM     36  C   UNL A   1      38.287  31.132  30.124  1.00  0.00     0.049 A 
ATOM     37  N   UNL A   1      39.040  31.948  32.934  1.00  0.00    -0.248 NA
ATOM     38  C   UNL A   1      37.255  33.450  32.920  1.00  0.00     0.031 C 
ATOM     39  C   UNL A   1      37.999  30.757  28.738  1.00  0.00     0.029 A 
ATOM     40  N   UNL A   1      39.374  30.367  30.457  1.00  0.00    -0.354 N 
ATOM     41  C   UNL A   1      39.022  32.658  34.128  1.00  0.00     0.074 A 
ATOM     42  C   UNL A   1      37.950  33.624  34.034  1.00  0.00     0.031 C 
ATOM     43  C   UNL A   1      38.866  29.809  28.350  1.00  0.00     0.029 A 
ATOM     44  C   UNL A   1      39.781  29.526  29.451  1.00  0.00     0.049 A 
ATOM     45  H   UNL A   1      39.821  30.418  31.333  1.00  0.00     0.167 HD
ATOM     46  C   UNL A   1      39.807  32.495  35.220  1.00  0.00     0.037 A 
ATOM     47  C   UNL A   1      40.777  28.621  29.430  1.00  0.00     0.037 A 
ATOM     48  C   UNL A   1      40.851  31.511  35.316  1.00  0.00     0.049 A 
ATOM     49  C   UNL A   1      41.595  28.418  30.675  1.00  0.00     0.074 A 
ATOM     50  C   UNL A   1      41.680  31.227  36.385  1.00  0.00     0.029 A 
ATOM     51  N   UNL A   1      41.201  30.638  34.294  1.00  0.00    -0.354 N 
ATOM     52  N   UNL A   1      41.526  29.049  31.823  1.00  0.00    -0.248 NA
ATOM     53  C   UNL A   1      42.616  27.363  30.630  1.00  0.00     0.031 C 
ATOM     54  C   UNL A   1      42.552  30.200  36.002  1.00  0.00     0.029 A 
ATOM     55  C   UNL A   1      42.236  29.816  34.708  1.00  0.00     0.049 A 
ATOM     56  H   UNL A   1      40.776  30.606  33.406  1.00  0.00     0.167 HD
ATOM     57  C   UNL A   1      42.480  28.461  32.639  1.00  0.00     0.074 A 
ATOM     58  C   UNL A   1      43.093  27.400  31.865  1.00  0.00     0.031 C 
ATOM     59  C   UNL A   1      42.829  28.773  33.912  1.00  0.00     0.037 A 
BRANCH  46  60
ATOM     60  C   UNL A   1      39.544  33.385  36.401  1.00  0.00     0.064 A 
ATOM     61  C   UNL A   1      38.642  33.014  37.411  1.00  0.00     0.173 A 
ATOM     62  C   UNL A   1      40.215  34.609  36.542  1.00  0.00     0.173 A 
ATOM     63  F   UNL A   1      37.962  31.860  37.317  1.00  0.00    -0.203 F 
ATOM     64  C   UNL A   1      38.399  33.847  38.499  1.00  0.00     0.198 A 
ATOM     65  C   UNL A   1      39.991  35.427  37.647  1.00  0.00     0.198 A 
ATOM     66  F   UNL A   1      41.090  35.012  35.609  1.00  0.00    -0.203 F 
ATOM     67  F   UNL A   1      37.493  33.494  39.422  1.00  0.00    -0.200 F 
ATOM     68  C   UNL A   1      39.078  35.049  38.620  1.00  0.00     0.200 A 
ATOM     69  F   UNL A   1      40.656  36.584  37.769  1.00  0.00    -0.200 F 
ATOM     70  F   UNL A   1      38.846  35.848  39.670  1.00  0.00    -0.200 F 
ENDBRANCH  46  60
BRANCH  47  71
ATOM     71  C   UNL A   1      41.015  27.809  28.208  1.00  0.00     0.064 A 
ATOM     72  C   UNL A   1      40.352  26.590  28.013  1.00  0.00     0.173 A 
ATOM     73  C   UNL A   1      41.899  28.239  27.209  1.00  0.00     0.173 A 
ATOM     74  F   UNL A   1      39.506  26.130  28.946  1.00  0.00    -0.203 F 
ATOM     75  C   UNL A   1      40.584  25.818  26.875  1.00  0.00     0.198 A 
ATOM     76  C   UNL A   1      42.109  27.481  26.059  1.00  0.00     0.198 A 
ATOM     77  F   UNL A   1      42.549  29.404  27.342  1.00  0.00    -0.203 F 
ATOM     78  F   UNL A   1      39.971  24.635  26.736  1.00  0.00    -0.200 F 
ATOM     79  C   UNL A   1      41.458  26.267  25.897  1.00  0.00     0.200 A 
ATOM     80  F   UNL A   1      42.941  27.926  25.108  1.00  0.00    -0.200 F 
ATOM     81  F   UNL A   1      41.676  25.527  24.802  1.00  0.00    -0.200 F 
ENDBRANCH  47  71
BRANCH  59  82
ATOM     82  C   UNL A   1      43.913  27.946  34.536  1.00  0.00     0.064 A 
ATOM     83  C   UNL A   1      43.624  26.746  35.205  1.00  0.00     0.173 A 
ATOM     84  C   UNL A   1      45.253  28.350  34.455  1.00  0.00     0.173 A 
ATOM     85  F   UNL A   1      42.356  26.327  35.321  1.00  0.00    -0.203 F 
ATOM     86  C   UNL A   1      44.636  26.001  35.802  1.00  0.00     0.198 A 
ATOM     87  C   UNL A   1      46.266  27.585  35.026  1.00  0.00     0.198 A 
ATOM     88  F   UNL A   1      45.581  29.485  33.819  1.00  0.00    -0.203 F 
ATOM     89  F   UNL A   1      44.331  24.889  36.486  1.00  0.00    -0.200 F 
ATOM     90  C   UNL A   1      45.956  26.418  35.709  1.00  0.00     0.200 A 
ATOM     91  F   UNL A   1      47.542  27.983  34.926  1.00  0.00    -0.200 F 
ATOM     92  F   UNL A   1      46.928  25.700  36.286  1.00  0.00    -0.200 F 
ENDBRANCH  59  82
ENDBRANCH  33  34
ENDBRANCH  25  28
ENDBRANCH  23  24
ENDBRANCH  22  23
ENDBRANCH   1  22
TORSDOF 15
ENDMDL
MODEL 2
REMARK VINA RESULT:     -11.4      0.401      1.669
REMARK SMILES C[NH2+][C@H](CC(=O)NCCCCNC(=O)c1ccc(-c2c3nc(c(-c4c(F)c(F)c(F)c(F)c4F)c4ccc([nH]4)c(-c4c(F)c(F)c(F)c(F)c4F)c4nc(c(-c5c(F)c(F)c(F)c(F)c5F)c5ccc2[nH]5)C=C4)C=C3)cc1)c1cccc(C2CC2)c1
REMARK SMILES IDX 9 1 8 2 7 3 5 4 6 5 4 7 3 8 2 9 1 10 78 13 79 14 86 15 80 16
REMARK SMILES IDX 82 17 81 18 83 19 84 20 85 21 10 22 11 23 12 24 13 25 14 27
REMARK SMILES IDX 15 28 16 29 77 30 17 31 76 32 18 33 19 34 20 35 70 36 21 37
REMARK SMILES IDX 75 38 69 39 71 40 22 41 74 42 68 43 67 44 23 46 55 47 35 48
REMARK SMILES IDX 54 49 36 50 39 51 53 52 72 53 37 54 38 55 52 57 73 58 40 59
REMARK SMILES IDX 24 60 25 61 33 62 26 63 27 64 31 65 34 66 28 67 29 68 32 69
REMARK SMILES IDX 30 70 56 71 57 72 65 73 58 74 59 75 63 76 66 77 60 78 61 79
REMARK SMILES IDX 64 80 62 81 41 82 42 83 50 84 43 85 44 86 48 87 51 88 45 89
REMARK SMILES IDX 46 90 49 91 47 92
REMARK H PARENT 7 6 2 11 2 12 12 26 71 45 39 56
REMARK Flexibility Score: inf
ROOT
ATOM      1  C   UNL A   1      31.662  30.625  26.732  1.00  0.00     0.023 C 
ENDROOT
BRANCH   1   2
ATOM      2  C   UNL A   1      31.563  30.044  25.319  1.00  0.00     0.116 C 
BRANCH   2   3
ATOM      3  N   UNL A   1      32.848  29.714  24.739  1.00  0.00    -0.356 N 
ATOM      4  C   UNL A   1      33.298  28.580  24.139  1.00  0.00     0.226 C 
ATOM      5  O   UNL A   1      34.388  28.641  23.565  1.00  0.00    -0.275 OA
ATOM      6  H   UNL A   1      33.513  30.439  24.786  1.00  0.00     0.163 HD
BRANCH   4   7
ATOM      7  C   UNL A   1      32.477  27.308  24.120  1.00  0.00     0.170 C 
BRANCH   7   8
ATOM      8  C   UNL A   1      31.576  27.113  22.885  1.00  0.00     0.222 C 
BRANCH   8   9
ATOM      9  N   UNL A   1      31.611  25.718  22.397  1.00  0.00    -0.342 N 
ATOM     10  C   UNL A   1      32.294  25.574  21.118  1.00  0.00     0.331 C 
ATOM     11  H   UNL A   1      32.093  25.145  23.089  1.00  0.00     0.346 HD
ATOM     12  H   UNL A   1      30.645  25.420  22.260  1.00  0.00     0.346 HD
ENDBRANCH   8   9
BRANCH   8  13
ATOM     13  C   UNL A   1      30.134  27.557  23.114  1.00  0.00     0.010 A 
ATOM     14  C   UNL A   1      29.273  26.705  23.811  1.00  0.00     0.010 A 
ATOM     15  C   UNL A   1      29.611  28.767  22.629  1.00  0.00     0.014 A 
ATOM     16  C   UNL A   1      27.908  26.945  23.873  1.00  0.00     0.001 A 
ATOM     17  C   UNL A   1      28.249  29.105  22.791  1.00  0.00    -0.044 A 
ATOM     18  C   UNL A   1      27.407  28.131  23.356  1.00  0.00     0.004 A 
BRANCH  17  19
ATOM     19  C   UNL A   1      27.657  30.459  22.458  1.00  0.00     0.019 C 
ATOM     20  C   UNL A   1      27.690  31.554  23.501  1.00  0.00     0.009 C 
ATOM     21  C   UNL A   1      28.477  31.697  22.227  1.00  0.00     0.009 C 
ENDBRANCH  17  19
ENDBRANCH   8  13
ENDBRANCH   7   8
ENDBRANCH   4   7
ENDBRANCH   2   3
ENDBRANCH   1   2
BRANCH   1  22
ATOM     22  C   UNL A   1      31.468  32.138  26.850  1.00  0.00     0.023 C 
BRANCH  22  23
ATOM     23  C   UNL A   1      32.777  32.912  26.911  1.00  0.00     0.116 C 
BRANCH  23  24
ATOM     24  N   UNL A   1      32.583  34.211  27.542  1.00  0.00    -0.352 N 
ATOM     25  C   UNL A   1      33.068  34.699  28.726  1.00  0.00     0.251 C 
ATOM     26  H   UNL A   1      32.015  34.837  27.036  1.00  0.00     0.163 HD
ATOM     27  O   UNL A   1      32.534  35.677  29.240  1.00  0.00    -0.269 OA
BRANCH  25  28
ATOM     28  C   UNL A   1      34.238  34.073  29.377  1.00  0.00     0.039 A 
ATOM     29  C   UNL A   1      35.520  34.456  28.974  1.00  0.00     0.014 A 
ATOM     30  C   UNL A   1      34.078  33.056  30.323  1.00  0.00     0.014 A 
ATOM     31  C   UNL A   1      36.636  33.833  29.533  1.00  0.00     0.010 A 
ATOM     32  C   UNL A   1      35.189  32.506  30.951  1.00  0.00     0.010 A 
ATOM     33  C   UNL A   1      36.479  32.865  30.537  1.00  0.00    -0.014 A 
BRANCH  33  34
ATOM     34  C   UNL A   1      37.654  32.184  31.127  1.00  0.00     0.031 A 
ATOM     35  C   UNL A   1      38.121  32.548  32.511  1.00  0.00     0.074 A 
ATOM     36  C   UNL A   1      38.318  31.267  30.400  1.00  0.00     0.049 A 
ATOM     37  N   UNL A   1      39.130  32.073  33.197  1.00  0.00    -0.248 NA
ATOM     38  C   UNL A   1      37.378  33.613  33.205  1.00  0.00     0.031 C 
ATOM     39  C   UNL A   1      38.001  30.894  29.020  1.00  0.00     0.029 A 
ATOM     40  N   UNL A   1      39.393  30.480  30.719  1.00  0.00    -0.354 N 
ATOM     41  C   UNL A   1      39.145  32.786  34.389  1.00  0.00     0.074 A 
ATOM     42  C   UNL A   1      38.093  33.774  34.308  1.00  0.00     0.031 C 
ATOM     43  C   UNL A   1      38.842  29.927  28.621  1.00  0.00     0.029 A 
ATOM     44  C   UNL A   1      39.767  29.628  29.709  1.00  0.00     0.049 A 
ATOM     45  H   UNL A   1      39.854  30.522  31.588  1.00  0.00     0.167 HD
ATOM     46  C   UNL A   1      39.943  32.609  35.469  1.00  0.00     0.037 A 
ATOM     47  C   UNL A   1      40.742  28.701  29.676  1.00  0.00     0.037 A 
ATOM     48  C   UNL A   1      40.966  31.602  35.553  1.00  0.00     0.049 A 
ATOM     49  C   UNL A   1      41.575  28.483  30.910  1.00  0.00     0.074 A 
ATOM     50  C   UNL A   1      41.804  31.303  36.610  1.00  0.00     0.029 A 
ATOM     51  N   UNL A   1      41.282  30.719  34.528  1.00  0.00    -0.354 N 
ATOM     52  N   UNL A   1      41.536  29.118  32.057  1.00  0.00    -0.248 NA
ATOM     53  C   UNL A   1      42.571  27.406  30.852  1.00  0.00     0.031 C 
ATOM     54  C   UNL A   1      42.648  30.256  36.217  1.00  0.00     0.029 A 
ATOM     55  C   UNL A   1      42.305  29.877  34.929  1.00  0.00     0.049 A 
ATOM     56  H   UNL A   1      40.843  30.695  33.647  1.00  0.00     0.167 HD
ATOM     57  C   UNL A   1      42.489  28.511  32.860  1.00  0.00     0.074 A 
ATOM     58  C   UNL A   1      43.067  27.436  32.080  1.00  0.00     0.031 C 
ATOM     59  C   UNL A   1      42.864  28.819  34.127  1.00  0.00     0.037 A 
BRANCH  46  60
ATOM     60  C   UNL A   1      39.717  33.507  36.652  1.00  0.00     0.064 A 
ATOM     61  C   UNL A   1      38.839  33.147  37.687  1.00  0.00     0.173 A 
ATOM     62  C   UNL A   1      40.398  34.727  36.768  1.00  0.00     0.173 A 
ATOM     63  F   UNL A   1      38.150  31.997  37.619  1.00  0.00    -0.203 F 
ATOM     64  C   UNL A   1      38.630  33.988  38.777  1.00  0.00     0.198 A 
ATOM     65  C   UNL A   1      40.208  35.553  37.874  1.00  0.00     0.198 A 
ATOM     66  F   UNL A   1      41.250  35.120  35.809  1.00  0.00    -0.203 F 
ATOM     67  F   UNL A   1      37.746  33.646  39.725  1.00  0.00    -0.200 F 
ATOM     68  C   UNL A   1      39.319  35.186  38.873  1.00  0.00     0.200 A 
ATOM     69  F   UNL A   1      40.884  36.706  37.971  1.00  0.00    -0.200 F 
ATOM     70  F   UNL A   1      39.120  35.993  39.924  1.00  0.00    -0.200 F 
ENDBRANCH  46  60
BRANCH  47  71
ATOM     71  C   UNL A   1      40.945  27.881  28.453  1.00  0.00     0.064 A 
ATOM     72  C   UNL A   1      41.824  28.297  27.445  1.00  0.00     0.173 A 
ATOM     73  C   UNL A   1      40.272  26.665  28.272  1.00  0.00     0.173 A 
ATOM     74  F   UNL A   1      42.481  29.460  27.566  1.00  0.00    -0.203 F 
ATOM     75  C   UNL A   1      42.006  27.539  26.289  1.00  0.00     0.198 A 
ATOM     76  C   UNL A   1      40.475  25.893  27.130  1.00  0.00     0.198 A 
ATOM     77  F   UNL A   1      39.428  26.217  29.213  1.00  0.00    -0.203 F 
ATOM     78  F   UNL A   1      42.819  27.983  25.321  1.00  0.00    -0.200 F 
ATOM     79  C   UNL A   1      41.335  26.336  26.135  1.00  0.00     0.200 A 
ATOM     80  F   UNL A   1      39.838  24.723  26.992  1.00  0.00    -0.200 F 
ATOM     81  F   UNL A   1      41.513  25.605  25.026  1.00  0.00    -0.200 F 
ENDBRANCH  47  71
BRANCH  59  82
ATOM     82  C   UNL A   1      43.938  27.970  34.738  1.00  0.00     0.064 A 
ATOM     83  C   UNL A   1      45.293  28.324  34.641  1.00  0.00     0.173 A 
ATOM     84  C   UNL A   1      43.610  26.799  35.437  1.00  0.00     0.173 A 
ATOM     85  F   UNL A   1      45.656  29.427  33.971  1.00  0.00    -0.203 F 
ATOM     86  C   UNL A   1      46.282  27.514  35.191  1.00  0.00     0.198 A 
ATOM     87  C   UNL A   1      44.601  26.009  36.011  1.00  0.00     0.198 A 
ATOM     88  F   UNL A   1      42.329  26.423  35.563  1.00  0.00    -0.203 F 
ATOM     89  F   UNL A   1      47.574  27.841  35.036  1.00  0.00    -0.200 F 
ATOM     90  C   UNL A   1      45.936  26.361  35.878  1.00  0.00     0.200 A 
ATOM     91  F   UNL A   1      44.265  24.900  36.685  1.00  0.00    -0.200 F 
ATOM     92  F   UNL A   1      46.891  25.582  36.404  1.00  0.00    -0.200 F 
ENDBRANCH  59  82
ENDBRANCH  33  34
ENDBRANCH  25  28
ENDBRANCH  23  24
ENDBRANCH  22  23
ENDBRANCH   1  22
TORSDOF 15
ENDMDL
MODEL 3
REMARK VINA RESULT:     -11.2      5.911     11.434
REMARK SMILES C[NH2+][C@H](CC(=O)NCCCCNC(=O)c1ccc(-c2c3nc(c(-c4c(F)c(F)c(F)c(F)c4F)c4ccc([nH]4)c(-c4c(F)c(F)c(F)c(F)c4F)c4nc(c(-c5c(F)c(F)c(F)c(F)c5F)c5ccc2[nH]5)C=C4)C=C3)cc1)c1cccc(C2CC2)c1
REMARK SMILES IDX 9 1 8 2 7 3 5 4 6 5 4 7 3 8 2 9 1 10 78 13 79 14 86 15 80 16
REMARK SMILES IDX 82 17 81 18 83 19 84 20 85 21 10 22 11 23 12 24 13 25 14 27
REMARK SMILES IDX 15 28 16 29 77 30 17 31 76 32 18 33 19 34 20 35 70 36 21 37
REMARK SMILES IDX 75 38 69 39 71 40 22 41 74 42 68 43 67 44 23 46 55 47 35 48
REMARK SMILES IDX 54 49 36 50 39 51 53 52 72 53 37 54 38 55 52 57 73 58 40 59
REMARK SMILES IDX 24 60 25 61 33 62 26 63 27 64 31 65 34 66 28 67 29 68 32 69
REMARK SMILES IDX 30 70 56 71 57 72 65 73 58 74 59 75 63 76 66 77 60 78 61 79
REMARK SMILES IDX 64 80 62 81 41 82 42 83 50 84 43 85 44 86 48 87 51 88 45 89
REMARK SMILES IDX 46 90 49 91 47 92
REMARK H PARENT 7 6 2 11 2 12 12 26 71 45 39 56
REMARK Flexibility Score: inf
ROOT
ATOM      1  C   UNL A   1      36.411  19.998  24.928  1.00  0.00     0.023 C 
ENDROOT
BRANCH   1   2
ATOM      2  C   UNL A   1      36.451  21.494  25.253  1.00  0.00     0.116 C 
BRANCH   2   3
ATOM      3  N   UNL A   1      35.798  21.831  26.500  1.00  0.00    -0.356 N 
ATOM      4  C   UNL A   1      34.547  22.297  26.761  1.00  0.00     0.226 C 
ATOM      5  O   UNL A   1      34.190  22.322  27.942  1.00  0.00    -0.275 OA
ATOM      6  H   UNL A   1      36.357  21.701  27.300  1.00  0.00     0.163 HD
BRANCH   4   7
ATOM      7  C   UNL A   1      33.602  22.713  25.654  1.00  0.00     0.170 C 
BRANCH   7   8
ATOM      8  C   UNL A   1      32.321  21.868  25.516  1.00  0.00     0.222 C 
BRANCH   8   9
ATOM      9  N   UNL A   1      31.129  22.715  25.296  1.00  0.00    -0.342 N 
ATOM     10  C   UNL A   1      30.664  23.377  26.509  1.00  0.00     0.331 C 
ATOM     11  H   UNL A   1      31.362  23.429  24.606  1.00  0.00     0.346 HD
ATOM     12  H   UNL A   1      30.377  22.105  24.977  1.00  0.00     0.346 HD
ENDBRANCH   8   9
BRANCH   8  13
ATOM     13  C   UNL A   1      32.415  20.798  24.434  1.00  0.00     0.010 A 
ATOM     14  C   UNL A   1      32.173  21.164  23.106  1.00  0.00     0.010 A 
ATOM     15  C   UNL A   1      32.699  19.449  24.702  1.00  0.00     0.014 A 
ATOM     16  C   UNL A   1      32.036  20.214  22.105  1.00  0.00     0.001 A 
ATOM     17  C   UNL A   1      32.698  18.472  23.681  1.00  0.00    -0.044 A 
ATOM     18  C   UNL A   1      32.286  18.881  22.400  1.00  0.00     0.004 A 
BRANCH  17  19
ATOM     19  C   UNL A   1      33.167  17.043  23.861  1.00  0.00     0.019 C 
ATOM     20  C   UNL A   1      34.403  16.577  23.125  1.00  0.00     0.009 C 
ATOM     21  C   UNL A   1      34.402  16.659  24.626  1.00  0.00     0.009 C 
ENDBRANCH  17  19
ENDBRANCH   8  13
ENDBRANCH   7   8
ENDBRANCH   4   7
ENDBRANCH   2   3
ENDBRANCH   1   2
BRANCH   1  22
ATOM     22  C   UNL A   1      37.750  19.261  24.996  1.00  0.00     0.023 C 
BRANCH  22  23
ATOM     23  C   UNL A   1      38.833  20.043  25.725  1.00  0.00     0.116 C 
BRANCH  23  24
ATOM     24  N   UNL A   1      40.003  19.209  25.966  1.00  0.00    -0.352 N 
ATOM     25  C   UNL A   1      41.320  19.556  26.117  1.00  0.00     0.251 C 
ATOM     26  H   UNL A   1      39.819  18.244  26.030  1.00  0.00     0.163 HD
ATOM     27  O   UNL A   1      42.189  18.701  25.982  1.00  0.00    -0.269 OA
BRANCH  25  28
ATOM     28  C   UNL A   1      41.699  20.942  26.463  1.00  0.00     0.039 A 
ATOM     29  C   UNL A   1      41.958  21.849  25.432  1.00  0.00     0.014 A 
ATOM     30  C   UNL A   1      41.876  21.330  27.794  1.00  0.00     0.014 A 
ATOM     31  C   UNL A   1      42.376  23.144  25.737  1.00  0.00     0.010 A 
ATOM     32  C   UNL A   1      42.196  22.647  28.101  1.00  0.00     0.010 A 
ATOM     33  C   UNL A   1      42.483  23.557  27.075  1.00  0.00    -0.014 A 
BRANCH  33  34
ATOM     34  C   UNL A   1      42.941  24.924  27.414  1.00  0.00     0.031 A 
ATOM     35  C   UNL A   1      44.360  25.336  27.130  1.00  0.00     0.074 A 
ATOM     36  C   UNL A   1      42.087  25.776  28.010  1.00  0.00     0.049 A 
ATOM     37  N   UNL A   1      44.952  26.482  27.358  1.00  0.00    -0.248 NA
ATOM     38  C   UNL A   1      45.244  24.316  26.542  1.00  0.00     0.031 C 
ATOM     39  C   UNL A   1      40.713  25.456  28.404  1.00  0.00     0.029 A 
ATOM     40  N   UNL A   1      42.244  27.084  28.386  1.00  0.00    -0.354 N 
ATOM     41  C   UNL A   1      46.270  26.312  26.954  1.00  0.00     0.074 A 
ATOM     42  C   UNL A   1      46.414  24.937  26.533  1.00  0.00     0.031 C 
ATOM     43  C   UNL A   1      40.143  26.548  28.936  1.00  0.00     0.029 A 
ATOM     44  C   UNL A   1      41.115  27.636  28.939  1.00  0.00     0.049 A 
ATOM     45  H   UNL A   1      43.088  27.580  28.272  1.00  0.00     0.167 HD
ATOM     46  C   UNL A   1      47.263  27.232  26.905  1.00  0.00     0.037 A 
ATOM     47  C   UNL A   1      40.892  28.885  29.385  1.00  0.00     0.037 A 
ATOM     48  C   UNL A   1      47.102  28.606  27.298  1.00  0.00     0.049 A 
ATOM     49  C   UNL A   1      41.993  29.903  29.265  1.00  0.00     0.074 A 
ATOM     50  C   UNL A   1      48.024  29.635  27.252  1.00  0.00     0.029 A 
ATOM     51  N   UNL A   1      45.926  29.144  27.804  1.00  0.00    -0.354 N 
ATOM     52  N   UNL A   1      43.216  29.750  28.818  1.00  0.00    -0.248 NA
ATOM     53  C   UNL A   1      41.676  31.272  29.690  1.00  0.00     0.031 C 
ATOM     54  C   UNL A   1      47.415  30.791  27.756  1.00  0.00     0.029 A 
ATOM     55  C   UNL A   1      46.101  30.490  28.077  1.00  0.00     0.049 A 
ATOM     56  H   UNL A   1      45.091  28.642  27.948  1.00  0.00     0.167 HD
ATOM     57  C   UNL A   1      43.810  31.000  28.895  1.00  0.00     0.074 A 
ATOM     58  C   UNL A   1      42.801  31.909  29.401  1.00  0.00     0.031 C 
ATOM     59  C   UNL A   1      45.079  31.368  28.585  1.00  0.00     0.037 A 
BRANCH  46  60
ATOM     60  C   UNL A   1      48.599  26.783  26.386  1.00  0.00     0.064 A 
ATOM     61  C   UNL A   1      48.966  26.978  25.044  1.00  0.00     0.173 A 
ATOM     62  C   UNL A   1      49.532  26.172  27.236  1.00  0.00     0.173 A 
ATOM     63  F   UNL A   1      48.104  27.543  24.185  1.00  0.00    -0.203 F 
ATOM     64  C   UNL A   1      50.203  26.552  24.568  1.00  0.00     0.198 A 
ATOM     65  C   UNL A   1      50.781  25.773  26.763  1.00  0.00     0.198 A 
ATOM     66  F   UNL A   1      49.236  25.962  28.527  1.00  0.00    -0.203 F 
ATOM     67  F   UNL A   1      50.508  26.702  23.272  1.00  0.00    -0.200 F 
ATOM     68  C   UNL A   1      51.112  25.957  25.429  1.00  0.00     0.200 A 
ATOM     69  F   UNL A   1      51.663  25.208  27.599  1.00  0.00    -0.200 F 
ATOM     70  F   UNL A   1      52.304  25.552  24.971  1.00  0.00    -0.200 F 
ENDBRANCH  46  60
BRANCH  47  71
ATOM     71  C   UNL A   1      39.561  29.249  29.936  1.00  0.00     0.064 A 
ATOM     72  C   UNL A   1      39.309  29.186  31.313  1.00  0.00     0.173 A 
ATOM     73  C   UNL A   1      38.519  29.674  29.101  1.00  0.00     0.173 A 
ATOM     74  F   UNL A   1      40.271  28.772  32.152  1.00  0.00    -0.203 F 
ATOM     75  C   UNL A   1      38.058  29.512  31.833  1.00  0.00     0.198 A 
ATOM     76  C   UNL A   1      37.276  30.027  29.623  1.00  0.00     0.198 A 
ATOM     77  F   UNL A   1      38.712  29.763  27.777  1.00  0.00    -0.203 F 
ATOM     78  F   UNL A   1      37.831  29.400  33.149  1.00  0.00    -0.200 F 
ATOM     79  C   UNL A   1      37.044  29.937  30.988  1.00  0.00     0.200 A 
ATOM     80  F   UNL A   1      36.304  30.453  28.806  1.00  0.00    -0.200 F 
ATOM     81  F   UNL A   1      35.842  30.254  31.488  1.00  0.00    -0.200 F 
ENDBRANCH  47  71
BRANCH  59  82
ATOM     82  C   UNL A   1      45.428  32.813  28.779  1.00  0.00     0.064 A 
ATOM     83  C   UNL A   1      45.208  33.761  27.768  1.00  0.00     0.173 A 
ATOM     84  C   UNL A   1      45.977  33.256  29.991  1.00  0.00     0.173 A 
ATOM     85  F   UNL A   1      44.698  33.381  26.587  1.00  0.00    -0.203 F 
ATOM     86  C   UNL A   1      45.560  35.094  27.952  1.00  0.00     0.198 A 
ATOM     87  C   UNL A   1      46.300  34.596  30.182  1.00  0.00     0.198 A 
ATOM     88  F   UNL A   1      46.200  32.390  30.990  1.00  0.00    -0.203 F 
ATOM     89  F   UNL A   1      45.395  35.971  26.951  1.00  0.00    -0.200 F 
ATOM     90  C   UNL A   1      46.102  35.512  29.158  1.00  0.00     0.200 A 
ATOM     91  F   UNL A   1      46.813  35.001  31.352  1.00  0.00    -0.200 F 
ATOM     92  F   UNL A   1      46.443  36.796  29.331  1.00  0.00    -0.200 F 
ENDBRANCH  59  82
ENDBRANCH  33  34
ENDBRANCH  25  28
ENDBRANCH  23  24
ENDBRANCH  22  23
ENDBRANCH   1  22
TORSDOF 15
ENDMDL
