MODEL 1
REMARK VINA RESULT:     -13.5      0.000      0.000
REMARK SMILES Cc1[nH]c2c(C(=O)N3CC[C@H](O)C[C@@H]3C(=O)NCCCCNC(=O)c3ccc(-c4c5nc(c(-c6c(F)c(F)c(F)c(F)c6F)c6ccc([nH]6)c(-c6c(F)c(F)c(F)c(F)c6F)c6nc(c(-c7c(F)c(F)c(F)c(F)c7F)c7ccc4[nH]7)C=C6)C=C5)cc3)cccc2c1C
REMARK SMILES IDX 19 1 18 2 17 3 15 4 16 5 14 7 8 8 9 9 10 10 13 11 11 12 6 13
REMARK SMILES IDX 7 14 5 15 1 16 2 17 3 18 92 19 4 20 91 22 93 23 90 24 88 25
REMARK SMILES IDX 89 26 12 27 20 29 21 30 22 31 23 32 24 34 25 35 26 36 87 37
REMARK SMILES IDX 27 38 86 39 28 40 29 41 30 42 80 43 31 44 85 45 79 46 81 47
REMARK SMILES IDX 32 48 84 49 78 50 77 51 33 53 65 54 45 55 64 56 46 57 49 58
REMARK SMILES IDX 63 59 82 60 47 61 48 62 62 64 83 65 50 66 34 67 35 68 43 69
REMARK SMILES IDX 36 70 37 71 41 72 44 73 38 74 39 75 42 76 40 77 66 78 67 79
REMARK SMILES IDX 75 80 68 81 69 82 73 83 76 84 70 85 71 86 74 87 72 88 51 89
REMARK SMILES IDX 52 90 60 91 53 92 54 93 58 94 61 95 55 96 56 97 59 98 57 99
REMARK H PARENT 17 6 3 21 12 28 22 33 81 52 49 63
REMARK Flexibility Score: inf
ROOT
ATOM      1  C   UNL A   1      31.964  28.098  27.264  1.00  0.00     0.023 C 
ENDROOT
BRANCH   1   2
ATOM      2  C   UNL A   1      32.036  26.835  26.408  1.00  0.00     0.116 C 
BRANCH   2   3
ATOM      3  N   UNL A   1      31.344  25.706  26.988  1.00  0.00    -0.354 N 
ATOM      4  C   UNL A   1      31.365  24.381  26.675  1.00  0.00     0.242 C 
ATOM      5  O   UNL A   1      30.416  23.727  27.130  1.00  0.00    -0.273 OA
ATOM      6  H   UNL A   1      30.752  25.936  27.740  1.00  0.00     0.163 HD
BRANCH   4   7
ATOM      7  C   UNL A   1      32.394  23.675  25.734  1.00  0.00     0.177 C 
ATOM      8  N   UNL A   1      31.957  22.623  24.804  1.00  0.00    -0.326 N 
ATOM      9  C   UNL A   1      32.097  21.211  25.158  1.00  0.00     0.123 C 
ATOM     10  C   UNL A   1      33.041  20.860  26.325  1.00  0.00     0.053 C 
ATOM     11  C   UNL A   1      33.701  23.313  26.425  1.00  0.00     0.067 C 
ATOM     12  C   UNL A   1      33.595  22.005  27.174  1.00  0.00     0.118 C 
BRANCH   8  13
ATOM     13  C   UNL A   1      31.972  22.938  23.439  1.00  0.00     0.256 C 
ATOM     14  O   UNL A   1      31.877  22.088  22.558  1.00  0.00    -0.269 OA
BRANCH  13  15
ATOM     15  C   UNL A   1      32.169  24.353  23.055  1.00  0.00     0.064 A 
ATOM     16  C   UNL A   1      27.791  26.500  24.091  1.00  0.00     0.064 C 
ATOM     17  C   UNL A   1      29.206  26.377  23.660  1.00  0.00     0.016 A 
ATOM     18  N   UNL A   1      29.842  25.163  23.621  1.00  0.00    -0.358 N 
ATOM     19  C   UNL A   1      30.121  27.342  23.274  1.00  0.00    -0.023 A 
ATOM     20  C   UNL A   1      31.144  25.303  23.202  1.00  0.00     0.059 A 
ATOM     21  H   UNL A   1      29.422  24.306  23.860  1.00  0.00     0.166 HD
ATOM     22  C   UNL A   1      31.354  26.666  22.999  1.00  0.00     0.003 A 
ATOM     23  C   UNL A   1      29.894  28.812  23.206  1.00  0.00     0.047 C 
ATOM     24  C   UNL A   1      32.645  27.101  22.628  1.00  0.00     0.010 A 
ATOM     25  C   UNL A   1      33.448  24.813  22.715  1.00  0.00     0.016 A 
ATOM     26  C   UNL A   1      33.681  26.169  22.494  1.00  0.00     0.002 A 
ENDBRANCH  13  15
ENDBRANCH   8  13
BRANCH  12  27
ATOM     27  O   UNL A   1      32.797  22.173  28.339  1.00  0.00    -0.393 OA
ATOM     28  H   UNL A   1      33.373  22.261  29.116  1.00  0.00     0.210 HD
ENDBRANCH  12  27
ENDBRANCH   4   7
ENDBRANCH   2   3
ENDBRANCH   1   2
BRANCH   1  29
ATOM     29  C   UNL A   1      31.626  29.383  26.522  1.00  0.00     0.023 C 
BRANCH  29  30
ATOM     30  C   UNL A   1      32.791  30.327  26.266  1.00  0.00     0.116 C 
BRANCH  30  31
ATOM     31  N   UNL A   1      32.620  31.669  26.807  1.00  0.00    -0.352 N 
ATOM     32  C   UNL A   1      33.512  32.392  27.568  1.00  0.00     0.251 C 
ATOM     33  H   UNL A   1      31.766  32.113  26.603  1.00  0.00     0.163 HD
ATOM     34  O   UNL A   1      33.232  33.509  27.988  1.00  0.00    -0.269 OA
BRANCH  32  35
ATOM     35  C   UNL A   1      34.795  31.759  27.926  1.00  0.00     0.039 A 
ATOM     36  C   UNL A   1      35.931  32.564  28.038  1.00  0.00     0.014 A 
ATOM     37  C   UNL A   1      34.833  30.411  28.290  1.00  0.00     0.014 A 
ATOM     38  C   UNL A   1      37.085  32.037  28.617  1.00  0.00     0.010 A 
ATOM     39  C   UNL A   1      35.954  29.915  28.942  1.00  0.00     0.010 A 
ATOM     40  C   UNL A   1      37.085  30.728  29.126  1.00  0.00    -0.014 A 
BRANCH  40  41
ATOM     41  C   UNL A   1      38.250  30.196  29.876  1.00  0.00     0.031 A 
ATOM     42  C   UNL A   1      38.502  30.644  31.286  1.00  0.00     0.074 A 
ATOM     43  C   UNL A   1      39.123  29.375  29.259  1.00  0.00     0.049 A 
ATOM     44  N   UNL A   1      39.501  30.355  32.079  1.00  0.00    -0.248 NA
ATOM     45  C   UNL A   1      37.517  31.568  31.869  1.00  0.00     0.031 C 
ATOM     46  C   UNL A   1      39.026  28.924  27.869  1.00  0.00     0.029 A 
ATOM     47  N   UNL A   1      40.271  28.779  29.720  1.00  0.00    -0.354 N 
ATOM     48  C   UNL A   1      39.275  31.075  33.244  1.00  0.00     0.074 A 
ATOM     49  C   UNL A   1      38.076  31.858  33.035  1.00  0.00     0.031 C 
ATOM     50  C   UNL A   1      40.056  28.104  27.599  1.00  0.00     0.029 A 
ATOM     51  C   UNL A   1      40.899  27.994  28.786  1.00  0.00     0.049 A 
ATOM     52  H   UNL A   1      40.612  28.905  30.635  1.00  0.00     0.167 HD
ATOM     53  C   UNL A   1      39.986  31.063  34.396  1.00  0.00     0.037 A 
ATOM     54  C   UNL A   1      42.028  27.265  28.878  1.00  0.00     0.037 A 
ATOM     55  C   UNL A   1      41.154  30.254  34.616  1.00  0.00     0.049 A 
ATOM     56  C   UNL A   1      42.779  27.237  30.182  1.00  0.00     0.074 A 
ATOM     57  C   UNL A   1      41.908  30.122  35.768  1.00  0.00     0.029 A 
ATOM     58  N   UNL A   1      41.733  29.432  33.662  1.00  0.00    -0.354 N 
ATOM     59  N   UNL A   1      42.516  27.869  31.300  1.00  0.00    -0.248 NA
ATOM     60  C   UNL A   1      43.978  26.390  30.239  1.00  0.00     0.031 C 
ATOM     61  C   UNL A   1      42.962  29.241  35.502  1.00  0.00     0.029 A 
ATOM     62  C   UNL A   1      42.841  28.796  34.195  1.00  0.00     0.049 A 
ATOM     63  H   UNL A   1      41.406  29.317  32.740  1.00  0.00     0.167 HD
ATOM     64  C   UNL A   1      43.498  27.477  32.198  1.00  0.00     0.074 A 
ATOM     65  C   UNL A   1      44.355  26.542  31.500  1.00  0.00     0.031 C 
ATOM     66  C   UNL A   1      43.675  27.859  33.487  1.00  0.00     0.037 A 
BRANCH  53  67
ATOM     67  C   UNL A   1      39.503  31.940  35.512  1.00  0.00     0.064 A 
ATOM     68  C   UNL A   1      38.566  31.481  36.451  1.00  0.00     0.173 A 
ATOM     69  C   UNL A   1      39.996  33.244  35.659  1.00  0.00     0.173 A 
ATOM     70  F   UNL A   1      38.053  30.246  36.343  1.00  0.00    -0.203 F 
ATOM     71  C   UNL A   1      38.119  32.306  37.478  1.00  0.00     0.198 A 
ATOM     72  C   UNL A   1      39.566  34.058  36.704  1.00  0.00     0.198 A 
ATOM     73  F   UNL A   1      40.894  33.731  34.790  1.00  0.00    -0.203 F 
ATOM     74  F   UNL A   1      37.185  31.862  38.331  1.00  0.00    -0.200 F 
ATOM     75  C   UNL A   1      38.623  33.591  37.608  1.00  0.00     0.200 A 
ATOM     76  F   UNL A   1      40.061  35.296  36.835  1.00  0.00    -0.200 F 
ATOM     77  F   UNL A   1      38.193  34.384  38.600  1.00  0.00    -0.200 F 
ENDBRANCH  53  67
BRANCH  54  78
ATOM     78  C   UNL A   1      42.496  26.468  27.714  1.00  0.00     0.064 A 
ATOM     79  C   UNL A   1      43.485  26.965  26.855  1.00  0.00     0.173 A 
ATOM     80  C   UNL A   1      41.965  25.201  27.436  1.00  0.00     0.173 A 
ATOM     81  F   UNL A   1      44.008  28.182  27.070  1.00  0.00    -0.203 F 
ATOM     82  C   UNL A   1      43.913  26.235  25.749  1.00  0.00     0.198 A 
ATOM     83  C   UNL A   1      42.411  24.460  26.343  1.00  0.00     0.198 A 
ATOM     84  F   UNL A   1      41.021  24.678  28.231  1.00  0.00    -0.203 F 
ATOM     85  F   UNL A   1      44.830  26.751  24.921  1.00  0.00    -0.200 F 
ATOM     86  C   UNL A   1      43.379  24.980  25.498  1.00  0.00     0.200 A 
ATOM     87  F   UNL A   1      41.902  23.242  26.109  1.00  0.00    -0.200 F 
ATOM     88  F   UNL A   1      43.793  24.275  24.435  1.00  0.00    -0.200 F 
ENDBRANCH  54  78
BRANCH  66  89
ATOM     89  C   UNL A   1      44.820  27.245  34.235  1.00  0.00     0.064 A 
ATOM     90  C   UNL A   1      46.079  27.858  34.278  1.00  0.00     0.173 A 
ATOM     91  C   UNL A   1      44.639  26.055  34.955  1.00  0.00     0.173 A 
ATOM     92  F   UNL A   1      46.304  28.990  33.592  1.00  0.00    -0.203 F 
ATOM     93  C   UNL A   1      47.125  27.291  35.001  1.00  0.00     0.198 A 
ATOM     94  C   UNL A   1      45.679  25.505  35.697  1.00  0.00     0.198 A 
ATOM     95  F   UNL A   1      43.450  25.435  34.948  1.00  0.00    -0.203 F 
ATOM     96  F   UNL A   1      48.332  27.873  34.999  1.00  0.00    -0.200 F 
ATOM     97  C   UNL A   1      46.921  26.119  35.716  1.00  0.00     0.200 A 
ATOM     98  F   UNL A   1      45.479  24.379  36.396  1.00  0.00    -0.200 F 
ATOM     99  F   UNL A   1      47.927  25.580  36.419  1.00  0.00    -0.200 F 
ENDBRANCH  66  89
ENDBRANCH  40  41
ENDBRANCH  32  35
ENDBRANCH  30  31
ENDBRANCH  29  30
ENDBRANCH   1  29
TORSDOF 14
ENDMDL
MODEL 2
REMARK VINA RESULT:     -13.5      0.173      1.916
REMARK SMILES Cc1[nH]c2c(C(=O)N3CC[C@H](O)C[C@@H]3C(=O)NCCCCNC(=O)c3ccc(-c4c5nc(c(-c6c(F)c(F)c(F)c(F)c6F)c6ccc([nH]6)c(-c6c(F)c(F)c(F)c(F)c6F)c6nc(c(-c7c(F)c(F)c(F)c(F)c7F)c7ccc4[nH]7)C=C6)C=C5)cc3)cccc2c1C
REMARK SMILES IDX 19 1 18 2 17 3 15 4 16 5 14 7 8 8 9 9 10 10 13 11 11 12 6 13
REMARK SMILES IDX 7 14 5 15 1 16 2 17 3 18 92 19 4 20 91 22 93 23 90 24 88 25
REMARK SMILES IDX 89 26 12 27 20 29 21 30 22 31 23 32 24 34 25 35 26 36 87 37
REMARK SMILES IDX 27 38 86 39 28 40 29 41 30 42 80 43 31 44 85 45 79 46 81 47
REMARK SMILES IDX 32 48 84 49 78 50 77 51 33 53 65 54 45 55 64 56 46 57 49 58
REMARK SMILES IDX 63 59 82 60 47 61 48 62 62 64 83 65 50 66 34 67 35 68 43 69
REMARK SMILES IDX 36 70 37 71 41 72 44 73 38 74 39 75 42 76 40 77 66 78 67 79
REMARK SMILES IDX 75 80 68 81 69 82 73 83 76 84 70 85 71 86 74 87 72 88 51 89
REMARK SMILES IDX 52 90 60 91 53 92 54 93 58 94 61 95 55 96 56 97 59 98 57 99
REMARK H PARENT 17 6 3 21 12 28 22 33 81 52 49 63
REMARK Flexibility Score: inf
ROOT
ATOM      1  C   UNL A   1      31.878  28.131  27.200  1.00  0.00     0.023 C 
ENDROOT
BRANCH   1   2
ATOM      2  C   UNL A   1      32.070  26.830  26.424  1.00  0.00     0.116 C 
BRANCH   2   3
ATOM      3  N   UNL A   1      31.391  25.700  27.017  1.00  0.00    -0.354 N 
ATOM      4  C   UNL A   1      31.417  24.373  26.710  1.00  0.00     0.242 C 
ATOM      5  O   UNL A   1      30.476  23.715  27.180  1.00  0.00    -0.273 OA
ATOM      6  H   UNL A   1      30.807  25.929  27.776  1.00  0.00     0.163 HD
BRANCH   4   7
ATOM      7  C   UNL A   1      32.438  23.669  25.760  1.00  0.00     0.177 C 
ATOM      8  N   UNL A   1      31.998  22.601  24.851  1.00  0.00    -0.326 N 
ATOM      9  C   UNL A   1      32.161  21.195  25.218  1.00  0.00     0.123 C 
ATOM     10  C   UNL A   1      33.129  20.869  26.373  1.00  0.00     0.053 C 
ATOM     11  C   UNL A   1      33.761  23.331  26.433  1.00  0.00     0.067 C 
ATOM     12  C   UNL A   1      33.683  22.030  27.199  1.00  0.00     0.118 C 
BRANCH   8  13
ATOM     13  C   UNL A   1      31.986  22.899  23.482  1.00  0.00     0.256 C 
ATOM     14  O   UNL A   1      31.881  22.038  22.613  1.00  0.00    -0.269 OA
BRANCH  13  15
ATOM     15  C   UNL A   1      32.165  24.310  23.078  1.00  0.00     0.064 A 
ATOM     16  C   UNL A   1      27.806  26.449  24.207  1.00  0.00     0.064 C 
ATOM     17  C   UNL A   1      29.210  26.328  23.740  1.00  0.00     0.016 A 
ATOM     18  N   UNL A   1      29.851  25.116  23.696  1.00  0.00    -0.358 N 
ATOM     19  C   UNL A   1      30.109  27.293  23.320  1.00  0.00    -0.023 A 
ATOM     20  C   UNL A   1      31.140  25.257  23.242  1.00  0.00     0.059 A 
ATOM     21  H   UNL A   1      29.442  24.260  23.956  1.00  0.00     0.166 HD
ATOM     22  C   UNL A   1      31.338  26.620  23.018  1.00  0.00     0.003 A 
ATOM     23  C   UNL A   1      29.873  28.761  23.242  1.00  0.00     0.047 C 
ATOM     24  C   UNL A   1      32.616  27.056  22.609  1.00  0.00     0.010 A 
ATOM     25  C   UNL A   1      33.433  24.773  22.699  1.00  0.00     0.016 A 
ATOM     26  C   UNL A   1      33.653  26.128  22.457  1.00  0.00     0.002 A 
ENDBRANCH  13  15
ENDBRANCH   8  13
BRANCH  12  27
ATOM     27  O   UNL A   1      32.903  22.203  28.376  1.00  0.00    -0.393 OA
ATOM     28  H   UNL A   1      33.061  23.089  28.742  1.00  0.00     0.210 HD
ENDBRANCH  12  27
ENDBRANCH   4   7
ENDBRANCH   2   3
ENDBRANCH   1   2
BRANCH   1  29
ATOM     29  C   UNL A   1      31.665  29.380  26.357  1.00  0.00     0.023 C 
BRANCH  29  30
ATOM     30  C   UNL A   1      32.860  30.312  26.238  1.00  0.00     0.116 C 
BRANCH  30  31
ATOM     31  N   UNL A   1      32.666  31.633  26.821  1.00  0.00    -0.352 N 
ATOM     32  C   UNL A   1      33.536  32.336  27.626  1.00  0.00     0.251 C 
ATOM     33  H   UNL A   1      31.812  32.077  26.615  1.00  0.00     0.163 HD
ATOM     34  O   UNL A   1      33.236  33.436  28.078  1.00  0.00    -0.269 OA
BRANCH  32  35
ATOM     35  C   UNL A   1      34.817  31.702  27.989  1.00  0.00     0.039 A 
ATOM     36  C   UNL A   1      35.940  32.513  28.159  1.00  0.00     0.014 A 
ATOM     37  C   UNL A   1      34.860  30.341  28.300  1.00  0.00     0.014 A 
ATOM     38  C   UNL A   1      37.086  31.974  28.745  1.00  0.00     0.010 A 
ATOM     39  C   UNL A   1      35.970  29.830  28.959  1.00  0.00     0.010 A 
ATOM     40  C   UNL A   1      37.088  30.645  29.202  1.00  0.00    -0.014 A 
BRANCH  40  41
ATOM     41  C   UNL A   1      38.240  30.095  29.958  1.00  0.00     0.031 A 
ATOM     42  C   UNL A   1      38.486  30.532  31.372  1.00  0.00     0.074 A 
ATOM     43  C   UNL A   1      39.108  29.267  29.343  1.00  0.00     0.049 A 
ATOM     44  N   UNL A   1      39.476  30.227  32.172  1.00  0.00    -0.248 NA
ATOM     45  C   UNL A   1      37.509  31.465  31.953  1.00  0.00     0.031 C 
ATOM     46  C   UNL A   1      39.017  28.825  27.950  1.00  0.00     0.029 A 
ATOM     47  N   UNL A   1      40.245  28.655  29.810  1.00  0.00    -0.354 N 
ATOM     48  C   UNL A   1      39.249  30.942  33.339  1.00  0.00     0.074 A 
ATOM     49  C   UNL A   1      38.062  31.741  33.125  1.00  0.00     0.031 C 
ATOM     50  C   UNL A   1      40.039  27.994  27.684  1.00  0.00     0.029 A 
ATOM     51  C   UNL A   1      40.871  27.868  28.876  1.00  0.00     0.049 A 
ATOM     52  H   UNL A   1      40.580  28.771  30.728  1.00  0.00     0.167 HD
ATOM     53  C   UNL A   1      39.951  30.915  34.496  1.00  0.00     0.037 A 
ATOM     54  C   UNL A   1      41.991  27.124  28.973  1.00  0.00     0.037 A 
ATOM     55  C   UNL A   1      41.107  30.091  34.721  1.00  0.00     0.049 A 
ATOM     56  C   UNL A   1      42.730  27.080  30.282  1.00  0.00     0.074 A 
ATOM     57  C   UNL A   1      41.851  29.944  35.878  1.00  0.00     0.029 A 
ATOM     58  N   UNL A   1      41.684  29.267  33.766  1.00  0.00    -0.354 N 
ATOM     59  N   UNL A   1      42.466  27.708  31.401  1.00  0.00    -0.248 NA
ATOM     60  C   UNL A   1      43.918  26.217  30.343  1.00  0.00     0.031 C 
ATOM     61  C   UNL A   1      42.896  29.052  35.615  1.00  0.00     0.029 A 
ATOM     62  C   UNL A   1      42.780  28.614  34.305  1.00  0.00     0.049 A 
ATOM     63  H   UNL A   1      41.362  29.162  32.842  1.00  0.00     0.167 HD
ATOM     64  C   UNL A   1      43.436  27.300  32.306  1.00  0.00     0.074 A 
ATOM     65  C   UNL A   1      44.288  26.358  31.609  1.00  0.00     0.031 C 
ATOM     66  C   UNL A   1      43.607  27.672  33.598  1.00  0.00     0.037 A 
BRANCH  53  67
ATOM     67  C   UNL A   1      39.470  31.792  35.613  1.00  0.00     0.064 A 
ATOM     68  C   UNL A   1      39.951  33.100  35.775  1.00  0.00     0.173 A 
ATOM     69  C   UNL A   1      38.505  31.330  36.519  1.00  0.00     0.173 A 
ATOM     70  F   UNL A   1      40.888  33.582  34.944  1.00  0.00    -0.203 F 
ATOM     71  C   UNL A   1      39.505  33.903  36.821  1.00  0.00     0.198 A 
ATOM     72  C   UNL A   1      38.040  32.146  37.547  1.00  0.00     0.198 A 
ATOM     73  F   UNL A   1      38.011  30.088  36.407  1.00  0.00    -0.203 F 
ATOM     74  F   UNL A   1      40.018  35.131  36.986  1.00  0.00    -0.200 F 
ATOM     75  C   UNL A   1      38.546  33.428  37.702  1.00  0.00     0.200 A 
ATOM     76  F   UNL A   1      37.106  31.689  38.393  1.00  0.00    -0.200 F 
ATOM     77  F   UNL A   1      38.115  34.203  38.707  1.00  0.00    -0.200 F 
ENDBRANCH  53  67
BRANCH  54  78
ATOM     78  C   UNL A   1      42.458  26.328  27.808  1.00  0.00     0.064 A 
ATOM     79  C   UNL A   1      41.935  25.052  27.556  1.00  0.00     0.173 A 
ATOM     80  C   UNL A   1      43.431  26.821  26.929  1.00  0.00     0.173 A 
ATOM     81  F   UNL A   1      41.015  24.531  28.382  1.00  0.00    -0.203 F 
ATOM     82  C   UNL A   1      42.383  24.290  26.480  1.00  0.00     0.198 A 
ATOM     83  C   UNL A   1      43.862  26.067  25.839  1.00  0.00     0.198 A 
ATOM     84  F   UNL A   1      43.959  28.039  27.123  1.00  0.00    -0.203 F 
ATOM     85  F   UNL A   1      41.896  23.057  26.286  1.00  0.00    -0.200 F 
ATOM     86  C   UNL A   1      43.343  24.801  25.619  1.00  0.00     0.200 A 
ATOM     87  F   UNL A   1      44.781  26.568  25.001  1.00  0.00    -0.200 F 
ATOM     88  F   UNL A   1      43.771  24.068  24.582  1.00  0.00    -0.200 F 
ENDBRANCH  54  78
BRANCH  66  89
ATOM     89  C   UNL A   1      44.739  27.040  34.351  1.00  0.00     0.064 A 
ATOM     90  C   UNL A   1      44.583  25.817  35.017  1.00  0.00     0.173 A 
ATOM     91  C   UNL A   1      46.005  27.642  34.364  1.00  0.00     0.173 A 
ATOM     92  F   UNL A   1      43.386  25.211  35.045  1.00  0.00    -0.203 F 
ATOM     93  C   UNL A   1      45.651  25.228  35.687  1.00  0.00     0.198 A 
ATOM     94  C   UNL A   1      47.077  27.038  35.013  1.00  0.00     0.198 A 
ATOM     95  F   UNL A   1      46.205  28.811  33.735  1.00  0.00    -0.203 F 
ATOM     96  F   UNL A   1      45.472  24.077  36.350  1.00  0.00    -0.200 F 
ATOM     97  C   UNL A   1      46.899  25.835  35.678  1.00  0.00     0.200 A 
ATOM     98  F   UNL A   1      48.285  27.620  34.994  1.00  0.00    -0.200 F 
ATOM     99  F   UNL A   1      47.929  25.261  36.317  1.00  0.00    -0.200 F 
ENDBRANCH  66  89
ENDBRANCH  40  41
ENDBRANCH  32  35
ENDBRANCH  30  31
ENDBRANCH  29  30
ENDBRANCH   1  29
TORSDOF 14
ENDMDL
MODEL 3
REMARK VINA RESULT:     -13.4      2.036      3.656
REMARK SMILES Cc1[nH]c2c(C(=O)N3CC[C@H](O)C[C@@H]3C(=O)NCCCCNC(=O)c3ccc(-c4c5nc(c(-c6c(F)c(F)c(F)c(F)c6F)c6ccc([nH]6)c(-c6c(F)c(F)c(F)c(F)c6F)c6nc(c(-c7c(F)c(F)c(F)c(F)c7F)c7ccc4[nH]7)C=C6)C=C5)cc3)cccc2c1C
REMARK SMILES IDX 19 1 18 2 17 3 15 4 16 5 14 7 8 8 9 9 10 10 13 11 11 12 6 13
REMARK SMILES IDX 7 14 5 15 1 16 2 17 3 18 92 19 4 20 91 22 93 23 90 24 88 25
REMARK SMILES IDX 89 26 12 27 20 29 21 30 22 31 23 32 24 34 25 35 26 36 87 37
REMARK SMILES IDX 27 38 86 39 28 40 29 41 30 42 80 43 31 44 85 45 79 46 81 47
REMARK SMILES IDX 32 48 84 49 78 50 77 51 33 53 65 54 45 55 64 56 46 57 49 58
REMARK SMILES IDX 63 59 82 60 47 61 48 62 62 64 83 65 50 66 34 67 35 68 43 69
REMARK SMILES IDX 36 70 37 71 41 72 44 73 38 74 39 75 42 76 40 77 66 78 67 79
REMARK SMILES IDX 75 80 68 81 69 82 73 83 76 84 70 85 71 86 74 87 72 88 51 89
REMARK SMILES IDX 52 90 60 91 53 92 54 93 58 94 61 95 55 96 56 97 59 98 57 99
REMARK H PARENT 17 6 3 21 12 28 22 33 81 52 49 63
REMARK Flexibility Score: inf
ROOT
ATOM      1  C   UNL A   1      32.015  30.053  27.152  1.00  0.00     0.023 C 
ENDROOT
BRANCH   1   2
ATOM      2  C   UNL A   1      33.374  29.370  27.018  1.00  0.00     0.116 C 
BRANCH   2   3
ATOM      3  N   UNL A   1      33.842  29.284  25.653  1.00  0.00    -0.354 N 
ATOM      4  C   UNL A   1      33.495  28.449  24.635  1.00  0.00     0.242 C 
ATOM      5  O   UNL A   1      34.308  28.407  23.700  1.00  0.00    -0.273 OA
ATOM      6  H   UNL A   1      34.534  29.944  25.418  1.00  0.00     0.163 HD
BRANCH   4   7
ATOM      7  C   UNL A   1      32.255  27.499  24.607  1.00  0.00     0.177 C 
ATOM      8  N   UNL A   1      32.353  26.159  24.010  1.00  0.00    -0.326 N 
ATOM      9  C   UNL A   1      31.914  25.921  22.636  1.00  0.00     0.123 C 
ATOM     10  C   UNL A   1      31.013  26.988  21.983  1.00  0.00     0.053 C 
ATOM     11  C   UNL A   1      30.960  28.199  24.217  1.00  0.00     0.067 C 
ATOM     12  C   UNL A   1      30.817  28.315  22.717  1.00  0.00     0.118 C 
BRANCH   8  13
ATOM     13  C   UNL A   1      32.300  25.068  24.888  1.00  0.00     0.256 C 
ATOM     14  O   UNL A   1      31.271  24.721  25.460  1.00  0.00    -0.269 OA
BRANCH  13  15
ATOM     15  C   UNL A   1      33.560  24.348  25.175  1.00  0.00     0.064 A 
ATOM     16  C   UNL A   1      32.446  19.573  24.273  1.00  0.00     0.064 C 
ATOM     17  C   UNL A   1      33.260  20.762  24.626  1.00  0.00     0.016 A 
ATOM     18  N   UNL A   1      32.708  22.015  24.700  1.00  0.00    -0.358 N 
ATOM     19  C   UNL A   1      34.612  20.884  24.899  1.00  0.00    -0.023 A 
ATOM     20  C   UNL A   1      33.657  22.953  25.032  1.00  0.00     0.059 A 
ATOM     21  H   UNL A   1      31.759  22.217  24.538  1.00  0.00     0.166 HD
ATOM     22  C   UNL A   1      34.870  22.273  25.142  1.00  0.00     0.003 A 
ATOM     23  C   UNL A   1      35.626  19.794  24.893  1.00  0.00     0.047 C 
ATOM     24  C   UNL A   1      36.038  23.018  25.409  1.00  0.00     0.010 A 
ATOM     25  C   UNL A   1      34.739  25.067  25.411  1.00  0.00     0.016 A 
ATOM     26  C   UNL A   1      35.961  24.410  25.537  1.00  0.00     0.002 A 
ENDBRANCH  13  15
ENDBRANCH   8  13
BRANCH  12  27
ATOM     27  O   UNL A   1      31.726  29.286  22.213  1.00  0.00    -0.393 OA
ATOM     28  H   UNL A   1      32.619  28.908  22.182  1.00  0.00     0.210 HD
ENDBRANCH  12  27
ENDBRANCH   4   7
ENDBRANCH   2   3
ENDBRANCH   1   2
BRANCH   1  29
ATOM     29  C   UNL A   1      31.957  31.509  26.714  1.00  0.00     0.023 C 
BRANCH  29  30
ATOM     30  C   UNL A   1      32.984  32.434  27.348  1.00  0.00     0.116 C 
BRANCH  30  31
ATOM     31  N   UNL A   1      32.513  33.789  27.602  1.00  0.00    -0.352 N 
ATOM     32  C   UNL A   1      33.034  34.713  28.480  1.00  0.00     0.251 C 
ATOM     33  H   UNL A   1      31.729  34.079  27.082  1.00  0.00     0.163 HD
ATOM     34  O   UNL A   1      32.521  35.818  28.621  1.00  0.00    -0.269 OA
BRANCH  32  35
ATOM     35  C   UNL A   1      34.192  34.316  29.303  1.00  0.00     0.039 A 
ATOM     36  C   UNL A   1      33.963  33.581  30.468  1.00  0.00     0.014 A 
ATOM     37  C   UNL A   1      35.490  34.545  28.842  1.00  0.00     0.014 A 
ATOM     38  C   UNL A   1      35.043  32.982  31.117  1.00  0.00     0.010 A 
ATOM     39  C   UNL A   1      36.551  33.879  29.441  1.00  0.00     0.010 A 
ATOM     40  C   UNL A   1      36.336  33.078  30.576  1.00  0.00    -0.014 A 
BRANCH  40  41
ATOM     41  C   UNL A   1      37.473  32.331  31.165  1.00  0.00     0.031 A 
ATOM     42  C   UNL A   1      37.976  32.688  32.533  1.00  0.00     0.074 A 
ATOM     43  C   UNL A   1      38.102  31.387  30.436  1.00  0.00     0.049 A 
ATOM     44  N   UNL A   1      39.001  32.207  33.189  1.00  0.00    -0.248 NA
ATOM     45  C   UNL A   1      37.253  33.754  33.244  1.00  0.00     0.031 C 
ATOM     46  C   UNL A   1      37.752  30.999  29.068  1.00  0.00     0.029 A 
ATOM     47  N   UNL A   1      39.175  30.587  30.742  1.00  0.00    -0.354 N 
ATOM     48  C   UNL A   1      39.055  32.922  34.377  1.00  0.00     0.074 A 
ATOM     49  C   UNL A   1      37.998  33.908  34.329  1.00  0.00     0.031 C 
ATOM     50  C   UNL A   1      38.578  30.019  28.663  1.00  0.00     0.029 A 
ATOM     51  C   UNL A   1      39.532  29.731  29.730  1.00  0.00     0.049 A 
ATOM     52  H   UNL A   1      39.646  30.626  31.606  1.00  0.00     0.167 HD
ATOM     53  C   UNL A   1      39.893  32.754  35.427  1.00  0.00     0.037 A 
ATOM     54  C   UNL A   1      40.517  28.814  29.672  1.00  0.00     0.037 A 
ATOM     55  C   UNL A   1      40.918  31.748  35.490  1.00  0.00     0.049 A 
ATOM     56  C   UNL A   1      41.409  28.619  30.867  1.00  0.00     0.074 A 
ATOM     57  C   UNL A   1      41.777  31.454  36.534  1.00  0.00     0.029 A 
ATOM     58  N   UNL A   1      41.217  30.864  34.464  1.00  0.00    -0.354 N 
ATOM     59  N   UNL A   1      41.405  29.255  32.013  1.00  0.00    -0.248 NA
ATOM     60  C   UNL A   1      42.436  27.573  30.764  1.00  0.00     0.031 C 
ATOM     61  C   UNL A   1      42.616  30.410  36.129  1.00  0.00     0.029 A 
ATOM     62  C   UNL A   1      42.253  30.029  34.846  1.00  0.00     0.049 A 
ATOM     63  H   UNL A   1      40.760  30.834  33.593  1.00  0.00     0.167 HD
ATOM     64  C   UNL A   1      42.408  28.673  32.775  1.00  0.00     0.074 A 
ATOM     65  C   UNL A   1      42.991  27.622  31.966  1.00  0.00     0.031 C 
ATOM     66  C   UNL A   1      42.812  28.982  34.031  1.00  0.00     0.037 A 
BRANCH  53  67
ATOM     67  C   UNL A   1      39.718  33.670  36.601  1.00  0.00     0.064 A 
ATOM     68  C   UNL A   1      38.876  33.335  37.672  1.00  0.00     0.173 A 
ATOM     69  C   UNL A   1      40.414  34.886  36.667  1.00  0.00     0.173 A 
ATOM     70  F   UNL A   1      38.177  32.190  37.648  1.00  0.00    -0.203 F 
ATOM     71  C   UNL A   1      38.715  34.197  38.753  1.00  0.00     0.198 A 
ATOM     72  C   UNL A   1      40.271  35.733  37.763  1.00  0.00     0.198 A 
ATOM     73  F   UNL A   1      41.232  35.253  35.670  1.00  0.00    -0.203 F 
ATOM     74  F   UNL A   1      37.865  33.877  39.740  1.00  0.00    -0.200 F 
ATOM     75  C   UNL A   1      39.416  35.391  38.801  1.00  0.00     0.200 A 
ATOM     76  F   UNL A   1      40.956  36.883  37.813  1.00  0.00    -0.200 F 
ATOM     77  F   UNL A   1      39.262  36.219  39.844  1.00  0.00    -0.200 F 
ENDBRANCH  53  67
BRANCH  54  78
ATOM     78  C   UNL A   1      40.684  27.980  28.453  1.00  0.00     0.064 A 
ATOM     79  C   UNL A   1      41.483  28.419  27.388  1.00  0.00     0.173 A 
ATOM     80  C   UNL A   1      40.053  26.735  28.327  1.00  0.00     0.173 A 
ATOM     81  F   UNL A   1      42.091  29.612  27.456  1.00  0.00    -0.203 F 
ATOM     82  C   UNL A   1      41.628  27.654  26.233  1.00  0.00     0.198 A 
ATOM     83  C   UNL A   1      40.217  25.959  27.180  1.00  0.00     0.198 A 
ATOM     84  F   UNL A   1      39.283  26.267  29.320  1.00  0.00    -0.203 F 
ATOM     85  F   UNL A   1      42.363  28.116  25.213  1.00  0.00    -0.200 F 
ATOM     86  C   UNL A   1      40.998  26.422  26.133  1.00  0.00     0.200 A 
ATOM     87  F   UNL A   1      39.618  24.764  27.091  1.00  0.00    -0.200 F 
ATOM     88  F   UNL A   1      41.140  25.685  25.023  1.00  0.00    -0.200 F 
ENDBRANCH  54  78
BRANCH  66  89
ATOM     89  C   UNL A   1      43.915  28.156  34.621  1.00  0.00     0.064 A 
ATOM     90  C   UNL A   1      45.256  28.555  34.533  1.00  0.00     0.173 A 
ATOM     91  C   UNL A   1      43.621  26.979  35.325  1.00  0.00     0.173 A 
ATOM     92  F   UNL A   1      45.587  29.666  33.856  1.00  0.00    -0.203 F 
ATOM     93  C   UNL A   1      46.267  27.793  35.111  1.00  0.00     0.198 A 
ATOM     94  C   UNL A   1      44.632  26.233  35.924  1.00  0.00     0.198 A 
ATOM     95  F   UNL A   1      42.352  26.560  35.441  1.00  0.00    -0.203 F 
ATOM     96  F   UNL A   1      47.546  28.172  34.983  1.00  0.00    -0.200 F 
ATOM     97  C   UNL A   1      45.953  26.637  35.813  1.00  0.00     0.200 A 
ATOM     98  F   UNL A   1      44.327  25.123  36.610  1.00  0.00    -0.200 F 
ATOM     99  F   UNL A   1      46.928  25.910  36.377  1.00  0.00    -0.200 F 
ENDBRANCH  66  89
ENDBRANCH  40  41
ENDBRANCH  32  35
ENDBRANCH  30  31
ENDBRANCH  29  30
ENDBRANCH   1  29
TORSDOF 14
ENDMDL
