MODEL 1
REMARK VINA RESULT:     -12.7      0.000      0.000
REMARK SMILES C[C@]12CCC(=O)N1c1ccccc1C(=O)N2CCCC(=O)NCCCCNC(=O)c1ccc(-c2c3nc(c(-c4c(F)c(F)c(F)c(F)c4F)c4ccc([nH]4)c(-c4c(F)c(F)c(F)c(F)c4F)c4nc(c(-c5c(F)c(F)c(F)c(F)c5F)c5ccc2[nH]5)C=C4)C=C3)cc1
REMARK SMILES IDX 24 1 23 2 22 3 20 4 21 5 19 7 18 8 17 9 16 10 1 11 2 12 3 13
REMARK SMILES IDX 7 14 4 15 5 16 8 17 14 18 6 19 9 20 13 21 15 22 10 23 12 24
REMARK SMILES IDX 11 25 25 26 26 27 27 28 28 29 29 31 30 32 31 33 92 34 32 35
REMARK SMILES IDX 91 36 33 37 34 38 35 39 85 40 36 41 90 42 84 43 86 44 37 45
REMARK SMILES IDX 89 46 83 47 82 48 38 50 70 51 50 52 69 53 51 54 54 55 68 56
REMARK SMILES IDX 87 57 52 58 53 59 67 61 88 62 55 63 39 64 40 65 48 66 41 67
REMARK SMILES IDX 42 68 46 69 49 70 43 71 44 72 47 73 45 74 71 75 72 76 80 77
REMARK SMILES IDX 73 78 74 79 78 80 81 81 75 82 76 83 79 84 77 85 56 86 57 87
REMARK SMILES IDX 65 88 58 89 59 90 63 91 66 92 60 93 61 94 64 95 62 96
REMARK H PARENT 22 6 27 30 86 49 54 60
REMARK Flexibility Score: inf
ROOT
ATOM      1  C   UNL A   1      37.061  20.519  25.010  1.00  0.00     0.023 C 
ENDROOT
BRANCH   1   2
ATOM      2  C   UNL A   1      35.627  21.042  25.045  1.00  0.00     0.116 C 
BRANCH   2   3
ATOM      3  N   UNL A   1      34.697  19.952  25.241  1.00  0.00    -0.356 N 
ATOM      4  C   UNL A   1      33.353  19.956  25.023  1.00  0.00     0.220 C 
ATOM      5  O   UNL A   1      32.687  18.985  25.379  1.00  0.00    -0.275 OA
ATOM      6  H   UNL A   1      35.082  19.108  25.570  1.00  0.00     0.163 HD
BRANCH   4   7
ATOM      7  C   UNL A   1      32.714  21.143  24.331  1.00  0.00     0.102 C 
BRANCH   7   8
ATOM      8  C   UNL A   1      32.079  22.161  25.284  1.00  0.00     0.031 C 
BRANCH   8   9
ATOM      9  C   UNL A   1      32.984  23.214  25.974  1.00  0.00     0.123 C 
BRANCH   9  10
ATOM     10  N   UNL A   1      32.855  24.609  25.538  1.00  0.00    -0.315 N 
ATOM     11  C   UNL A   1      34.547  24.276  23.706  1.00  0.00     0.060 C 
ATOM     12  C   UNL A   1      33.327  25.079  24.225  1.00  0.00     0.120 C 
ATOM     13  C   UNL A   1      32.235  25.031  23.145  1.00  0.00     0.061 C 
ATOM     14  N   UNL A   1      33.640  26.501  24.216  1.00  0.00    -0.288 N 
ATOM     15  C   UNL A   1      32.762  26.006  22.087  1.00  0.00     0.105 C 
ATOM     16  C   UNL A   1      33.559  27.009  22.904  1.00  0.00     0.229 C 
ATOM     17  C   UNL A   1      33.280  27.345  25.296  1.00  0.00     0.059 A 
ATOM     18  C   UNL A   1      32.019  25.444  26.274  1.00  0.00     0.257 C 
ATOM     19  O   UNL A   1      33.951  28.079  22.478  1.00  0.00    -0.274 OA
ATOM     20  C   UNL A   1      33.689  28.681  25.365  1.00  0.00     0.027 A 
ATOM     21  C   UNL A   1      32.371  26.877  26.245  1.00  0.00     0.063 A 
ATOM     22  O   UNL A   1      31.131  25.052  27.022  1.00  0.00    -0.269 OA
ATOM     23  C   UNL A   1      33.173  29.534  26.346  1.00  0.00     0.002 A 
ATOM     24  C   UNL A   1      31.822  27.738  27.207  1.00  0.00     0.016 A 
ATOM     25  C   UNL A   1      32.222  29.070  27.253  1.00  0.00     0.001 A 
ENDBRANCH   9  10
ENDBRANCH   8   9
ENDBRANCH   7   8
ENDBRANCH   4   7
ENDBRANCH   2   3
ENDBRANCH   1   2
BRANCH   1  26
ATOM     26  C   UNL A   1      38.127  21.591  25.187  1.00  0.00     0.023 C 
BRANCH  26  27
ATOM     27  C   UNL A   1      39.256  21.202  26.133  1.00  0.00     0.116 C 
BRANCH  27  28
ATOM     28  N   UNL A   1      39.865  19.900  25.882  1.00  0.00    -0.352 N 
ATOM     29  C   UNL A   1      41.200  19.581  26.046  1.00  0.00     0.251 C 
ATOM     30  H   UNL A   1      39.271  19.182  25.567  1.00  0.00     0.163 HD
ATOM     31  O   UNL A   1      41.644  18.468  25.796  1.00  0.00    -0.269 OA
BRANCH  29  32
ATOM     32  C   UNL A   1      42.102  20.666  26.489  1.00  0.00     0.039 A 
ATOM     33  C   UNL A   1      42.257  20.904  27.855  1.00  0.00     0.014 A 
ATOM     34  C   UNL A   1      42.596  21.566  25.544  1.00  0.00     0.014 A 
ATOM     35  C   UNL A   1      42.707  22.148  28.274  1.00  0.00     0.010 A 
ATOM     36  C   UNL A   1      43.136  22.781  25.975  1.00  0.00     0.010 A 
ATOM     37  C   UNL A   1      43.120  23.115  27.339  1.00  0.00    -0.014 A 
BRANCH  37  38
ATOM     38  C   UNL A   1      43.452  24.485  27.813  1.00  0.00     0.031 A 
ATOM     39  C   UNL A   1      44.883  24.962  27.854  1.00  0.00     0.074 A 
ATOM     40  C   UNL A   1      42.454  25.338  28.115  1.00  0.00     0.049 A 
ATOM     41  N   UNL A   1      45.353  26.129  28.224  1.00  0.00    -0.248 NA
ATOM     42  C   UNL A   1      45.924  24.012  27.429  1.00  0.00     0.031 C 
ATOM     43  C   UNL A   1      41.029  25.007  28.089  1.00  0.00     0.029 A 
ATOM     44  N   UNL A   1      42.483  26.665  28.462  1.00  0.00    -0.354 N 
ATOM     45  C   UNL A   1      46.734  26.039  28.113  1.00  0.00     0.074 A 
ATOM     46  C   UNL A   1      47.036  24.703  27.648  1.00  0.00     0.031 C 
ATOM     47  C   UNL A   1      40.317  26.116  28.336  1.00  0.00     0.029 A 
ATOM     48  C   UNL A   1      41.234  27.219  28.603  1.00  0.00     0.049 A 
ATOM     49  H   UNL A   1      43.316  27.171  28.596  1.00  0.00     0.167 HD
ATOM     50  C   UNL A   1      47.667  26.987  28.367  1.00  0.00     0.037 A 
ATOM     51  C   UNL A   1      40.866  28.474  28.922  1.00  0.00     0.037 A 
ATOM     52  C   UNL A   1      47.371  28.336  28.772  1.00  0.00     0.049 A 
ATOM     53  C   UNL A   1      41.922  29.502  29.205  1.00  0.00     0.074 A 
ATOM     54  C   UNL A   1      48.252  29.374  29.023  1.00  0.00     0.029 A 
ATOM     55  N   UNL A   1      46.094  28.839  28.967  1.00  0.00    -0.354 N 
ATOM     56  N   UNL A   1      43.224  29.390  29.126  1.00  0.00    -0.248 NA
ATOM     57  C   UNL A   1      41.456  30.826  29.643  1.00  0.00     0.031 C 
ATOM     58  C   UNL A   1      47.509  30.499  29.395  1.00  0.00     0.029 A 
ATOM     59  C   UNL A   1      46.165  30.168  29.348  1.00  0.00     0.049 A 
ATOM     60  H   UNL A   1      45.261  28.327  28.852  1.00  0.00     0.167 HD
ATOM     61  C   UNL A   1      43.735  30.621  29.513  1.00  0.00     0.074 A 
ATOM     62  C   UNL A   1      42.601  31.477  29.795  1.00  0.00     0.031 C 
ATOM     63  C   UNL A   1      45.029  31.001  29.635  1.00  0.00     0.037 A 
BRANCH  50  64
ATOM     64  C   UNL A   1      49.113  26.615  28.223  1.00  0.00     0.064 A 
ATOM     65  C   UNL A   1      49.766  26.673  26.985  1.00  0.00     0.173 A 
ATOM     66  C   UNL A   1      49.875  26.294  29.357  1.00  0.00     0.173 A 
ATOM     67  F   UNL A   1      49.076  26.965  25.872  1.00  0.00    -0.203 F 
ATOM     68  C   UNL A   1      51.133  26.421  26.886  1.00  0.00     0.198 A 
ATOM     69  C   UNL A   1      51.244  26.062  29.257  1.00  0.00     0.198 A 
ATOM     70  F   UNL A   1      49.295  26.234  30.566  1.00  0.00    -0.203 F 
ATOM     71  F   UNL A   1      51.736  26.469  25.690  1.00  0.00    -0.200 F 
ATOM     72  C   UNL A   1      51.871  26.126  28.023  1.00  0.00     0.200 A 
ATOM     73  F   UNL A   1      51.958  25.787  30.358  1.00  0.00    -0.200 F 
ATOM     74  F   UNL A   1      53.190  25.905  27.927  1.00  0.00    -0.200 F 
ENDBRANCH  50  64
BRANCH  51  75
ATOM     75  C   UNL A   1      39.425  28.815  29.001  1.00  0.00     0.064 A 
ATOM     76  C   UNL A   1      38.730  28.717  30.212  1.00  0.00     0.173 A 
ATOM     77  C   UNL A   1      38.723  29.272  27.876  1.00  0.00     0.173 A 
ATOM     78  F   UNL A   1      39.356  28.266  31.309  1.00  0.00    -0.203 F 
ATOM     79  C   UNL A   1      37.382  29.061  30.296  1.00  0.00     0.198 A 
ATOM     80  C   UNL A   1      37.383  29.639  27.966  1.00  0.00     0.198 A 
ATOM     81  F   UNL A   1      39.349  29.383  26.695  1.00  0.00    -0.203 F 
ATOM     82  F   UNL A   1      36.731  28.935  31.460  1.00  0.00    -0.200 F 
ATOM     83  C   UNL A   1      36.714  29.530  29.175  1.00  0.00     0.200 A 
ATOM     84  F   UNL A   1      36.745  30.104  26.884  1.00  0.00    -0.200 F 
ATOM     85  F   UNL A   1      35.421  29.873  29.259  1.00  0.00    -0.200 F 
ENDBRANCH  51  75
BRANCH  63  86
ATOM     86  C   UNL A   1      45.291  32.397  30.108  1.00  0.00     0.064 A 
ATOM     87  C   UNL A   1      45.347  33.467  29.203  1.00  0.00     0.173 A 
ATOM     88  C   UNL A   1      45.428  32.678  31.475  1.00  0.00     0.173 A 
ATOM     89  F   UNL A   1      45.234  33.241  27.886  1.00  0.00    -0.203 F 
ATOM     90  C   UNL A   1      45.543  34.769  29.651  1.00  0.00     0.198 A 
ATOM     91  C   UNL A   1      45.605  33.984  31.920  1.00  0.00     0.198 A 
ATOM     92  F   UNL A   1      45.376  31.686  32.377  1.00  0.00    -0.203 F 
ATOM     93  F   UNL A   1      45.621  35.774  28.768  1.00  0.00    -0.200 F 
ATOM     94  C   UNL A   1      45.665  35.028  31.007  1.00  0.00     0.200 A 
ATOM     95  F   UNL A   1      45.716  34.235  33.232  1.00  0.00    -0.200 F 
ATOM     96  F   UNL A   1      45.845  36.284  31.437  1.00  0.00    -0.200 F 
ENDBRANCH  63  86
ENDBRANCH  37  38
ENDBRANCH  29  32
ENDBRANCH  27  28
ENDBRANCH  26  27
ENDBRANCH   1  26
TORSDOF 14
ENDMDL
MODEL 2
REMARK VINA RESULT:     -12.7      4.832     10.166
REMARK SMILES C[C@]12CCC(=O)N1c1ccccc1C(=O)N2CCCC(=O)NCCCCNC(=O)c1ccc(-c2c3nc(c(-c4c(F)c(F)c(F)c(F)c4F)c4ccc([nH]4)c(-c4c(F)c(F)c(F)c(F)c4F)c4nc(c(-c5c(F)c(F)c(F)c(F)c5F)c5ccc2[nH]5)C=C4)C=C3)cc1
REMARK SMILES IDX 24 1 23 2 22 3 20 4 21 5 19 7 18 8 17 9 16 10 1 11 2 12 3 13
REMARK SMILES IDX 7 14 4 15 5 16 8 17 14 18 6 19 9 20 13 21 15 22 10 23 12 24
REMARK SMILES IDX 11 25 25 26 26 27 27 28 28 29 29 31 30 32 31 33 92 34 32 35
REMARK SMILES IDX 91 36 33 37 34 38 35 39 85 40 36 41 90 42 84 43 86 44 37 45
REMARK SMILES IDX 89 46 83 47 82 48 38 50 70 51 50 52 69 53 51 54 54 55 68 56
REMARK SMILES IDX 87 57 52 58 53 59 67 61 88 62 55 63 39 64 40 65 48 66 41 67
REMARK SMILES IDX 42 68 46 69 49 70 43 71 44 72 47 73 45 74 71 75 72 76 80 77
REMARK SMILES IDX 73 78 74 79 78 80 81 81 75 82 76 83 79 84 77 85 56 86 57 87
REMARK SMILES IDX 65 88 58 89 59 90 63 91 66 92 60 93 61 94 64 95 62 96
REMARK H PARENT 22 6 27 30 86 49 54 60
REMARK Flexibility Score: inf
ROOT
ATOM      1  C   UNL A   1      31.688  30.884  26.104  1.00  0.00     0.023 C 
ENDROOT
BRANCH   1   2
ATOM      2  C   UNL A   1      31.420  29.649  25.248  1.00  0.00     0.116 C 
BRANCH   2   3
ATOM      3  N   UNL A   1      30.866  30.032  23.968  1.00  0.00    -0.356 N 
ATOM      4  C   UNL A   1      30.357  29.217  23.004  1.00  0.00     0.220 C 
ATOM      5  O   UNL A   1      30.059  29.697  21.911  1.00  0.00    -0.275 OA
ATOM      6  H   UNL A   1      30.856  30.997  23.772  1.00  0.00     0.163 HD
BRANCH   4   7
ATOM      7  C   UNL A   1      30.151  27.746  23.304  1.00  0.00     0.102 C 
BRANCH   7   8
ATOM      8  C   UNL A   1      31.240  26.829  22.737  1.00  0.00     0.031 C 
BRANCH   8   9
ATOM      9  C   UNL A   1      32.601  26.729  23.472  1.00  0.00     0.123 C 
BRANCH   9  10
ATOM     10  N   UNL A   1      32.924  25.459  24.133  1.00  0.00    -0.315 N 
ATOM     11  C   UNL A   1      31.830  26.202  26.273  1.00  0.00     0.060 C 
ATOM     12  C   UNL A   1      32.266  25.018  25.373  1.00  0.00     0.120 C 
ATOM     13  C   UNL A   1      31.031  24.141  25.116  1.00  0.00     0.061 C 
ATOM     14  N   UNL A   1      33.084  24.095  26.146  1.00  0.00    -0.288 N 
ATOM     15  C   UNL A   1      30.852  23.407  26.449  1.00  0.00     0.105 C 
ATOM     16  C   UNL A   1      32.270  23.306  26.983  1.00  0.00     0.229 C 
ATOM     17  C   UNL A   1      34.263  23.521  25.607  1.00  0.00     0.059 A 
ATOM     18  C   UNL A   1      33.672  24.528  23.417  1.00  0.00     0.257 C 
ATOM     19  O   UNL A   1      32.602  22.589  27.910  1.00  0.00    -0.274 OA
ATOM     20  C   UNL A   1      35.130  22.740  26.378  1.00  0.00     0.027 A 
ATOM     21  C   UNL A   1      34.493  23.613  24.234  1.00  0.00     0.063 A 
ATOM     22  O   UNL A   1      33.786  24.521  22.197  1.00  0.00    -0.269 OA
ATOM     23  C   UNL A   1      36.185  22.044  25.777  1.00  0.00     0.002 A 
ATOM     24  C   UNL A   1      35.524  22.887  23.622  1.00  0.00     0.016 A 
ATOM     25  C   UNL A   1      36.369  22.098  24.398  1.00  0.00     0.001 A 
ENDBRANCH   9  10
ENDBRANCH   8   9
ENDBRANCH   7   8
ENDBRANCH   4   7
ENDBRANCH   2   3
ENDBRANCH   1   2
BRANCH   1  26
ATOM     26  C   UNL A   1      32.703  30.671  27.218  1.00  0.00     0.023 C 
BRANCH  26  27
ATOM     27  C   UNL A   1      33.533  31.903  27.554  1.00  0.00     0.116 C 
BRANCH  27  28
ATOM     28  N   UNL A   1      32.796  33.160  27.613  1.00  0.00    -0.352 N 
ATOM     29  C   UNL A   1      33.104  34.248  28.409  1.00  0.00     0.251 C 
ATOM     30  H   UNL A   1      32.006  33.243  27.031  1.00  0.00     0.163 HD
ATOM     31  O   UNL A   1      32.425  35.266  28.419  1.00  0.00    -0.269 OA
BRANCH  29  32
ATOM     32  C   UNL A   1      34.271  34.116  29.307  1.00  0.00     0.039 A 
ATOM     33  C   UNL A   1      35.538  34.443  28.825  1.00  0.00     0.014 A 
ATOM     34  C   UNL A   1      34.117  33.458  30.529  1.00  0.00     0.014 A 
ATOM     35  C   UNL A   1      36.656  33.915  29.456  1.00  0.00     0.010 A 
ATOM     36  C   UNL A   1      35.251  33.009  31.211  1.00  0.00     0.010 A 
ATOM     37  C   UNL A   1      36.524  33.163  30.638  1.00  0.00    -0.014 A 
BRANCH  37  38
ATOM     38  C   UNL A   1      37.723  32.487  31.204  1.00  0.00     0.031 A 
ATOM     39  C   UNL A   1      38.191  32.792  32.605  1.00  0.00     0.074 A 
ATOM     40  C   UNL A   1      38.334  31.523  30.489  1.00  0.00     0.049 A 
ATOM     41  N   UNL A   1      39.205  32.286  33.264  1.00  0.00    -0.248 NA
ATOM     42  C   UNL A   1      37.429  33.793  33.370  1.00  0.00     0.031 C 
ATOM     43  C   UNL A   1      37.961  31.117  29.134  1.00  0.00     0.029 A 
ATOM     44  N   UNL A   1      39.369  30.684  30.816  1.00  0.00    -0.354 N 
ATOM     45  C   UNL A   1      39.224  32.930  34.494  1.00  0.00     0.074 A 
ATOM     46  C   UNL A   1      38.126  33.871  34.496  1.00  0.00     0.031 C 
ATOM     47  C   UNL A   1      38.705  30.062  28.771  1.00  0.00     0.029 A 
ATOM     48  C   UNL A   1      39.652  29.760  29.841  1.00  0.00     0.049 A 
ATOM     49  H   UNL A   1      39.860  30.738  31.667  1.00  0.00     0.167 HD
ATOM     50  C   UNL A   1      40.075  32.747  35.532  1.00  0.00     0.037 A 
ATOM     51  C   UNL A   1      40.578  28.783  29.804  1.00  0.00     0.037 A 
ATOM     52  C   UNL A   1      41.132  31.770  35.559  1.00  0.00     0.049 A 
ATOM     53  C   UNL A   1      41.511  28.608  30.966  1.00  0.00     0.074 A 
ATOM     54  C   UNL A   1      42.025  31.495  36.581  1.00  0.00     0.029 A 
ATOM     55  N   UNL A   1      41.427  30.898  34.524  1.00  0.00    -0.354 N 
ATOM     56  N   UNL A   1      41.534  29.248  32.108  1.00  0.00    -0.248 NA
ATOM     57  C   UNL A   1      42.561  27.589  30.824  1.00  0.00     0.031 C 
ATOM     58  C   UNL A   1      42.877  30.471  36.154  1.00  0.00     0.029 A 
ATOM     59  C   UNL A   1      42.496  30.092  34.877  1.00  0.00     0.049 A 
ATOM     60  H   UNL A   1      40.947  30.857  33.664  1.00  0.00     0.167 HD
ATOM     61  C   UNL A   1      42.603  28.720  32.817  1.00  0.00     0.074 A 
ATOM     62  C   UNL A   1      43.185  27.683  31.990  1.00  0.00     0.031 C 
ATOM     63  C   UNL A   1      43.068  29.074  34.039  1.00  0.00     0.037 A 
BRANCH  50  64
ATOM     64  C   UNL A   1      39.916  33.620  36.740  1.00  0.00     0.064 A 
ATOM     65  C   UNL A   1      40.594  34.840  36.858  1.00  0.00     0.173 A 
ATOM     66  C   UNL A   1      38.995  33.276  37.742  1.00  0.00     0.173 A 
ATOM     67  F   UNL A   1      41.490  35.206  35.930  1.00  0.00    -0.203 F 
ATOM     68  C   UNL A   1      40.357  35.687  37.940  1.00  0.00     0.198 A 
ATOM     69  C   UNL A   1      38.748  34.133  38.812  1.00  0.00     0.198 A 
ATOM     70  F   UNL A   1      38.316  32.121  37.669  1.00  0.00    -0.203 F 
ATOM     71  F   UNL A   1      41.027  36.844  38.041  1.00  0.00    -0.200 F 
ATOM     72  C   UNL A   1      39.429  35.337  38.909  1.00  0.00     0.200 A 
ATOM     73  F   UNL A   1      37.843  33.798  39.742  1.00  0.00    -0.200 F 
ATOM     74  F   UNL A   1      39.189  36.163  39.937  1.00  0.00    -0.200 F 
ENDBRANCH  50  64
BRANCH  51  75
ATOM     75  C   UNL A   1      40.667  27.905  28.612  1.00  0.00     0.064 A 
ATOM     76  C   UNL A   1      39.967  26.694  28.559  1.00  0.00     0.173 A 
ATOM     77  C   UNL A   1      41.430  28.272  27.494  1.00  0.00     0.173 A 
ATOM     78  F   UNL A   1      39.241  26.293  29.613  1.00  0.00    -0.203 F 
ATOM     79  C   UNL A   1      40.028  25.878  27.431  1.00  0.00     0.198 A 
ATOM     80  C   UNL A   1      41.471  27.469  26.358  1.00  0.00     0.198 A 
ATOM     81  F   UNL A   1      42.116  29.424  27.500  1.00  0.00    -0.203 F 
ATOM     82  F   UNL A   1      39.371  24.712  27.414  1.00  0.00    -0.200 F 
ATOM     83  C   UNL A   1      40.773  26.272  26.329  1.00  0.00     0.200 A 
ATOM     84  F   UNL A   1      42.180  27.859  25.290  1.00  0.00    -0.200 F 
ATOM     85  F   UNL A   1      40.821  25.493  25.239  1.00  0.00    -0.200 F 
ENDBRANCH  51  75
BRANCH  63  86
ATOM     86  C   UNL A   1      44.272  28.346  34.550  1.00  0.00     0.064 A 
ATOM     87  C   UNL A   1      45.562  28.861  34.357  1.00  0.00     0.173 A 
ATOM     88  C   UNL A   1      44.136  27.162  35.287  1.00  0.00     0.173 A 
ATOM     89  F   UNL A   1      45.739  29.985  33.647  1.00  0.00    -0.203 F 
ATOM     90  C   UNL A   1      46.676  28.207  34.875  1.00  0.00     0.198 A 
ATOM     91  C   UNL A   1      45.250  26.520  35.819  1.00  0.00     0.198 A 
ATOM     92  F   UNL A   1      42.920  26.635  35.500  1.00  0.00    -0.203 F 
ATOM     93  F   UNL A   1      47.902  28.701  34.656  1.00  0.00    -0.200 F 
ATOM     94  C   UNL A   1      46.518  27.043  35.611  1.00  0.00     0.200 A 
ATOM     95  F   UNL A   1      45.097  25.399  36.537  1.00  0.00    -0.200 F 
ATOM     96  F   UNL A   1      47.592  26.419  36.116  1.00  0.00    -0.200 F 
ENDBRANCH  63  86
ENDBRANCH  37  38
ENDBRANCH  29  32
ENDBRANCH  27  28
ENDBRANCH  26  27
ENDBRANCH   1  26
TORSDOF 14
ENDMDL
MODEL 3
REMARK VINA RESULT:     -12.6      4.714     10.114
REMARK SMILES C[C@]12CCC(=O)N1c1ccccc1C(=O)N2CCCC(=O)NCCCCNC(=O)c1ccc(-c2c3nc(c(-c4c(F)c(F)c(F)c(F)c4F)c4ccc([nH]4)c(-c4c(F)c(F)c(F)c(F)c4F)c4nc(c(-c5c(F)c(F)c(F)c(F)c5F)c5ccc2[nH]5)C=C4)C=C3)cc1
REMARK SMILES IDX 24 1 23 2 22 3 20 4 21 5 19 7 18 8 17 9 16 10 1 11 2 12 3 13
REMARK SMILES IDX 7 14 4 15 5 16 8 17 14 18 6 19 9 20 13 21 15 22 10 23 12 24
REMARK SMILES IDX 11 25 25 26 26 27 27 28 28 29 29 31 30 32 31 33 92 34 32 35
REMARK SMILES IDX 91 36 33 37 34 38 35 39 85 40 36 41 90 42 84 43 86 44 37 45
REMARK SMILES IDX 89 46 83 47 82 48 38 50 70 51 50 52 69 53 51 54 54 55 68 56
REMARK SMILES IDX 87 57 52 58 53 59 67 61 88 62 55 63 39 64 40 65 48 66 41 67
REMARK SMILES IDX 42 68 46 69 49 70 43 71 44 72 47 73 45 74 71 75 72 76 80 77
REMARK SMILES IDX 73 78 74 79 78 80 81 81 75 82 76 83 79 84 77 85 56 86 57 87
REMARK SMILES IDX 65 88 58 89 59 90 63 91 66 92 60 93 61 94 64 95 62 96
REMARK H PARENT 22 6 27 30 86 49 54 60
REMARK Flexibility Score: inf
ROOT
ATOM      1  C   UNL A   1      32.142  30.419  26.664  1.00  0.00     0.023 C 
ENDROOT
BRANCH   1   2
ATOM      2  C   UNL A   1      31.851  29.701  25.348  1.00  0.00     0.116 C 
BRANCH   2   3
ATOM      3  N   UNL A   1      33.028  29.690  24.508  1.00  0.00    -0.356 N 
ATOM      4  C   UNL A   1      33.239  28.953  23.383  1.00  0.00     0.220 C 
ATOM      5  O   UNL A   1      34.357  28.956  22.868  1.00  0.00    -0.275 OA
ATOM      6  H   UNL A   1      33.762  30.285  24.783  1.00  0.00     0.163 HD
BRANCH   4   7
ATOM      7  C   UNL A   1      32.094  28.166  22.781  1.00  0.00     0.102 C 
BRANCH   7   8
ATOM      8  C   UNL A   1      32.519  26.877  22.071  1.00  0.00     0.031 C 
BRANCH   8   9
ATOM      9  C   UNL A   1      31.800  25.549  22.422  1.00  0.00     0.123 C 
BRANCH   9  10
ATOM     10  N   UNL A   1      32.467  24.645  23.366  1.00  0.00    -0.315 N 
ATOM     11  C   UNL A   1      31.111  25.527  25.293  1.00  0.00     0.060 C 
ATOM     12  C   UNL A   1      31.924  24.348  24.701  1.00  0.00     0.120 C 
ATOM     13  C   UNL A   1      31.027  23.101  24.718  1.00  0.00     0.061 C 
ATOM     14  N   UNL A   1      32.953  23.942  25.649  1.00  0.00    -0.288 N 
ATOM     15  C   UNL A   1      31.026  22.704  26.198  1.00  0.00     0.105 C 
ATOM     16  C   UNL A   1      32.384  23.177  26.687  1.00  0.00     0.229 C 
ATOM     17  C   UNL A   1      34.271  23.640  25.226  1.00  0.00     0.059 A 
ATOM     18  C   UNL A   1      33.492  23.840  22.878  1.00  0.00     0.257 C 
ATOM     19  O   UNL A   1      32.880  22.850  27.750  1.00  0.00    -0.274 OA
ATOM     20  C   UNL A   1      35.303  23.379  26.134  1.00  0.00     0.027 A 
ATOM     21  C   UNL A   1      34.519  23.453  23.865  1.00  0.00     0.063 A 
ATOM     22  O   UNL A   1      33.653  23.563  21.695  1.00  0.00    -0.269 OA
ATOM     23  C   UNL A   1      36.544  22.911  25.686  1.00  0.00     0.002 A 
ATOM     24  C   UNL A   1      35.747  22.948  23.416  1.00  0.00     0.016 A 
ATOM     25  C   UNL A   1      36.759  22.674  24.331  1.00  0.00     0.001 A 
ENDBRANCH   9  10
ENDBRANCH   8   9
ENDBRANCH   7   8
ENDBRANCH   4   7
ENDBRANCH   2   3
ENDBRANCH   1   2
BRANCH   1  26
ATOM     26  C   UNL A   1      31.489  31.787  26.794  1.00  0.00     0.023 C 
BRANCH  26  27
ATOM     27  C   UNL A   1      32.450  32.959  26.641  1.00  0.00     0.116 C 
BRANCH  27  28
ATOM     28  N   UNL A   1      32.303  34.025  27.626  1.00  0.00    -0.352 N 
ATOM     29  C   UNL A   1      33.210  34.348  28.619  1.00  0.00     0.251 C 
ATOM     30  H   UNL A   1      31.482  34.566  27.580  1.00  0.00     0.163 HD
ATOM     31  O   UNL A   1      33.008  35.247  29.424  1.00  0.00    -0.269 OA
BRANCH  29  32
ATOM     32  C   UNL A   1      34.430  33.518  28.711  1.00  0.00     0.039 A 
ATOM     33  C   UNL A   1      34.321  32.199  29.152  1.00  0.00     0.014 A 
ATOM     34  C   UNL A   1      35.678  34.128  28.577  1.00  0.00     0.014 A 
ATOM     35  C   UNL A   1      35.444  31.568  29.670  1.00  0.00     0.010 A 
ATOM     36  C   UNL A   1      36.820  33.451  29.013  1.00  0.00     0.010 A 
ATOM     37  C   UNL A   1      36.701  32.199  29.638  1.00  0.00    -0.014 A 
BRANCH  37  38
ATOM     38  C   UNL A   1      37.850  31.560  30.335  1.00  0.00     0.031 A 
ATOM     39  C   UNL A   1      38.099  31.813  31.801  1.00  0.00     0.074 A 
ATOM     40  C   UNL A   1      38.613  30.672  29.670  1.00  0.00     0.049 A 
ATOM     41  N   UNL A   1      39.042  31.328  32.573  1.00  0.00    -0.248 NA
ATOM     42  C   UNL A   1      37.178  32.727  32.496  1.00  0.00     0.031 C 
ATOM     43  C   UNL A   1      38.457  30.321  28.258  1.00  0.00     0.029 A 
ATOM     44  N   UNL A   1      39.643  29.874  30.101  1.00  0.00    -0.354 N 
ATOM     45  C   UNL A   1      38.850  31.904  33.822  1.00  0.00     0.074 A 
ATOM     46  C   UNL A   1      37.706  32.782  33.712  1.00  0.00     0.031 C 
ATOM     47  C   UNL A   1      39.309  29.330  27.957  1.00  0.00     0.029 A 
ATOM     48  C   UNL A   1      40.115  29.022  29.134  1.00  0.00     0.049 A 
ATOM     49  H   UNL A   1      40.007  29.909  31.015  1.00  0.00     0.167 HD
ATOM     50  C   UNL A   1      39.558  31.712  34.960  1.00  0.00     0.037 A 
ATOM     51  C   UNL A   1      41.096  28.101  29.184  1.00  0.00     0.037 A 
ATOM     52  C   UNL A   1      40.659  30.795  35.092  1.00  0.00     0.049 A 
ATOM     53  C   UNL A   1      41.868  27.915  30.456  1.00  0.00     0.074 A 
ATOM     54  C   UNL A   1      41.417  30.513  36.216  1.00  0.00     0.029 A 
ATOM     55  N   UNL A   1      41.149  29.997  34.069  1.00  0.00    -0.354 N 
ATOM     56  N   UNL A   1      41.693  28.491  31.619  1.00  0.00    -0.248 NA
ATOM     57  C   UNL A   1      42.988  26.964  30.417  1.00  0.00     0.031 C 
ATOM     58  C   UNL A   1      42.382  29.562  35.867  1.00  0.00     0.029 A 
ATOM     59  C   UNL A   1      42.206  29.233  34.533  1.00  0.00     0.049 A 
ATOM     60  H   UNL A   1      40.796  29.977  33.149  1.00  0.00     0.167 HD
ATOM     61  C   UNL A   1      42.684  27.985  32.447  1.00  0.00     0.074 A 
ATOM     62  C   UNL A   1      43.437  27.028  31.664  1.00  0.00     0.031 C 
ATOM     63  C   UNL A   1      42.951  28.296  33.737  1.00  0.00     0.037 A 
BRANCH  50  64
ATOM     64  C   UNL A   1      39.178  32.507  36.173  1.00  0.00     0.064 A 
ATOM     65  C   UNL A   1      38.329  31.985  37.157  1.00  0.00     0.173 A 
ATOM     66  C   UNL A   1      39.754  33.768  36.398  1.00  0.00     0.173 A 
ATOM     67  F   UNL A   1      37.748  30.789  36.981  1.00  0.00    -0.203 F 
ATOM     68  C   UNL A   1      38.067  32.698  38.326  1.00  0.00     0.198 A 
ATOM     69  C   UNL A   1      39.504  34.469  37.576  1.00  0.00     0.198 A 
ATOM     70  F   UNL A   1      40.580  34.306  35.488  1.00  0.00    -0.203 F 
ATOM     71  F   UNL A   1      37.241  32.186  39.249  1.00  0.00    -0.200 F 
ATOM     72  C   UNL A   1      38.662  33.933  38.537  1.00  0.00     0.200 A 
ATOM     73  F   UNL A   1      40.089  35.657  37.783  1.00  0.00    -0.200 F 
ATOM     74  F   UNL A   1      38.424  34.607  39.672  1.00  0.00    -0.200 F 
ENDBRANCH  50  64
BRANCH  51  75
ATOM     75  C   UNL A   1      41.404  27.296  27.977  1.00  0.00     0.064 A 
ATOM     76  C   UNL A   1      42.329  27.750  27.028  1.00  0.00     0.173 A 
ATOM     77  C   UNL A   1      40.802  26.048  27.762  1.00  0.00     0.173 A 
ATOM     78  F   UNL A   1      42.913  28.947  27.183  1.00  0.00    -0.203 F 
ATOM     79  C   UNL A   1      42.640  26.985  25.907  1.00  0.00     0.198 A 
ATOM     80  C   UNL A   1      41.133  25.273  26.653  1.00  0.00     0.198 A 
ATOM     81  F   UNL A   1      39.911  25.572  28.645  1.00  0.00    -0.203 F 
ATOM     82  F   UNL A   1      43.508  27.452  25.000  1.00  0.00    -0.200 F 
ATOM     83  C   UNL A   1      42.048  25.744  25.725  1.00  0.00     0.200 A 
ATOM     84  F   UNL A   1      40.569  24.069  26.490  1.00  0.00    -0.200 F 
ATOM     85  F   UNL A   1      42.358  25.003  24.653  1.00  0.00    -0.200 F 
ENDBRANCH  51  75
BRANCH  63  86
ATOM     86  C   UNL A   1      44.116  27.609  34.380  1.00  0.00     0.064 A 
ATOM     87  C   UNL A   1      45.385  28.205  34.398  1.00  0.00     0.173 A 
ATOM     88  C   UNL A   1      43.953  26.379  35.032  1.00  0.00     0.173 A 
ATOM     89  F   UNL A   1      45.589  29.375  33.775  1.00  0.00    -0.203 F 
ATOM     90  C   UNL A   1      46.454  27.585  35.037  1.00  0.00     0.198 A 
ATOM     91  C   UNL A   1      45.020  25.771  35.687  1.00  0.00     0.198 A 
ATOM     92  F   UNL A   1      42.755  25.774  35.044  1.00  0.00    -0.203 F 
ATOM     93  F   UNL A   1      47.666  28.158  35.020  1.00  0.00    -0.200 F 
ATOM     94  C   UNL A   1      46.270  26.375  35.687  1.00  0.00     0.200 A 
ATOM     95  F   UNL A   1      44.840  24.604  36.320  1.00  0.00    -0.200 F 
ATOM     96  F   UNL A   1      47.299  25.784  36.309  1.00  0.00    -0.200 F 
ENDBRANCH  63  86
ENDBRANCH  37  38
ENDBRANCH  29  32
ENDBRANCH  27  28
ENDBRANCH  26  27
ENDBRANCH   1  26
TORSDOF 14
ENDMDL
