MODEL 1
REMARK VINA RESULT:     -12.2      0.000      0.000
REMARK SMILES CC(C)CCN1C(=O)/C(=C2/SC(=S)N(CCC(=O)NCCCCNC(=O)c3ccc(-c4c5nc(c(-c6c(F)c(F)c(F)c(F)c6F)c6ccc([nH]6)c(-c6c(F)c(F)c(F)c(F)c6F)c6nc(c(-c7c(F)c(F)c(F)c(F)c7F)c7ccc4[nH]7)C=C6)C=C5)cc3)C2=O)c2ccccc21
REMARK SMILES IDX 20 1 19 2 17 3 18 4 16 6 15 7 14 8 6 9 7 10 97 11 8 12 9 13
REMARK SMILES IDX 92 14 96 15 10 16 93 17 95 18 11 19 90 20 94 21 12 22 91 23
REMARK SMILES IDX 13 24 5 25 4 26 2 27 1 28 3 29 21 30 22 31 23 32 24 33 25 34
REMARK SMILES IDX 26 36 27 37 28 38 89 39 29 40 88 41 30 42 31 43 32 44 82 45
REMARK SMILES IDX 33 46 87 47 81 48 83 49 34 50 86 51 80 52 79 53 35 55 67 56
REMARK SMILES IDX 47 57 66 58 48 59 51 60 65 61 84 62 49 63 50 64 64 66 85 67
REMARK SMILES IDX 52 68 36 69 37 70 45 71 38 72 39 73 43 74 46 75 40 76 41 77
REMARK SMILES IDX 44 78 42 79 68 80 69 81 77 82 70 83 71 84 75 85 78 86 72 87
REMARK SMILES IDX 73 88 76 89 74 90 53 91 54 92 62 93 55 94 56 95 60 96 63 97
REMARK SMILES IDX 57 98 58 99 61 100 59 101
REMARK H PARENT 19 5 24 35 83 54 51 65
REMARK Flexibility Score: inf
ROOT
ATOM      1  C   UNL A   1      45.597  23.253  39.456  1.00  0.00     0.116 C 
ENDROOT
BRANCH   1   2
ATOM      2  N   UNL A   1      45.290  22.780  38.126  1.00  0.00    -0.356 N 
ATOM      3  C   UNL A   1      45.972  21.863  37.381  1.00  0.00     0.221 C 
ATOM      4  O   UNL A   1      45.704  21.763  36.184  1.00  0.00    -0.275 OA
ATOM      5  H   UNL A   1      44.489  23.166  37.704  1.00  0.00     0.163 HD
BRANCH   3   6
ATOM      6  C   UNL A   1      47.000  20.961  38.036  1.00  0.00     0.122 C 
BRANCH   6   7
ATOM      7  C   UNL A   1      46.842  19.467  37.727  1.00  0.00     0.137 C 
BRANCH   7   8
ATOM      8  N   UNL A   1      46.809  18.552  38.885  1.00  0.00    -0.292 N 
ATOM      9  N   UNL A   1      42.838  15.358  41.722  1.00  0.00    -0.308 N 
ATOM     10  C   UNL A   1      43.471  15.991  40.639  1.00  0.00     0.260 C 
ATOM     11  C   UNL A   1      43.583  15.517  42.904  1.00  0.00     0.052 A 
ATOM     12  O   UNL A   1      43.111  15.977  39.480  1.00  0.00    -0.269 OA
ATOM     13  C   UNL A   1      44.774  16.537  41.192  1.00  0.00     0.069 C 
ATOM     14  C   UNL A   1      44.748  16.251  42.647  1.00  0.00     0.012 A 
ATOM     15  C   UNL A   1      43.266  15.093  44.186  1.00  0.00     0.027 A 
ATOM     16  C   UNL A   1      45.768  17.083  40.461  1.00  0.00     0.093 C 
ATOM     17  C   UNL A   1      45.536  16.683  43.708  1.00  0.00     0.011 A 
ATOM     18  C   UNL A   1      44.073  15.508  45.247  1.00  0.00     0.002 A 
ATOM     19  S   UNL A   1      47.412  17.231  41.004  1.00  0.00    -0.053 SA
ATOM     20  C   UNL A   1      45.657  17.799  39.139  1.00  0.00     0.267 C 
ATOM     21  C   UNL A   1      45.193  16.311  45.011  1.00  0.00     0.001 A 
ATOM     22  C   UNL A   1      47.875  18.350  39.737  1.00  0.00     0.148 C 
ATOM     23  O   UNL A   1      44.653  17.860  38.449  1.00  0.00    -0.268 OA
ATOM     24  S   UNL A   1      49.387  19.053  39.714  1.00  0.00    -0.052 S 
BRANCH   9  25
ATOM     25  C   UNL A   1      41.687  14.485  41.563  1.00  0.00     0.126 C 
BRANCH  25  26
ATOM     26  C   UNL A   1      41.946  12.996  41.288  1.00  0.00     0.025 C 
BRANCH  26  27
ATOM     27  C   UNL A   1      41.682  12.039  42.460  1.00  0.00    -0.016 C 
ATOM     28  C   UNL A   1      42.975  11.678  43.190  1.00  0.00     0.007 C 
ATOM     29  C   UNL A   1      40.703  12.693  43.442  1.00  0.00     0.007 C 
ENDBRANCH  26  27
ENDBRANCH  25  26
ENDBRANCH   9  25
ENDBRANCH   7   8
ENDBRANCH   6   7
ENDBRANCH   3   6
ENDBRANCH   1   2
BRANCH   1  30
ATOM     30  C   UNL A   1      45.272  24.734  39.549  1.00  0.00     0.023 C 
BRANCH  30  31
ATOM     31  C   UNL A   1      46.418  25.655  39.893  1.00  0.00     0.023 C 
BRANCH  31  32
ATOM     32  C   UNL A   1      46.954  26.407  38.698  1.00  0.00     0.116 C 
BRANCH  32  33
ATOM     33  N   UNL A   1      47.560  25.562  37.668  1.00  0.00    -0.352 N 
ATOM     34  C   UNL A   1      47.226  25.480  36.334  1.00  0.00     0.251 C 
ATOM     35  H   UNL A   1      48.297  24.980  37.965  1.00  0.00     0.163 HD
ATOM     36  O   UNL A   1      47.822  24.748  35.556  1.00  0.00    -0.269 OA
BRANCH  34  37
ATOM     37  C   UNL A   1      46.092  26.296  35.876  1.00  0.00     0.039 A 
ATOM     38  C   UNL A   1      44.824  25.723  35.904  1.00  0.00     0.014 A 
ATOM     39  C   UNL A   1      46.321  27.525  35.253  1.00  0.00     0.014 A 
ATOM     40  C   UNL A   1      43.841  26.256  35.097  1.00  0.00     0.010 A 
ATOM     41  C   UNL A   1      45.268  28.151  34.583  1.00  0.00     0.010 A 
ATOM     42  C   UNL A   1      44.031  27.499  34.466  1.00  0.00    -0.014 A 
BRANCH  42  43
ATOM     43  C   UNL A   1      42.865  28.110  33.786  1.00  0.00     0.031 A 
ATOM     44  C   UNL A   1      41.966  29.093  34.477  1.00  0.00     0.074 A 
ATOM     45  C   UNL A   1      42.693  27.809  32.484  1.00  0.00     0.049 A 
ATOM     46  N   UNL A   1      40.937  29.738  33.989  1.00  0.00    -0.248 NA
ATOM     47  C   UNL A   1      42.242  29.389  35.890  1.00  0.00     0.031 C 
ATOM     48  C   UNL A   1      43.525  26.865  31.727  1.00  0.00     0.029 A 
ATOM     49  N   UNL A   1      41.817  28.292  31.551  1.00  0.00    -0.354 N 
ATOM     50  C   UNL A   1      40.431  30.497  35.035  1.00  0.00     0.074 A 
ATOM     51  C   UNL A   1      41.250  30.216  36.195  1.00  0.00     0.031 C 
ATOM     52  C   UNL A   1      43.193  26.921  30.434  1.00  0.00     0.029 A 
ATOM     53  C   UNL A   1      42.047  27.804  30.287  1.00  0.00     0.049 A 
ATOM     54  H   UNL A   1      41.094  28.925  31.764  1.00  0.00     0.167 HD
ATOM     55  C   UNL A   1      39.380  31.353  35.015  1.00  0.00     0.037 A 
ATOM     56  C   UNL A   1      41.390  28.021  29.136  1.00  0.00     0.037 A 
ATOM     57  C   UNL A   1      38.590  31.627  33.839  1.00  0.00     0.049 A 
ATOM     58  C   UNL A   1      40.205  28.936  29.159  1.00  0.00     0.074 A 
ATOM     59  C   UNL A   1      37.507  32.478  33.706  1.00  0.00     0.029 A 
ATOM     60  N   UNL A   1      38.801  31.054  32.591  1.00  0.00    -0.354 N 
ATOM     61  N   UNL A   1      39.730  29.640  30.157  1.00  0.00    -0.248 NA
ATOM     62  C   UNL A   1      39.456  29.075  27.907  1.00  0.00     0.031 C 
ATOM     63  C   UNL A   1      37.031  32.380  32.395  1.00  0.00     0.029 A 
ATOM     64  C   UNL A   1      37.854  31.516  31.691  1.00  0.00     0.049 A 
ATOM     65  H   UNL A   1      39.519  30.414  32.378  1.00  0.00     0.167 HD
ATOM     66  C   UNL A   1      38.629  30.313  29.655  1.00  0.00     0.074 A 
ATOM     67  C   UNL A   1      38.527  29.956  28.253  1.00  0.00     0.031 C 
ATOM     68  C   UNL A   1      37.773  31.143  30.300  1.00  0.00     0.037 A 
BRANCH  55  69
ATOM     69  C   UNL A   1      39.004  32.049  36.294  1.00  0.00     0.064 A 
ATOM     70  C   UNL A   1      39.488  33.327  36.609  1.00  0.00     0.173 A 
ATOM     71  C   UNL A   1      38.083  31.464  37.179  1.00  0.00     0.173 A 
ATOM     72  F   UNL A   1      40.377  33.930  35.805  1.00  0.00    -0.203 F 
ATOM     73  C   UNL A   1      39.075  33.987  37.766  1.00  0.00     0.198 A 
ATOM     74  C   UNL A   1      37.652  32.138  38.318  1.00  0.00     0.198 A 
ATOM     75  F   UNL A   1      37.583  30.245  36.925  1.00  0.00    -0.203 F 
ATOM     76  F   UNL A   1      39.577  35.194  38.062  1.00  0.00    -0.200 F 
ATOM     77  C   UNL A   1      38.150  33.397  38.613  1.00  0.00     0.200 A 
ATOM     78  F   UNL A   1      36.745  31.572  39.128  1.00  0.00    -0.200 F 
ATOM     79  F   UNL A   1      37.741  34.040  39.716  1.00  0.00    -0.200 F 
ENDBRANCH  55  69
BRANCH  56  80
ATOM     80  C   UNL A   1      41.843  27.341  27.894  1.00  0.00     0.064 A 
ATOM     81  C   UNL A   1      42.807  27.927  27.064  1.00  0.00     0.173 A 
ATOM     82  C   UNL A   1      41.368  26.067  27.545  1.00  0.00     0.173 A 
ATOM     83  F   UNL A   1      43.284  29.148  27.349  1.00  0.00    -0.203 F 
ATOM     84  C   UNL A   1      43.275  27.267  25.931  1.00  0.00     0.198 A 
ATOM     85  C   UNL A   1      41.865  25.392  26.434  1.00  0.00     0.198 A 
ATOM     86  F   UNL A   1      40.455  25.455  28.313  1.00  0.00    -0.203 F 
ATOM     87  F   UNL A   1      44.176  27.861  25.137  1.00  0.00    -0.200 F 
ATOM     88  C   UNL A   1      42.814  25.995  25.623  1.00  0.00     0.200 A 
ATOM     89  F   UNL A   1      41.438  24.152  26.160  1.00  0.00    -0.200 F 
ATOM     90  F   UNL A   1      43.285  25.351  24.547  1.00  0.00    -0.200 F 
ENDBRANCH  56  80
BRANCH  68  91
ATOM     91  C   UNL A   1      36.660  31.734  29.486  1.00  0.00     0.064 A 
ATOM     92  C   UNL A   1      35.570  30.960  29.063  1.00  0.00     0.173 A 
ATOM     93  C   UNL A   1      36.661  33.101  29.169  1.00  0.00     0.173 A 
ATOM     94  F   UNL A   1      35.533  29.645  29.327  1.00  0.00    -0.203 F 
ATOM     95  C   UNL A   1      34.531  31.530  28.333  1.00  0.00     0.198 A 
ATOM     96  C   UNL A   1      35.604  33.674  28.469  1.00  0.00     0.198 A 
ATOM     97  F   UNL A   1      37.680  33.885  29.555  1.00  0.00    -0.203 F 
ATOM     98  F   UNL A   1      33.523  30.761  27.898  1.00  0.00    -0.200 F 
ATOM     99  C   UNL A   1      34.544  32.886  28.046  1.00  0.00     0.200 A 
ATOM    100  F   UNL A   1      35.610  34.988  28.206  1.00  0.00    -0.200 F 
ATOM    101  F   UNL A   1      33.535  33.434  27.355  1.00  0.00    -0.200 F 
ENDBRANCH  68  91
ENDBRANCH  42  43
ENDBRANCH  34  37
ENDBRANCH  32  33
ENDBRANCH  31  32
ENDBRANCH  30  31
ENDBRANCH   1  30
TORSDOF 16
ENDMDL
MODEL 2
REMARK VINA RESULT:     -12.0      0.924      7.153
REMARK SMILES CC(C)CCN1C(=O)/C(=C2/SC(=S)N(CCC(=O)NCCCCNC(=O)c3ccc(-c4c5nc(c(-c6c(F)c(F)c(F)c(F)c6F)c6ccc([nH]6)c(-c6c(F)c(F)c(F)c(F)c6F)c6nc(c(-c7c(F)c(F)c(F)c(F)c7F)c7ccc4[nH]7)C=C6)C=C5)cc3)C2=O)c2ccccc21
REMARK SMILES IDX 20 1 19 2 17 3 18 4 16 6 15 7 14 8 6 9 7 10 97 11 8 12 9 13
REMARK SMILES IDX 92 14 96 15 10 16 93 17 95 18 11 19 90 20 94 21 12 22 91 23
REMARK SMILES IDX 13 24 5 25 4 26 2 27 1 28 3 29 21 30 22 31 23 32 24 33 25 34
REMARK SMILES IDX 26 36 27 37 28 38 89 39 29 40 88 41 30 42 31 43 32 44 82 45
REMARK SMILES IDX 33 46 87 47 81 48 83 49 34 50 86 51 80 52 79 53 35 55 67 56
REMARK SMILES IDX 47 57 66 58 48 59 51 60 65 61 84 62 49 63 50 64 64 66 85 67
REMARK SMILES IDX 52 68 36 69 37 70 45 71 38 72 39 73 43 74 46 75 40 76 41 77
REMARK SMILES IDX 44 78 42 79 68 80 69 81 77 82 70 83 71 84 75 85 78 86 72 87
REMARK SMILES IDX 73 88 76 89 74 90 53 91 54 92 62 93 55 94 56 95 60 96 63 97
REMARK SMILES IDX 57 98 58 99 61 100 59 101
REMARK H PARENT 19 5 24 35 83 54 51 65
REMARK Flexibility Score: inf
ROOT
ATOM      1  C   UNL A   1      48.383  21.924  35.736  1.00  0.00     0.116 C 
ENDROOT
BRANCH   1   2
ATOM      2  N   UNL A   1      46.984  22.165  35.465  1.00  0.00    -0.356 N 
ATOM      3  C   UNL A   1      45.900  21.576  36.048  1.00  0.00     0.221 C 
ATOM      4  O   UNL A   1      44.797  21.729  35.524  1.00  0.00    -0.275 OA
ATOM      5  H   UNL A   1      46.788  22.838  34.774  1.00  0.00     0.163 HD
BRANCH   3   6
ATOM      6  C   UNL A   1      46.058  20.795  37.338  1.00  0.00     0.122 C 
BRANCH   6   7
ATOM      7  C   UNL A   1      46.236  19.282  37.162  1.00  0.00     0.137 C 
BRANCH   7   8
ATOM      8  N   UNL A   1      46.319  18.477  38.397  1.00  0.00    -0.292 N 
ATOM      9  N   UNL A   1      42.740  15.208  41.641  1.00  0.00    -0.308 N 
ATOM     10  C   UNL A   1      43.283  15.795  40.485  1.00  0.00     0.260 C 
ATOM     11  C   UNL A   1      43.497  15.542  42.778  1.00  0.00     0.052 A 
ATOM     12  O   UNL A   1      42.895  15.642  39.345  1.00  0.00    -0.269 OA
ATOM     13  C   UNL A   1      44.542  16.505  40.942  1.00  0.00     0.069 C 
ATOM     14  C   UNL A   1      44.581  16.352  42.417  1.00  0.00     0.012 A 
ATOM     15  C   UNL A   1      43.256  15.210  44.103  1.00  0.00     0.027 A 
ATOM     16  C   UNL A   1      45.461  17.070  40.132  1.00  0.00     0.093 C 
ATOM     17  C   UNL A   1      45.354  16.949  43.407  1.00  0.00     0.011 A 
ATOM     18  C   UNL A   1      44.048  15.792  45.094  1.00  0.00     0.002 A 
ATOM     19  S   UNL A   1      47.098  17.416  40.602  1.00  0.00    -0.053 SA
ATOM     20  C   UNL A   1      45.249  17.650  38.756  1.00  0.00     0.267 C 
ATOM     21  C   UNL A   1      45.081  16.668  44.749  1.00  0.00     0.001 A 
ATOM     22  C   UNL A   1      47.421  18.452  39.226  1.00  0.00     0.148 C 
ATOM     23  O   UNL A   1      44.227  17.556  38.099  1.00  0.00    -0.268 OA
ATOM     24  S   UNL A   1      48.859  19.284  39.089  1.00  0.00    -0.052 S 
BRANCH   9  25
ATOM     25  C   UNL A   1      41.671  14.224  41.600  1.00  0.00     0.126 C 
BRANCH  25  26
ATOM     26  C   UNL A   1      42.054  12.758  41.348  1.00  0.00     0.025 C 
BRANCH  26  27
ATOM     27  C   UNL A   1      41.815  11.788  42.515  1.00  0.00    -0.016 C 
ATOM     28  C   UNL A   1      43.068  11.627  43.375  1.00  0.00     0.007 C 
ATOM     29  C   UNL A   1      40.661  12.308  43.381  1.00  0.00     0.007 C 
ENDBRANCH  26  27
ENDBRANCH  25  26
ENDBRANCH   9  25
ENDBRANCH   7   8
ENDBRANCH   6   7
ENDBRANCH   3   6
ENDBRANCH   1   2
BRANCH   1  30
ATOM     30  C   UNL A   1      49.142  23.238  35.664  1.00  0.00     0.023 C 
BRANCH  30  31
ATOM     31  C   UNL A   1      48.761  24.175  34.542  1.00  0.00     0.023 C 
BRANCH  31  32
ATOM     32  C   UNL A   1      48.844  25.631  34.930  1.00  0.00     0.116 C 
BRANCH  32  33
ATOM     33  N   UNL A   1      48.462  25.915  36.314  1.00  0.00    -0.352 N 
ATOM     34  C   UNL A   1      47.271  26.432  36.776  1.00  0.00     0.251 C 
ATOM     35  H   UNL A   1      49.140  25.713  37.000  1.00  0.00     0.163 HD
ATOM     36  O   UNL A   1      47.055  26.607  37.967  1.00  0.00    -0.269 OA
BRANCH  34  37
ATOM     37  C   UNL A   1      46.263  26.797  35.770  1.00  0.00     0.039 A 
ATOM     38  C   UNL A   1      46.430  27.998  35.087  1.00  0.00     0.014 A 
ATOM     39  C   UNL A   1      45.087  26.053  35.657  1.00  0.00     0.014 A 
ATOM     40  C   UNL A   1      45.328  28.577  34.493  1.00  0.00     0.010 A 
ATOM     41  C   UNL A   1      44.031  26.567  34.901  1.00  0.00     0.010 A 
ATOM     42  C   UNL A   1      44.131  27.853  34.349  1.00  0.00    -0.014 A 
BRANCH  42  43
ATOM     43  C   UNL A   1      43.060  28.454  33.521  1.00  0.00     0.031 A 
ATOM     44  C   UNL A   1      42.842  28.058  32.091  1.00  0.00     0.074 A 
ATOM     45  C   UNL A   1      42.227  29.317  34.136  1.00  0.00     0.049 A 
ATOM     46  N   UNL A   1      41.915  28.470  31.262  1.00  0.00    -0.248 NA
ATOM     47  C   UNL A   1      43.777  27.086  31.504  1.00  0.00     0.031 C 
ATOM     48  C   UNL A   1      42.360  29.757  35.531  1.00  0.00     0.029 A 
ATOM     49  N   UNL A   1      41.084  29.934  33.708  1.00  0.00    -0.354 N 
ATOM     50  C   UNL A   1      42.166  27.829  30.057  1.00  0.00     0.074 A 
ATOM     51  C   UNL A   1      43.348  27.016  30.250  1.00  0.00     0.031 C 
ATOM     52  C   UNL A   1      41.288  30.477  35.872  1.00  0.00     0.029 A 
ATOM     53  C   UNL A   1      40.456  30.658  34.692  1.00  0.00     0.049 A 
ATOM     54  H   UNL A   1      40.745  29.866  32.785  1.00  0.00     0.167 HD
ATOM     55  C   UNL A   1      41.462  27.915  28.902  1.00  0.00     0.037 A 
ATOM     56  C   UNL A   1      39.345  31.411  34.647  1.00  0.00     0.037 A 
ATOM     57  C   UNL A   1      40.277  28.721  28.743  1.00  0.00     0.049 A 
ATOM     58  C   UNL A   1      38.617  31.520  33.343  1.00  0.00     0.074 A 
ATOM     59  C   UNL A   1      39.485  28.879  27.618  1.00  0.00     0.029 A 
ATOM     60  N   UNL A   1      39.711  29.506  29.740  1.00  0.00    -0.354 N 
ATOM     61  N   UNL A   1      38.871  30.917  32.207  1.00  0.00    -0.248 NA
ATOM     62  C   UNL A   1      37.464  32.423  33.307  1.00  0.00     0.031 C 
ATOM     63  C   UNL A   1      38.475  29.797  27.919  1.00  0.00     0.029 A 
ATOM     64  C   UNL A   1      38.597  30.167  29.249  1.00  0.00     0.049 A 
ATOM     65  H   UNL A   1      40.053  29.582  30.661  1.00  0.00     0.167 HD
ATOM     66  C   UNL A   1      37.905  31.361  31.319  1.00  0.00     0.074 A 
ATOM     67  C   UNL A   1      37.043  32.261  32.060  1.00  0.00     0.031 C 
ATOM     68  C   UNL A   1      37.754  31.060  30.006  1.00  0.00     0.037 A 
BRANCH  55  69
ATOM     69  C   UNL A   1      41.950  27.135  27.712  1.00  0.00     0.064 A 
ATOM     70  C   UNL A   1      42.879  27.670  26.809  1.00  0.00     0.173 A 
ATOM     71  C   UNL A   1      41.542  25.804  27.518  1.00  0.00     0.173 A 
ATOM     72  F   UNL A   1      43.295  28.939  26.940  1.00  0.00    -0.203 F 
ATOM     73  C   UNL A   1      43.373  26.908  25.750  1.00  0.00     0.198 A 
ATOM     74  C   UNL A   1      42.060  25.038  26.477  1.00  0.00     0.198 A 
ATOM     75  F   UNL A   1      40.659  25.239  28.355  1.00  0.00    -0.203 F 
ATOM     76  F   UNL A   1      44.236  27.452  24.881  1.00  0.00    -0.200 F 
ATOM     77  C   UNL A   1      42.971  25.591  25.592  1.00  0.00     0.200 A 
ATOM     78  F   UNL A   1      41.682  23.759  26.335  1.00  0.00    -0.200 F 
ATOM     79  F   UNL A   1      43.461  24.855  24.584  1.00  0.00    -0.200 F 
ENDBRANCH  55  69
BRANCH  56  80
ATOM     80  C   UNL A   1      38.886  32.115  35.873  1.00  0.00     0.064 A 
ATOM     81  C   UNL A   1      38.127  31.449  36.844  1.00  0.00     0.173 A 
ATOM     82  C   UNL A   1      39.249  33.447  36.127  1.00  0.00     0.173 A 
ATOM     83  F   UNL A   1      37.746  30.179  36.642  1.00  0.00    -0.203 F 
ATOM     84  C   UNL A   1      37.745  32.091  38.019  1.00  0.00     0.198 A 
ATOM     85  C   UNL A   1      38.900  34.074  37.320  1.00  0.00     0.198 A 
ATOM     86  F   UNL A   1      39.987  34.125  35.236  1.00  0.00    -0.203 F 
ATOM     87  F   UNL A   1      36.994  31.442  38.920  1.00  0.00    -0.200 F 
ATOM     88  C   UNL A   1      38.142  33.398  38.263  1.00  0.00     0.200 A 
ATOM     89  F   UNL A   1      39.312  35.326  37.561  1.00  0.00    -0.200 F 
ATOM     90  F   UNL A   1      37.796  34.004  39.406  1.00  0.00    -0.200 F 
ENDBRANCH  56  80
BRANCH  68  91
ATOM     91  C   UNL A   1      36.600  31.699  29.292  1.00  0.00     0.064 A 
ATOM     92  C   UNL A   1      35.465  30.962  28.927  1.00  0.00     0.173 A 
ATOM     93  C   UNL A   1      36.611  33.075  29.017  1.00  0.00     0.173 A 
ATOM     94  F   UNL A   1      35.417  29.640  29.153  1.00  0.00    -0.203 F 
ATOM     95  C   UNL A   1      34.391  31.575  28.290  1.00  0.00     0.198 A 
ATOM     96  C   UNL A   1      35.520  33.691  28.412  1.00  0.00     0.198 A 
ATOM     97  F   UNL A   1      37.672  33.825  29.352  1.00  0.00    -0.203 F 
ATOM     98  F   UNL A   1      33.336  30.842  27.906  1.00  0.00    -0.200 F 
ATOM     99  C   UNL A   1      34.414  32.939  28.044  1.00  0.00     0.200 A 
ATOM    100  F   UNL A   1      35.537  35.012  28.189  1.00  0.00    -0.200 F 
ATOM    101  F   UNL A   1      33.372  33.530  27.443  1.00  0.00    -0.200 F 
ENDBRANCH  68  91
ENDBRANCH  42  43
ENDBRANCH  34  37
ENDBRANCH  32  33
ENDBRANCH  31  32
ENDBRANCH  30  31
ENDBRANCH   1  30
TORSDOF 16
ENDMDL
MODEL 3
REMARK VINA RESULT:     -11.9      0.372      7.120
REMARK SMILES CC(C)CCN1C(=O)/C(=C2/SC(=S)N(CCC(=O)NCCCCNC(=O)c3ccc(-c4c5nc(c(-c6c(F)c(F)c(F)c(F)c6F)c6ccc([nH]6)c(-c6c(F)c(F)c(F)c(F)c6F)c6nc(c(-c7c(F)c(F)c(F)c(F)c7F)c7ccc4[nH]7)C=C6)C=C5)cc3)C2=O)c2ccccc21
REMARK SMILES IDX 20 1 19 2 17 3 18 4 16 6 15 7 14 8 6 9 7 10 97 11 8 12 9 13
REMARK SMILES IDX 92 14 96 15 10 16 93 17 95 18 11 19 90 20 94 21 12 22 91 23
REMARK SMILES IDX 13 24 5 25 4 26 2 27 1 28 3 29 21 30 22 31 23 32 24 33 25 34
REMARK SMILES IDX 26 36 27 37 28 38 89 39 29 40 88 41 30 42 31 43 32 44 82 45
REMARK SMILES IDX 33 46 87 47 81 48 83 49 34 50 86 51 80 52 79 53 35 55 67 56
REMARK SMILES IDX 47 57 66 58 48 59 51 60 65 61 84 62 49 63 50 64 64 66 85 67
REMARK SMILES IDX 52 68 36 69 37 70 45 71 38 72 39 73 43 74 46 75 40 76 41 77
REMARK SMILES IDX 44 78 42 79 68 80 69 81 77 82 70 83 71 84 75 85 78 86 72 87
REMARK SMILES IDX 73 88 76 89 74 90 53 91 54 92 62 93 55 94 56 95 60 96 63 97
REMARK SMILES IDX 57 98 58 99 61 100 59 101
REMARK H PARENT 19 5 24 35 83 54 51 65
REMARK Flexibility Score: inf
ROOT
ATOM      1  C   UNL A   1      45.675  23.540  39.532  1.00  0.00     0.116 C 
ENDROOT
BRANCH   1   2
ATOM      2  N   UNL A   1      45.295  22.945  38.272  1.00  0.00    -0.356 N 
ATOM      3  C   UNL A   1      45.965  22.000  37.552  1.00  0.00     0.221 C 
ATOM      4  O   UNL A   1      45.615  21.789  36.391  1.00  0.00    -0.275 OA
ATOM      5  H   UNL A   1      44.447  23.260  37.884  1.00  0.00     0.163 HD
BRANCH   3   6
ATOM      6  C   UNL A   1      47.082  21.201  38.194  1.00  0.00     0.122 C 
BRANCH   6   7
ATOM      7  C   UNL A   1      47.130  19.720  37.800  1.00  0.00     0.137 C 
BRANCH   7   8
ATOM      8  N   UNL A   1      47.075  18.738  38.902  1.00  0.00    -0.292 N 
ATOM      9  N   UNL A   1      43.048  15.400  41.481  1.00  0.00    -0.308 N 
ATOM     10  C   UNL A   1      43.701  16.093  40.448  1.00  0.00     0.260 C 
ATOM     11  C   UNL A   1      43.773  15.487  42.683  1.00  0.00     0.052 A 
ATOM     12  O   UNL A   1      43.360  16.148  39.285  1.00  0.00    -0.269 OA
ATOM     13  C   UNL A   1      44.996  16.601  41.053  1.00  0.00     0.069 C 
ATOM     14  C   UNL A   1      44.945  16.231  42.488  1.00  0.00     0.012 A 
ATOM     15  C   UNL A   1      43.434  14.991  43.933  1.00  0.00     0.027 A 
ATOM     16  C   UNL A   1      46.003  17.184  40.372  1.00  0.00     0.093 C 
ATOM     17  C   UNL A   1      45.717  16.597  43.586  1.00  0.00     0.011 A 
ATOM     18  C   UNL A   1      44.225  15.340  45.029  1.00  0.00     0.002 A 
ATOM     19  S   UNL A   1      47.639  17.294  40.949  1.00  0.00    -0.053 SA
ATOM     20  C   UNL A   1      45.916  17.977  39.092  1.00  0.00     0.267 C 
ATOM     21  C   UNL A   1      45.351  16.151  44.859  1.00  0.00     0.001 A 
ATOM     22  C   UNL A   1      48.126  18.483  39.758  1.00  0.00     0.148 C 
ATOM     23  O   UNL A   1      44.925  18.082  38.390  1.00  0.00    -0.268 OA
ATOM     24  S   UNL A   1      49.640  19.180  39.801  1.00  0.00    -0.052 S 
BRANCH   9  25
ATOM     25  C   UNL A   1      41.897  14.543  41.253  1.00  0.00     0.126 C 
BRANCH  25  26
ATOM     26  C   UNL A   1      42.122  13.024  41.247  1.00  0.00     0.025 C 
BRANCH  26  27
ATOM     27  C   UNL A   1      41.374  12.227  42.327  1.00  0.00    -0.016 C 
ATOM     28  C   UNL A   1      42.263  11.147  42.942  1.00  0.00     0.007 C 
ATOM     29  C   UNL A   1      40.893  13.184  43.425  1.00  0.00     0.007 C 
ENDBRANCH  26  27
ENDBRANCH  25  26
ENDBRANCH   9  25
ENDBRANCH   7   8
ENDBRANCH   6   7
ENDBRANCH   3   6
ENDBRANCH   1   2
BRANCH   1  30
ATOM     30  C   UNL A   1      45.129  24.956  39.604  1.00  0.00     0.023 C 
BRANCH  30  31
ATOM     31  C   UNL A   1      46.095  26.028  40.049  1.00  0.00     0.023 C 
BRANCH  31  32
ATOM     32  C   UNL A   1      46.831  26.678  38.902  1.00  0.00     0.116 C 
BRANCH  32  33
ATOM     33  N   UNL A   1      47.471  25.739  37.979  1.00  0.00    -0.352 N 
ATOM     34  C   UNL A   1      47.236  25.584  36.630  1.00  0.00     0.251 C 
ATOM     35  H   UNL A   1      48.152  25.145  38.370  1.00  0.00     0.163 HD
ATOM     36  O   UNL A   1      47.853  24.775  35.950  1.00  0.00    -0.269 OA
BRANCH  34  37
ATOM     37  C   UNL A   1      46.184  26.418  36.032  1.00  0.00     0.039 A 
ATOM     38  C   UNL A   1      44.895  25.896  35.971  1.00  0.00     0.014 A 
ATOM     39  C   UNL A   1      46.520  27.604  35.377  1.00  0.00     0.014 A 
ATOM     40  C   UNL A   1      44.012  26.425  35.052  1.00  0.00     0.010 A 
ATOM     41  C   UNL A   1      45.559  28.235  34.584  1.00  0.00     0.010 A 
ATOM     42  C   UNL A   1      44.311  27.625  34.384  1.00  0.00    -0.014 A 
BRANCH  42  43
ATOM     43  C   UNL A   1      43.238  28.245  33.572  1.00  0.00     0.031 A 
ATOM     44  C   UNL A   1      42.988  27.849  32.147  1.00  0.00     0.074 A 
ATOM     45  C   UNL A   1      42.433  29.126  34.199  1.00  0.00     0.049 A 
ATOM     46  N   UNL A   1      42.056  28.277  31.333  1.00  0.00    -0.248 NA
ATOM     47  C   UNL A   1      43.894  26.858  31.548  1.00  0.00     0.031 C 
ATOM     48  C   UNL A   1      42.598  29.567  35.589  1.00  0.00     0.029 A 
ATOM     49  N   UNL A   1      41.295  29.764  33.788  1.00  0.00    -0.354 N 
ATOM     50  C   UNL A   1      42.274  27.628  30.126  1.00  0.00     0.074 A 
ATOM     51  C   UNL A   1      43.443  26.793  30.302  1.00  0.00     0.031 C 
ATOM     52  C   UNL A   1      41.546  30.309  35.946  1.00  0.00     0.029 A 
ATOM     53  C   UNL A   1      40.698  30.502  34.780  1.00  0.00     0.049 A 
ATOM     54  H   UNL A   1      40.939  29.700  32.871  1.00  0.00     0.167 HD
ATOM     55  C   UNL A   1      41.553  27.724  28.983  1.00  0.00     0.037 A 
ATOM     56  C   UNL A   1      39.600  31.277  34.752  1.00  0.00     0.037 A 
ATOM     57  C   UNL A   1      40.381  28.553  28.841  1.00  0.00     0.049 A 
ATOM     58  C   UNL A   1      38.853  31.397  33.460  1.00  0.00     0.074 A 
ATOM     59  C   UNL A   1      39.573  28.723  27.729  1.00  0.00     0.029 A 
ATOM     60  N   UNL A   1      39.847  29.352  29.845  1.00  0.00    -0.354 N 
ATOM     61  N   UNL A   1      39.076  30.785  32.322  1.00  0.00    -0.248 NA
ATOM     62  C   UNL A   1      37.717  32.322  33.440  1.00  0.00     0.031 C 
ATOM     63  C   UNL A   1      38.586  29.662  28.044  1.00  0.00     0.029 A 
ATOM     64  C   UNL A   1      38.738  30.033  29.371  1.00  0.00     0.049 A 
ATOM     65  H   UNL A   1      40.206  29.424  30.760  1.00  0.00     0.167 HD
ATOM     66  C   UNL A   1      38.105  31.246  31.449  1.00  0.00     0.074 A 
ATOM     67  C   UNL A   1      37.272  32.165  32.201  1.00  0.00     0.031 C 
ATOM     68  C   UNL A   1      37.925  30.944  30.139  1.00  0.00     0.037 A 
BRANCH  55  69
ATOM     69  C   UNL A   1      42.005  26.932  27.787  1.00  0.00     0.064 A 
ATOM     70  C   UNL A   1      41.502  25.652  27.516  1.00  0.00     0.173 A 
ATOM     71  C   UNL A   1      42.893  27.496  26.855  1.00  0.00     0.173 A 
ATOM     72  F   UNL A   1      40.659  25.061  28.377  1.00  0.00    -0.203 F 
ATOM     73  C   UNL A   1      41.881  24.960  26.366  1.00  0.00     0.198 A 
ATOM     74  C   UNL A   1      43.245  26.813  25.693  1.00  0.00     0.198 A 
ATOM     75  F   UNL A   1      43.400  28.721  27.060  1.00  0.00    -0.203 F 
ATOM     76  F   UNL A   1      41.412  23.723  26.146  1.00  0.00    -0.200 F 
ATOM     77  C   UNL A   1      42.742  25.545  25.451  1.00  0.00     0.200 A 
ATOM     78  F   UNL A   1      44.066  27.388  24.803  1.00  0.00    -0.200 F 
ATOM     79  F   UNL A   1      43.090  24.885  24.338  1.00  0.00    -0.200 F 
ENDBRANCH  55  69
BRANCH  56  80
ATOM     80  C   UNL A   1      39.177  31.993  35.983  1.00  0.00     0.064 A 
ATOM     81  C   UNL A   1      39.617  33.296  36.245  1.00  0.00     0.173 A 
ATOM     82  C   UNL A   1      38.275  31.413  36.890  1.00  0.00     0.173 A 
ATOM     83  F   UNL A   1      40.487  33.889  35.414  1.00  0.00    -0.203 F 
ATOM     84  C   UNL A   1      39.176  33.990  37.369  1.00  0.00     0.198 A 
ATOM     85  C   UNL A   1      37.805  32.122  37.992  1.00  0.00     0.198 A 
ATOM     86  F   UNL A   1      37.812  30.172  36.678  1.00  0.00    -0.203 F 
ATOM     87  F   UNL A   1      39.635  35.225  37.614  1.00  0.00    -0.200 F 
ATOM     88  C   UNL A   1      38.261  33.408  38.235  1.00  0.00     0.200 A 
ATOM     89  F   UNL A   1      36.899  31.564  38.807  1.00  0.00    -0.200 F 
ATOM     90  F   UNL A   1      37.818  34.087  39.301  1.00  0.00    -0.200 F 
ENDBRANCH  56  80
BRANCH  68  91
ATOM     91  C   UNL A   1      36.772  31.604  29.443  1.00  0.00     0.064 A 
ATOM     92  C   UNL A   1      36.791  32.970  29.128  1.00  0.00     0.173 A 
ATOM     93  C   UNL A   1      35.659  30.849  29.044  1.00  0.00     0.173 A 
ATOM     94  F   UNL A   1      37.825  33.736  29.506  1.00  0.00    -0.203 F 
ATOM     95  C   UNL A   1      35.725  33.562  28.456  1.00  0.00     0.198 A 
ATOM     96  C   UNL A   1      34.612  31.437  28.341  1.00  0.00     0.198 A 
ATOM     97  F   UNL A   1      35.597  29.537  29.318  1.00  0.00    -0.203 F 
ATOM     98  F   UNL A   1      35.743  34.879  28.208  1.00  0.00    -0.200 F 
ATOM     99  C   UNL A   1      34.643  32.794  28.055  1.00  0.00     0.200 A 
ATOM    100  F   UNL A   1      33.574  30.691  27.940  1.00  0.00    -0.200 F 
ATOM    101  F   UNL A   1      33.625  33.363  27.396  1.00  0.00    -0.200 F 
ENDBRANCH  68  91
ENDBRANCH  42  43
ENDBRANCH  34  37
ENDBRANCH  32  33
ENDBRANCH  31  32
ENDBRANCH  30  31
ENDBRANCH   1  30
TORSDOF 16
ENDMDL
