MODEL 1
REMARK VINA RESULT:     -11.4      0.000      0.000
REMARK SMILES COC[C@@H](C)N(C)C(=O)N1CCC(CC(=O)NCCCCNC(=O)c2ccc(-c3c4nc(c(-c5c(F)c(F)c(F)c(F)c5F)c5ccc([nH]5)c(-c5c(F)c(F)c(F)c(F)c5F)c5nc(c(-c6c(F)c(F)c(F)c(F)c6F)c6ccc3[nH]6)C=C5)C=C4)cc2)CC1
REMARK SMILES IDX 18 1 17 2 15 3 16 4 14 6 13 7 8 8 9 9 10 10 11 11 89 12
REMARK SMILES IDX 12 13 88 14 6 15 7 16 4 17 5 18 3 19 2 20 1 21 19 22 20 23
REMARK SMILES IDX 21 24 22 25 23 26 24 28 25 29 26 30 87 31 27 32 86 33 28 34
REMARK SMILES IDX 29 35 30 36 80 37 31 38 85 39 79 40 81 41 32 42 84 43 78 44
REMARK SMILES IDX 77 45 33 47 65 48 45 49 64 50 46 51 49 52 63 53 82 54 47 55
REMARK SMILES IDX 48 56 62 58 83 59 50 60 34 61 35 62 43 63 36 64 37 65 41 66
REMARK SMILES IDX 44 67 38 68 39 69 42 70 40 71 66 72 67 73 75 74 68 75 69 76
REMARK SMILES IDX 73 77 76 78 70 79 71 80 74 81 72 82 51 83 52 84 60 85 53 86
REMARK SMILES IDX 54 87 58 88 61 89 55 90 56 91 59 92 57 93
REMARK H PARENT 17 5 22 27 81 46 49 57
REMARK Flexibility Score: inf
ROOT
ATOM      1  C   UNL A   1      35.877  21.172  25.578  1.00  0.00     0.116 C 
ENDROOT
BRANCH   1   2
ATOM      2  N   UNL A   1      34.855  20.278  25.055  1.00  0.00    -0.356 N 
ATOM      3  C   UNL A   1      33.496  20.398  25.040  1.00  0.00     0.220 C 
ATOM      4  O   UNL A   1      32.835  19.460  24.590  1.00  0.00    -0.275 OA
ATOM      5  H   UNL A   1      35.201  19.451  24.648  1.00  0.00     0.163 HD
BRANCH   3   6
ATOM      6  C   UNL A   1      32.809  21.650  25.571  1.00  0.00     0.103 C 
BRANCH   6   7
ATOM      7  C   UNL A   1      32.607  22.753  24.509  1.00  0.00     0.002 C 
ATOM      8  C   UNL A   1      30.922  26.321  24.803  1.00  0.00     0.320 C 
ATOM      9  O   UNL A   1      30.137  25.953  25.674  1.00  0.00    -0.248 OA
ATOM     10  N   UNL A   1      31.550  25.416  23.965  1.00  0.00    -0.325 N 
ATOM     11  C   UNL A   1      30.807  24.275  23.489  1.00  0.00     0.121 C 
ATOM     12  C   UNL A   1      32.994  25.235  24.010  1.00  0.00     0.121 C 
ATOM     13  C   UNL A   1      31.120  23.044  24.312  1.00  0.00     0.026 C 
ATOM     14  C   UNL A   1      33.361  24.038  24.902  1.00  0.00     0.026 C 
BRANCH   8  15
ATOM     15  N   UNL A   1      31.198  27.657  24.545  1.00  0.00    -0.323 N 
ATOM     16  C   UNL A   1      31.755  28.544  25.557  1.00  0.00     0.149 C 
BRANCH  15  17
ATOM     17  C   UNL A   1      31.128  28.185  23.165  1.00  0.00     0.109 C 
ATOM     18  C   UNL A   1      32.462  28.809  22.751  1.00  0.00     0.033 C 
BRANCH  17  19
ATOM     19  C   UNL A   1      29.923  29.135  22.960  1.00  0.00     0.184 C 
BRANCH  19  20
ATOM     20  O   UNL A   1      29.838  29.659  21.629  1.00  0.00    -0.383 OA
ATOM     21  C   UNL A   1      28.689  30.460  21.397  1.00  0.00     0.194 C 
ENDBRANCH  19  20
ENDBRANCH  17  19
ENDBRANCH  15  17
ENDBRANCH   8  15
ENDBRANCH   6   7
ENDBRANCH   3   6
ENDBRANCH   1   2
BRANCH   1  22
ATOM     22  C   UNL A   1      37.158  21.127  24.739  1.00  0.00     0.023 C 
BRANCH  22  23
ATOM     23  C   UNL A   1      38.072  19.944  25.001  1.00  0.00     0.023 C 
BRANCH  23  24
ATOM     24  C   UNL A   1      39.269  20.272  25.868  1.00  0.00     0.116 C 
BRANCH  24  25
ATOM     25  N   UNL A   1      40.263  19.206  25.920  1.00  0.00    -0.352 N 
ATOM     26  C   UNL A   1      41.620  19.309  26.126  1.00  0.00     0.251 C 
ATOM     27  H   UNL A   1      39.918  18.293  25.791  1.00  0.00     0.163 HD
ATOM     28  O   UNL A   1      42.347  18.331  26.059  1.00  0.00    -0.269 OA
BRANCH  26  29
ATOM     29  C   UNL A   1      42.188  20.647  26.384  1.00  0.00     0.039 A 
ATOM     30  C   UNL A   1      42.461  21.489  25.304  1.00  0.00     0.014 A 
ATOM     31  C   UNL A   1      42.352  21.096  27.696  1.00  0.00     0.014 A 
ATOM     32  C   UNL A   1      42.822  22.813  25.546  1.00  0.00     0.010 A 
ATOM     33  C   UNL A   1      42.596  22.438  27.931  1.00  0.00     0.010 A 
ATOM     34  C   UNL A   1      42.848  23.308  26.860  1.00  0.00    -0.014 A 
BRANCH  34  35
ATOM     35  C   UNL A   1      43.187  24.721  27.155  1.00  0.00     0.031 A 
ATOM     36  C   UNL A   1      44.587  25.206  26.893  1.00  0.00     0.074 A 
ATOM     37  C   UNL A   1      42.275  25.534  27.720  1.00  0.00     0.049 A 
ATOM     38  N   UNL A   1      45.136  26.356  27.188  1.00  0.00    -0.248 NA
ATOM     39  C   UNL A   1      45.507  24.250  26.251  1.00  0.00     0.031 C 
ATOM     40  C   UNL A   1      40.902  25.162  28.070  1.00  0.00     0.029 A 
ATOM     41  N   UNL A   1      42.370  26.847  28.108  1.00  0.00    -0.354 N 
ATOM     42  C   UNL A   1      46.462  26.248  26.792  1.00  0.00     0.074 A 
ATOM     43  C   UNL A   1      46.657  24.903  26.304  1.00  0.00     0.031 C 
ATOM     44  C   UNL A   1      40.275  26.231  28.588  1.00  0.00     0.029 A 
ATOM     45  C   UNL A   1      41.209  27.350  28.641  1.00  0.00     0.049 A 
ATOM     46  H   UNL A   1      43.194  27.378  28.013  1.00  0.00     0.167 HD
ATOM     47  C   UNL A   1      47.424  27.200  26.799  1.00  0.00     0.037 A 
ATOM     48  C   UNL A   1      40.936  28.581  29.116  1.00  0.00     0.037 A 
ATOM     49  C   UNL A   1      47.212  28.551  27.237  1.00  0.00     0.049 A 
ATOM     50  C   UNL A   1      42.020  29.627  29.092  1.00  0.00     0.074 A 
ATOM     51  C   UNL A   1      48.105  29.607  27.249  1.00  0.00     0.029 A 
ATOM     52  N   UNL A   1      46.008  29.035  27.726  1.00  0.00    -0.354 N 
ATOM     53  N   UNL A   1      43.258  29.528  28.672  1.00  0.00    -0.248 NA
ATOM     54  C   UNL A   1      41.664  30.958  29.602  1.00  0.00     0.031 C 
ATOM     55  C   UNL A   1      47.447  30.727  27.766  1.00  0.00     0.029 A 
ATOM     56  C   UNL A   1      46.134  30.377  28.042  1.00  0.00     0.049 A 
ATOM     57  H   UNL A   1      45.186  28.505  27.834  1.00  0.00     0.167 HD
ATOM     58  C   UNL A   1      43.816  30.788  28.831  1.00  0.00     0.074 A 
ATOM     59  C   UNL A   1      42.779  31.638  29.377  1.00  0.00     0.031 C 
ATOM     60  C   UNL A   1      45.076  31.207  28.554  1.00  0.00     0.037 A 
BRANCH  47  61
ATOM     61  C   UNL A   1      48.780  26.813  26.288  1.00  0.00     0.064 A 
ATOM     62  C   UNL A   1      49.124  26.967  24.936  1.00  0.00     0.173 A 
ATOM     63  C   UNL A   1      49.752  26.299  27.158  1.00  0.00     0.173 A 
ATOM     64  F   UNL A   1      48.222  27.437  24.060  1.00  0.00    -0.203 F 
ATOM     65  C   UNL A   1      50.381  26.594  24.468  1.00  0.00     0.198 A 
ATOM     66  C   UNL A   1      51.020  25.955  26.692  1.00  0.00     0.198 A 
ATOM     67  F   UNL A   1      49.476  26.131  28.460  1.00  0.00    -0.203 F 
ATOM     68  F   UNL A   1      50.666  26.701  23.163  1.00  0.00    -0.200 F 
ATOM     69  C   UNL A   1      51.329  26.095  25.347  1.00  0.00     0.200 A 
ATOM     70  F   UNL A   1      51.940  25.482  27.544  1.00  0.00    -0.200 F 
ATOM     71  F   UNL A   1      52.541  25.742  24.897  1.00  0.00    -0.200 F 
ENDBRANCH  47  61
BRANCH  48  72
ATOM     72  C   UNL A   1      39.575  28.911  29.614  1.00  0.00     0.064 A 
ATOM     73  C   UNL A   1      39.224  28.668  30.949  1.00  0.00     0.173 A 
ATOM     74  C   UNL A   1      38.593  29.445  28.769  1.00  0.00     0.173 A 
ATOM     75  F   UNL A   1      40.123  28.137  31.791  1.00  0.00    -0.203 F 
ATOM     76  C   UNL A   1      37.935  28.919  31.413  1.00  0.00     0.198 A 
ATOM     77  C   UNL A   1      37.311  29.723  29.241  1.00  0.00     0.198 A 
ATOM     78  F   UNL A   1      38.879  29.702  27.483  1.00  0.00    -0.203 F 
ATOM     79  F   UNL A   1      37.613  28.625  32.680  1.00  0.00    -0.200 F 
ATOM     80  C   UNL A   1      36.980  29.449  30.560  1.00  0.00     0.200 A 
ATOM     81  F   UNL A   1      36.393  30.246  28.416  1.00  0.00    -0.200 F 
ATOM     82  F   UNL A   1      35.739  29.685  31.005  1.00  0.00    -0.200 F 
ENDBRANCH  48  72
BRANCH  60  83
ATOM     83  C   UNL A   1      45.382  32.655  28.783  1.00  0.00     0.064 A 
ATOM     84  C   UNL A   1      45.931  33.111  29.989  1.00  0.00     0.173 A 
ATOM     85  C   UNL A   1      45.167  33.591  27.760  1.00  0.00     0.173 A 
ATOM     86  F   UNL A   1      46.141  32.253  31.001  1.00  0.00    -0.203 F 
ATOM     87  C   UNL A   1      46.232  34.457  30.173  1.00  0.00     0.198 A 
ATOM     88  C   UNL A   1      45.495  34.932  27.937  1.00  0.00     0.198 A 
ATOM     89  F   UNL A   1      44.651  33.203  26.584  1.00  0.00    -0.203 F 
ATOM     90  F   UNL A   1      46.715  34.878  31.350  1.00  0.00    -0.200 F 
ATOM     91  C   UNL A   1      46.021  35.364  29.145  1.00  0.00     0.200 A 
ATOM     92  F   UNL A   1      45.302  35.805  26.939  1.00  0.00    -0.200 F 
ATOM     93  F   UNL A   1      46.319  36.658  29.322  1.00  0.00    -0.200 F 
ENDBRANCH  60  83
ENDBRANCH  34  35
ENDBRANCH  26  29
ENDBRANCH  24  25
ENDBRANCH  23  24
ENDBRANCH  22  23
ENDBRANCH   1  22
TORSDOF 16
ENDMDL
MODEL 2
REMARK VINA RESULT:     -11.4      3.057      4.699
REMARK SMILES COC[C@@H](C)N(C)C(=O)N1CCC(CC(=O)NCCCCNC(=O)c2ccc(-c3c4nc(c(-c5c(F)c(F)c(F)c(F)c5F)c5ccc([nH]5)c(-c5c(F)c(F)c(F)c(F)c5F)c5nc(c(-c6c(F)c(F)c(F)c(F)c6F)c6ccc3[nH]6)C=C5)C=C4)cc2)CC1
REMARK SMILES IDX 18 1 17 2 15 3 16 4 14 6 13 7 8 8 9 9 10 10 11 11 89 12
REMARK SMILES IDX 12 13 88 14 6 15 7 16 4 17 5 18 3 19 2 20 1 21 19 22 20 23
REMARK SMILES IDX 21 24 22 25 23 26 24 28 25 29 26 30 87 31 27 32 86 33 28 34
REMARK SMILES IDX 29 35 30 36 80 37 31 38 85 39 79 40 81 41 32 42 84 43 78 44
REMARK SMILES IDX 77 45 33 47 65 48 45 49 64 50 46 51 49 52 63 53 82 54 47 55
REMARK SMILES IDX 48 56 62 58 83 59 50 60 34 61 35 62 43 63 36 64 37 65 41 66
REMARK SMILES IDX 44 67 38 68 39 69 42 70 40 71 66 72 67 73 75 74 68 75 69 76
REMARK SMILES IDX 73 77 76 78 70 79 71 80 74 81 72 82 51 83 52 84 60 85 53 86
REMARK SMILES IDX 54 87 58 88 61 89 55 90 56 91 59 92 57 93
REMARK H PARENT 17 5 22 27 81 46 49 57
REMARK Flexibility Score: inf
ROOT
ATOM      1  C   UNL A   1      39.596  21.654  26.474  1.00  0.00     0.116 C 
ENDROOT
BRANCH   1   2
ATOM      2  N   UNL A   1      39.416  23.038  26.884  1.00  0.00    -0.356 N 
ATOM      3  C   UNL A   1      38.480  23.958  26.509  1.00  0.00     0.220 C 
ATOM      4  O   UNL A   1      38.579  25.103  26.956  1.00  0.00    -0.275 OA
ATOM      5  H   UNL A   1      40.077  23.363  27.537  1.00  0.00     0.163 HD
BRANCH   3   6
ATOM      6  C   UNL A   1      37.349  23.590  25.558  1.00  0.00     0.103 C 
BRANCH   6   7
ATOM      7  C   UNL A   1      36.600  22.295  25.945  1.00  0.00     0.002 C 
ATOM      8  C   UNL A   1      33.401  20.604  24.345  1.00  0.00     0.320 C 
ATOM      9  O   UNL A   1      32.923  21.681  23.995  1.00  0.00    -0.248 OA
ATOM     10  N   UNL A   1      34.362  20.527  25.337  1.00  0.00    -0.325 N 
ATOM     11  C   UNL A   1      34.254  21.397  26.482  1.00  0.00     0.121 C 
ATOM     12  C   UNL A   1      35.713  20.073  25.034  1.00  0.00     0.121 C 
ATOM     13  C   UNL A   1      35.154  22.604  26.330  1.00  0.00     0.026 C 
ATOM     14  C   UNL A   1      36.645  21.270  24.795  1.00  0.00     0.026 C 
BRANCH   8  15
ATOM     15  N   UNL A   1      32.982  19.385  23.829  1.00  0.00    -0.323 N 
ATOM     16  C   UNL A   1      32.144  19.291  22.641  1.00  0.00     0.149 C 
BRANCH  15  17
ATOM     17  C   UNL A   1      33.541  18.118  24.349  1.00  0.00     0.109 C 
ATOM     18  C   UNL A   1      33.985  17.207  23.203  1.00  0.00     0.033 C 
BRANCH  17  19
ATOM     19  C   UNL A   1      32.585  17.419  25.345  1.00  0.00     0.184 C 
BRANCH  19  20
ATOM     20  O   UNL A   1      33.115  16.196  25.872  1.00  0.00    -0.383 OA
ATOM     21  C   UNL A   1      32.194  15.116  25.859  1.00  0.00     0.194 C 
ENDBRANCH  19  20
ENDBRANCH  17  19
ENDBRANCH  15  17
ENDBRANCH   8  15
ENDBRANCH   6   7
ENDBRANCH   3   6
ENDBRANCH   1   2
BRANCH   1  22
ATOM     22  C   UNL A   1      41.077  21.276  26.374  1.00  0.00     0.023 C 
BRANCH  22  23
ATOM     23  C   UNL A   1      41.362  19.820  26.051  1.00  0.00     0.023 C 
BRANCH  23  24
ATOM     24  C   UNL A   1      42.757  19.369  26.428  1.00  0.00     0.116 C 
BRANCH  24  25
ATOM     25  N   UNL A   1      43.515  18.818  25.311  1.00  0.00    -0.352 N 
ATOM     26  C   UNL A   1      44.409  19.460  24.483  1.00  0.00     0.251 C 
ATOM     27  H   UNL A   1      43.369  17.863  25.125  1.00  0.00     0.163 HD
ATOM     28  O   UNL A   1      44.910  18.888  23.528  1.00  0.00    -0.269 OA
BRANCH  26  29
ATOM     29  C   UNL A   1      44.714  20.879  24.749  1.00  0.00     0.039 A 
ATOM     30  C   UNL A   1      44.027  21.866  24.038  1.00  0.00     0.014 A 
ATOM     31  C   UNL A   1      45.603  21.224  25.769  1.00  0.00     0.014 A 
ATOM     32  C   UNL A   1      44.174  23.201  24.411  1.00  0.00     0.010 A 
ATOM     33  C   UNL A   1      45.657  22.535  26.211  1.00  0.00     0.010 A 
ATOM     34  C   UNL A   1      44.955  23.539  25.528  1.00  0.00    -0.014 A 
BRANCH  34  35
ATOM     35  C   UNL A   1      45.103  24.944  25.980  1.00  0.00     0.031 A 
ATOM     36  C   UNL A   1      46.451  25.604  25.880  1.00  0.00     0.074 A 
ATOM     37  C   UNL A   1      44.063  25.589  26.541  1.00  0.00     0.049 A 
ATOM     38  N   UNL A   1      46.837  26.773  26.325  1.00  0.00    -0.248 NA
ATOM     39  C   UNL A   1      47.520  24.827  25.231  1.00  0.00     0.031 C 
ATOM     40  C   UNL A   1      42.723  25.034  26.740  1.00  0.00     0.029 A 
ATOM     41  N   UNL A   1      43.974  26.858  27.055  1.00  0.00    -0.354 N 
ATOM     42  C   UNL A   1      48.192  26.853  26.032  1.00  0.00     0.074 A 
ATOM     43  C   UNL A   1      48.579  25.594  25.439  1.00  0.00     0.031 C 
ATOM     44  C   UNL A   1      41.937  25.969  27.301  1.00  0.00     0.029 A 
ATOM     45  C   UNL A   1      42.726  27.173  27.535  1.00  0.00     0.049 A 
ATOM     46  H   UNL A   1      44.734  27.484  27.078  1.00  0.00     0.167 HD
ATOM     47  C   UNL A   1      49.032  27.900  26.207  1.00  0.00     0.037 A 
ATOM     48  C   UNL A   1      42.277  28.311  28.098  1.00  0.00     0.037 A 
ATOM     49  C   UNL A   1      48.631  29.168  26.750  1.00  0.00     0.049 A 
ATOM     50  C   UNL A   1      43.228  29.468  28.261  1.00  0.00     0.074 A 
ATOM     51  C   UNL A   1      49.390  30.309  26.933  1.00  0.00     0.029 A 
ATOM     52  N   UNL A   1      47.346  29.463  27.180  1.00  0.00    -0.354 N 
ATOM     53  N   UNL A   1      44.497  29.549  27.937  1.00  0.00    -0.248 NA
ATOM     54  C   UNL A   1      42.683  30.693  28.861  1.00  0.00     0.031 C 
ATOM     55  C   UNL A   1      48.569  31.291  27.495  1.00  0.00     0.029 A 
ATOM     56  C   UNL A   1      47.290  30.772  27.629  1.00  0.00     0.049 A 
ATOM     57  H   UNL A   1      46.587  28.837  27.170  1.00  0.00     0.167 HD
ATOM     58  C   UNL A   1      44.889  30.841  28.258  1.00  0.00     0.074 A 
ATOM     59  C   UNL A   1      43.723  31.512  28.793  1.00  0.00     0.031 C 
ATOM     60  C   UNL A   1      46.107  31.423  28.126  1.00  0.00     0.037 A 
BRANCH  47  61
ATOM     61  C   UNL A   1      50.457  27.719  25.776  1.00  0.00     0.064 A 
ATOM     62  C   UNL A   1      50.838  27.856  24.432  1.00  0.00     0.173 A 
ATOM     63  C   UNL A   1      51.456  27.422  26.715  1.00  0.00     0.173 A 
ATOM     64  F   UNL A   1      49.916  28.121  23.494  1.00  0.00    -0.203 F 
ATOM     65  C   UNL A   1      52.161  27.675  24.039  1.00  0.00     0.198 A 
ATOM     66  C   UNL A   1      52.784  27.272  26.322  1.00  0.00     0.198 A 
ATOM     67  F   UNL A   1      51.146  27.280  28.012  1.00  0.00    -0.203 F 
ATOM     68  F   UNL A   1      52.490  27.759  22.742  1.00  0.00    -0.200 F 
ATOM     69  C   UNL A   1      53.134  27.390  24.985  1.00  0.00     0.200 A 
ATOM     70  F   UNL A   1      53.726  27.005  27.237  1.00  0.00    -0.200 F 
ATOM     71  F   UNL A   1      54.408  27.222  24.606  1.00  0.00    -0.200 F 
ENDBRANCH  47  61
BRANCH  48  72
ATOM     72  C   UNL A   1      40.855  28.436  28.510  1.00  0.00     0.064 A 
ATOM     73  C   UNL A   1      39.899  28.958  27.627  1.00  0.00     0.173 A 
ATOM     74  C   UNL A   1      40.425  28.068  29.792  1.00  0.00     0.173 A 
ATOM     75  F   UNL A   1      40.265  29.345  26.396  1.00  0.00    -0.203 F 
ATOM     76  C   UNL A   1      38.574  29.134  28.020  1.00  0.00     0.198 A 
ATOM     77  C   UNL A   1      39.094  28.219  30.176  1.00  0.00     0.198 A 
ATOM     78  F   UNL A   1      41.299  27.558  30.674  1.00  0.00    -0.203 F 
ATOM     79  F   UNL A   1      37.694  29.687  27.174  1.00  0.00    -0.200 F 
ATOM     80  C   UNL A   1      38.171  28.762  29.294  1.00  0.00     0.200 A 
ATOM     81  F   UNL A   1      38.705  27.847  31.404  1.00  0.00    -0.200 F 
ATOM     82  F   UNL A   1      36.899  28.937  29.673  1.00  0.00    -0.200 F 
ENDBRANCH  48  72
BRANCH  60  83
ATOM     83  C   UNL A   1      46.223  32.866  28.513  1.00  0.00     0.064 A 
ATOM     84  C   UNL A   1      45.940  33.896  27.606  1.00  0.00     0.173 A 
ATOM     85  C   UNL A   1      46.578  33.218  29.824  1.00  0.00     0.173 A 
ATOM     86  F   UNL A   1      45.611  33.607  26.337  1.00  0.00    -0.203 F 
ATOM     87  C   UNL A   1      46.030  35.230  27.992  1.00  0.00     0.198 A 
ATOM     88  C   UNL A   1      46.639  34.552  30.214  1.00  0.00     0.198 A 
ATOM     89  F   UNL A   1      46.850  32.266  30.730  1.00  0.00    -0.203 F 
ATOM     90  F   UNL A   1      45.797  36.201  27.097  1.00  0.00    -0.200 F 
ATOM     91  C   UNL A   1      46.372  35.556  29.296  1.00  0.00     0.200 A 
ATOM     92  F   UNL A   1      46.957  34.865  31.477  1.00  0.00    -0.200 F 
ATOM     93  F   UNL A   1      46.450  36.841  29.667  1.00  0.00    -0.200 F 
ENDBRANCH  60  83
ENDBRANCH  34  35
ENDBRANCH  26  29
ENDBRANCH  24  25
ENDBRANCH  23  24
ENDBRANCH  22  23
ENDBRANCH   1  22
TORSDOF 16
ENDMDL
MODEL 3
REMARK VINA RESULT:     -11.3      6.179     11.662
REMARK SMILES COC[C@@H](C)N(C)C(=O)N1CCC(CC(=O)NCCCCNC(=O)c2ccc(-c3c4nc(c(-c5c(F)c(F)c(F)c(F)c5F)c5ccc([nH]5)c(-c5c(F)c(F)c(F)c(F)c5F)c5nc(c(-c6c(F)c(F)c(F)c(F)c6F)c6ccc3[nH]6)C=C5)C=C4)cc2)CC1
REMARK SMILES IDX 18 1 17 2 15 3 16 4 14 6 13 7 8 8 9 9 10 10 11 11 89 12
REMARK SMILES IDX 12 13 88 14 6 15 7 16 4 17 5 18 3 19 2 20 1 21 19 22 20 23
REMARK SMILES IDX 21 24 22 25 23 26 24 28 25 29 26 30 87 31 27 32 86 33 28 34
REMARK SMILES IDX 29 35 30 36 80 37 31 38 85 39 79 40 81 41 32 42 84 43 78 44
REMARK SMILES IDX 77 45 33 47 65 48 45 49 64 50 46 51 49 52 63 53 82 54 47 55
REMARK SMILES IDX 48 56 62 58 83 59 50 60 34 61 35 62 43 63 36 64 37 65 41 66
REMARK SMILES IDX 44 67 38 68 39 69 42 70 40 71 66 72 67 73 75 74 68 75 69 76
REMARK SMILES IDX 73 77 76 78 70 79 71 80 74 81 72 82 51 83 52 84 60 85 53 86
REMARK SMILES IDX 54 87 58 88 61 89 55 90 56 91 59 92 57 93
REMARK H PARENT 17 5 22 27 81 46 49 57
REMARK Flexibility Score: inf
ROOT
ATOM      1  C   UNL A   1      35.115  33.181  27.732  1.00  0.00     0.116 C 
ENDROOT
BRANCH   1   2
ATOM      2  N   UNL A   1      35.702  31.903  28.104  1.00  0.00    -0.356 N 
ATOM      3  C   UNL A   1      35.251  30.630  27.908  1.00  0.00     0.220 C 
ATOM      4  O   UNL A   1      35.909  29.701  28.381  1.00  0.00    -0.275 OA
ATOM      5  H   UNL A   1      36.564  31.968  28.575  1.00  0.00     0.163 HD
BRANCH   3   6
ATOM      6  C   UNL A   1      33.966  30.360  27.135  1.00  0.00     0.103 C 
BRANCH   6   7
ATOM      7  C   UNL A   1      33.452  28.909  27.261  1.00  0.00     0.002 C 
ATOM      8  C   UNL A   1      31.497  26.643  24.674  1.00  0.00     0.320 C 
ATOM      9  O   UNL A   1      30.934  27.605  24.153  1.00  0.00    -0.248 OA
ATOM     10  N   UNL A   1      32.042  26.723  25.942  1.00  0.00    -0.325 N 
ATOM     11  C   UNL A   1      31.343  27.474  26.956  1.00  0.00     0.121 C 
ATOM     12  C   UNL A   1      33.480  26.604  26.146  1.00  0.00     0.121 C 
ATOM     13  C   UNL A   1      31.933  28.860  27.105  1.00  0.00     0.026 C 
ATOM     14  C   UNL A   1      34.131  27.993  26.224  1.00  0.00     0.026 C 
BRANCH   8  15
ATOM     15  N   UNL A   1      31.579  25.395  24.070  1.00  0.00    -0.323 N 
ATOM     16  C   UNL A   1      30.834  24.244  24.563  1.00  0.00     0.149 C 
BRANCH  15  17
ATOM     17  C   UNL A   1      32.270  25.233  22.773  1.00  0.00     0.109 C 
ATOM     18  C   UNL A   1      32.325  23.760  22.365  1.00  0.00     0.033 C 
BRANCH  17  19
ATOM     19  C   UNL A   1      33.657  25.920  22.757  1.00  0.00     0.184 C 
BRANCH  19  20
ATOM     20  O   UNL A   1      33.783  26.912  21.730  1.00  0.00    -0.383 OA
ATOM     21  C   UNL A   1      33.867  28.242  22.220  1.00  0.00     0.194 C 
ENDBRANCH  19  20
ENDBRANCH  17  19
ENDBRANCH  15  17
ENDBRANCH   8  15
ENDBRANCH   6   7
ENDBRANCH   3   6
ENDBRANCH   1   2
BRANCH   1  22
ATOM     22  C   UNL A   1      35.410  34.269  28.770  1.00  0.00     0.023 C 
BRANCH  22  23
ATOM     23  C   UNL A   1      34.289  35.264  29.012  1.00  0.00     0.023 C 
BRANCH  23  24
ATOM     24  C   UNL A   1      33.094  34.679  29.735  1.00  0.00     0.116 C 
BRANCH  24  25
ATOM     25  N   UNL A   1      32.487  35.594  30.695  1.00  0.00    -0.352 N 
ATOM     26  C   UNL A   1      32.834  35.811  32.009  1.00  0.00     0.251 C 
ATOM     27  H   UNL A   1      31.729  36.125  30.359  1.00  0.00     0.163 HD
ATOM     28  O   UNL A   1      32.176  36.552  32.724  1.00  0.00    -0.269 OA
BRANCH  26  29
ATOM     29  C   UNL A   1      33.999  35.087  32.554  1.00  0.00     0.039 A 
ATOM     30  C   UNL A   1      33.828  33.784  33.027  1.00  0.00     0.014 A 
ATOM     31  C   UNL A   1      35.268  35.664  32.500  1.00  0.00     0.014 A 
ATOM     32  C   UNL A   1      34.950  33.030  33.369  1.00  0.00     0.010 A 
ATOM     33  C   UNL A   1      36.385  34.878  32.730  1.00  0.00     0.010 A 
ATOM     34  C   UNL A   1      36.238  33.558  33.180  1.00  0.00    -0.014 A 
BRANCH  34  35
ATOM     35  C   UNL A   1      37.456  32.773  33.495  1.00  0.00     0.031 A 
ATOM     36  C   UNL A   1      38.187  33.044  34.781  1.00  0.00     0.074 A 
ATOM     37  C   UNL A   1      37.939  31.886  32.605  1.00  0.00     0.049 A 
ATOM     38  N   UNL A   1      39.332  32.570  35.201  1.00  0.00    -0.248 NA
ATOM     39  C   UNL A   1      37.568  34.015  35.700  1.00  0.00     0.031 C 
ATOM     40  C   UNL A   1      37.347  31.576  31.303  1.00  0.00     0.029 A 
ATOM     41  N   UNL A   1      39.051  31.083  32.662  1.00  0.00    -0.354 N 
ATOM     42  C   UNL A   1      39.576  33.203  36.412  1.00  0.00     0.074 A 
ATOM     43  C   UNL A   1      38.503  34.146  36.628  1.00  0.00     0.031 C 
ATOM     44  C   UNL A   1      38.082  30.625  30.700  1.00  0.00     0.029 A 
ATOM     45  C   UNL A   1      39.214  30.287  31.554  1.00  0.00     0.049 A 
ATOM     46  H   UNL A   1      39.673  31.078  33.425  1.00  0.00     0.167 HD
ATOM     47  C   UNL A   1      40.586  32.990  37.287  1.00  0.00     0.037 A 
ATOM     48  C   UNL A   1      40.173  29.386  31.269  1.00  0.00     0.037 A 
ATOM     49  C   UNL A   1      41.623  32.015  37.092  1.00  0.00     0.049 A 
ATOM     50  C   UNL A   1      41.274  29.153  32.270  1.00  0.00     0.074 A 
ATOM     51  C   UNL A   1      42.671  31.687  37.933  1.00  0.00     0.029 A 
ATOM     52  N   UNL A   1      41.726  31.195  35.979  1.00  0.00    -0.354 N 
ATOM     53  N   UNL A   1      41.470  29.725  33.435  1.00  0.00    -0.248 NA
ATOM     54  C   UNL A   1      42.284  28.145  31.921  1.00  0.00     0.031 C 
ATOM     55  C   UNL A   1      43.423  30.682  37.318  1.00  0.00     0.029 A 
ATOM     56  C   UNL A   1      42.822  30.360  36.110  1.00  0.00     0.049 A 
ATOM     57  H   UNL A   1      41.114  31.205  35.209  1.00  0.00     0.167 HD
ATOM     58  C   UNL A   1      42.598  29.120  33.971  1.00  0.00     0.074 A 
ATOM     59  C   UNL A   1      43.039  28.131  33.009  1.00  0.00     0.031 C 
ATOM     60  C   UNL A   1      43.218  29.362  35.152  1.00  0.00     0.037 A 
BRANCH  47  61
ATOM     61  C   UNL A   1      40.593  33.808  38.544  1.00  0.00     0.064 A 
ATOM     62  C   UNL A   1      41.371  34.972  38.654  1.00  0.00     0.173 A 
ATOM     63  C   UNL A   1      39.805  33.438  39.643  1.00  0.00     0.173 A 
ATOM     64  F   UNL A   1      42.157  35.357  37.636  1.00  0.00    -0.203 F 
ATOM     65  C   UNL A   1      41.381  35.719  39.828  1.00  0.00     0.198 A 
ATOM     66  C   UNL A   1      39.795  34.206  40.806  1.00  0.00     0.198 A 
ATOM     67  F   UNL A   1      39.044  32.336  39.591  1.00  0.00    -0.203 F 
ATOM     68  F   UNL A   1      42.173  36.796  39.928  1.00  0.00    -0.200 F 
ATOM     69  C   UNL A   1      40.588  35.339  40.900  1.00  0.00     0.200 A 
ATOM     70  F   UNL A   1      39.021  33.844  41.839  1.00  0.00    -0.200 F 
ATOM     71  F   UNL A   1      40.594  36.063  42.029  1.00  0.00    -0.200 F 
ENDBRANCH  47  61
BRANCH  48  72
ATOM     72  C   UNL A   1      40.120  28.604  30.007  1.00  0.00     0.064 A 
ATOM     73  C   UNL A   1      39.454  27.371  29.958  1.00  0.00     0.173 A 
ATOM     74  C   UNL A   1      40.750  29.050  28.837  1.00  0.00     0.173 A 
ATOM     75  F   UNL A   1      38.854  26.891  31.058  1.00  0.00    -0.203 F 
ATOM     76  C   UNL A   1      39.445  26.601  28.797  1.00  0.00     0.198 A 
ATOM     77  C   UNL A   1      40.717  28.292  27.668  1.00  0.00     0.198 A 
ATOM     78  F   UNL A   1      41.396  30.226  28.828  1.00  0.00    -0.203 F 
ATOM     79  F   UNL A   1      38.848  25.401  28.796  1.00  0.00    -0.200 F 
ATOM     80  C   UNL A   1      40.074  27.063  27.652  1.00  0.00     0.200 A 
ATOM     81  F   UNL A   1      41.317  28.748  26.559  1.00  0.00    -0.200 F 
ATOM     82  F   UNL A   1      40.071  26.320  26.537  1.00  0.00    -0.200 F 
ENDBRANCH  48  72
BRANCH  60  83
ATOM     83  C   UNL A   1      44.401  28.508  35.493  1.00  0.00     0.064 A 
ATOM     84  C   UNL A   1      45.703  28.869  35.119  1.00  0.00     0.173 A 
ATOM     85  C   UNL A   1      44.231  27.336  36.244  1.00  0.00     0.173 A 
ATOM     86  F   UNL A   1      45.912  29.975  34.387  1.00  0.00    -0.203 F 
ATOM     87  C   UNL A   1      46.791  28.075  35.467  1.00  0.00     0.198 A 
ATOM     88  C   UNL A   1      45.324  26.558  36.614  1.00  0.00     0.198 A 
ATOM     89  F   UNL A   1      43.005  26.952  36.632  1.00  0.00    -0.203 F 
ATOM     90  F   UNL A   1      48.023  28.416  35.063  1.00  0.00    -0.200 F 
ATOM     91  C   UNL A   1      46.602  26.925  36.220  1.00  0.00     0.200 A 
ATOM     92  F   UNL A   1      45.141  25.455  37.352  1.00  0.00    -0.200 F 
ATOM     93  F   UNL A   1      47.652  26.166  36.559  1.00  0.00    -0.200 F 
ENDBRANCH  60  83
ENDBRANCH  34  35
ENDBRANCH  26  29
ENDBRANCH  24  25
ENDBRANCH  23  24
ENDBRANCH  22  23
ENDBRANCH   1  22
TORSDOF 16
ENDMDL
