MODEL 1
REMARK VINA RESULT:     -12.1      0.000      0.000
REMARK SMILES [NH3+][C@]1(C(=O)NCCCCNC(=O)c2ccc(-c3c4nc(c(-c5c(F)c(F)c(F)c(F)c5F)c5ccc([nH]5)c(-c5c(F)c(F)c(F)c(F)c5F)c5nc(c(-c6c(F)c(F)c(F)c(F)c6F)c6ccc3[nH]6)C=C5)C=C4)cc2)CCC[C@H]1CCSc1ncnc2nc[nH]c12
REMARK SMILES IDX 6 1 5 2 3 3 4 4 2 6 76 7 79 8 77 9 78 10 1 11 80 15 81 16
REMARK SMILES IDX 82 17 83 18 84 19 91 20 85 21 87 22 90 23 86 24 88 25 89 26
REMARK SMILES IDX 7 28 8 29 9 30 10 31 11 32 12 34 13 35 14 36 75 37 15 38
REMARK SMILES IDX 74 39 16 40 17 41 18 42 68 43 19 44 73 45 67 46 69 47 20 48
REMARK SMILES IDX 72 49 66 50 65 51 21 53 53 54 33 55 52 56 34 57 37 58 51 59
REMARK SMILES IDX 70 60 35 61 36 62 50 64 71 65 38 66 22 67 23 68 31 69 24 70
REMARK SMILES IDX 25 71 29 72 32 73 26 74 27 75 30 76 28 77 54 78 55 79 63 80
REMARK SMILES IDX 56 81 57 82 61 83 64 84 58 85 59 86 62 87 60 88 39 89 40 90
REMARK SMILES IDX 48 91 41 92 42 93 46 94 49 95 43 96 44 97 47 98 45 99
REMARK H PARENT 5 5 1 12 1 13 1 14 90 27 10 33 69 52 37 63
REMARK Flexibility Score: inf
ROOT
ATOM      1  C   UNL A   1      36.052  21.610  24.628  1.00  0.00     0.116 C 
ENDROOT
BRANCH   1   2
ATOM      2  N   UNL A   1      35.316  21.171  25.783  1.00  0.00    -0.351 N 
ATOM      3  C   UNL A   1      34.393  21.832  26.516  1.00  0.00     0.281 C 
ATOM      4  O   UNL A   1      34.124  21.340  27.621  1.00  0.00    -0.268 OA
ATOM      5  H   UNL A   1      35.514  20.254  26.083  1.00  0.00     0.163 HD
BRANCH   3   6
ATOM      6  C   UNL A   1      33.573  23.065  25.995  1.00  0.00     0.176 C 
ATOM      7  C   UNL A   1      34.330  24.288  25.439  1.00  0.00     0.079 C 
ATOM      8  C   UNL A   1      32.555  22.691  24.871  1.00  0.00     0.061 C 
ATOM      9  C   UNL A   1      33.581  24.705  24.176  1.00  0.00     0.008 C 
ATOM     10  C   UNL A   1      33.046  23.397  23.610  1.00  0.00     0.011 C 
BRANCH   6  11
ATOM     11  N   UNL A   1      32.806  23.560  27.180  1.00  0.00    -0.345 N 
ATOM     12  H   UNL A   1      32.091  24.219  26.871  1.00  0.00     0.345 HD
ATOM     13  H   UNL A   1      33.442  24.026  27.827  1.00  0.00     0.345 HD
ATOM     14  H   UNL A   1      32.361  22.771  27.650  1.00  0.00     0.345 HD
ENDBRANCH   6  11
BRANCH   8  15
ATOM     15  C   UNL A   1      32.143  21.223  24.728  1.00  0.00     0.022 C 
BRANCH  15  16
ATOM     16  C   UNL A   1      32.619  20.620  23.390  1.00  0.00     0.077 C 
BRANCH  16  17
ATOM     17  S   UNL A   1      32.106  18.864  23.325  1.00  0.00    -0.104 SA
BRANCH  17  18
ATOM     18  C   UNL A   1      33.248  17.999  24.368  1.00  0.00     0.125 A 
ATOM     19  N   UNL A   1      34.521  18.454  24.362  1.00  0.00    -0.228 NA
ATOM     20  C   UNL A   1      33.046  16.714  24.851  1.00  0.00     0.117 A 
ATOM     21  C   UNL A   1      35.504  17.626  24.765  1.00  0.00     0.225 A 
ATOM     22  C   UNL A   1      34.132  15.923  25.195  1.00  0.00     0.181 A 
ATOM     23  N   UNL A   1      31.979  15.901  25.117  1.00  0.00    -0.341 N 
ATOM     24  N   UNL A   1      35.402  16.354  25.163  1.00  0.00    -0.215 NA
ATOM     25  N   UNL A   1      33.750  14.652  25.543  1.00  0.00    -0.217 NA
ATOM     26  C   UNL A   1      32.440  14.671  25.488  1.00  0.00     0.199 A 
ATOM     27  H   UNL A   1      31.032  16.162  25.050  1.00  0.00     0.168 HD
ENDBRANCH  17  18
ENDBRANCH  16  17
ENDBRANCH  15  16
ENDBRANCH   8  15
ENDBRANCH   3   6
ENDBRANCH   1   2
BRANCH   1  28
ATOM     28  C   UNL A   1      37.531  21.758  24.986  1.00  0.00     0.023 C 
BRANCH  28  29
ATOM     29  C   UNL A   1      38.263  20.430  25.145  1.00  0.00     0.023 C 
BRANCH  29  30
ATOM     30  C   UNL A   1      39.439  20.489  26.101  1.00  0.00     0.116 C 
BRANCH  30  31
ATOM     31  N   UNL A   1      40.304  19.322  26.012  1.00  0.00    -0.352 N 
ATOM     32  C   UNL A   1      41.674  19.286  26.107  1.00  0.00     0.251 C 
ATOM     33  H   UNL A   1      39.855  18.458  25.867  1.00  0.00     0.163 HD
ATOM     34  O   UNL A   1      42.301  18.260  25.951  1.00  0.00    -0.269 OA
BRANCH  32  35
ATOM     35  C   UNL A   1      42.351  20.569  26.357  1.00  0.00     0.039 A 
ATOM     36  C   UNL A   1      42.695  21.359  25.263  1.00  0.00     0.014 A 
ATOM     37  C   UNL A   1      42.493  21.027  27.669  1.00  0.00     0.014 A 
ATOM     38  C   UNL A   1      43.151  22.653  25.488  1.00  0.00     0.010 A 
ATOM     39  C   UNL A   1      42.867  22.344  27.886  1.00  0.00     0.010 A 
ATOM     40  C   UNL A   1      43.211  23.161  26.797  1.00  0.00    -0.014 A 
BRANCH  40  41
ATOM     41  C   UNL A   1      43.671  24.542  27.052  1.00  0.00     0.031 A 
ATOM     42  C   UNL A   1      42.700  25.548  27.596  1.00  0.00     0.074 A 
ATOM     43  C   UNL A   1      44.933  24.892  26.745  1.00  0.00     0.049 A 
ATOM     44  N   UNL A   1      42.883  26.815  27.861  1.00  0.00    -0.248 NA
ATOM     45  C   UNL A   1      41.328  25.074  27.843  1.00  0.00     0.031 C 
ATOM     46  C   UNL A   1      45.941  24.003  26.164  1.00  0.00     0.029 A 
ATOM     47  N   UNL A   1      45.583  26.090  26.882  1.00  0.00    -0.354 N 
ATOM     48  C   UNL A   1      41.650  27.289  28.284  1.00  0.00     0.074 A 
ATOM     49  C   UNL A   1      40.712  26.194  28.181  1.00  0.00     0.031 C 
ATOM     50  C   UNL A   1      47.095  24.678  26.030  1.00  0.00     0.029 A 
ATOM     51  C   UNL A   1      46.896  26.051  26.484  1.00  0.00     0.049 A 
ATOM     52  H   UNL A   1      45.150  26.902  27.232  1.00  0.00     0.167 HD
ATOM     53  C   UNL A   1      41.337  28.522  28.743  1.00  0.00     0.037 A 
ATOM     54  C   UNL A   1      47.832  27.018  26.497  1.00  0.00     0.037 A 
ATOM     55  C   UNL A   1      42.291  29.590  28.876  1.00  0.00     0.049 A 
ATOM     56  C   UNL A   1      47.459  28.380  27.017  1.00  0.00     0.074 A 
ATOM     57  C   UNL A   1      42.105  30.853  29.407  1.00  0.00     0.029 A 
ATOM     58  N   UNL A   1      43.615  29.515  28.469  1.00  0.00    -0.354 N 
ATOM     59  N   UNL A   1      46.312  28.798  27.496  1.00  0.00    -0.248 NA
ATOM     60  C   UNL A   1      48.513  29.403  27.001  1.00  0.00     0.031 C 
ATOM     61  C   UNL A   1      43.305  31.560  29.277  1.00  0.00     0.029 A 
ATOM     62  C   UNL A   1      44.253  30.721  28.711  1.00  0.00     0.049 A 
ATOM     63  H   UNL A   1      44.039  28.722  28.067  1.00  0.00     0.167 HD
ATOM     64  C   UNL A   1      46.513  30.120  27.869  1.00  0.00     0.074 A 
ATOM     65  C   UNL A   1      47.896  30.431  27.569  1.00  0.00     0.031 C 
ATOM     66  C   UNL A   1      45.634  30.999  28.412  1.00  0.00     0.037 A 
BRANCH  53  67
ATOM     67  C   UNL A   1      39.908  28.773  29.128  1.00  0.00     0.064 A 
ATOM     68  C   UNL A   1      39.445  28.547  30.434  1.00  0.00     0.173 A 
ATOM     69  C   UNL A   1      38.991  29.247  28.179  1.00  0.00     0.173 A 
ATOM     70  F   UNL A   1      40.277  28.076  31.375  1.00  0.00    -0.203 F 
ATOM     71  C   UNL A   1      38.108  28.748  30.764  1.00  0.00     0.198 A 
ATOM     72  C   UNL A   1      37.662  29.479  28.523  1.00  0.00     0.198 A 
ATOM     73  F   UNL A   1      39.382  29.480  26.918  1.00  0.00    -0.203 F 
ATOM     74  F   UNL A   1      37.674  28.463  32.000  1.00  0.00    -0.200 F 
ATOM     75  C   UNL A   1      37.218  29.219  29.810  1.00  0.00     0.200 A 
ATOM     76  F   UNL A   1      36.806  29.944  27.601  1.00  0.00    -0.200 F 
ATOM     77  F   UNL A   1      35.931  29.413  30.130  1.00  0.00    -0.200 F 
ENDBRANCH  53  67
BRANCH  54  78
ATOM     78  C   UNL A   1      49.218  26.721  26.053  1.00  0.00     0.064 A 
ATOM     79  C   UNL A   1      49.623  27.004  24.741  1.00  0.00     0.173 A 
ATOM     80  C   UNL A   1      50.162  26.155  26.920  1.00  0.00     0.173 A 
ATOM     81  F   UNL A   1      48.750  27.530  23.870  1.00  0.00    -0.203 F 
ATOM     82  C   UNL A   1      50.916  26.718  24.308  1.00  0.00     0.198 A 
ATOM     83  C   UNL A   1      51.463  25.891  26.494  1.00  0.00     0.198 A 
ATOM     84  F   UNL A   1      49.826  25.872  28.187  1.00  0.00    -0.203 F 
ATOM     85  F   UNL A   1      51.265  26.963  23.038  1.00  0.00    -0.200 F 
ATOM     86  C   UNL A   1      51.836  26.166  25.186  1.00  0.00     0.200 A 
ATOM     87  F   UNL A   1      52.354  25.373  27.350  1.00  0.00    -0.200 F 
ATOM     88  F   UNL A   1      53.082  25.895  24.773  1.00  0.00    -0.200 F 
ENDBRANCH  54  78
BRANCH  66  89
ATOM     89  C   UNL A   1      46.153  32.365  28.747  1.00  0.00     0.064 A 
ATOM     90  C   UNL A   1      46.762  32.639  29.980  1.00  0.00     0.173 A 
ATOM     91  C   UNL A   1      46.079  33.401  27.803  1.00  0.00     0.173 A 
ATOM     92  F   UNL A   1      46.843  31.686  30.919  1.00  0.00    -0.203 F 
ATOM     93  C   UNL A   1      47.257  33.909  30.265  1.00  0.00     0.198 A 
ATOM     94  C   UNL A   1      46.603  34.660  28.080  1.00  0.00     0.198 A 
ATOM     95  F   UNL A   1      45.512  33.187  26.607  1.00  0.00    -0.203 F 
ATOM     96  F   UNL A   1      47.794  34.162  31.466  1.00  0.00    -0.200 F 
ATOM     97  C   UNL A   1      47.184  34.915  29.312  1.00  0.00     0.200 A 
ATOM     98  F   UNL A   1      46.544  35.627  27.154  1.00  0.00    -0.200 F 
ATOM     99  F   UNL A   1      47.669  36.134  29.586  1.00  0.00    -0.200 F 
ENDBRANCH  66  89
ENDBRANCH  40  41
ENDBRANCH  32  35
ENDBRANCH  30  31
ENDBRANCH  29  30
ENDBRANCH  28  29
ENDBRANCH   1  28
TORSDOF 16
ENDMDL
MODEL 2
REMARK VINA RESULT:     -12.0      5.739     10.860
REMARK SMILES [NH3+][C@]1(C(=O)NCCCCNC(=O)c2ccc(-c3c4nc(c(-c5c(F)c(F)c(F)c(F)c5F)c5ccc([nH]5)c(-c5c(F)c(F)c(F)c(F)c5F)c5nc(c(-c6c(F)c(F)c(F)c(F)c6F)c6ccc3[nH]6)C=C5)C=C4)cc2)CCC[C@H]1CCSc1ncnc2nc[nH]c12
REMARK SMILES IDX 6 1 5 2 3 3 4 4 2 6 76 7 79 8 77 9 78 10 1 11 80 15 81 16
REMARK SMILES IDX 82 17 83 18 84 19 91 20 85 21 87 22 90 23 86 24 88 25 89 26
REMARK SMILES IDX 7 28 8 29 9 30 10 31 11 32 12 34 13 35 14 36 75 37 15 38
REMARK SMILES IDX 74 39 16 40 17 41 18 42 68 43 19 44 73 45 67 46 69 47 20 48
REMARK SMILES IDX 72 49 66 50 65 51 21 53 53 54 33 55 52 56 34 57 37 58 51 59
REMARK SMILES IDX 70 60 35 61 36 62 50 64 71 65 38 66 22 67 23 68 31 69 24 70
REMARK SMILES IDX 25 71 29 72 32 73 26 74 27 75 30 76 28 77 54 78 55 79 63 80
REMARK SMILES IDX 56 81 57 82 61 83 64 84 58 85 59 86 62 87 60 88 39 89 40 90
REMARK SMILES IDX 48 91 41 92 42 93 46 94 49 95 43 96 44 97 47 98 45 99
REMARK H PARENT 5 5 1 12 1 13 1 14 90 27 10 33 69 52 37 63
REMARK Flexibility Score: inf
ROOT
ATOM      1  C   UNL A   1      31.805  29.134  26.063  1.00  0.00     0.116 C 
ENDROOT
BRANCH   1   2
ATOM      2  N   UNL A   1      31.475  27.854  26.630  1.00  0.00    -0.351 N 
ATOM      3  C   UNL A   1      31.201  26.685  26.010  1.00  0.00     0.281 C 
ATOM      4  O   UNL A   1      30.670  25.811  26.710  1.00  0.00    -0.268 OA
ATOM      5  H   UNL A   1      31.445  27.826  27.613  1.00  0.00     0.163 HD
BRANCH   3   6
ATOM      6  C   UNL A   1      31.636  26.344  24.540  1.00  0.00     0.176 C 
ATOM      7  C   UNL A   1      31.230  27.297  23.398  1.00  0.00     0.079 C 
ATOM      8  C   UNL A   1      33.181  26.183  24.382  1.00  0.00     0.061 C 
ATOM      9  C   UNL A   1      32.465  27.443  22.514  1.00  0.00     0.008 C 
ATOM     10  C   UNL A   1      33.633  27.332  23.485  1.00  0.00     0.011 C 
BRANCH   6  11
ATOM     11  N   UNL A   1      30.991  25.031  24.230  1.00  0.00    -0.345 N 
ATOM     12  H   UNL A   1      31.451  24.608  23.424  1.00  0.00     0.345 HD
ATOM     13  H   UNL A   1      30.004  25.177  24.020  1.00  0.00     0.345 HD
ATOM     14  H   UNL A   1      31.079  24.411  25.036  1.00  0.00     0.345 HD
ENDBRANCH   6  11
BRANCH   8  15
ATOM     15  C   UNL A   1      34.013  25.919  25.641  1.00  0.00     0.022 C 
BRANCH  15  16
ATOM     16  C   UNL A   1      34.707  24.542  25.593  1.00  0.00     0.077 C 
BRANCH  16  17
ATOM     17  S   UNL A   1      33.554  23.284  26.256  1.00  0.00    -0.104 SA
BRANCH  17  18
ATOM     18  C   UNL A   1      33.352  22.098  24.955  1.00  0.00     0.125 A 
ATOM     19  N   UNL A   1      33.029  22.596  23.741  1.00  0.00    -0.228 NA
ATOM     20  C   UNL A   1      33.111  20.746  25.161  1.00  0.00     0.117 A 
ATOM     21  C   UNL A   1      32.452  21.777  22.840  1.00  0.00     0.225 A 
ATOM     22  C   UNL A   1      32.465  20.001  24.186  1.00  0.00     0.181 A 
ATOM     23  N   UNL A   1      33.343  19.828  26.146  1.00  0.00    -0.341 N 
ATOM     24  N   UNL A   1      32.113  20.493  22.989  1.00  0.00    -0.215 NA
ATOM     25  N   UNL A   1      32.214  18.719  24.606  1.00  0.00    -0.217 NA
ATOM     26  C   UNL A   1      32.759  18.644  25.796  1.00  0.00     0.199 A 
ATOM     27  H   UNL A   1      33.848  19.994  26.974  1.00  0.00     0.168 HD
ENDBRANCH  17  18
ENDBRANCH  16  17
ENDBRANCH  15  16
ENDBRANCH   8  15
ENDBRANCH   3   6
ENDBRANCH   1   2
BRANCH   1  28
ATOM     28  C   UNL A   1      32.227  30.096  27.174  1.00  0.00     0.023 C 
BRANCH  28  29
ATOM     29  C   UNL A   1      31.992  31.565  26.841  1.00  0.00     0.023 C 
BRANCH  29  30
ATOM     30  C   UNL A   1      33.073  32.492  27.363  1.00  0.00     0.116 C 
BRANCH  30  31
ATOM     31  N   UNL A   1      32.591  33.842  27.615  1.00  0.00    -0.352 N 
ATOM     32  C   UNL A   1      33.062  34.739  28.543  1.00  0.00     0.251 C 
ATOM     33  H   UNL A   1      31.842  34.148  27.054  1.00  0.00     0.163 HD
ATOM     34  O   UNL A   1      32.538  35.820  28.712  1.00  0.00    -0.269 OA
BRANCH  32  35
ATOM     35  C   UNL A   1      34.204  34.302  29.362  1.00  0.00     0.039 A 
ATOM     36  C   UNL A   1      33.945  33.572  30.520  1.00  0.00     0.014 A 
ATOM     37  C   UNL A   1      35.504  34.494  28.888  1.00  0.00     0.014 A 
ATOM     38  C   UNL A   1      35.011  32.985  31.193  1.00  0.00     0.010 A 
ATOM     39  C   UNL A   1      36.552  33.838  29.513  1.00  0.00     0.010 A 
ATOM     40  C   UNL A   1      36.313  33.090  30.678  1.00  0.00    -0.014 A 
BRANCH  40  41
ATOM     41  C   UNL A   1      37.454  32.452  31.368  1.00  0.00     0.031 A 
ATOM     42  C   UNL A   1      38.180  31.326  30.695  1.00  0.00     0.074 A 
ATOM     43  C   UNL A   1      37.791  32.853  32.607  1.00  0.00     0.049 A 
ATOM     44  N   UNL A   1      39.181  30.608  31.132  1.00  0.00    -0.248 NA
ATOM     45  C   UNL A   1      37.693  30.930  29.363  1.00  0.00     0.031 C 
ATOM     46  C   UNL A   1      37.118  33.905  33.371  1.00  0.00     0.029 A 
ATOM     47  N   UNL A   1      38.789  32.421  33.441  1.00  0.00    -0.354 N 
ATOM     48  C   UNL A   1      39.426  29.668  30.142  1.00  0.00     0.074 A 
ATOM     49  C   UNL A   1      38.433  29.863  29.111  1.00  0.00     0.031 C 
ATOM     50  C   UNL A   1      37.746  34.063  34.547  1.00  0.00     0.029 A 
ATOM     51  C   UNL A   1      38.843  33.103  34.631  1.00  0.00     0.049 A 
ATOM     52  H   UNL A   1      39.408  31.692  33.209  1.00  0.00     0.167 HD
ATOM     53  C   UNL A   1      40.412  28.743  30.088  1.00  0.00     0.037 A 
ATOM     54  C   UNL A   1      39.692  32.968  35.667  1.00  0.00     0.037 A 
ATOM     55  C   UNL A   1      41.417  28.586  31.105  1.00  0.00     0.049 A 
ATOM     56  C   UNL A   1      40.783  31.935  35.579  1.00  0.00     0.074 A 
ATOM     57  C   UNL A   1      42.510  27.741  31.115  1.00  0.00     0.029 A 
ATOM     58  N   UNL A   1      41.445  29.298  32.296  1.00  0.00    -0.354 N 
ATOM     59  N   UNL A   1      41.062  31.106  34.602  1.00  0.00    -0.248 NA
ATOM     60  C   UNL A   1      41.678  31.821  36.739  1.00  0.00     0.031 C 
ATOM     61  C   UNL A   1      43.174  27.905  32.336  1.00  0.00     0.029 A 
ATOM     62  C   UNL A   1      42.523  28.890  33.064  1.00  0.00     0.049 A 
ATOM     63  H   UNL A   1      40.795  29.990  32.557  1.00  0.00     0.167 HD
ATOM     64  C   UNL A   1      42.182  30.395  35.012  1.00  0.00     0.074 A 
ATOM     65  C   UNL A   1      42.536  30.899  36.324  1.00  0.00     0.031 C 
ATOM     66  C   UNL A   1      42.858  29.416  34.362  1.00  0.00     0.037 A 
BRANCH  53  67
ATOM     67  C   UNL A   1      40.441  27.834  28.894  1.00  0.00     0.064 A 
ATOM     68  C   UNL A   1      41.180  28.150  27.744  1.00  0.00     0.173 A 
ATOM     69  C   UNL A   1      39.720  26.631  28.901  1.00  0.00     0.173 A 
ATOM     70  F   UNL A   1      41.871  29.298  27.678  1.00  0.00    -0.203 F 
ATOM     71  C   UNL A   1      41.164  27.315  26.630  1.00  0.00     0.198 A 
ATOM     72  C   UNL A   1      39.734  25.782  27.797  1.00  0.00     0.198 A 
ATOM     73  F   UNL A   1      38.997  26.282  29.975  1.00  0.00    -0.203 F 
ATOM     74  F   UNL A   1      41.825  27.669  25.519  1.00  0.00    -0.200 F 
ATOM     75  C   UNL A   1      40.446  26.129  26.659  1.00  0.00     0.200 A 
ATOM     76  F   UNL A   1      39.046  24.631  27.832  1.00  0.00    -0.200 F 
ATOM     77  F   UNL A   1      40.432  25.325  25.587  1.00  0.00    -0.200 F 
ENDBRANCH  53  67
BRANCH  54  78
ATOM     78  C   UNL A   1      39.580  33.865  36.845  1.00  0.00     0.064 A 
ATOM     79  C   UNL A   1      38.803  33.494  37.952  1.00  0.00     0.173 A 
ATOM     80  C   UNL A   1      40.241  35.099  36.895  1.00  0.00     0.173 A 
ATOM     81  F   UNL A   1      38.139  32.330  37.943  1.00  0.00    -0.203 F 
ATOM     82  C   UNL A   1      38.678  34.332  39.058  1.00  0.00     0.198 A 
ATOM     83  C   UNL A   1      40.135  35.927  38.013  1.00  0.00     0.198 A 
ATOM     84  F   UNL A   1      41.001  35.498  35.866  1.00  0.00    -0.203 F 
ATOM     85  F   UNL A   1      37.899  33.970  40.086  1.00  0.00    -0.200 F 
ATOM     86  C   UNL A   1      39.348  35.545  39.090  1.00  0.00     0.200 A 
ATOM     87  F   UNL A   1      40.797  37.091  38.046  1.00  0.00    -0.200 F 
ATOM     88  F   UNL A   1      39.233  36.350  40.155  1.00  0.00    -0.200 F 
ENDBRANCH  54  78
BRANCH  66  89
ATOM     89  C   UNL A   1      44.068  28.851  35.047  1.00  0.00     0.064 A 
ATOM     90  C   UNL A   1      43.985  27.724  35.876  1.00  0.00     0.173 A 
ATOM     91  C   UNL A   1      45.332  29.422  34.832  1.00  0.00     0.173 A 
ATOM     92  F   UNL A   1      42.797  27.153  36.123  1.00  0.00    -0.203 F 
ATOM     93  C   UNL A   1      45.123  27.202  36.486  1.00  0.00     0.198 A 
ATOM     94  C   UNL A   1      46.471  28.879  35.419  1.00  0.00     0.198 A 
ATOM     95  F   UNL A   1      45.464  30.497  34.041  1.00  0.00    -0.203 F 
ATOM     96  F   UNL A   1      45.015  26.152  37.312  1.00  0.00    -0.200 F 
ATOM     97  C   UNL A   1      46.365  27.774  36.250  1.00  0.00     0.200 A 
ATOM     98  F   UNL A   1      47.671  29.425  35.179  1.00  0.00    -0.200 F 
ATOM     99  F   UNL A   1      47.459  27.265  36.831  1.00  0.00    -0.200 F 
ENDBRANCH  66  89
ENDBRANCH  40  41
ENDBRANCH  32  35
ENDBRANCH  30  31
ENDBRANCH  29  30
ENDBRANCH  28  29
ENDBRANCH   1  28
TORSDOF 16
ENDMDL
MODEL 3
REMARK VINA RESULT:     -11.9      5.952      9.674
REMARK SMILES [NH3+][C@]1(C(=O)NCCCCNC(=O)c2ccc(-c3c4nc(c(-c5c(F)c(F)c(F)c(F)c5F)c5ccc([nH]5)c(-c5c(F)c(F)c(F)c(F)c5F)c5nc(c(-c6c(F)c(F)c(F)c(F)c6F)c6ccc3[nH]6)C=C5)C=C4)cc2)CCC[C@H]1CCSc1ncnc2nc[nH]c12
REMARK SMILES IDX 6 1 5 2 3 3 4 4 2 6 76 7 79 8 77 9 78 10 1 11 80 15 81 16
REMARK SMILES IDX 82 17 83 18 84 19 91 20 85 21 87 22 90 23 86 24 88 25 89 26
REMARK SMILES IDX 7 28 8 29 9 30 10 31 11 32 12 34 13 35 14 36 75 37 15 38
REMARK SMILES IDX 74 39 16 40 17 41 18 42 68 43 19 44 73 45 67 46 69 47 20 48
REMARK SMILES IDX 72 49 66 50 65 51 21 53 53 54 33 55 52 56 34 57 37 58 51 59
REMARK SMILES IDX 70 60 35 61 36 62 50 64 71 65 38 66 22 67 23 68 31 69 24 70
REMARK SMILES IDX 25 71 29 72 32 73 26 74 27 75 30 76 28 77 54 78 55 79 63 80
REMARK SMILES IDX 56 81 57 82 61 83 64 84 58 85 59 86 62 87 60 88 39 89 40 90
REMARK SMILES IDX 48 91 41 92 42 93 46 94 49 95 43 96 44 97 47 98 45 99
REMARK H PARENT 5 5 1 12 1 13 1 14 90 27 10 33 69 52 37 63
REMARK Flexibility Score: inf
ROOT
ATOM      1  C   UNL A   1      33.445  26.256  25.110  1.00  0.00     0.116 C 
ENDROOT
BRANCH   1   2
ATOM      2  N   UNL A   1      33.705  26.825  23.814  1.00  0.00    -0.351 N 
ATOM      3  C   UNL A   1      33.424  26.332  22.588  1.00  0.00     0.281 C 
ATOM      4  O   UNL A   1      34.005  26.876  21.638  1.00  0.00    -0.268 OA
ATOM      5  H   UNL A   1      34.153  27.702  23.823  1.00  0.00     0.163 HD
BRANCH   3   6
ATOM      6  C   UNL A   1      32.332  25.239  22.306  1.00  0.00     0.176 C 
ATOM      7  C   UNL A   1      32.353  23.931  23.121  1.00  0.00     0.079 C 
ATOM      8  C   UNL A   1      30.874  25.776  22.470  1.00  0.00     0.061 C 
ATOM      9  C   UNL A   1      30.902  23.648  23.500  1.00  0.00     0.008 C 
ATOM     10  C   UNL A   1      30.284  25.031  23.663  1.00  0.00     0.011 C 
BRANCH   6  11
ATOM     11  N   UNL A   1      32.530  24.840  20.879  1.00  0.00    -0.345 N 
ATOM     12  H   UNL A   1      32.386  23.834  20.785  1.00  0.00     0.345 HD
ATOM     13  H   UNL A   1      33.477  25.077  20.588  1.00  0.00     0.345 HD
ATOM     14  H   UNL A   1      31.859  25.336  20.292  1.00  0.00     0.345 HD
ENDBRANCH   6  11
BRANCH   8  15
ATOM     15  C   UNL A   1      30.653  27.292  22.421  1.00  0.00     0.022 C 
BRANCH  15  16
ATOM     16  C   UNL A   1      29.692  27.768  23.531  1.00  0.00     0.077 C 
BRANCH  16  17
ATOM     17  S   UNL A   1      28.290  28.648  22.751  1.00  0.00    -0.104 SA
BRANCH  17  18
ATOM     18  C   UNL A   1      28.774  30.352  22.695  1.00  0.00     0.125 A 
ATOM     19  N   UNL A   1      29.191  30.890  23.863  1.00  0.00    -0.228 NA
ATOM     20  C   UNL A   1      28.395  31.240  21.698  1.00  0.00     0.117 A 
ATOM     21  C   UNL A   1      29.160  32.230  24.004  1.00  0.00     0.225 A 
ATOM     22  C   UNL A   1      28.351  32.601  21.961  1.00  0.00     0.181 A 
ATOM     23  N   UNL A   1      28.007  31.168  20.389  1.00  0.00    -0.341 N 
ATOM     24  N   UNL A   1      28.733  33.143  23.127  1.00  0.00    -0.215 NA
ATOM     25  N   UNL A   1      27.850  33.311  20.899  1.00  0.00    -0.217 NA
ATOM     26  C   UNL A   1      27.653  32.415  19.962  1.00  0.00     0.199 A 
ATOM     27  H   UNL A   1      27.985  30.348  19.844  1.00  0.00     0.168 HD
ENDBRANCH  17  18
ENDBRANCH  16  17
ENDBRANCH  15  16
ENDBRANCH   8  15
ENDBRANCH   3   6
ENDBRANCH   1   2
BRANCH   1  28
ATOM     28  C   UNL A   1      32.650  27.250  25.958  1.00  0.00     0.023 C 
BRANCH  28  29
ATOM     29  C   UNL A   1      32.522  28.633  25.329  1.00  0.00     0.023 C 
BRANCH  29  30
ATOM     30  C   UNL A   1      33.636  29.587  25.715  1.00  0.00     0.116 C 
BRANCH  30  31
ATOM     31  N   UNL A   1      33.146  30.828  26.296  1.00  0.00    -0.352 N 
ATOM     32  C   UNL A   1      33.724  31.568  27.299  1.00  0.00     0.251 C 
ATOM     33  H   UNL A   1      32.304  31.179  25.926  1.00  0.00     0.163 HD
ATOM     34  O   UNL A   1      33.190  32.558  27.754  1.00  0.00    -0.269 OA
BRANCH  32  35
ATOM     35  C   UNL A   1      35.001  31.069  27.834  1.00  0.00     0.039 A 
ATOM     36  C   UNL A   1      36.045  31.975  28.003  1.00  0.00     0.014 A 
ATOM     37  C   UNL A   1      35.087  29.753  28.294  1.00  0.00     0.014 A 
ATOM     38  C   UNL A   1      37.184  31.565  28.688  1.00  0.00     0.010 A 
ATOM     39  C   UNL A   1      36.186  29.374  29.048  1.00  0.00     0.010 A 
ATOM     40  C   UNL A   1      37.247  30.274  29.238  1.00  0.00    -0.014 A 
BRANCH  40  41
ATOM     41  C   UNL A   1      38.440  29.830  29.989  1.00  0.00     0.031 A 
ATOM     42  C   UNL A   1      38.651  30.327  31.388  1.00  0.00     0.074 A 
ATOM     43  C   UNL A   1      39.344  29.031  29.393  1.00  0.00     0.049 A 
ATOM     44  N   UNL A   1      39.641  30.091  32.209  1.00  0.00    -0.248 NA
ATOM     45  C   UNL A   1      37.630  31.242  31.924  1.00  0.00     0.031 C 
ATOM     46  C   UNL A   1      39.258  28.532  28.019  1.00  0.00     0.029 A 
ATOM     47  N   UNL A   1      40.512  28.497  29.870  1.00  0.00    -0.354 N 
ATOM     48  C   UNL A   1      39.370  30.841  33.344  1.00  0.00     0.074 A 
ATOM     49  C   UNL A   1      38.160  31.589  33.085  1.00  0.00     0.031 C 
ATOM     50  C   UNL A   1      40.310  27.733  27.777  1.00  0.00     0.029 A 
ATOM     51  C   UNL A   1      41.157  27.692  28.965  1.00  0.00     0.049 A 
ATOM     52  H   UNL A   1      40.856  28.674  30.775  1.00  0.00     0.167 HD
ATOM     53  C   UNL A   1      40.057  30.879  34.509  1.00  0.00     0.037 A 
ATOM     54  C   UNL A   1      42.301  26.993  29.091  1.00  0.00     0.037 A 
ATOM     55  C   UNL A   1      41.237  30.100  34.766  1.00  0.00     0.049 A 
ATOM     56  C   UNL A   1      43.043  27.049  30.400  1.00  0.00     0.074 A 
ATOM     57  C   UNL A   1      41.965  29.995  35.937  1.00  0.00     0.029 A 
ATOM     58  N   UNL A   1      41.861  29.289  33.829  1.00  0.00    -0.354 N 
ATOM     59  N   UNL A   1      42.735  27.694  31.500  1.00  0.00    -0.248 NA
ATOM     60  C   UNL A   1      44.290  26.278  30.484  1.00  0.00     0.031 C 
ATOM     61  C   UNL A   1      43.060  29.158  35.693  1.00  0.00     0.029 A 
ATOM     62  C   UNL A   1      42.985  28.701  34.387  1.00  0.00     0.049 A 
ATOM     63  H   UNL A   1      41.552  29.152  32.904  1.00  0.00     0.167 HD
ATOM     64  C   UNL A   1      43.729  27.382  32.416  1.00  0.00     0.074 A 
ATOM     65  C   UNL A   1      44.645  26.480  31.745  1.00  0.00     0.031 C 
ATOM     66  C   UNL A   1      43.873  27.800  33.698  1.00  0.00     0.037 A 
BRANCH  53  67
ATOM     67  C   UNL A   1      39.545  31.796  35.582  1.00  0.00     0.064 A 
ATOM     68  C   UNL A   1      39.984  33.124  35.689  1.00  0.00     0.173 A 
ATOM     69  C   UNL A   1      38.603  31.339  36.515  1.00  0.00     0.173 A 
ATOM     70  F   UNL A   1      40.899  33.605  34.834  1.00  0.00    -0.203 F 
ATOM     71  C   UNL A   1      39.529  33.949  36.714  1.00  0.00     0.198 A 
ATOM     72  C   UNL A   1      38.124  32.178  37.518  1.00  0.00     0.198 A 
ATOM     73  F   UNL A   1      38.150  30.078  36.458  1.00  0.00    -0.203 F 
ATOM     74  F   UNL A   1      40.011  35.194  36.835  1.00  0.00    -0.200 F 
ATOM     75  C   UNL A   1      38.595  33.478  37.624  1.00  0.00     0.200 A 
ATOM     76  F   UNL A   1      37.214  31.722  38.392  1.00  0.00    -0.200 F 
ATOM     77  F   UNL A   1      38.156  34.273  38.610  1.00  0.00    -0.200 F 
ENDBRANCH  53  67
BRANCH  54  78
ATOM     78  C   UNL A   1      42.783  26.144  27.973  1.00  0.00     0.064 A 
ATOM     79  C   UNL A   1      43.655  26.665  27.006  1.00  0.00     0.173 A 
ATOM     80  C   UNL A   1      42.393  24.804  27.846  1.00  0.00     0.173 A 
ATOM     81  F   UNL A   1      44.042  27.947  27.076  1.00  0.00    -0.203 F 
ATOM     82  C   UNL A   1      44.104  25.883  25.944  1.00  0.00     0.198 A 
ATOM     83  C   UNL A   1      42.863  24.014  26.797  1.00  0.00     0.198 A 
ATOM     84  F   UNL A   1      41.567  24.256  28.748  1.00  0.00    -0.203 F 
ATOM     85  F   UNL A   1      44.905  26.417  25.013  1.00  0.00    -0.200 F 
ATOM     86  C   UNL A   1      43.712  24.557  25.843  1.00  0.00     0.200 A 
ATOM     87  F   UNL A   1      42.494  22.730  26.712  1.00  0.00    -0.200 F 
ATOM     88  F   UNL A   1      44.147  23.802  24.825  1.00  0.00    -0.200 F 
ENDBRANCH  54  78
BRANCH  66  89
ATOM     89  C   UNL A   1      45.042  27.259  34.467  1.00  0.00     0.064 A 
ATOM     90  C   UNL A   1      46.267  27.938  34.517  1.00  0.00     0.173 A 
ATOM     91  C   UNL A   1      44.917  26.067  35.198  1.00  0.00     0.173 A 
ATOM     92  F   UNL A   1      46.439  29.072  33.823  1.00  0.00    -0.203 F 
ATOM     93  C   UNL A   1      47.335  27.431  35.253  1.00  0.00     0.198 A 
ATOM     94  C   UNL A   1      45.977  25.580  35.957  1.00  0.00     0.198 A 
ATOM     95  F   UNL A   1      43.763  25.384  35.187  1.00  0.00    -0.203 F 
ATOM     96  F   UNL A   1      48.512  28.071  35.250  1.00  0.00    -0.200 F 
ATOM     97  C   UNL A   1      47.186  26.257  35.978  1.00  0.00     0.200 A 
ATOM     98  F   UNL A   1      45.826  24.454  36.668  1.00  0.00    -0.200 F 
ATOM     99  F   UNL A   1      48.212  25.776  36.692  1.00  0.00    -0.200 F 
ENDBRANCH  66  89
ENDBRANCH  40  41
ENDBRANCH  32  35
ENDBRANCH  30  31
ENDBRANCH  29  30
ENDBRANCH  28  29
ENDBRANCH   1  28
TORSDOF 16
ENDMDL
