MODEL 1
REMARK VINA RESULT:     -13.0      0.000      0.000
REMARK SMILES C=CC[C@@]1(C(=O)NCCCCNC(=O)c2ccc(-c3c4nc(c(-c5c(F)c(F)c(F)c(F)c5F)c5ccc([nH]5)c(-c5c(F)c(F)c(F)c(F)c5F)c5nc(c(-c6c(F)c(F)c(F)c(F)c6F)c6ccc3[nH]6)C=C5)C=C4)cc2)CCCN(C(=O)c2ccc3c(c2)OCO3)C1
REMARK SMILES IDX 9 1 8 2 7 3 5 4 6 5 4 7 78 8 93 9 79 10 81 11 80 12 3 13
REMARK SMILES IDX 2 14 1 15 82 16 83 17 84 18 85 19 89 20 86 21 88 22 87 23
REMARK SMILES IDX 90 24 92 25 91 26 10 27 11 28 12 29 13 30 14 32 15 33 16 34
REMARK SMILES IDX 77 35 17 36 76 37 18 38 19 39 20 40 70 41 21 42 75 43 69 44
REMARK SMILES IDX 71 45 22 46 74 47 68 48 67 49 23 51 55 52 35 53 54 54 36 55
REMARK SMILES IDX 39 56 53 57 72 58 37 59 38 60 52 62 73 63 40 64 24 65 25 66
REMARK SMILES IDX 33 67 26 68 27 69 31 70 34 71 28 72 29 73 32 74 30 75 56 76
REMARK SMILES IDX 57 77 65 78 58 79 59 80 63 81 66 82 60 83 61 84 64 85 62 86
REMARK SMILES IDX 41 87 42 88 50 89 43 90 44 91 48 92 51 93 45 94 46 95 49 96
REMARK SMILES IDX 47 97
REMARK H PARENT 7 6 12 31 71 50 39 61
REMARK Flexibility Score: inf
ROOT
ATOM      1  C   UNL A   1      31.853  30.688  26.698  1.00  0.00     0.023 C 
ENDROOT
BRANCH   1   2
ATOM      2  C   UNL A   1      31.365  30.101  25.382  1.00  0.00     0.116 C 
BRANCH   2   3
ATOM      3  N   UNL A   1      32.405  29.486  24.591  1.00  0.00    -0.356 N 
ATOM      4  C   UNL A   1      32.343  28.775  23.430  1.00  0.00     0.228 C 
ATOM      5  O   UNL A   1      33.441  28.522  22.931  1.00  0.00    -0.274 OA
ATOM      6  H   UNL A   1      33.314  29.599  24.951  1.00  0.00     0.163 HD
BRANCH   4   7
ATOM      7  C   UNL A   1      31.012  28.222  22.855  1.00  0.00     0.070 C 
ATOM      8  C   UNL A   1      30.156  27.700  24.048  1.00  0.00     0.021 C 
ATOM      9  C   UNL A   1      31.343  27.035  21.906  1.00  0.00     0.137 C 
ATOM     10  C   UNL A   1      30.726  26.432  24.693  1.00  0.00     0.023 C 
ATOM     11  N   UNL A   1      31.802  25.830  22.577  1.00  0.00    -0.338 N 
ATOM     12  C   UNL A   1      30.949  25.339  23.656  1.00  0.00     0.120 C 
BRANCH   7  13
ATOM     13  C   UNL A   1      30.288  29.283  21.953  1.00  0.00     0.045 C 
BRANCH  13  14
ATOM     14  C   UNL A   1      28.883  29.660  22.357  1.00  0.00    -0.034 C 
ATOM     15  C   UNL A   1      28.031  30.368  21.604  1.00  0.00     0.004 C 
ENDBRANCH  13  14
ENDBRANCH   7  13
BRANCH  11  16
ATOM     16  C   UNL A   1      32.973  25.221  22.123  1.00  0.00     0.254 C 
ATOM     17  O   UNL A   1      33.308  25.097  20.951  1.00  0.00    -0.269 OA
BRANCH  16  18
ATOM     18  C   UNL A   1      33.807  24.576  23.143  1.00  0.00     0.043 A 
ATOM     19  C   UNL A   1      34.327  25.316  24.222  1.00  0.00     0.018 A 
ATOM     20  C   UNL A   1      33.905  23.183  23.076  1.00  0.00     0.064 A 
ATOM     21  C   UNL A   1      34.902  24.640  25.300  1.00  0.00     0.051 A 
ATOM     22  C   UNL A   1      34.435  22.554  24.172  1.00  0.00     0.166 A 
ATOM     23  C   UNL A   1      34.906  23.259  25.259  1.00  0.00     0.165 A 
ATOM     24  O   UNL A   1      34.481  21.209  24.359  1.00  0.00    -0.454 OA
ATOM     25  O   UNL A   1      35.300  22.428  26.264  1.00  0.00    -0.454 OA
ATOM     26  C   UNL A   1      34.832  21.161  25.755  1.00  0.00     0.468 C 
ENDBRANCH  16  18
ENDBRANCH  11  16
ENDBRANCH   4   7
ENDBRANCH   2   3
ENDBRANCH   1   2
BRANCH   1  27
ATOM     27  C   UNL A   1      31.598  32.178  26.898  1.00  0.00     0.023 C 
BRANCH  27  28
ATOM     28  C   UNL A   1      32.819  33.017  27.257  1.00  0.00     0.116 C 
BRANCH  28  29
ATOM     29  N   UNL A   1      32.480  34.362  27.696  1.00  0.00    -0.352 N 
ATOM     30  C   UNL A   1      33.018  35.127  28.706  1.00  0.00     0.251 C 
ATOM     31  H   UNL A   1      31.752  34.793  27.192  1.00  0.00     0.163 HD
ATOM     32  O   UNL A   1      32.502  36.191  29.013  1.00  0.00    -0.269 OA
BRANCH  30  33
ATOM     33  C   UNL A   1      34.205  34.642  29.448  1.00  0.00     0.039 A 
ATOM     34  C   UNL A   1      34.021  34.068  30.709  1.00  0.00     0.014 A 
ATOM     35  C   UNL A   1      35.486  34.737  28.902  1.00  0.00     0.014 A 
ATOM     36  C   UNL A   1      35.112  33.510  31.380  1.00  0.00     0.010 A 
ATOM     37  C   UNL A   1      36.554  34.102  29.529  1.00  0.00     0.010 A 
ATOM     38  C   UNL A   1      36.379  33.478  30.775  1.00  0.00    -0.014 A 
BRANCH  38  39
ATOM     39  C   UNL A   1      37.528  32.791  31.419  1.00  0.00     0.031 A 
ATOM     40  C   UNL A   1      38.185  31.619  30.742  1.00  0.00     0.074 A 
ATOM     41  C   UNL A   1      37.931  33.173  32.648  1.00  0.00     0.049 A 
ATOM     42  N   UNL A   1      39.145  30.842  31.176  1.00  0.00    -0.248 NA
ATOM     43  C   UNL A   1      37.677  31.253  29.410  1.00  0.00     0.031 C 
ATOM     44  C   UNL A   1      37.344  34.260  33.433  1.00  0.00     0.029 A 
ATOM     45  N   UNL A   1      38.923  32.680  33.460  1.00  0.00    -0.354 N 
ATOM     46  C   UNL A   1      39.335  29.886  30.188  1.00  0.00     0.074 A 
ATOM     47  C   UNL A   1      38.363  30.149  29.151  1.00  0.00     0.031 C 
ATOM     48  C   UNL A   1      38.001  34.368  34.599  1.00  0.00     0.029 A 
ATOM     49  C   UNL A   1      39.025  33.331  34.667  1.00  0.00     0.049 A 
ATOM     50  H   UNL A   1      39.506  31.929  33.203  1.00  0.00     0.167 HD
ATOM     51  C   UNL A   1      40.252  28.890  30.141  1.00  0.00     0.037 A 
ATOM     52  C   UNL A   1      39.846  33.110  35.711  1.00  0.00     0.037 A 
ATOM     53  C   UNL A   1      41.245  28.657  31.157  1.00  0.00     0.049 A 
ATOM     54  C   UNL A   1      40.854  31.993  35.630  1.00  0.00     0.074 A 
ATOM     55  C   UNL A   1      42.274  27.731  31.157  1.00  0.00     0.029 A 
ATOM     56  N   UNL A   1      41.329  29.349  32.354  1.00  0.00    -0.354 N 
ATOM     57  N   UNL A   1      41.084  31.155  34.649  1.00  0.00    -0.248 NA
ATOM     58  C   UNL A   1      41.718  31.795  36.802  1.00  0.00     0.031 C 
ATOM     59  C   UNL A   1      42.944  27.824  32.381  1.00  0.00     0.029 A 
ATOM     60  C   UNL A   1      42.373  28.849  33.117  1.00  0.00     0.049 A 
ATOM     61  H   UNL A   1      40.735  30.088  32.624  1.00  0.00     0.167 HD
ATOM     62  C   UNL A   1      42.141  30.358  35.068  1.00  0.00     0.074 A 
ATOM     63  C   UNL A   1      42.516  30.822  36.387  1.00  0.00     0.031 C 
ATOM     64  C   UNL A   1      42.747  29.333  34.420  1.00  0.00     0.037 A 
BRANCH  51  65
ATOM     65  C   UNL A   1      40.233  27.972  28.954  1.00  0.00     0.064 A 
ATOM     66  C   UNL A   1      40.964  28.252  27.789  1.00  0.00     0.173 A 
ATOM     67  C   UNL A   1      39.522  26.763  29.004  1.00  0.00     0.173 A 
ATOM     68  F   UNL A   1      41.653  29.399  27.684  1.00  0.00    -0.203 F 
ATOM     69  C   UNL A   1      40.966  27.369  26.713  1.00  0.00     0.198 A 
ATOM     70  C   UNL A   1      39.551  25.867  27.940  1.00  0.00     0.198 A 
ATOM     71  F   UNL A   1      38.811  26.443  30.097  1.00  0.00    -0.203 F 
ATOM     72  F   UNL A   1      41.637  27.678  25.596  1.00  0.00    -0.200 F 
ATOM     73  C   UNL A   1      40.268  26.172  26.793  1.00  0.00     0.200 A 
ATOM     74  F   UNL A   1      38.890  24.704  28.026  1.00  0.00    -0.200 F 
ATOM     75  F   UNL A   1      40.284  25.316  25.763  1.00  0.00    -0.200 F 
ENDBRANCH  51  65
BRANCH  52  76
ATOM     76  C   UNL A   1      39.769  33.969  36.925  1.00  0.00     0.064 A 
ATOM     77  C   UNL A   1      38.957  33.607  38.009  1.00  0.00     0.173 A 
ATOM     78  C   UNL A   1      40.470  35.180  37.012  1.00  0.00     0.173 A 
ATOM     79  F   UNL A   1      38.249  32.469  37.966  1.00  0.00    -0.203 F 
ATOM     80  C   UNL A   1      38.821  34.441  39.118  1.00  0.00     0.198 A 
ATOM     81  C   UNL A   1      40.360  35.997  38.136  1.00  0.00     0.198 A 
ATOM     82  F   UNL A   1      41.264  35.572  36.005  1.00  0.00    -0.203 F 
ATOM     83  F   UNL A   1      37.989  34.100  40.112  1.00  0.00    -0.200 F 
ATOM     84  C   UNL A   1      39.526  35.633  39.183  1.00  0.00     0.200 A 
ATOM     85  F   UNL A   1      41.055  37.141  38.200  1.00  0.00    -0.200 F 
ATOM     86  F   UNL A   1      39.392  36.436  40.247  1.00  0.00    -0.200 F 
ENDBRANCH  52  76
BRANCH  64  87
ATOM     87  C   UNL A   1      43.912  28.675  35.102  1.00  0.00     0.064 A 
ATOM     88  C   UNL A   1      43.747  27.559  35.935  1.00  0.00     0.173 A 
ATOM     89  C   UNL A   1      45.216  29.144  34.883  1.00  0.00     0.173 A 
ATOM     90  F   UNL A   1      42.519  27.081  36.190  1.00  0.00    -0.203 F 
ATOM     91  C   UNL A   1      44.843  26.955  36.547  1.00  0.00     0.198 A 
ATOM     92  C   UNL A   1      46.312  28.516  35.468  1.00  0.00     0.198 A 
ATOM     93  F   UNL A   1      45.430  30.204  34.088  1.00  0.00    -0.203 F 
ATOM     94  F   UNL A   1      44.656  25.923  37.381  1.00  0.00    -0.200 F 
ATOM     95  C   UNL A   1      46.124  27.428  36.306  1.00  0.00     0.200 A 
ATOM     96  F   UNL A   1      47.550  28.966  35.221  1.00  0.00    -0.200 F 
ATOM     97  F   UNL A   1      47.177  26.839  36.888  1.00  0.00    -0.200 F 
ENDBRANCH  64  87
ENDBRANCH  38  39
ENDBRANCH  30  33
ENDBRANCH  28  29
ENDBRANCH  27  28
ENDBRANCH   1  27
TORSDOF 15
ENDMDL
MODEL 2
REMARK VINA RESULT:     -13.0      0.393      7.241
REMARK SMILES C=CC[C@@]1(C(=O)NCCCCNC(=O)c2ccc(-c3c4nc(c(-c5c(F)c(F)c(F)c(F)c5F)c5ccc([nH]5)c(-c5c(F)c(F)c(F)c(F)c5F)c5nc(c(-c6c(F)c(F)c(F)c(F)c6F)c6ccc3[nH]6)C=C5)C=C4)cc2)CCCN(C(=O)c2ccc3c(c2)OCO3)C1
REMARK SMILES IDX 9 1 8 2 7 3 5 4 6 5 4 7 78 8 93 9 79 10 81 11 80 12 3 13
REMARK SMILES IDX 2 14 1 15 82 16 83 17 84 18 85 19 89 20 86 21 88 22 87 23
REMARK SMILES IDX 90 24 92 25 91 26 10 27 11 28 12 29 13 30 14 32 15 33 16 34
REMARK SMILES IDX 77 35 17 36 76 37 18 38 19 39 20 40 70 41 21 42 75 43 69 44
REMARK SMILES IDX 71 45 22 46 74 47 68 48 67 49 23 51 55 52 35 53 54 54 36 55
REMARK SMILES IDX 39 56 53 57 72 58 37 59 38 60 52 62 73 63 40 64 24 65 25 66
REMARK SMILES IDX 33 67 26 68 27 69 31 70 34 71 28 72 29 73 32 74 30 75 56 76
REMARK SMILES IDX 57 77 65 78 58 79 59 80 63 81 66 82 60 83 61 84 64 85 62 86
REMARK SMILES IDX 41 87 42 88 50 89 43 90 44 91 48 92 51 93 45 94 46 95 49 96
REMARK SMILES IDX 47 97
REMARK H PARENT 7 6 12 31 71 50 39 61
REMARK Flexibility Score: inf
ROOT
ATOM      1  C   UNL A   1      31.811  30.774  26.694  1.00  0.00     0.023 C 
ENDROOT
BRANCH   1   2
ATOM      2  C   UNL A   1      31.385  30.258  25.328  1.00  0.00     0.116 C 
BRANCH   2   3
ATOM      3  N   UNL A   1      32.425  29.553  24.615  1.00  0.00    -0.356 N 
ATOM      4  C   UNL A   1      32.372  28.763  23.507  1.00  0.00     0.228 C 
ATOM      5  O   UNL A   1      33.475  28.439  23.062  1.00  0.00    -0.274 OA
ATOM      6  H   UNL A   1      33.328  29.662  24.995  1.00  0.00     0.163 HD
BRANCH   4   7
ATOM      7  C   UNL A   1      31.040  28.214  22.931  1.00  0.00     0.070 C 
ATOM      8  C   UNL A   1      30.188  27.682  24.122  1.00  0.00     0.021 C 
ATOM      9  C   UNL A   1      31.368  27.036  21.971  1.00  0.00     0.137 C 
ATOM     10  C   UNL A   1      30.761  26.408  24.755  1.00  0.00     0.023 C 
ATOM     11  N   UNL A   1      31.831  25.825  22.630  1.00  0.00    -0.338 N 
ATOM     12  C   UNL A   1      30.982  25.324  23.708  1.00  0.00     0.120 C 
BRANCH   7  13
ATOM     13  C   UNL A   1      30.312  29.283  22.040  1.00  0.00     0.045 C 
BRANCH  13  14
ATOM     14  C   UNL A   1      28.843  29.495  22.314  1.00  0.00    -0.034 C 
ATOM     15  C   UNL A   1      28.042  30.315  21.620  1.00  0.00     0.004 C 
ENDBRANCH  13  14
ENDBRANCH   7  13
BRANCH  11  16
ATOM     16  C   UNL A   1      33.001  25.221  22.167  1.00  0.00     0.254 C 
ATOM     17  O   UNL A   1      33.350  25.140  20.995  1.00  0.00    -0.269 OA
BRANCH  16  18
ATOM     18  C   UNL A   1      33.815  24.527  23.171  1.00  0.00     0.043 A 
ATOM     19  C   UNL A   1      34.391  25.234  24.244  1.00  0.00     0.018 A 
ATOM     20  C   UNL A   1      33.835  23.131  23.099  1.00  0.00     0.064 A 
ATOM     21  C   UNL A   1      34.946  24.522  25.311  1.00  0.00     0.051 A 
ATOM     22  C   UNL A   1      34.347  22.470  24.183  1.00  0.00     0.166 A 
ATOM     23  C   UNL A   1      34.874  23.143  25.265  1.00  0.00     0.165 A 
ATOM     24  O   UNL A   1      34.322  21.123  24.365  1.00  0.00    -0.454 OA
ATOM     25  O   UNL A   1      35.237  22.288  26.261  1.00  0.00    -0.454 OA
ATOM     26  C   UNL A   1      34.693  21.050  25.755  1.00  0.00     0.468 C 
ENDBRANCH  16  18
ENDBRANCH  11  16
ENDBRANCH   4   7
ENDBRANCH   2   3
ENDBRANCH   1   2
BRANCH   1  27
ATOM     27  C   UNL A   1      31.553  32.254  26.956  1.00  0.00     0.023 C 
BRANCH  27  28
ATOM     28  C   UNL A   1      32.790  33.111  27.195  1.00  0.00     0.116 C 
BRANCH  28  29
ATOM     29  N   UNL A   1      32.482  34.424  27.740  1.00  0.00    -0.352 N 
ATOM     30  C   UNL A   1      33.026  35.089  28.815  1.00  0.00     0.251 C 
ATOM     31  H   UNL A   1      31.772  34.914  27.264  1.00  0.00     0.163 HD
ATOM     32  O   UNL A   1      32.534  36.137  29.203  1.00  0.00    -0.269 OA
BRANCH  30  33
ATOM     33  C   UNL A   1      34.190  34.512  29.528  1.00  0.00     0.039 A 
ATOM     34  C   UNL A   1      33.973  33.837  30.732  1.00  0.00     0.014 A 
ATOM     35  C   UNL A   1      35.480  34.621  29.008  1.00  0.00     0.014 A 
ATOM     36  C   UNL A   1      35.040  33.196  31.367  1.00  0.00     0.010 A 
ATOM     37  C   UNL A   1      36.524  33.907  29.592  1.00  0.00     0.010 A 
ATOM     38  C   UNL A   1      36.315  33.184  30.777  1.00  0.00    -0.014 A 
BRANCH  38  39
ATOM     39  C   UNL A   1      37.438  32.416  31.375  1.00  0.00     0.031 A 
ATOM     40  C   UNL A   1      37.962  32.780  32.737  1.00  0.00     0.074 A 
ATOM     41  C   UNL A   1      38.036  31.442  30.660  1.00  0.00     0.049 A 
ATOM     42  N   UNL A   1      38.981  32.283  33.394  1.00  0.00    -0.248 NA
ATOM     43  C   UNL A   1      37.267  33.866  33.447  1.00  0.00     0.031 C 
ATOM     44  C   UNL A   1      37.656  31.027  29.309  1.00  0.00     0.029 A 
ATOM     45  N   UNL A   1      39.100  30.629  30.967  1.00  0.00    -0.354 N 
ATOM     46  C   UNL A   1      39.063  33.011  34.573  1.00  0.00     0.074 A 
ATOM     47  C   UNL A   1      38.022  34.014  34.526  1.00  0.00     0.031 C 
ATOM     48  C   UNL A   1      38.456  30.024  28.913  1.00  0.00     0.029 A 
ATOM     49  C   UNL A   1      39.435  29.753  29.962  1.00  0.00     0.049 A 
ATOM     50  H   UNL A   1      39.580  30.671  31.826  1.00  0.00     0.167 HD
ATOM     51  C   UNL A   1      39.917  32.845  35.611  1.00  0.00     0.037 A 
ATOM     52  C   UNL A   1      40.424  28.842  29.890  1.00  0.00     0.037 A 
ATOM     53  C   UNL A   1      40.926  31.820  35.671  1.00  0.00     0.049 A 
ATOM     54  C   UNL A   1      41.360  28.682  31.060  1.00  0.00     0.074 A 
ATOM     55  C   UNL A   1      41.779  31.513  36.716  1.00  0.00     0.029 A 
ATOM     56  N   UNL A   1      41.221  30.939  34.642  1.00  0.00    -0.354 N 
ATOM     57  N   UNL A   1      41.367  29.314  32.208  1.00  0.00    -0.248 NA
ATOM     58  C   UNL A   1      42.423  27.677  30.924  1.00  0.00     0.031 C 
ATOM     59  C   UNL A   1      42.631  30.485  36.298  1.00  0.00     0.029 A 
ATOM     60  C   UNL A   1      42.267  30.110  35.016  1.00  0.00     0.049 A 
ATOM     61  H   UNL A   1      40.757  30.907  33.774  1.00  0.00     0.167 HD
ATOM     62  C   UNL A   1      42.407  28.760  32.942  1.00  0.00     0.074 A 
ATOM     63  C   UNL A   1      42.999  27.730  32.116  1.00  0.00     0.031 C 
ATOM     64  C   UNL A   1      42.833  29.076  34.190  1.00  0.00     0.037 A 
BRANCH  51  65
ATOM     65  C   UNL A   1      39.805  33.788  36.772  1.00  0.00     0.064 A 
ATOM     66  C   UNL A   1      40.479  35.019  36.794  1.00  0.00     0.173 A 
ATOM     67  C   UNL A   1      38.962  33.486  37.853  1.00  0.00     0.173 A 
ATOM     68  F   UNL A   1      41.306  35.354  35.791  1.00  0.00    -0.203 F 
ATOM     69  C   UNL A   1      40.331  35.899  37.862  1.00  0.00     0.198 A 
ATOM     70  C   UNL A   1      38.791  34.381  38.904  1.00  0.00     0.198 A 
ATOM     71  F   UNL A   1      38.289  32.325  37.880  1.00  0.00    -0.203 F 
ATOM     72  F   UNL A   1      41.017  37.050  37.880  1.00  0.00    -0.200 F 
ATOM     73  C   UNL A   1      39.480  35.585  38.912  1.00  0.00     0.200 A 
ATOM     74  F   UNL A   1      37.955  34.083  39.909  1.00  0.00    -0.200 F 
ATOM     75  F   UNL A   1      39.326  36.441  39.931  1.00  0.00    -0.200 F 
ENDBRANCH  51  65
BRANCH  52  76
ATOM     76  C   UNL A   1      40.580  27.992  28.678  1.00  0.00     0.064 A 
ATOM     77  C   UNL A   1      41.354  28.427  27.592  1.00  0.00     0.173 A 
ATOM     78  C   UNL A   1      39.934  26.754  28.562  1.00  0.00     0.173 A 
ATOM     79  F   UNL A   1      41.975  29.614  27.645  1.00  0.00    -0.203 F 
ATOM     80  C   UNL A   1      41.446  27.672  26.425  1.00  0.00     0.198 A 
ATOM     81  C   UNL A   1      40.055  25.983  27.406  1.00  0.00     0.198 A 
ATOM     82  F   UNL A   1      39.185  26.288  29.572  1.00  0.00    -0.203 F 
ATOM     83  F   UNL A   1      42.141  28.142  25.379  1.00  0.00    -0.200 F 
ATOM     84  C   UNL A   1      40.800  26.449  26.334  1.00  0.00     0.200 A 
ATOM     85  F   UNL A   1      39.440  24.795  27.329  1.00  0.00    -0.200 F 
ATOM     86  F   UNL A   1      40.886  25.725  25.209  1.00  0.00    -0.200 F 
ENDBRANCH  52  76
BRANCH  64  87
ATOM     87  C   UNL A   1      43.962  28.266  34.760  1.00  0.00     0.064 A 
ATOM     88  C   UNL A   1      45.299  28.676  34.643  1.00  0.00     0.173 A 
ATOM     89  C   UNL A   1      43.697  27.085  35.470  1.00  0.00     0.173 A 
ATOM     90  F   UNL A   1      45.608  29.789  33.961  1.00  0.00    -0.203 F 
ATOM     91  C   UNL A   1      46.330  27.917  35.193  1.00  0.00     0.198 A 
ATOM     92  C   UNL A   1      44.728  26.348  36.048  1.00  0.00     0.198 A 
ATOM     93  F   UNL A   1      42.436  26.653  35.618  1.00  0.00    -0.203 F 
ATOM     94  F   UNL A   1      47.603  28.301  35.023  1.00  0.00    -0.200 F 
ATOM     95  C   UNL A   1      46.044  26.760  35.901  1.00  0.00     0.200 A 
ATOM     96  F   UNL A   1      44.446  25.239  36.745  1.00  0.00    -0.200 F 
ATOM     97  F   UNL A   1      47.036  26.038  36.436  1.00  0.00    -0.200 F 
ENDBRANCH  64  87
ENDBRANCH  38  39
ENDBRANCH  30  33
ENDBRANCH  28  29
ENDBRANCH  27  28
ENDBRANCH   1  27
TORSDOF 15
ENDMDL
MODEL 3
REMARK VINA RESULT:     -12.9      0.571      1.281
REMARK SMILES C=CC[C@@]1(C(=O)NCCCCNC(=O)c2ccc(-c3c4nc(c(-c5c(F)c(F)c(F)c(F)c5F)c5ccc([nH]5)c(-c5c(F)c(F)c(F)c(F)c5F)c5nc(c(-c6c(F)c(F)c(F)c(F)c6F)c6ccc3[nH]6)C=C5)C=C4)cc2)CCCN(C(=O)c2ccc3c(c2)OCO3)C1
REMARK SMILES IDX 9 1 8 2 7 3 5 4 6 5 4 7 78 8 93 9 79 10 81 11 80 12 3 13
REMARK SMILES IDX 2 14 1 15 82 16 83 17 84 18 85 19 89 20 86 21 88 22 87 23
REMARK SMILES IDX 90 24 92 25 91 26 10 27 11 28 12 29 13 30 14 32 15 33 16 34
REMARK SMILES IDX 77 35 17 36 76 37 18 38 19 39 20 40 70 41 21 42 75 43 69 44
REMARK SMILES IDX 71 45 22 46 74 47 68 48 67 49 23 51 55 52 35 53 54 54 36 55
REMARK SMILES IDX 39 56 53 57 72 58 37 59 38 60 52 62 73 63 40 64 24 65 25 66
REMARK SMILES IDX 33 67 26 68 27 69 31 70 34 71 28 72 29 73 32 74 30 75 56 76
REMARK SMILES IDX 57 77 65 78 58 79 59 80 63 81 66 82 60 83 61 84 64 85 62 86
REMARK SMILES IDX 41 87 42 88 50 89 43 90 44 91 48 92 51 93 45 94 46 95 49 96
REMARK SMILES IDX 47 97
REMARK H PARENT 7 6 12 31 71 50 39 61
REMARK Flexibility Score: inf
ROOT
ATOM      1  C   UNL A   1      31.659  30.853  25.763  1.00  0.00     0.023 C 
ENDROOT
BRANCH   1   2
ATOM      2  C   UNL A   1      31.792  29.388  26.151  1.00  0.00     0.116 C 
BRANCH   2   3
ATOM      3  N   UNL A   1      32.732  28.649  25.342  1.00  0.00    -0.356 N 
ATOM      4  C   UNL A   1      32.605  28.096  24.103  1.00  0.00     0.228 C 
ATOM      5  O   UNL A   1      33.658  27.664  23.630  1.00  0.00    -0.274 OA
ATOM      6  H   UNL A   1      33.617  28.522  25.755  1.00  0.00     0.163 HD
BRANCH   4   7
ATOM      7  C   UNL A   1      31.232  27.910  23.405  1.00  0.00     0.070 C 
ATOM      8  C   UNL A   1      30.267  27.230  24.421  1.00  0.00     0.021 C 
ATOM      9  C   UNL A   1      31.428  26.973  22.180  1.00  0.00     0.137 C 
ATOM     10  C   UNL A   1      30.627  25.769  24.714  1.00  0.00     0.023 C 
ATOM     11  N   UNL A   1      31.687  25.582  22.513  1.00  0.00    -0.338 N 
ATOM     12  C   UNL A   1      30.733  24.959  23.428  1.00  0.00     0.120 C 
BRANCH   7  13
ATOM     13  C   UNL A   1      30.700  29.262  22.810  1.00  0.00     0.045 C 
BRANCH  13  14
ATOM     14  C   UNL A   1      29.265  29.612  23.121  1.00  0.00    -0.034 C 
ATOM     15  C   UNL A   1      28.822  30.839  23.429  1.00  0.00     0.004 C 
ENDBRANCH  13  14
ENDBRANCH   7  13
BRANCH  11  16
ATOM     16  C   UNL A   1      32.777  24.946  21.916  1.00  0.00     0.254 C 
ATOM     17  O   UNL A   1      33.171  25.127  20.770  1.00  0.00    -0.269 OA
BRANCH  16  18
ATOM     18  C   UNL A   1      33.423  23.889  22.702  1.00  0.00     0.043 A 
ATOM     19  C   UNL A   1      34.451  24.195  23.614  1.00  0.00     0.018 A 
ATOM     20  C   UNL A   1      32.849  22.616  22.622  1.00  0.00     0.064 A 
ATOM     21  C   UNL A   1      34.873  23.220  24.520  1.00  0.00     0.051 A 
ATOM     22  C   UNL A   1      33.258  21.702  23.555  1.00  0.00     0.166 A 
ATOM     23  C   UNL A   1      34.230  21.997  24.488  1.00  0.00     0.165 A 
ATOM     24  O   UNL A   1      32.719  20.467  23.734  1.00  0.00    -0.454 OA
ATOM     25  O   UNL A   1      34.409  20.975  25.369  1.00  0.00    -0.454 OA
ATOM     26  C   UNL A   1      33.309  20.115  24.999  1.00  0.00     0.468 C 
ENDBRANCH  16  18
ENDBRANCH  11  16
ENDBRANCH   4   7
ENDBRANCH   2   3
ENDBRANCH   1   2
BRANCH   1  27
ATOM     27  C   UNL A   1      31.477  31.834  26.917  1.00  0.00     0.023 C 
BRANCH  27  28
ATOM     28  C   UNL A   1      32.712  32.639  27.304  1.00  0.00     0.116 C 
BRANCH  28  29
ATOM     29  N   UNL A   1      32.413  34.027  27.623  1.00  0.00    -0.352 N 
ATOM     30  C   UNL A   1      32.986  34.866  28.553  1.00  0.00     0.251 C 
ATOM     31  H   UNL A   1      31.689  34.429  27.091  1.00  0.00     0.163 HD
ATOM     32  O   UNL A   1      32.500  35.966  28.769  1.00  0.00    -0.269 OA
BRANCH  30  33
ATOM     33  C   UNL A   1      34.171  34.419  29.321  1.00  0.00     0.039 A 
ATOM     34  C   UNL A   1      33.978  33.842  30.579  1.00  0.00     0.014 A 
ATOM     35  C   UNL A   1      35.459  34.552  28.802  1.00  0.00     0.014 A 
ATOM     36  C   UNL A   1      35.070  33.318  31.275  1.00  0.00     0.010 A 
ATOM     37  C   UNL A   1      36.533  33.951  29.453  1.00  0.00     0.010 A 
ATOM     38  C   UNL A   1      36.350  33.325  30.696  1.00  0.00    -0.014 A 
BRANCH  38  39
ATOM     39  C   UNL A   1      37.507  32.675  31.367  1.00  0.00     0.031 A 
ATOM     40  C   UNL A   1      38.210  31.519  30.709  1.00  0.00     0.074 A 
ATOM     41  C   UNL A   1      37.874  33.074  32.601  1.00  0.00     0.049 A 
ATOM     42  N   UNL A   1      39.184  30.772  31.166  1.00  0.00    -0.248 NA
ATOM     43  C   UNL A   1      37.738  31.131  29.369  1.00  0.00     0.031 C 
ATOM     44  C   UNL A   1      37.242  34.148  33.368  1.00  0.00     0.029 A 
ATOM     45  N   UNL A   1      38.865  32.614  33.434  1.00  0.00    -0.354 N 
ATOM     46  C   UNL A   1      39.420  29.816  30.187  1.00  0.00     0.074 A 
ATOM     47  C   UNL A   1      38.460  30.046  29.130  1.00  0.00     0.031 C 
ATOM     48  C   UNL A   1      37.873  34.282  34.545  1.00  0.00     0.029 A 
ATOM     49  C   UNL A   1      38.926  33.275  34.638  1.00  0.00     0.049 A 
ATOM     50  H   UNL A   1      39.474  31.880  33.192  1.00  0.00     0.167 HD
ATOM     51  C   UNL A   1      40.366  28.847  30.163  1.00  0.00     0.037 A 
ATOM     52  C   UNL A   1      39.732  33.083  35.700  1.00  0.00     0.037 A 
ATOM     53  C   UNL A   1      41.345  28.648  31.199  1.00  0.00     0.049 A 
ATOM     54  C   UNL A   1      40.773  31.995  35.644  1.00  0.00     0.074 A 
ATOM     55  C   UNL A   1      42.400  27.753  31.224  1.00  0.00     0.029 A 
ATOM     56  N   UNL A   1      41.387  29.349  32.394  1.00  0.00    -0.354 N 
ATOM     57  N   UNL A   1      41.046  31.160  34.672  1.00  0.00    -0.248 NA
ATOM     58  C   UNL A   1      41.620  31.829  36.833  1.00  0.00     0.031 C 
ATOM     59  C   UNL A   1      43.044  27.871  32.460  1.00  0.00     0.029 A 
ATOM     60  C   UNL A   1      42.429  28.884  33.179  1.00  0.00     0.049 A 
ATOM     61  H   UNL A   1      40.767  30.071  32.647  1.00  0.00     0.167 HD
ATOM     62  C   UNL A   1      42.117  30.395  35.117  1.00  0.00     0.074 A 
ATOM     63  C   UNL A   1      42.453  30.877  36.439  1.00  0.00     0.031 C 
ATOM     64  C   UNL A   1      42.764  29.385  34.486  1.00  0.00     0.037 A 
BRANCH  51  65
ATOM     65  C   UNL A   1      40.396  27.923  28.981  1.00  0.00     0.064 A 
ATOM     66  C   UNL A   1      39.659  26.729  28.956  1.00  0.00     0.173 A 
ATOM     67  C   UNL A   1      41.124  28.266  27.831  1.00  0.00     0.173 A 
ATOM     68  F   UNL A   1      38.953  26.348  30.033  1.00  0.00    -0.203 F 
ATOM     69  C   UNL A   1      39.667  25.904  27.835  1.00  0.00     0.198 A 
ATOM     70  C   UNL A   1      41.104  27.455  26.701  1.00  0.00     0.198 A 
ATOM     71  F   UNL A   1      41.841  29.400  27.799  1.00  0.00    -0.203 F 
ATOM     72  F   UNL A   1      38.989  24.748  27.851  1.00  0.00    -0.200 F 
ATOM     73  C   UNL A   1      40.382  26.272  26.704  1.00  0.00     0.200 A 
ATOM     74  F   UNL A   1      41.782  27.821  25.603  1.00  0.00    -0.200 F 
ATOM     75  F   UNL A   1      40.375  25.484  25.620  1.00  0.00    -0.200 F 
ENDBRANCH  51  65
BRANCH  52  76
ATOM     76  C   UNL A   1      39.607  33.946  36.907  1.00  0.00     0.064 A 
ATOM     77  C   UNL A   1      38.833  33.539  38.003  1.00  0.00     0.173 A 
ATOM     78  C   UNL A   1      40.222  35.204  36.975  1.00  0.00     0.173 A 
ATOM     79  F   UNL A   1      38.207  32.354  37.977  1.00  0.00    -0.203 F 
ATOM     80  C   UNL A   1      38.651  34.371  39.106  1.00  0.00     0.198 A 
ATOM     81  C   UNL A   1      40.066  36.022  38.094  1.00  0.00     0.198 A 
ATOM     82  F   UNL A   1      40.977  35.641  35.957  1.00  0.00    -0.203 F 
ATOM     83  F   UNL A   1      37.854  33.982  40.111  1.00  0.00    -0.200 F 
ATOM     84  C   UNL A   1      39.271  35.611  39.152  1.00  0.00     0.200 A 
ATOM     85  F   UNL A   1      40.679  37.213  38.140  1.00  0.00    -0.200 F 
ATOM     86  F   UNL A   1      39.092  36.412  40.210  1.00  0.00    -0.200 F 
ENDBRANCH  52  76
BRANCH  64  87
ATOM     87  C   UNL A   1      43.934  28.765  35.194  1.00  0.00     0.064 A 
ATOM     88  C   UNL A   1      43.786  27.649  36.031  1.00  0.00     0.173 A 
ATOM     89  C   UNL A   1      45.229  29.270  34.996  1.00  0.00     0.173 A 
ATOM     90  F   UNL A   1      42.568  27.137  36.265  1.00  0.00    -0.203 F 
ATOM     91  C   UNL A   1      44.887  27.080  36.667  1.00  0.00     0.198 A 
ATOM     92  C   UNL A   1      46.331  28.677  35.606  1.00  0.00     0.198 A 
ATOM     93  F   UNL A   1      45.428  30.330  34.199  1.00  0.00    -0.203 F 
ATOM     94  F   UNL A   1      44.714  26.048  37.503  1.00  0.00    -0.200 F 
ATOM     95  C   UNL A   1      46.158  27.588  36.447  1.00  0.00     0.200 A 
ATOM     96  F   UNL A   1      47.561  29.161  35.379  1.00  0.00    -0.200 F 
ATOM     97  F   UNL A   1      47.217  27.034  37.052  1.00  0.00    -0.200 F 
ENDBRANCH  64  87
ENDBRANCH  38  39
ENDBRANCH  30  33
ENDBRANCH  28  29
ENDBRANCH  27  28
ENDBRANCH   1  27
TORSDOF 15
ENDMDL
