MODEL 1
REMARK VINA RESULT:     -11.9      0.000      0.000
REMARK SMILES O=C(NCCCCNC(=O)c1cn(C2CN(C(=O)c3c[nH]nn3)C2)nn1)c1ccc(-c2c3nc(c(-c4c(F)c(F)c(F)c(F)c4F)c4ccc([nH]4)c(-c4c(F)c(F)c(F)c(F)c4F)c4nc(c(-c5c(F)c(F)c(F)c(F)c5F)c5ccc2[nH]5)C=C4)C=C3)cc1
REMARK SMILES IDX 5 1 4 2 3 3 1 4 2 5 27 7 28 8 89 9 29 10 88 11 30 12 31 13
REMARK SMILES IDX 32 14 82 15 33 16 87 17 81 18 83 19 34 20 86 21 80 22 79 23
REMARK SMILES IDX 35 25 67 26 47 27 66 28 48 29 51 30 65 31 84 32 49 33 50 34
REMARK SMILES IDX 64 36 85 37 52 38 36 39 37 40 45 41 38 42 39 43 43 44 46 45
REMARK SMILES IDX 40 46 41 47 44 48 42 49 68 50 69 51 77 52 70 53 71 54 75 55
REMARK SMILES IDX 78 56 72 57 73 58 76 59 74 60 53 61 54 62 62 63 55 64 56 65
REMARK SMILES IDX 60 66 63 67 57 68 58 69 61 70 59 71 6 72 7 73 8 74 9 75
REMARK SMILES IDX 10 77 11 78 12 79 26 80 13 81 25 82 14 83 15 84 24 85 16 86
REMARK SMILES IDX 17 87 18 88 19 89 20 90 23 91 21 92 22 93
REMARK H PARENT 3 6 83 24 51 35 8 76 21 94
REMARK Flexibility Score: inf
ROOT
ATOM      1  C   UNL A   1      40.944  20.931  27.431  1.00  0.00     0.023 C 
ENDROOT
BRANCH   1   2
ATOM      2  C   UNL A   1      40.872  21.905  26.265  1.00  0.00     0.116 C 
BRANCH   2   3
ATOM      3  N   UNL A   1      39.514  22.180  25.821  1.00  0.00    -0.352 N 
ATOM      4  O   UNL A   1      37.545  23.285  25.735  1.00  0.00    -0.269 OA
ATOM      5  C   UNL A   1      38.713  23.262  26.107  1.00  0.00     0.251 C 
ATOM      6  H   UNL A   1      39.112  21.499  25.236  1.00  0.00     0.163 HD
BRANCH   5   7
ATOM      7  C   UNL A   1      39.259  24.387  26.899  1.00  0.00     0.039 A 
ATOM      8  C   UNL A   1      38.977  24.499  28.260  1.00  0.00     0.014 A 
ATOM      9  C   UNL A   1      40.051  25.350  26.265  1.00  0.00     0.014 A 
ATOM     10  C   UNL A   1      39.344  25.649  28.946  1.00  0.00     0.010 A 
ATOM     11  C   UNL A   1      40.503  26.462  26.983  1.00  0.00     0.010 A 
ATOM     12  C   UNL A   1      40.125  26.636  28.322  1.00  0.00    -0.014 A 
BRANCH  12  13
ATOM     13  C   UNL A   1      40.584  27.796  29.129  1.00  0.00     0.031 A 
ATOM     14  C   UNL A   1      42.007  27.914  29.600  1.00  0.00     0.074 A 
ATOM     15  C   UNL A   1      39.703  28.784  29.379  1.00  0.00     0.049 A 
ATOM     16  N   UNL A   1      42.577  28.896  30.255  1.00  0.00    -0.248 NA
ATOM     17  C   UNL A   1      42.907  26.789  29.310  1.00  0.00     0.031 C 
ATOM     18  C   UNL A   1      38.290  28.765  28.989  1.00  0.00     0.029 A 
ATOM     19  N   UNL A   1      39.862  30.002  29.988  1.00  0.00    -0.354 N 
ATOM     20  C   UNL A   1      43.893  28.506  30.461  1.00  0.00     0.074 A 
ATOM     21  C   UNL A   1      44.034  27.184  29.888  1.00  0.00     0.031 C 
ATOM     22  C   UNL A   1      37.729  29.938  29.313  1.00  0.00     0.029 A 
ATOM     23  C   UNL A   1      38.721  30.765  29.988  1.00  0.00     0.049 A 
ATOM     24  H   UNL A   1      40.712  30.299  30.387  1.00  0.00     0.167 HD
ATOM     25  C   UNL A   1      44.891  29.195  31.065  1.00  0.00     0.037 A 
ATOM     26  C   UNL A   1      38.493  31.994  30.487  1.00  0.00     0.037 A 
ATOM     27  C   UNL A   1      44.747  30.516  31.624  1.00  0.00     0.049 A 
ATOM     28  C   UNL A   1      39.620  32.727  31.154  1.00  0.00     0.074 A 
ATOM     29  C   UNL A   1      45.706  31.302  32.242  1.00  0.00     0.029 A 
ATOM     30  N   UNL A   1      43.569  31.248  31.631  1.00  0.00    -0.354 N 
ATOM     31  N   UNL A   1      40.865  32.354  31.319  1.00  0.00    -0.248 NA
ATOM     32  C   UNL A   1      39.309  34.052  31.706  1.00  0.00     0.031 C 
ATOM     33  C   UNL A   1      45.098  32.493  32.657  1.00  0.00     0.029 A 
ATOM     34  C   UNL A   1      43.772  32.469  32.257  1.00  0.00     0.049 A 
ATOM     35  H   UNL A   1      42.714  30.945  31.249  1.00  0.00     0.167 HD
ATOM     36  C   UNL A   1      41.487  33.396  31.990  1.00  0.00     0.074 A 
ATOM     37  C   UNL A   1      40.491  34.433  32.166  1.00  0.00     0.031 C 
ATOM     38  C   UNL A   1      42.766  33.483  32.431  1.00  0.00     0.037 A 
BRANCH  25  39
ATOM     39  C   UNL A   1      46.239  28.539  31.164  1.00  0.00     0.064 A 
ATOM     40  C   UNL A   1      46.578  27.724  32.254  1.00  0.00     0.173 A 
ATOM     41  C   UNL A   1      47.171  28.663  30.123  1.00  0.00     0.173 A 
ATOM     42  F   UNL A   1      45.727  27.579  33.281  1.00  0.00    -0.203 F 
ATOM     43  C   UNL A   1      47.804  27.064  32.301  1.00  0.00     0.198 A 
ATOM     44  C   UNL A   1      48.386  27.983  30.162  1.00  0.00     0.198 A 
ATOM     45  F   UNL A   1      46.893  29.425  29.054  1.00  0.00    -0.203 F 
ATOM     46  F   UNL A   1      48.118  26.310  33.364  1.00  0.00    -0.200 F 
ATOM     47  C   UNL A   1      48.702  27.186  31.251  1.00  0.00     0.200 A 
ATOM     48  F   UNL A   1      49.247  28.093  29.140  1.00  0.00    -0.200 F 
ATOM     49  F   UNL A   1      49.875  26.538  31.291  1.00  0.00    -0.200 F 
ENDBRANCH  25  39
BRANCH  26  50
ATOM     50  C   UNL A   1      37.139  32.595  30.383  1.00  0.00     0.064 A 
ATOM     51  C   UNL A   1      36.187  32.419  31.395  1.00  0.00     0.173 A 
ATOM     52  C   UNL A   1      36.772  33.362  29.267  1.00  0.00     0.173 A 
ATOM     53  F   UNL A   1      36.485  31.680  32.474  1.00  0.00    -0.203 F 
ATOM     54  C   UNL A   1      34.912  32.968  31.285  1.00  0.00     0.198 A 
ATOM     55  C   UNL A   1      35.509  33.938  29.173  1.00  0.00     0.198 A 
ATOM     56  F   UNL A   1      37.651  33.567  28.273  1.00  0.00    -0.203 F 
ATOM     57  F   UNL A   1      34.004  32.745  32.245  1.00  0.00    -0.200 F 
ATOM     58  C   UNL A   1      34.576  33.733  30.178  1.00  0.00     0.200 A 
ATOM     59  F   UNL A   1      35.196  34.692  28.110  1.00  0.00    -0.200 F 
ATOM     60  F   UNL A   1      33.351  34.266  30.076  1.00  0.00    -0.200 F 
ENDBRANCH  26  50
BRANCH  38  61
ATOM     61  C   UNL A   1      43.149  34.747  33.140  1.00  0.00     0.064 A 
ATOM     62  C   UNL A   1      43.606  35.871  32.435  1.00  0.00     0.173 A 
ATOM     63  C   UNL A   1      43.059  34.838  34.537  1.00  0.00     0.173 A 
ATOM     64  F   UNL A   1      43.727  35.826  31.099  1.00  0.00    -0.203 F 
ATOM     65  C   UNL A   1      43.993  37.027  33.105  1.00  0.00     0.198 A 
ATOM     66  C   UNL A   1      43.420  36.006  35.202  1.00  0.00     0.198 A 
ATOM     67  F   UNL A   1      42.625  33.793  35.256  1.00  0.00    -0.203 F 
ATOM     68  F   UNL A   1      44.482  38.067  32.417  1.00  0.00    -0.200 F 
ATOM     69  C   UNL A   1      43.895  37.096  34.487  1.00  0.00     0.200 A 
ATOM     70  F   UNL A   1      43.317  36.075  36.537  1.00  0.00    -0.200 F 
ATOM     71  F   UNL A   1      44.273  38.208  35.132  1.00  0.00    -0.200 F 
ENDBRANCH  38  61
ENDBRANCH  12  13
ENDBRANCH   5   7
ENDBRANCH   2   3
ENDBRANCH   1   2
BRANCH   1  72
ATOM     72  C   UNL A   1      41.891  19.748  27.238  1.00  0.00     0.023 C 
BRANCH  72  73
ATOM     73  C   UNL A   1      42.108  19.320  25.788  1.00  0.00     0.116 C 
BRANCH  73  74
ATOM     74  N   UNL A   1      43.343  18.575  25.603  1.00  0.00    -0.351 N 
ATOM     75  C   UNL A   1      44.565  19.010  25.139  1.00  0.00     0.273 C 
ATOM     76  H   UNL A   1      43.300  17.622  25.846  1.00  0.00     0.163 HD
ATOM     77  O   UNL A   1      45.435  18.175  24.897  1.00  0.00    -0.267 OA
BRANCH  75  78
ATOM     78  C   UNL A   1      44.767  20.434  24.949  1.00  0.00     0.170 A 
ATOM     79  C   UNL A   1      45.282  21.353  25.845  1.00  0.00     0.145 A 
ATOM     80  N   UNL A   1      44.438  21.088  23.789  1.00  0.00    -0.125 NA
ATOM     81  N   UNL A   1      45.083  22.555  25.230  1.00  0.00    -0.245 N 
ATOM     82  N   UNL A   1      44.626  22.387  23.979  1.00  0.00    -0.066 NA
BRANCH  81  83
ATOM     83  C   UNL A   1      45.198  23.861  25.802  1.00  0.00     0.148 C 
ATOM     84  C   UNL A   1      46.185  24.793  25.057  1.00  0.00     0.149 C 
ATOM     85  C   UNL A   1      44.093  24.841  25.354  1.00  0.00     0.149 C 
ATOM     86  N   UNL A   1      45.162  25.806  25.214  1.00  0.00    -0.333 N 
ATOM     87  C   UNL A   1      45.245  27.164  25.057  1.00  0.00     0.276 C 
ATOM     88  O   UNL A   1      46.286  27.699  24.676  1.00  0.00    -0.267 OA
BRANCH  87  89
ATOM     89  C   UNL A   1      44.051  27.927  25.384  1.00  0.00     0.170 A 
ATOM     90  C   UNL A   1      43.837  28.768  26.460  1.00  0.00     0.141 A 
ATOM     91  N   UNL A   1      42.943  27.967  24.573  1.00  0.00    -0.125 NA
ATOM     92  N   UNL A   1      42.588  29.267  26.248  1.00  0.00    -0.265 N 
ATOM     93  N   UNL A   1      42.045  28.769  25.131  1.00  0.00    -0.069 NA
ATOM     94  H   UNL A   1      42.143  29.914  26.841  1.00  0.00     0.191 HD
ENDBRANCH  87  89
ENDBRANCH  81  83
ENDBRANCH  75  78
ENDBRANCH  73  74
ENDBRANCH  72  73
ENDBRANCH   1  72
TORSDOF 13
ENDMDL
MODEL 2
REMARK VINA RESULT:     -11.6      4.106     11.413
REMARK SMILES O=C(NCCCCNC(=O)c1cn(C2CN(C(=O)c3c[nH]nn3)C2)nn1)c1ccc(-c2c3nc(c(-c4c(F)c(F)c(F)c(F)c4F)c4ccc([nH]4)c(-c4c(F)c(F)c(F)c(F)c4F)c4nc(c(-c5c(F)c(F)c(F)c(F)c5F)c5ccc2[nH]5)C=C4)C=C3)cc1
REMARK SMILES IDX 5 1 4 2 3 3 1 4 2 5 27 7 28 8 89 9 29 10 88 11 30 12 31 13
REMARK SMILES IDX 32 14 82 15 33 16 87 17 81 18 83 19 34 20 86 21 80 22 79 23
REMARK SMILES IDX 35 25 67 26 47 27 66 28 48 29 51 30 65 31 84 32 49 33 50 34
REMARK SMILES IDX 64 36 85 37 52 38 36 39 37 40 45 41 38 42 39 43 43 44 46 45
REMARK SMILES IDX 40 46 41 47 44 48 42 49 68 50 69 51 77 52 70 53 71 54 75 55
REMARK SMILES IDX 78 56 72 57 73 58 76 59 74 60 53 61 54 62 62 63 55 64 56 65
REMARK SMILES IDX 60 66 63 67 57 68 58 69 61 70 59 71 6 72 7 73 8 74 9 75
REMARK SMILES IDX 10 77 11 78 12 79 26 80 13 81 25 82 14 83 15 84 24 85 16 86
REMARK SMILES IDX 17 87 18 88 19 89 20 90 23 91 21 92 22 93
REMARK H PARENT 3 6 83 24 51 35 8 76 21 94
REMARK Flexibility Score: inf
ROOT
ATOM      1  C   UNL A   1      34.126  33.425  29.235  1.00  0.00     0.023 C 
ENDROOT
BRANCH   1   2
ATOM      2  C   UNL A   1      34.597  32.667  28.002  1.00  0.00     0.116 C 
BRANCH   2   3
ATOM      3  N   UNL A   1      33.907  31.403  27.798  1.00  0.00    -0.352 N 
ATOM      4  O   UNL A   1      33.712  29.168  27.528  1.00  0.00    -0.269 OA
ATOM      5  C   UNL A   1      34.417  30.124  27.830  1.00  0.00     0.251 C 
ATOM      6  H   UNL A   1      32.943  31.470  27.611  1.00  0.00     0.163 HD
BRANCH   5   7
ATOM      7  C   UNL A   1      35.834  29.912  28.200  1.00  0.00     0.039 A 
ATOM      8  C   UNL A   1      36.845  30.070  27.251  1.00  0.00     0.014 A 
ATOM      9  C   UNL A   1      36.152  29.534  29.508  1.00  0.00     0.014 A 
ATOM     10  C   UNL A   1      38.144  29.694  27.563  1.00  0.00     0.010 A 
ATOM     11  C   UNL A   1      37.479  29.249  29.847  1.00  0.00     0.010 A 
ATOM     12  C   UNL A   1      38.481  29.295  28.867  1.00  0.00    -0.014 A 
BRANCH  12  13
ATOM     13  C   UNL A   1      39.905  29.008  29.179  1.00  0.00     0.031 A 
ATOM     14  C   UNL A   1      40.721  29.922  30.049  1.00  0.00     0.074 A 
ATOM     15  C   UNL A   1      40.438  27.863  28.710  1.00  0.00     0.049 A 
ATOM     16  N   UNL A   1      41.955  29.773  30.467  1.00  0.00    -0.248 NA
ATOM     17  C   UNL A   1      40.081  31.163  30.507  1.00  0.00     0.031 C 
ATOM     18  C   UNL A   1      39.745  26.911  27.837  1.00  0.00     0.029 A 
ATOM     19  N   UNL A   1      41.665  27.287  28.920  1.00  0.00    -0.354 N 
ATOM     20  C   UNL A   1      42.240  30.901  31.225  1.00  0.00     0.074 A 
ATOM     21  C   UNL A   1      41.062  31.741  31.189  1.00  0.00     0.031 C 
ATOM     22  C   UNL A   1      40.531  25.845  27.637  1.00  0.00     0.029 A 
ATOM     23  C   UNL A   1      41.804  26.064  28.312  1.00  0.00     0.049 A 
ATOM     24  H   UNL A   1      42.375  27.710  29.455  1.00  0.00     0.167 HD
ATOM     25  C   UNL A   1      43.379  31.198  31.896  1.00  0.00     0.037 A 
ATOM     26  C   UNL A   1      42.847  25.214  28.290  1.00  0.00     0.037 A 
ATOM     27  C   UNL A   1      44.546  30.352  31.938  1.00  0.00     0.049 A 
ATOM     28  C   UNL A   1      44.095  25.577  29.041  1.00  0.00     0.074 A 
ATOM     29  C   UNL A   1      45.742  30.561  32.604  1.00  0.00     0.029 A 
ATOM     30  N   UNL A   1      44.662  29.133  31.286  1.00  0.00    -0.354 N 
ATOM     31  N   UNL A   1      44.340  26.636  29.772  1.00  0.00    -0.248 NA
ATOM     32  C   UNL A   1      45.212  24.628  28.959  1.00  0.00     0.031 C 
ATOM     33  C   UNL A   1      46.594  29.487  32.325  1.00  0.00     0.029 A 
ATOM     34  C   UNL A   1      45.914  28.586  31.521  1.00  0.00     0.049 A 
ATOM     35  H   UNL A   1      43.958  28.717  30.737  1.00  0.00     0.167 HD
ATOM     36  C   UNL A   1      45.636  26.480  30.242  1.00  0.00     0.074 A 
ATOM     37  C   UNL A   1      46.110  25.206  29.743  1.00  0.00     0.031 C 
ATOM     38  C   UNL A   1      46.372  27.322  31.008  1.00  0.00     0.037 A 
BRANCH  25  39
ATOM     39  C   UNL A   1      43.435  32.499  32.645  1.00  0.00     0.064 A 
ATOM     40  C   UNL A   1      43.858  33.684  32.025  1.00  0.00     0.173 A 
ATOM     41  C   UNL A   1      42.987  32.578  33.973  1.00  0.00     0.173 A 
ATOM     42  F   UNL A   1      44.305  33.662  30.760  1.00  0.00    -0.203 F 
ATOM     43  C   UNL A   1      43.838  34.897  32.709  1.00  0.00     0.198 A 
ATOM     44  C   UNL A   1      42.946  33.796  34.646  1.00  0.00     0.198 A 
ATOM     45  F   UNL A   1      42.565  31.475  34.610  1.00  0.00    -0.203 F 
ATOM     46  F   UNL A   1      44.271  36.013  32.105  1.00  0.00    -0.200 F 
ATOM     47  C   UNL A   1      43.373  34.954  34.015  1.00  0.00     0.200 A 
ATOM     48  F   UNL A   1      42.485  33.851  35.904  1.00  0.00    -0.200 F 
ATOM     49  F   UNL A   1      43.341  36.125  34.666  1.00  0.00    -0.200 F 
ENDBRANCH  25  39
BRANCH  26  50
ATOM     50  C   UNL A   1      42.754  23.948  27.520  1.00  0.00     0.064 A 
ATOM     51  C   UNL A   1      43.137  23.886  26.174  1.00  0.00     0.173 A 
ATOM     52  C   UNL A   1      42.280  22.770  28.119  1.00  0.00     0.173 A 
ATOM     53  F   UNL A   1      43.580  24.990  25.553  1.00  0.00    -0.203 F 
ATOM     54  C   UNL A   1      43.030  22.701  25.450  1.00  0.00     0.198 A 
ATOM     55  C   UNL A   1      42.205  21.579  27.403  1.00  0.00     0.198 A 
ATOM     56  F   UNL A   1      41.908  22.775  29.408  1.00  0.00    -0.203 F 
ATOM     57  F   UNL A   1      43.358  22.682  24.151  1.00  0.00    -0.200 F 
ATOM     58  C   UNL A   1      42.570  21.548  26.067  1.00  0.00     0.200 A 
ATOM     59  F   UNL A   1      41.779  20.462  28.009  1.00  0.00    -0.200 F 
ATOM     60  F   UNL A   1      42.473  20.406  25.370  1.00  0.00    -0.200 F 
ENDBRANCH  26  50
BRANCH  38  61
ATOM     61  C   UNL A   1      47.762  26.878  31.351  1.00  0.00     0.064 A 
ATOM     62  C   UNL A   1      48.002  25.952  32.377  1.00  0.00     0.173 A 
ATOM     63  C   UNL A   1      48.866  27.383  30.648  1.00  0.00     0.173 A 
ATOM     64  F   UNL A   1      46.979  25.455  33.090  1.00  0.00    -0.203 F 
ATOM     65  C   UNL A   1      49.299  25.575  32.711  1.00  0.00     0.198 A 
ATOM     66  C   UNL A   1      50.160  26.982  30.965  1.00  0.00     0.198 A 
ATOM     67  F   UNL A   1      48.689  28.268  29.656  1.00  0.00    -0.203 F 
ATOM     68  F   UNL A   1      49.508  24.734  33.733  1.00  0.00    -0.200 F 
ATOM     69  C   UNL A   1      50.376  26.086  32.002  1.00  0.00     0.200 A 
ATOM     70  F   UNL A   1      51.200  27.469  30.275  1.00  0.00    -0.200 F 
ATOM     71  F   UNL A   1      51.625  25.725  32.327  1.00  0.00    -0.200 F 
ENDBRANCH  38  61
ENDBRANCH  12  13
ENDBRANCH   5   7
ENDBRANCH   2   3
ENDBRANCH   1   2
BRANCH   1  72
ATOM     72  C   UNL A   1      33.182  34.594  28.965  1.00  0.00     0.023 C 
BRANCH  72  73
ATOM     73  C   UNL A   1      33.710  35.965  29.385  1.00  0.00     0.116 C 
BRANCH  73  74
ATOM     74  N   UNL A   1      32.875  36.600  30.392  1.00  0.00    -0.351 N 
ATOM     75  C   UNL A   1      32.685  36.258  31.713  1.00  0.00     0.273 C 
ATOM     76  H   UNL A   1      32.372  37.390  30.086  1.00  0.00     0.163 HD
ATOM     77  O   UNL A   1      31.800  36.828  32.349  1.00  0.00    -0.267 OA
BRANCH  75  78
ATOM     78  C   UNL A   1      33.534  35.234  32.292  1.00  0.00     0.170 A 
ATOM     79  C   UNL A   1      34.910  35.241  32.434  1.00  0.00     0.145 A 
ATOM     80  N   UNL A   1      33.048  34.051  32.788  1.00  0.00    -0.125 NA
ATOM     81  N   UNL A   1      35.200  33.979  32.864  1.00  0.00    -0.245 N 
ATOM     82  N   UNL A   1      34.079  33.289  33.125  1.00  0.00    -0.066 NA
BRANCH  81  83
ATOM     83  C   UNL A   1      36.484  33.352  32.939  1.00  0.00     0.148 C 
ATOM     84  C   UNL A   1      37.031  33.200  34.380  1.00  0.00     0.149 C 
ATOM     85  C   UNL A   1      36.432  31.810  32.904  1.00  0.00     0.149 C 
ATOM     86  N   UNL A   1      37.412  31.865  33.967  1.00  0.00    -0.333 N 
ATOM     87  C   UNL A   1      38.262  30.974  34.567  1.00  0.00     0.276 C 
ATOM     88  O   UNL A   1      38.791  31.227  35.648  1.00  0.00    -0.267 OA
BRANCH  87  89
ATOM     89  C   UNL A   1      38.513  29.736  33.847  1.00  0.00     0.170 A 
ATOM     90  C   UNL A   1      39.728  29.180  33.492  1.00  0.00     0.141 A 
ATOM     91  N   UNL A   1      37.514  28.872  33.471  1.00  0.00    -0.125 NA
ATOM     92  N   UNL A   1      39.395  28.002  32.899  1.00  0.00    -0.265 N 
ATOM     93  N   UNL A   1      38.068  27.829  32.865  1.00  0.00    -0.069 NA
ATOM     94  H   UNL A   1      40.047  27.357  32.542  1.00  0.00     0.191 HD
ENDBRANCH  87  89
ENDBRANCH  81  83
ENDBRANCH  75  78
ENDBRANCH  73  74
ENDBRANCH  72  73
ENDBRANCH   1  72
TORSDOF 13
ENDMDL
MODEL 3
REMARK VINA RESULT:     -11.5      4.063     10.470
REMARK SMILES O=C(NCCCCNC(=O)c1cn(C2CN(C(=O)c3c[nH]nn3)C2)nn1)c1ccc(-c2c3nc(c(-c4c(F)c(F)c(F)c(F)c4F)c4ccc([nH]4)c(-c4c(F)c(F)c(F)c(F)c4F)c4nc(c(-c5c(F)c(F)c(F)c(F)c5F)c5ccc2[nH]5)C=C4)C=C3)cc1
REMARK SMILES IDX 5 1 4 2 3 3 1 4 2 5 27 7 28 8 89 9 29 10 88 11 30 12 31 13
REMARK SMILES IDX 32 14 82 15 33 16 87 17 81 18 83 19 34 20 86 21 80 22 79 23
REMARK SMILES IDX 35 25 67 26 47 27 66 28 48 29 51 30 65 31 84 32 49 33 50 34
REMARK SMILES IDX 64 36 85 37 52 38 36 39 37 40 45 41 38 42 39 43 43 44 46 45
REMARK SMILES IDX 40 46 41 47 44 48 42 49 68 50 69 51 77 52 70 53 71 54 75 55
REMARK SMILES IDX 78 56 72 57 73 58 76 59 74 60 53 61 54 62 62 63 55 64 56 65
REMARK SMILES IDX 60 66 63 67 57 68 58 69 61 70 59 71 6 72 7 73 8 74 9 75
REMARK SMILES IDX 10 77 11 78 12 79 26 80 13 81 25 82 14 83 15 84 24 85 16 86
REMARK SMILES IDX 17 87 18 88 19 89 20 90 23 91 21 92 22 93
REMARK H PARENT 3 6 83 24 51 35 8 76 21 94
REMARK Flexibility Score: inf
ROOT
ATOM      1  C   UNL A   1      34.267  33.505  29.300  1.00  0.00     0.023 C 
ENDROOT
BRANCH   1   2
ATOM      2  C   UNL A   1      34.563  32.811  27.979  1.00  0.00     0.116 C 
BRANCH   2   3
ATOM      3  N   UNL A   1      33.775  31.606  27.767  1.00  0.00    -0.352 N 
ATOM      4  O   UNL A   1      33.408  29.400  27.442  1.00  0.00    -0.269 OA
ATOM      5  C   UNL A   1      34.191  30.294  27.743  1.00  0.00     0.251 C 
ATOM      6  H   UNL A   1      32.813  31.748  27.618  1.00  0.00     0.163 HD
BRANCH   5   7
ATOM      7  C   UNL A   1      35.601  29.969  28.053  1.00  0.00     0.039 A 
ATOM      8  C   UNL A   1      35.969  29.556  29.334  1.00  0.00     0.014 A 
ATOM      9  C   UNL A   1      36.570  30.096  27.052  1.00  0.00     0.014 A 
ATOM     10  C   UNL A   1      37.314  29.430  29.656  1.00  0.00     0.010 A 
ATOM     11  C   UNL A   1      37.917  29.873  27.354  1.00  0.00     0.010 A 
ATOM     12  C   UNL A   1      38.303  29.571  28.668  1.00  0.00    -0.014 A 
BRANCH  12  13
ATOM     13  C   UNL A   1      39.719  29.319  29.038  1.00  0.00     0.031 A 
ATOM     14  C   UNL A   1      40.446  28.085  28.580  1.00  0.00     0.074 A 
ATOM     15  C   UNL A   1      40.366  30.263  29.749  1.00  0.00     0.049 A 
ATOM     16  N   UNL A   1      41.702  27.756  28.764  1.00  0.00    -0.248 NA
ATOM     17  C   UNL A   1      39.671  27.089  27.827  1.00  0.00     0.031 C 
ATOM     18  C   UNL A   1      39.754  31.490  30.265  1.00  0.00     0.029 A 
ATOM     19  N   UNL A   1      41.678  30.359  30.135  1.00  0.00    -0.354 N 
ATOM     20  C   UNL A   1      41.864  26.516  28.160  1.00  0.00     0.074 A 
ATOM     21  C   UNL A   1      40.573  26.136  27.627  1.00  0.00     0.031 C 
ATOM     22  C   UNL A   1      40.699  32.242  30.846  1.00  0.00     0.029 A 
ATOM     23  C   UNL A   1      41.967  31.526  30.799  1.00  0.00     0.049 A 
ATOM     24  H   UNL A   1      42.347  29.660  29.954  1.00  0.00     0.167 HD
ATOM     25  C   UNL A   1      42.991  25.772  28.054  1.00  0.00     0.037 A 
ATOM     26  C   UNL A   1      43.124  31.968  31.324  1.00  0.00     0.037 A 
ATOM     27  C   UNL A   1      44.278  26.162  28.577  1.00  0.00     0.049 A 
ATOM     28  C   UNL A   1      44.353  31.117  31.192  1.00  0.00     0.074 A 
ATOM     29  C   UNL A   1      45.482  25.482  28.505  1.00  0.00     0.029 A 
ATOM     30  N   UNL A   1      44.526  27.338  29.269  1.00  0.00    -0.354 N 
ATOM     31  N   UNL A   1      44.495  29.958  30.597  1.00  0.00    -0.248 NA
ATOM     32  C   UNL A   1      45.582  31.634  31.808  1.00  0.00     0.031 C 
ATOM     33  C   UNL A   1      46.450  26.229  29.185  1.00  0.00     0.029 A 
ATOM     34  C   UNL A   1      45.860  27.395  29.643  1.00  0.00     0.049 A 
ATOM     35  H   UNL A   1      43.854  28.030  29.466  1.00  0.00     0.167 HD
ATOM     36  C   UNL A   1      45.827  29.609  30.762  1.00  0.00     0.074 A 
ATOM     37  C   UNL A   1      46.459  30.696  31.480  1.00  0.00     0.031 C 
ATOM     38  C   UNL A   1      46.468  28.482  30.365  1.00  0.00     0.037 A 
BRANCH  25  39
ATOM     39  C   UNL A   1      42.898  24.450  27.347  1.00  0.00     0.064 A 
ATOM     40  C   UNL A   1      43.224  24.321  25.989  1.00  0.00     0.173 A 
ATOM     41  C   UNL A   1      42.556  23.287  28.054  1.00  0.00     0.173 A 
ATOM     42  F   UNL A   1      43.548  25.403  25.266  1.00  0.00    -0.203 F 
ATOM     43  C   UNL A   1      43.201  23.077  25.362  1.00  0.00     0.198 A 
ATOM     44  C   UNL A   1      42.557  22.041  27.430  1.00  0.00     0.198 A 
ATOM     45  F   UNL A   1      42.242  23.355  29.356  1.00  0.00    -0.203 F 
ATOM     46  F   UNL A   1      43.491  22.979  24.057  1.00  0.00    -0.200 F 
ATOM     47  C   UNL A   1      42.878  21.937  26.085  1.00  0.00     0.200 A 
ATOM     48  F   UNL A   1      42.256  20.940  28.133  1.00  0.00    -0.200 F 
ATOM     49  F   UNL A   1      42.872  20.739  25.484  1.00  0.00    -0.200 F 
ENDBRANCH  25  39
BRANCH  26  50
ATOM     50  C   UNL A   1      43.165  33.273  32.031  1.00  0.00     0.064 A 
ATOM     51  C   UNL A   1      43.384  34.469  31.335  1.00  0.00     0.173 A 
ATOM     52  C   UNL A   1      42.983  33.351  33.420  1.00  0.00     0.173 A 
ATOM     53  F   UNL A   1      43.580  34.445  30.008  1.00  0.00    -0.203 F 
ATOM     54  C   UNL A   1      43.441  35.690  32.003  1.00  0.00     0.198 A 
ATOM     55  C   UNL A   1      43.008  34.574  34.083  1.00  0.00     0.198 A 
ATOM     56  F   UNL A   1      42.763  32.235  34.132  1.00  0.00    -0.203 F 
ATOM     57  F   UNL A   1      43.700  36.813  31.319  1.00  0.00    -0.200 F 
ATOM     58  C   UNL A   1      43.246  35.742  33.375  1.00  0.00     0.200 A 
ATOM     59  F   UNL A   1      42.799  34.622  35.406  1.00  0.00    -0.200 F 
ATOM     60  F   UNL A   1      43.295  36.918  34.016  1.00  0.00    -0.200 F 
ENDBRANCH  26  50
BRANCH  38  61
ATOM     61  C   UNL A   1      47.926  28.383  30.700  1.00  0.00     0.064 A 
ATOM     62  C   UNL A   1      48.912  28.856  29.821  1.00  0.00     0.173 A 
ATOM     63  C   UNL A   1      48.343  27.811  31.911  1.00  0.00     0.173 A 
ATOM     64  F   UNL A   1      48.562  29.395  28.642  1.00  0.00    -0.203 F 
ATOM     65  C   UNL A   1      50.263  28.727  30.125  1.00  0.00     0.198 A 
ATOM     66  C   UNL A   1      49.695  27.710  32.225  1.00  0.00     0.198 A 
ATOM     67  F   UNL A   1      47.440  27.347  32.787  1.00  0.00    -0.203 F 
ATOM     68  F   UNL A   1      51.188  29.133  29.244  1.00  0.00    -0.200 F 
ATOM     69  C   UNL A   1      50.654  28.159  31.328  1.00  0.00     0.200 A 
ATOM     70  F   UNL A   1      50.072  27.168  33.391  1.00  0.00    -0.200 F 
ATOM     71  F   UNL A   1      51.956  28.031  31.618  1.00  0.00    -0.200 F 
ENDBRANCH  38  61
ENDBRANCH  12  13
ENDBRANCH   5   7
ENDBRANCH   2   3
ENDBRANCH   1   2
BRANCH   1  72
ATOM     72  C   UNL A   1      33.203  34.599  29.241  1.00  0.00     0.023 C 
BRANCH  72  73
ATOM     73  C   UNL A   1      33.725  36.023  29.422  1.00  0.00     0.116 C 
BRANCH  73  74
ATOM     74  N   UNL A   1      33.017  36.751  30.462  1.00  0.00    -0.351 N 
ATOM     75  C   UNL A   1      32.879  36.451  31.800  1.00  0.00     0.273 C 
ATOM     76  H   UNL A   1      32.571  37.579  30.169  1.00  0.00     0.163 HD
ATOM     77  O   UNL A   1      32.092  37.111  32.475  1.00  0.00    -0.267 OA
BRANCH  75  78
ATOM     78  C   UNL A   1      33.665  35.362  32.350  1.00  0.00     0.170 A 
ATOM     79  C   UNL A   1      35.027  35.322  32.582  1.00  0.00     0.145 A 
ATOM     80  N   UNL A   1      33.120  34.158  32.717  1.00  0.00    -0.125 NA
ATOM     81  N   UNL A   1      35.261  34.023  32.929  1.00  0.00    -0.245 N 
ATOM     82  N   UNL A   1      34.110  33.344  33.059  1.00  0.00    -0.066 NA
BRANCH  81  83
ATOM     83  C   UNL A   1      36.523  33.358  33.037  1.00  0.00     0.148 C 
ATOM     84  C   UNL A   1      36.946  33.038  34.492  1.00  0.00     0.149 C 
ATOM     85  C   UNL A   1      36.446  31.830  32.831  1.00  0.00     0.149 C 
ATOM     86  N   UNL A   1      37.337  31.745  33.968  1.00  0.00    -0.333 N 
ATOM     87  C   UNL A   1      38.118  30.773  34.534  1.00  0.00     0.276 C 
ATOM     88  O   UNL A   1      38.560  30.895  35.676  1.00  0.00    -0.267 OA
BRANCH  87  89
ATOM     89  C   UNL A   1      38.406  29.612  33.706  1.00  0.00     0.170 A 
ATOM     90  C   UNL A   1      39.607  29.249  33.126  1.00  0.00     0.141 A 
ATOM     91  N   UNL A   1      37.481  28.632  33.443  1.00  0.00    -0.125 NA
ATOM     92  N   UNL A   1      39.338  28.060  32.521  1.00  0.00    -0.265 N 
ATOM     93  N   UNL A   1      38.059  27.703  32.691  1.00  0.00    -0.069 NA
ATOM     94  H   UNL A   1      40.000  27.529  32.023  1.00  0.00     0.191 HD
ENDBRANCH  87  89
ENDBRANCH  81  83
ENDBRANCH  75  78
ENDBRANCH  73  74
ENDBRANCH  72  73
ENDBRANCH   1  72
TORSDOF 13
ENDMDL
