MODEL 1
REMARK VINA RESULT:     -11.9      0.000      0.000
REMARK SMILES CCN(CC(C)(C)O)C(=O)[C@H]1CC=CC[C@H]1C(=O)NCCCCNC(=O)c1ccc(-c2c3nc(c(-c4c(F)c(F)c(F)c(F)c4F)c4ccc([nH]4)c(-c4c(F)c(F)c(F)c(F)c4F)c4nc(c(-c5c(F)c(F)c(F)c(F)c5F)c5ccc2[nH]5)C=C4)C=C3)cc1
REMARK SMILES IDX 20 1 19 2 17 3 18 4 16 6 11 7 12 8 13 9 15 10 14 11 9 12
REMARK SMILES IDX 10 13 3 14 2 15 1 16 4 17 5 18 6 19 7 20 8 21 21 23 22 24
REMARK SMILES IDX 23 25 24 26 25 27 26 29 27 30 28 31 89 32 29 33 88 34 30 35
REMARK SMILES IDX 31 36 32 37 82 38 33 39 87 40 81 41 83 42 34 43 86 44 80 45
REMARK SMILES IDX 79 46 35 48 67 49 47 50 66 51 48 52 51 53 65 54 84 55 49 56
REMARK SMILES IDX 50 57 64 59 85 60 52 61 36 62 37 63 45 64 38 65 39 66 43 67
REMARK SMILES IDX 46 68 40 69 41 70 44 71 42 72 68 73 69 74 77 75 70 76 71 77
REMARK SMILES IDX 75 78 78 79 72 80 73 81 76 82 74 83 53 84 54 85 62 86 55 87
REMARK SMILES IDX 56 88 60 89 63 90 57 91 58 92 61 93 59 94
REMARK H PARENT 19 5 8 22 24 28 83 47 51 58
REMARK Flexibility Score: inf
ROOT
ATOM      1  C   UNL A   1      35.054  24.266  24.601  1.00  0.00     0.116 C 
ENDROOT
BRANCH   1   2
ATOM      2  N   UNL A   1      33.581  24.386  24.666  1.00  0.00    -0.356 N 
ATOM      3  C   UNL A   1      32.625  25.090  25.318  1.00  0.00     0.224 C 
ATOM      4  O   UNL A   1      31.516  24.525  25.305  1.00  0.00    -0.275 OA
ATOM      5  H   UNL A   1      33.163  23.756  24.035  1.00  0.00     0.163 HD
BRANCH   3   6
ATOM      6  C   UNL A   1      32.711  26.443  26.045  1.00  0.00     0.095 C 
ATOM      7  C   UNL A   1      33.646  27.566  25.498  1.00  0.00     0.095 C 
ATOM      8  C   UNL A   1      34.038  28.520  26.653  1.00  0.00     0.041 C 
ATOM      9  C   UNL A   1      32.895  28.839  27.576  1.00  0.00    -0.030 C 
ATOM     10  C   UNL A   1      31.443  26.973  26.702  1.00  0.00     0.041 C 
ATOM     11  C   UNL A   1      31.730  28.169  27.579  1.00  0.00    -0.030 C 
BRANCH   7  12
ATOM     12  C   UNL A   1      33.023  28.401  24.373  1.00  0.00     0.226 C 
ATOM     13  O   UNL A   1      33.182  29.621  24.305  1.00  0.00    -0.275 OA
BRANCH  12  14
ATOM     14  N   UNL A   1      32.233  27.735  23.449  1.00  0.00    -0.340 N 
BRANCH  14  15
ATOM     15  C   UNL A   1      32.923  26.997  22.374  1.00  0.00     0.116 C 
ATOM     16  C   UNL A   1      32.058  25.906  21.711  1.00  0.00     0.027 C 
ENDBRANCH  14  15
BRANCH  14  17
ATOM     17  C   UNL A   1      30.766  27.761  23.523  1.00  0.00     0.154 C 
BRANCH  17  18
ATOM     18  C   UNL A   1      29.919  28.875  22.892  1.00  0.00     0.077 C 
ATOM     19  C   UNL A   1      28.473  28.411  22.753  1.00  0.00     0.043 C 
ATOM     20  C   UNL A   1      30.003  30.083  23.849  1.00  0.00     0.043 C 
BRANCH  18  21
ATOM     21  O   UNL A   1      30.432  29.290  21.631  1.00  0.00    -0.389 OA
ATOM     22  H   UNL A   1      30.167  30.208  21.461  1.00  0.00     0.211 HD
ENDBRANCH  18  21
ENDBRANCH  17  18
ENDBRANCH  14  17
ENDBRANCH  12  14
ENDBRANCH   7  12
ENDBRANCH   3   6
ENDBRANCH   1   2
BRANCH   1  23
ATOM     23  C   UNL A   1      35.433  23.047  23.720  1.00  0.00     0.023 C 
BRANCH  23  24
ATOM     24  C   UNL A   1      36.665  22.180  23.910  1.00  0.00     0.023 C 
BRANCH  24  25
ATOM     25  C   UNL A   1      37.211  21.984  25.293  1.00  0.00     0.116 C 
BRANCH  25  26
ATOM     26  N   UNL A   1      38.288  21.010  25.406  1.00  0.00    -0.352 N 
ATOM     27  C   UNL A   1      39.463  21.138  26.130  1.00  0.00     0.251 C 
ATOM     28  H   UNL A   1      38.168  20.166  24.911  1.00  0.00     0.163 HD
ATOM     29  O   UNL A   1      40.320  20.261  26.116  1.00  0.00    -0.269 OA
BRANCH  27  30
ATOM     30  C   UNL A   1      39.698  22.406  26.862  1.00  0.00     0.039 A 
ATOM     31  C   UNL A   1      40.791  22.507  27.724  1.00  0.00     0.014 A 
ATOM     32  C   UNL A   1      38.984  23.544  26.497  1.00  0.00     0.014 A 
ATOM     33  C   UNL A   1      41.259  23.773  28.093  1.00  0.00     0.010 A 
ATOM     34  C   UNL A   1      39.554  24.789  26.720  1.00  0.00     0.010 A 
ATOM     35  C   UNL A   1      40.699  24.929  27.522  1.00  0.00    -0.014 A 
BRANCH  35  36
ATOM     36  C   UNL A   1      41.269  26.290  27.743  1.00  0.00     0.031 A 
ATOM     37  C   UNL A   1      42.648  26.611  27.216  1.00  0.00     0.074 A 
ATOM     38  C   UNL A   1      40.623  27.200  28.506  1.00  0.00     0.049 A 
ATOM     39  N   UNL A   1      43.403  27.656  27.439  1.00  0.00    -0.248 NA
ATOM     40  C   UNL A   1      43.295  25.581  26.385  1.00  0.00     0.031 C 
ATOM     41  C   UNL A   1      39.333  27.001  29.171  1.00  0.00     0.029 A 
ATOM     42  N   UNL A   1      40.975  28.481  28.863  1.00  0.00    -0.354 N 
ATOM     43  C   UNL A   1      44.624  27.371  26.840  1.00  0.00     0.074 A 
ATOM     44  C   UNL A   1      44.537  26.032  26.311  1.00  0.00     0.031 C 
ATOM     45  C   UNL A   1      38.982  28.130  29.811  1.00  0.00     0.029 A 
ATOM     46  C   UNL A   1      40.037  29.123  29.638  1.00  0.00     0.049 A 
ATOM     47  H   UNL A   1      41.822  28.902  28.587  1.00  0.00     0.167 HD
ATOM     48  C   UNL A   1      45.708  28.170  26.699  1.00  0.00     0.037 A 
ATOM     49  C   UNL A   1      40.029  30.372  30.147  1.00  0.00     0.037 A 
ATOM     50  C   UNL A   1      45.747  29.545  27.108  1.00  0.00     0.049 A 
ATOM     51  C   UNL A   1      41.199  31.282  29.872  1.00  0.00     0.074 A 
ATOM     52  C   UNL A   1      46.740  30.482  26.883  1.00  0.00     0.029 A 
ATOM     53  N   UNL A   1      44.733  30.186  27.800  1.00  0.00    -0.354 N 
ATOM     54  N   UNL A   1      42.307  31.030  29.220  1.00  0.00    -0.248 NA
ATOM     55  C   UNL A   1      41.114  32.653  30.398  1.00  0.00     0.031 C 
ATOM     56  C   UNL A   1      46.336  31.688  27.463  1.00  0.00     0.029 A 
ATOM     57  C   UNL A   1      45.079  31.509  28.018  1.00  0.00     0.049 A 
ATOM     58  H   UNL A   1      43.893  29.765  28.094  1.00  0.00     0.167 HD
ATOM     59  C   UNL A   1      43.032  32.215  29.226  1.00  0.00     0.074 A 
ATOM     60  C   UNL A   1      42.233  33.191  29.936  1.00  0.00     0.031 C 
ATOM     61  C   UNL A   1      44.253  32.470  28.699  1.00  0.00     0.037 A 
BRANCH  48  62
ATOM     62  C   UNL A   1      46.922  27.587  26.037  1.00  0.00     0.064 A 
ATOM     63  C   UNL A   1      47.942  26.967  26.774  1.00  0.00     0.173 A 
ATOM     64  C   UNL A   1      47.055  27.628  24.640  1.00  0.00     0.173 A 
ATOM     65  F   UNL A   1      47.870  26.914  28.113  1.00  0.00    -0.203 F 
ATOM     66  C   UNL A   1      49.067  26.444  26.145  1.00  0.00     0.198 A 
ATOM     67  C   UNL A   1      48.165  27.073  24.010  1.00  0.00     0.198 A 
ATOM     68  F   UNL A   1      46.106  28.204  23.887  1.00  0.00    -0.203 F 
ATOM     69  F   UNL A   1      50.055  25.912  26.875  1.00  0.00    -0.200 F 
ATOM     70  C   UNL A   1      49.174  26.490  24.762  1.00  0.00     0.200 A 
ATOM     71  F   UNL A   1      48.263  27.107  22.674  1.00  0.00    -0.200 F 
ATOM     72  F   UNL A   1      50.255  25.980  24.156  1.00  0.00    -0.200 F 
ENDBRANCH  48  62
BRANCH  49  73
ATOM     73  C   UNL A   1      38.863  30.865  30.930  1.00  0.00     0.064 A 
ATOM     74  C   UNL A   1      38.828  30.733  32.326  1.00  0.00     0.173 A 
ATOM     75  C   UNL A   1      37.745  31.437  30.305  1.00  0.00     0.173 A 
ATOM     76  F   UNL A   1      39.863  30.171  32.969  1.00  0.00    -0.203 F 
ATOM     77  C   UNL A   1      37.711  31.120  33.062  1.00  0.00     0.198 A 
ATOM     78  C   UNL A   1      36.638  31.851  31.046  1.00  0.00     0.198 A 
ATOM     79  F   UNL A   1      37.726  31.592  28.973  1.00  0.00    -0.203 F 
ATOM     80  F   UNL A   1      37.684  30.924  34.388  1.00  0.00    -0.200 F 
ATOM     81  C   UNL A   1      36.617  31.680  32.423  1.00  0.00     0.200 A 
ATOM     82  F   UNL A   1      35.587  32.402  30.425  1.00  0.00    -0.200 F 
ATOM     83  F   UNL A   1      35.538  32.045  33.129  1.00  0.00    -0.200 F 
ENDBRANCH  49  73
BRANCH  61  84
ATOM     84  C   UNL A   1      44.783  33.867  28.822  1.00  0.00     0.064 A 
ATOM     85  C   UNL A   1      44.491  34.848  27.864  1.00  0.00     0.173 A 
ATOM     86  C   UNL A   1      45.538  34.241  29.944  1.00  0.00     0.173 A 
ATOM     87  F   UNL A   1      43.783  34.533  26.769  1.00  0.00    -0.203 F 
ATOM     88  C   UNL A   1      44.951  36.152  28.017  1.00  0.00     0.198 A 
ATOM     89  C   UNL A   1      45.972  35.553  30.107  1.00  0.00     0.198 A 
ATOM     90  F   UNL A   1      45.835  33.339  30.891  1.00  0.00    -0.203 F 
ATOM     91  F   UNL A   1      44.691  37.067  27.072  1.00  0.00    -0.200 F 
ATOM     92  C   UNL A   1      45.683  36.506  29.142  1.00  0.00     0.200 A 
ATOM     93  F   UNL A   1      46.668  35.895  31.199  1.00  0.00    -0.200 F 
ATOM     94  F   UNL A   1      46.115  37.766  29.292  1.00  0.00    -0.200 F 
ENDBRANCH  61  84
ENDBRANCH  35  36
ENDBRANCH  27  30
ENDBRANCH  25  26
ENDBRANCH  24  25
ENDBRANCH  23  24
ENDBRANCH   1  23
TORSDOF 17
ENDMDL
MODEL 2
REMARK VINA RESULT:     -11.8      4.806      8.255
REMARK SMILES CCN(CC(C)(C)O)C(=O)[C@H]1CC=CC[C@H]1C(=O)NCCCCNC(=O)c1ccc(-c2c3nc(c(-c4c(F)c(F)c(F)c(F)c4F)c4ccc([nH]4)c(-c4c(F)c(F)c(F)c(F)c4F)c4nc(c(-c5c(F)c(F)c(F)c(F)c5F)c5ccc2[nH]5)C=C4)C=C3)cc1
REMARK SMILES IDX 20 1 19 2 17 3 18 4 16 6 11 7 12 8 13 9 15 10 14 11 9 12
REMARK SMILES IDX 10 13 3 14 2 15 1 16 4 17 5 18 6 19 7 20 8 21 21 23 22 24
REMARK SMILES IDX 23 25 24 26 25 27 26 29 27 30 28 31 89 32 29 33 88 34 30 35
REMARK SMILES IDX 31 36 32 37 82 38 33 39 87 40 81 41 83 42 34 43 86 44 80 45
REMARK SMILES IDX 79 46 35 48 67 49 47 50 66 51 48 52 51 53 65 54 84 55 49 56
REMARK SMILES IDX 50 57 64 59 85 60 52 61 36 62 37 63 45 64 38 65 39 66 43 67
REMARK SMILES IDX 46 68 40 69 41 70 44 71 42 72 68 73 69 74 77 75 70 76 71 77
REMARK SMILES IDX 75 78 78 79 72 80 73 81 76 82 74 83 53 84 54 85 62 86 55 87
REMARK SMILES IDX 56 88 60 89 63 90 57 91 58 92 61 93 59 94
REMARK H PARENT 19 5 8 22 24 28 83 47 51 58
REMARK Flexibility Score: inf
ROOT
ATOM      1  C   UNL A   1      33.681  28.422  26.214  1.00  0.00     0.116 C 
ENDROOT
BRANCH   1   2
ATOM      2  N   UNL A   1      32.940  27.150  26.359  1.00  0.00    -0.356 N 
ATOM      3  C   UNL A   1      31.729  26.616  26.070  1.00  0.00     0.224 C 
ATOM      4  O   UNL A   1      31.462  25.621  26.769  1.00  0.00    -0.275 OA
ATOM      5  H   UNL A   1      33.506  26.479  26.805  1.00  0.00     0.163 HD
BRANCH   3   6
ATOM      6  C   UNL A   1      30.676  27.047  25.035  1.00  0.00     0.095 C 
ATOM      7  C   UNL A   1      31.094  27.917  23.811  1.00  0.00     0.095 C 
ATOM      8  C   UNL A   1      29.867  28.711  23.298  1.00  0.00     0.041 C 
ATOM      9  C   UNL A   1      28.600  27.904  23.283  1.00  0.00    -0.030 C 
ATOM     10  C   UNL A   1      29.546  26.071  24.730  1.00  0.00     0.041 C 
ATOM     11  C   UNL A   1      28.465  26.717  23.897  1.00  0.00    -0.030 C 
BRANCH   7  12
ATOM     12  C   UNL A   1      31.670  27.111  22.640  1.00  0.00     0.226 C 
ATOM     13  O   UNL A   1      30.972  26.760  21.688  1.00  0.00    -0.275 OA
BRANCH  12  14
ATOM     14  N   UNL A   1      33.007  26.750  22.713  1.00  0.00    -0.340 N 
BRANCH  14  15
ATOM     15  C   UNL A   1      33.996  27.704  22.176  1.00  0.00     0.116 C 
ATOM     16  C   UNL A   1      34.012  29.063  22.904  1.00  0.00     0.027 C 
ENDBRANCH  14  15
BRANCH  14  17
ATOM     17  C   UNL A   1      33.433  25.470  23.291  1.00  0.00     0.154 C 
BRANCH  17  18
ATOM     18  C   UNL A   1      33.177  24.119  22.609  1.00  0.00     0.077 C 
ATOM     19  C   UNL A   1      34.336  23.168  22.890  1.00  0.00     0.043 C 
ATOM     20  C   UNL A   1      31.871  23.564  23.216  1.00  0.00     0.043 C 
BRANCH  18  21
ATOM     21  O   UNL A   1      32.974  24.256  21.207  1.00  0.00    -0.389 OA
ATOM     22  H   UNL A   1      32.024  24.229  21.013  1.00  0.00     0.211 HD
ENDBRANCH  18  21
ENDBRANCH  17  18
ENDBRANCH  14  17
ENDBRANCH  12  14
ENDBRANCH   7  12
ENDBRANCH   3   6
ENDBRANCH   1   2
BRANCH   1  23
ATOM     23  C   UNL A   1      33.170  29.439  27.267  1.00  0.00     0.023 C 
BRANCH  23  24
ATOM     24  C   UNL A   1      32.751  30.868  26.972  1.00  0.00     0.023 C 
BRANCH  24  25
ATOM     25  C   UNL A   1      33.449  31.993  27.675  1.00  0.00     0.116 C 
BRANCH  25  26
ATOM     26  N   UNL A   1      32.741  33.265  27.674  1.00  0.00    -0.352 N 
ATOM     27  C   UNL A   1      33.052  34.400  28.406  1.00  0.00     0.251 C 
ATOM     28  H   UNL A   1      31.951  33.325  27.087  1.00  0.00     0.163 HD
ATOM     29  O   UNL A   1      32.353  35.406  28.352  1.00  0.00    -0.269 OA
BRANCH  27  30
ATOM     30  C   UNL A   1      34.214  34.341  29.326  1.00  0.00     0.039 A 
ATOM     31  C   UNL A   1      34.020  33.942  30.650  1.00  0.00     0.014 A 
ATOM     32  C   UNL A   1      35.501  34.441  28.804  1.00  0.00     0.014 A 
ATOM     33  C   UNL A   1      35.114  33.494  31.398  1.00  0.00     0.010 A 
ATOM     34  C   UNL A   1      36.546  33.834  29.485  1.00  0.00     0.010 A 
ATOM     35  C   UNL A   1      36.375  33.351  30.793  1.00  0.00    -0.014 A 
BRANCH  35  36
ATOM     36  C   UNL A   1      37.532  32.716  31.490  1.00  0.00     0.031 A 
ATOM     37  C   UNL A   1      38.263  31.575  30.823  1.00  0.00     0.074 A 
ATOM     38  C   UNL A   1      37.862  33.067  32.753  1.00  0.00     0.049 A 
ATOM     39  N   UNL A   1      39.173  30.770  31.310  1.00  0.00    -0.248 NA
ATOM     40  C   UNL A   1      37.863  31.248  29.443  1.00  0.00     0.031 C 
ATOM     41  C   UNL A   1      37.183  34.077  33.569  1.00  0.00     0.029 A 
ATOM     42  N   UNL A   1      38.853  32.596  33.583  1.00  0.00    -0.354 N 
ATOM     43  C   UNL A   1      39.391  29.813  30.327  1.00  0.00     0.074 A 
ATOM     44  C   UNL A   1      38.470  30.089  29.251  1.00  0.00     0.031 C 
ATOM     45  C   UNL A   1      37.804  34.183  34.756  1.00  0.00     0.029 A 
ATOM     46  C   UNL A   1      38.902  33.223  34.807  1.00  0.00     0.049 A 
ATOM     47  H   UNL A   1      39.473  31.876  33.324  1.00  0.00     0.167 HD
ATOM     48  C   UNL A   1      40.308  28.818  30.299  1.00  0.00     0.037 A 
ATOM     49  C   UNL A   1      39.740  33.044  35.848  1.00  0.00     0.037 A 
ATOM     50  C   UNL A   1      41.311  28.625  31.308  1.00  0.00     0.049 A 
ATOM     51  C   UNL A   1      40.830  32.009  35.742  1.00  0.00     0.074 A 
ATOM     52  C   UNL A   1      42.375  27.742  31.306  1.00  0.00     0.029 A 
ATOM     53  N   UNL A   1      41.387  29.350  32.485  1.00  0.00    -0.354 N 
ATOM     54  N   UNL A   1      41.086  31.175  34.764  1.00  0.00    -0.248 NA
ATOM     55  C   UNL A   1      41.755  31.897  36.880  1.00  0.00     0.031 C 
ATOM     56  C   UNL A   1      43.084  27.915  32.499  1.00  0.00     0.029 A 
ATOM     57  C   UNL A   1      42.481  28.930  33.224  1.00  0.00     0.049 A 
ATOM     58  H   UNL A   1      40.759  30.059  32.757  1.00  0.00     0.167 HD
ATOM     59  C   UNL A   1      42.215  30.466  35.153  1.00  0.00     0.074 A 
ATOM     60  C   UNL A   1      42.605  30.976  36.450  1.00  0.00     0.031 C 
ATOM     61  C   UNL A   1      42.867  29.475  34.498  1.00  0.00     0.037 A 
BRANCH  48  62
ATOM     62  C   UNL A   1      40.298  27.892  29.118  1.00  0.00     0.064 A 
ATOM     63  C   UNL A   1      39.550  26.704  29.115  1.00  0.00     0.173 A 
ATOM     64  C   UNL A   1      41.027  28.211  27.962  1.00  0.00     0.173 A 
ATOM     65  F   UNL A   1      38.847  26.347  30.201  1.00  0.00    -0.203 F 
ATOM     66  C   UNL A   1      39.563  25.852  28.016  1.00  0.00     0.198 A 
ATOM     67  C   UNL A   1      41.009  27.372  26.851  1.00  0.00     0.198 A 
ATOM     68  F   UNL A   1      41.754  29.337  27.909  1.00  0.00    -0.203 F 
ATOM     69  F   UNL A   1      38.890  24.694  28.061  1.00  0.00    -0.200 F 
ATOM     70  C   UNL A   1      40.285  26.190  26.881  1.00  0.00     0.200 A 
ATOM     71  F   UNL A   1      41.698  27.705  25.750  1.00  0.00    -0.200 F 
ATOM     72  F   UNL A   1      40.291  25.370  25.821  1.00  0.00    -0.200 F 
ENDBRANCH  48  62
BRANCH  49  73
ATOM     73  C   UNL A   1      39.623  33.888  37.070  1.00  0.00     0.064 A 
ATOM     74  C   UNL A   1      38.880  33.449  38.175  1.00  0.00     0.173 A 
ATOM     75  C   UNL A   1      40.208  35.160  37.145  1.00  0.00     0.173 A 
ATOM     76  F   UNL A   1      38.280  32.250  38.143  1.00  0.00    -0.203 F 
ATOM     77  C   UNL A   1      38.698  34.260  39.294  1.00  0.00     0.198 A 
ATOM     78  C   UNL A   1      40.051  35.960  38.277  1.00  0.00     0.198 A 
ATOM     79  F   UNL A   1      40.934  35.628  36.120  1.00  0.00    -0.203 F 
ATOM     80  F   UNL A   1      37.932  33.837  40.309  1.00  0.00    -0.200 F 
ATOM     81  C   UNL A   1      39.285  35.515  39.345  1.00  0.00     0.200 A 
ATOM     82  F   UNL A   1      40.629  37.167  38.328  1.00  0.00    -0.200 F 
ATOM     83  F   UNL A   1      39.105  36.299  40.417  1.00  0.00    -0.200 F 
ENDBRANCH  49  73
BRANCH  61  84
ATOM     84  C   UNL A   1      44.096  28.910  35.144  1.00  0.00     0.064 A 
ATOM     85  C   UNL A   1      45.364  29.459  34.910  1.00  0.00     0.173 A 
ATOM     86  C   UNL A   1      43.992  27.847  36.054  1.00  0.00     0.173 A 
ATOM     87  F   UNL A   1      45.514  30.468  34.039  1.00  0.00    -0.203 F 
ATOM     88  C   UNL A   1      46.489  28.952  35.553  1.00  0.00     0.198 A 
ATOM     89  C   UNL A   1      45.115  27.362  36.716  1.00  0.00     0.198 A 
ATOM     90  F   UNL A   1      42.798  27.295  36.315  1.00  0.00    -0.203 F 
ATOM     91  F   UNL A   1      47.698  29.468  35.289  1.00  0.00    -0.200 F 
ATOM     92  C   UNL A   1      46.363  27.911  36.462  1.00  0.00     0.200 A 
ATOM     93  F   UNL A   1      44.990  26.365  37.602  1.00  0.00    -0.200 F 
ATOM     94  F   UNL A   1      47.447  27.434  37.089  1.00  0.00    -0.200 F 
ENDBRANCH  61  84
ENDBRANCH  35  36
ENDBRANCH  27  30
ENDBRANCH  25  26
ENDBRANCH  24  25
ENDBRANCH  23  24
ENDBRANCH   1  23
TORSDOF 17
ENDMDL
MODEL 3
REMARK VINA RESULT:     -11.7      4.163      9.995
REMARK SMILES CCN(CC(C)(C)O)C(=O)[C@H]1CC=CC[C@H]1C(=O)NCCCCNC(=O)c1ccc(-c2c3nc(c(-c4c(F)c(F)c(F)c(F)c4F)c4ccc([nH]4)c(-c4c(F)c(F)c(F)c(F)c4F)c4nc(c(-c5c(F)c(F)c(F)c(F)c5F)c5ccc2[nH]5)C=C4)C=C3)cc1
REMARK SMILES IDX 20 1 19 2 17 3 18 4 16 6 11 7 12 8 13 9 15 10 14 11 9 12
REMARK SMILES IDX 10 13 3 14 2 15 1 16 4 17 5 18 6 19 7 20 8 21 21 23 22 24
REMARK SMILES IDX 23 25 24 26 25 27 26 29 27 30 28 31 89 32 29 33 88 34 30 35
REMARK SMILES IDX 31 36 32 37 82 38 33 39 87 40 81 41 83 42 34 43 86 44 80 45
REMARK SMILES IDX 79 46 35 48 67 49 47 50 66 51 48 52 51 53 65 54 84 55 49 56
REMARK SMILES IDX 50 57 64 59 85 60 52 61 36 62 37 63 45 64 38 65 39 66 43 67
REMARK SMILES IDX 46 68 40 69 41 70 44 71 42 72 68 73 69 74 77 75 70 76 71 77
REMARK SMILES IDX 75 78 78 79 72 80 73 81 76 82 74 83 53 84 54 85 62 86 55 87
REMARK SMILES IDX 56 88 60 89 63 90 57 91 58 92 61 93 59 94
REMARK H PARENT 19 5 8 22 24 28 83 47 51 58
REMARK Flexibility Score: inf
ROOT
ATOM      1  C   UNL A   1      30.874  27.315  25.548  1.00  0.00     0.116 C 
ENDROOT
BRANCH   1   2
ATOM      2  N   UNL A   1      31.264  26.171  26.402  1.00  0.00    -0.356 N 
ATOM      3  C   UNL A   1      31.624  24.870  26.293  1.00  0.00     0.224 C 
ATOM      4  O   UNL A   1      31.454  24.233  27.349  1.00  0.00    -0.275 OA
ATOM      5  H   UNL A   1      31.261  26.441  27.349  1.00  0.00     0.163 HD
BRANCH   3   6
ATOM      6  C   UNL A   1      32.195  24.095  25.092  1.00  0.00     0.095 C 
ATOM      7  C   UNL A   1      33.697  23.677  25.075  1.00  0.00     0.095 C 
ATOM      8  C   UNL A   1      34.168  23.499  23.611  1.00  0.00     0.041 C 
ATOM      9  C   UNL A   1      33.157  22.805  22.741  1.00  0.00    -0.030 C 
ATOM     10  C   UNL A   1      31.278  23.098  24.396  1.00  0.00     0.041 C 
ATOM     11  C   UNL A   1      31.878  22.603  23.101  1.00  0.00    -0.030 C 
BRANCH   7  12
ATOM     12  C   UNL A   1      33.992  22.380  25.838  1.00  0.00     0.226 C 
ATOM     13  O   UNL A   1      33.153  21.854  26.572  1.00  0.00    -0.275 OA
BRANCH  12  14
ATOM     14  N   UNL A   1      35.260  21.837  25.705  1.00  0.00    -0.340 N 
BRANCH  14  15
ATOM     15  C   UNL A   1      35.408  20.667  24.819  1.00  0.00     0.116 C 
ATOM     16  C   UNL A   1      34.174  19.744  24.794  1.00  0.00     0.027 C 
ENDBRANCH  14  15
BRANCH  14  17
ATOM     17  C   UNL A   1      36.418  22.391  26.419  1.00  0.00     0.154 C 
BRANCH  17  18
ATOM     18  C   UNL A   1      37.667  22.920  25.700  1.00  0.00     0.077 C 
ATOM     19  C   UNL A   1      38.180  24.171  26.404  1.00  0.00     0.043 C 
ATOM     20  C   UNL A   1      38.721  21.795  25.773  1.00  0.00     0.043 C 
BRANCH  18  21
ATOM     21  O   UNL A   1      37.421  23.189  24.324  1.00  0.00    -0.389 OA
ATOM     22  H   UNL A   1      37.401  22.355  23.830  1.00  0.00     0.211 HD
ENDBRANCH  18  21
ENDBRANCH  17  18
ENDBRANCH  14  17
ENDBRANCH  12  14
ENDBRANCH   7  12
ENDBRANCH   3   6
ENDBRANCH   1   2
BRANCH   1  23
ATOM     23  C   UNL A   1      32.141  28.117  25.153  1.00  0.00     0.023 C 
BRANCH  23  24
ATOM     24  C   UNL A   1      32.404  29.568  25.515  1.00  0.00     0.023 C 
BRANCH  24  25
ATOM     25  C   UNL A   1      32.526  29.949  26.960  1.00  0.00     0.116 C 
BRANCH  25  26
ATOM     26  N   UNL A   1      32.462  31.377  27.237  1.00  0.00    -0.352 N 
ATOM     27  C   UNL A   1      33.507  32.207  27.609  1.00  0.00     0.251 C 
ATOM     28  H   UNL A   1      31.577  31.800  27.149  1.00  0.00     0.163 HD
ATOM     29  O   UNL A   1      33.323  33.395  27.856  1.00  0.00    -0.269 OA
BRANCH  27  30
ATOM     30  C   UNL A   1      34.851  31.603  27.784  1.00  0.00     0.039 A 
ATOM     31  C   UNL A   1      35.954  32.434  27.988  1.00  0.00     0.014 A 
ATOM     32  C   UNL A   1      34.958  30.230  27.990  1.00  0.00     0.014 A 
ATOM     33  C   UNL A   1      37.119  31.900  28.550  1.00  0.00     0.010 A 
ATOM     34  C   UNL A   1      36.044  29.746  28.705  1.00  0.00     0.010 A 
ATOM     35  C   UNL A   1      37.144  30.569  28.997  1.00  0.00    -0.014 A 
BRANCH  35  36
ATOM     36  C   UNL A   1      38.295  29.998  29.758  1.00  0.00     0.031 A 
ATOM     37  C   UNL A   1      38.519  30.423  31.190  1.00  0.00     0.074 A 
ATOM     38  C   UNL A   1      39.204  29.202  29.152  1.00  0.00     0.049 A 
ATOM     39  N   UNL A   1      39.539  30.194  31.977  1.00  0.00    -0.248 NA
ATOM     40  C   UNL A   1      37.487  31.283  31.795  1.00  0.00     0.031 C 
ATOM     41  C   UNL A   1      39.182  28.789  27.746  1.00  0.00     0.029 A 
ATOM     42  N   UNL A   1      40.340  28.604  29.646  1.00  0.00    -0.354 N 
ATOM     43  C   UNL A   1      39.300  30.938  33.125  1.00  0.00     0.074 A 
ATOM     44  C   UNL A   1      38.082  31.681  32.907  1.00  0.00     0.031 C 
ATOM     45  C   UNL A   1      40.222  27.972  27.506  1.00  0.00     0.029 A 
ATOM     46  C   UNL A   1      41.010  27.831  28.726  1.00  0.00     0.049 A 
ATOM     47  H   UNL A   1      40.647  28.718  30.575  1.00  0.00     0.167 HD
ATOM     48  C   UNL A   1      40.004  30.966  34.282  1.00  0.00     0.037 A 
ATOM     49  C   UNL A   1      42.129  27.089  28.856  1.00  0.00     0.037 A 
ATOM     50  C   UNL A   1      41.139  30.128  34.548  1.00  0.00     0.049 A 
ATOM     51  C   UNL A   1      42.827  27.044  30.191  1.00  0.00     0.074 A 
ATOM     52  C   UNL A   1      41.835  29.973  35.732  1.00  0.00     0.029 A 
ATOM     53  N   UNL A   1      41.723  29.282  33.620  1.00  0.00    -0.354 N 
ATOM     54  N   UNL A   1      42.533  27.678  31.299  1.00  0.00    -0.248 NA
ATOM     55  C   UNL A   1      44.007  26.173  30.296  1.00  0.00     0.031 C 
ATOM     56  C   UNL A   1      42.860  29.048  35.514  1.00  0.00     0.029 A 
ATOM     57  C   UNL A   1      42.779  28.603  34.205  1.00  0.00     0.049 A 
ATOM     58  H   UNL A   1      41.432  29.178  32.685  1.00  0.00     0.167 HD
ATOM     59  C   UNL A   1      43.467  27.259  32.238  1.00  0.00     0.074 A 
ATOM     60  C   UNL A   1      44.329  26.305  31.574  1.00  0.00     0.031 C 
ATOM     61  C   UNL A   1      43.603  27.635  33.532  1.00  0.00     0.037 A 
BRANCH  48  62
ATOM     62  C   UNL A   1      39.539  31.900  35.359  1.00  0.00     0.064 A 
ATOM     63  C   UNL A   1      39.996  33.225  35.440  1.00  0.00     0.173 A 
ATOM     64  C   UNL A   1      38.602  31.472  36.312  1.00  0.00     0.173 A 
ATOM     65  F   UNL A   1      40.904  33.680  34.561  1.00  0.00    -0.203 F 
ATOM     66  C   UNL A   1      39.564  34.073  36.454  1.00  0.00     0.198 A 
ATOM     67  C   UNL A   1      38.145  32.335  37.305  1.00  0.00     0.198 A 
ATOM     68  F   UNL A   1      38.127  30.218  36.278  1.00  0.00    -0.203 F 
ATOM     69  F   UNL A   1      40.062  35.313  36.545  1.00  0.00    -0.200 F 
ATOM     70  C   UNL A   1      38.633  33.630  37.381  1.00  0.00     0.200 A 
ATOM     71  F   UNL A   1      37.236  31.910  38.194  1.00  0.00    -0.200 F 
ATOM     72  F   UNL A   1      38.212  34.451  38.354  1.00  0.00    -0.200 F 
ENDBRANCH  48  62
BRANCH  49  73
ATOM     73  C   UNL A   1      42.645  26.288  27.712  1.00  0.00     0.064 A 
ATOM     74  C   UNL A   1      43.607  26.820  26.840  1.00  0.00     0.173 A 
ATOM     75  C   UNL A   1      42.163  25.000  27.437  1.00  0.00     0.173 A 
ATOM     76  F   UNL A   1      44.083  28.057  27.045  1.00  0.00    -0.203 F 
ATOM     77  C   UNL A   1      44.042  26.111  25.723  1.00  0.00     0.198 A 
ATOM     78  C   UNL A   1      42.620  24.279  26.335  1.00  0.00     0.198 A 
ATOM     79  F   UNL A   1      41.246  24.441  28.240  1.00  0.00    -0.203 F 
ATOM     80  F   UNL A   1      44.916  26.670  24.875  1.00  0.00    -0.200 F 
ATOM     81  C   UNL A   1      43.549  24.840  25.471  1.00  0.00     0.200 A 
ATOM     82  F   UNL A   1      42.150  23.046  26.101  1.00  0.00    -0.200 F 
ATOM     83  F   UNL A   1      43.960  24.160  24.391  1.00  0.00    -0.200 F 
ENDBRANCH  49  73
BRANCH  61  84
ATOM     84  C   UNL A   1      44.690  26.982  34.333  1.00  0.00     0.064 A 
ATOM     85  C   UNL A   1      45.964  27.555  34.440  1.00  0.00     0.173 A 
ATOM     86  C   UNL A   1      44.430  25.804  35.048  1.00  0.00     0.173 A 
ATOM     87  F   UNL A   1      46.262  28.674  33.763  1.00  0.00    -0.203 F 
ATOM     88  C   UNL A   1      46.948  26.960  35.224  1.00  0.00     0.198 A 
ATOM     89  C   UNL A   1      45.408  25.228  35.854  1.00  0.00     0.198 A 
ATOM     90  F   UNL A   1      43.223  25.224  34.983  1.00  0.00    -0.203 F 
ATOM     91  F   UNL A   1      48.172  27.505  35.286  1.00  0.00    -0.200 F 
ATOM     92  C   UNL A   1      46.667  25.804  35.937  1.00  0.00     0.200 A 
ATOM     93  F   UNL A   1      45.131  24.118  36.551  1.00  0.00    -0.200 F 
ATOM     94  F   UNL A   1      47.613  25.241  36.702  1.00  0.00    -0.200 F 
ENDBRANCH  61  84
ENDBRANCH  35  36
ENDBRANCH  27  30
ENDBRANCH  25  26
ENDBRANCH  24  25
ENDBRANCH  23  24
ENDBRANCH   1  23
TORSDOF 17
ENDMDL
