MODEL 1
REMARK VINA RESULT:     -10.7      0.000      0.000
REMARK SMILES O=C(COc1ccccc1-c1ccccc1)NCCCCNC(=O)c1ccc(-c2c3nc(c(-c4c(F)c(F)c(F)c(F)c4F)c4ccc([nH]4)c(-c4c(F)c(F)c(F)c(F)c4F)c4nc(c(-c5c(F)c(F)c(F)c(F)c5F)c5ccc2[nH]5)C=C4)C=C3)cc1
REMARK SMILES IDX 19 1 18 2 17 3 1 4 2 5 3 7 4 8 5 9 6 10 10 11 7 12 9 13 8 14
REMARK SMILES IDX 11 15 12 16 16 17 13 18 15 19 14 20 20 21 21 22 22 23 23 24
REMARK SMILES IDX 24 26 25 27 26 28 87 29 27 30 86 31 28 32 29 33 30 34 80 35
REMARK SMILES IDX 31 36 85 37 79 38 81 39 32 40 84 41 78 42 77 43 33 45 65 46
REMARK SMILES IDX 45 47 64 48 46 49 49 50 63 51 82 52 47 53 48 54 62 56 83 57
REMARK SMILES IDX 50 58 34 59 35 60 43 61 36 62 37 63 41 64 44 65 38 66 39 67
REMARK SMILES IDX 42 68 40 69 66 70 67 71 75 72 68 73 69 74 73 75 76 76 70 77
REMARK SMILES IDX 71 78 74 79 72 80 51 81 52 82 60 83 53 84 54 85 58 86 61 87
REMARK SMILES IDX 55 88 56 89 59 90 57 91
REMARK H PARENT 17 6 22 25 81 44 49 55
REMARK Flexibility Score: inf
ROOT
ATOM      1  C   UNL A   1      33.053  34.534  28.227  1.00  0.00     0.023 C 
ENDROOT
BRANCH   1   2
ATOM      2  C   UNL A   1      33.355  35.794  29.034  1.00  0.00     0.116 C 
BRANCH   2   3
ATOM      3  N   UNL A   1      34.034  35.607  30.302  1.00  0.00    -0.353 N 
ATOM      4  O   UNL A   1      32.343  36.510  31.581  1.00  0.00    -0.271 OA
ATOM      5  C   UNL A   1      33.374  35.846  31.498  1.00  0.00     0.257 C 
ATOM      6  H   UNL A   1      34.972  35.307  30.314  1.00  0.00     0.163 HD
BRANCH   5   7
ATOM      7  C   UNL A   1      34.052  35.259  32.744  1.00  0.00     0.329 C 
BRANCH   7   8
ATOM      8  O   UNL A   1      35.469  35.455  32.753  1.00  0.00    -0.483 OA
BRANCH   8   9
ATOM      9  C   UNL A   1      36.127  34.490  33.482  1.00  0.00     0.127 A 
ATOM     10  C   UNL A   1      35.819  34.380  34.842  1.00  0.00     0.047 A 
ATOM     11  C   UNL A   1      37.179  33.737  32.931  1.00  0.00     0.024 A 
ATOM     12  C   UNL A   1      36.546  33.512  35.664  1.00  0.00     0.004 A 
ATOM     13  C   UNL A   1      37.882  32.852  33.773  1.00  0.00     0.012 A 
ATOM     14  C   UNL A   1      37.577  32.746  35.128  1.00  0.00     0.001 A 
BRANCH  11  15
ATOM     15  C   UNL A   1      37.664  33.900  31.559  1.00  0.00    -0.015 A 
ATOM     16  C   UNL A   1      37.089  33.194  30.493  1.00  0.00     0.009 A 
ATOM     17  C   UNL A   1      38.790  34.700  31.312  1.00  0.00     0.009 A 
ATOM     18  C   UNL A   1      37.633  33.281  29.210  1.00  0.00     0.001 A 
ATOM     19  C   UNL A   1      39.349  34.767  30.036  1.00  0.00     0.001 A 
ATOM     20  C   UNL A   1      38.770  34.056  28.985  1.00  0.00     0.000 A 
ENDBRANCH  11  15
ENDBRANCH   8   9
ENDBRANCH   7   8
ENDBRANCH   5   7
ENDBRANCH   2   3
ENDBRANCH   1   2
BRANCH   1  21
ATOM     21  C   UNL A   1      34.197  33.536  28.053  1.00  0.00     0.023 C 
BRANCH  21  22
ATOM     22  C   UNL A   1      34.137  32.267  28.900  1.00  0.00     0.116 C 
BRANCH  22  23
ATOM     23  N   UNL A   1      33.776  31.070  28.154  1.00  0.00    -0.352 N 
ATOM     24  C   UNL A   1      34.526  29.972  27.799  1.00  0.00     0.251 C 
ATOM     25  H   UNL A   1      32.839  31.041  27.852  1.00  0.00     0.163 HD
ATOM     26  O   UNL A   1      34.035  29.103  27.082  1.00  0.00    -0.269 OA
BRANCH  24  27
ATOM     27  C   UNL A   1      35.938  29.838  28.230  1.00  0.00     0.039 A 
ATOM     28  C   UNL A   1      36.206  29.425  29.539  1.00  0.00     0.014 A 
ATOM     29  C   UNL A   1      36.998  30.119  27.366  1.00  0.00     0.014 A 
ATOM     30  C   UNL A   1      37.525  29.194  29.945  1.00  0.00     0.010 A 
ATOM     31  C   UNL A   1      38.306  29.811  27.744  1.00  0.00     0.010 A 
ATOM     32  C   UNL A   1      38.585  29.329  29.033  1.00  0.00    -0.014 A 
BRANCH  32  33
ATOM     33  C   UNL A   1      39.976  28.940  29.399  1.00  0.00     0.031 A 
ATOM     34  C   UNL A   1      40.832  29.845  30.243  1.00  0.00     0.074 A 
ATOM     35  C   UNL A   1      40.499  27.798  28.910  1.00  0.00     0.049 A 
ATOM     36  N   UNL A   1      42.085  29.706  30.601  1.00  0.00    -0.248 NA
ATOM     37  C   UNL A   1      40.205  31.084  30.730  1.00  0.00     0.031 C 
ATOM     38  C   UNL A   1      39.795  26.849  28.043  1.00  0.00     0.029 A 
ATOM     39  N   UNL A   1      41.747  27.243  29.059  1.00  0.00    -0.354 N 
ATOM     40  C   UNL A   1      42.398  30.841  31.340  1.00  0.00     0.074 A 
ATOM     41  C   UNL A   1      41.220  31.683  31.336  1.00  0.00     0.031 C 
ATOM     42  C   UNL A   1      40.610  25.822  27.761  1.00  0.00     0.029 A 
ATOM     43  C   UNL A   1      41.909  26.056  28.383  1.00  0.00     0.049 A 
ATOM     44  H   UNL A   1      42.459  27.657  29.598  1.00  0.00     0.167 HD
ATOM     45  C   UNL A   1      43.553  31.143  31.980  1.00  0.00     0.037 A 
ATOM     46  C   UNL A   1      42.984  25.252  28.269  1.00  0.00     0.037 A 
ATOM     47  C   UNL A   1      44.719  30.296  32.000  1.00  0.00     0.049 A 
ATOM     48  C   UNL A   1      44.264  25.626  28.970  1.00  0.00     0.074 A 
ATOM     49  C   UNL A   1      45.912  30.489  32.674  1.00  0.00     0.029 A 
ATOM     50  N   UNL A   1      44.842  29.101  31.308  1.00  0.00    -0.354 N 
ATOM     51  N   UNL A   1      44.521  26.664  29.728  1.00  0.00    -0.248 NA
ATOM     52  C   UNL A   1      45.403  24.712  28.801  1.00  0.00     0.031 C 
ATOM     53  C   UNL A   1      46.779  29.444  32.342  1.00  0.00     0.029 A 
ATOM     54  C   UNL A   1      46.103  28.563  31.514  1.00  0.00     0.049 A 
ATOM     55  H   UNL A   1      44.138  28.694  30.753  1.00  0.00     0.167 HD
ATOM     56  C   UNL A   1      45.834  26.509  30.154  1.00  0.00     0.074 A 
ATOM     57  C   UNL A   1      46.316  25.271  29.582  1.00  0.00     0.031 C 
ATOM     58  C   UNL A   1      46.572  27.323  30.949  1.00  0.00     0.037 A 
BRANCH  45  59
ATOM     59  C   UNL A   1      43.623  32.453  32.714  1.00  0.00     0.064 A 
ATOM     60  C   UNL A   1      44.020  33.638  32.075  1.00  0.00     0.173 A 
ATOM     61  C   UNL A   1      43.237  32.535  34.060  1.00  0.00     0.173 A 
ATOM     62  F   UNL A   1      44.406  33.617  30.790  1.00  0.00    -0.203 F 
ATOM     63  C   UNL A   1      44.059  34.847  32.765  1.00  0.00     0.198 A 
ATOM     64  C   UNL A   1      43.244  33.751  34.738  1.00  0.00     0.198 A 
ATOM     65  F   UNL A   1      42.838  31.435  34.719  1.00  0.00    -0.203 F 
ATOM     66  F   UNL A   1      44.490  35.955  32.148  1.00  0.00    -0.200 F 
ATOM     67  C   UNL A   1      43.662  34.904  34.092  1.00  0.00     0.200 A 
ATOM     68  F   UNL A   1      42.843  33.807  36.016  1.00  0.00    -0.200 F 
ATOM     69  F   UNL A   1      43.690  36.071  34.752  1.00  0.00    -0.200 F 
ENDBRANCH  45  59
BRANCH  46  70
ATOM     70  C   UNL A   1      42.899  23.999  27.470  1.00  0.00     0.064 A 
ATOM     71  C   UNL A   1      42.526  22.788  28.070  1.00  0.00     0.173 A 
ATOM     72  C   UNL A   1      43.210  23.979  26.103  1.00  0.00     0.173 A 
ATOM     73  F   UNL A   1      42.242  22.750  29.381  1.00  0.00    -0.203 F 
ATOM     74  C   UNL A   1      42.492  21.601  27.340  1.00  0.00     0.198 A 
ATOM     75  C   UNL A   1      43.144  22.799  25.366  1.00  0.00     0.198 A 
ATOM     76  F   UNL A   1      43.571  25.110  25.479  1.00  0.00    -0.203 F 
ATOM     77  F   UNL A   1      42.188  20.449  27.952  1.00  0.00    -0.200 F 
ATOM     78  C   UNL A   1      42.797  21.608  25.987  1.00  0.00     0.200 A 
ATOM     79  F   UNL A   1      43.425  22.812  24.056  1.00  0.00    -0.200 F 
ATOM     80  F   UNL A   1      42.765  20.467  25.285  1.00  0.00    -0.200 F 
ENDBRANCH  46  70
BRANCH  58  81
ATOM     81  C   UNL A   1      47.968  26.878  31.290  1.00  0.00     0.064 A 
ATOM     82  C   UNL A   1      49.083  27.314  30.560  1.00  0.00     0.173 A 
ATOM     83  C   UNL A   1      48.192  26.033  32.388  1.00  0.00     0.173 A 
ATOM     84  F   UNL A   1      48.923  28.111  29.492  1.00  0.00    -0.203 F 
ATOM     85  C   UNL A   1      50.368  26.897  30.898  1.00  0.00     0.198 A 
ATOM     86  C   UNL A   1      49.481  25.646  32.745  1.00  0.00     0.198 A 
ATOM     87  F   UNL A   1      47.163  25.592  33.125  1.00  0.00    -0.203 F 
ATOM     88  F   UNL A   1      51.414  27.283  30.153  1.00  0.00    -0.200 F 
ATOM     89  C   UNL A   1      50.567  26.071  31.995  1.00  0.00     0.200 A 
ATOM     90  F   UNL A   1      49.672  24.863  33.815  1.00  0.00    -0.200 F 
ATOM     91  F   UNL A   1      51.805  25.678  32.325  1.00  0.00    -0.200 F 
ENDBRANCH  58  81
ENDBRANCH  32  33
ENDBRANCH  24  27
ENDBRANCH  22  23
ENDBRANCH  21  22
ENDBRANCH   1  21
TORSDOF 14
ENDMDL
MODEL 2
REMARK VINA RESULT:     -10.6      0.592      1.719
REMARK SMILES O=C(COc1ccccc1-c1ccccc1)NCCCCNC(=O)c1ccc(-c2c3nc(c(-c4c(F)c(F)c(F)c(F)c4F)c4ccc([nH]4)c(-c4c(F)c(F)c(F)c(F)c4F)c4nc(c(-c5c(F)c(F)c(F)c(F)c5F)c5ccc2[nH]5)C=C4)C=C3)cc1
REMARK SMILES IDX 19 1 18 2 17 3 1 4 2 5 3 7 4 8 5 9 6 10 10 11 7 12 9 13 8 14
REMARK SMILES IDX 11 15 12 16 16 17 13 18 15 19 14 20 20 21 21 22 22 23 23 24
REMARK SMILES IDX 24 26 25 27 26 28 87 29 27 30 86 31 28 32 29 33 30 34 80 35
REMARK SMILES IDX 31 36 85 37 79 38 81 39 32 40 84 41 78 42 77 43 33 45 65 46
REMARK SMILES IDX 45 47 64 48 46 49 49 50 63 51 82 52 47 53 48 54 62 56 83 57
REMARK SMILES IDX 50 58 34 59 35 60 43 61 36 62 37 63 41 64 44 65 38 66 39 67
REMARK SMILES IDX 42 68 40 69 66 70 67 71 75 72 68 73 69 74 73 75 76 76 70 77
REMARK SMILES IDX 71 78 74 79 72 80 51 81 52 82 60 83 53 84 54 85 58 86 61 87
REMARK SMILES IDX 55 88 56 89 59 90 57 91
REMARK H PARENT 17 6 22 25 81 44 49 55
REMARK Flexibility Score: inf
ROOT
ATOM      1  C   UNL A   1      32.860  34.683  28.419  1.00  0.00     0.023 C 
ENDROOT
BRANCH   1   2
ATOM      2  C   UNL A   1      33.302  35.968  29.113  1.00  0.00     0.116 C 
BRANCH   2   3
ATOM      3  N   UNL A   1      33.991  35.818  30.381  1.00  0.00    -0.353 N 
ATOM      4  O   UNL A   1      32.402  36.940  31.617  1.00  0.00    -0.271 OA
ATOM      5  C   UNL A   1      33.376  36.193  31.567  1.00  0.00     0.257 C 
ATOM      6  H   UNL A   1      34.902  35.446  30.401  1.00  0.00     0.163 HD
BRANCH   5   7
ATOM      7  C   UNL A   1      34.033  35.643  32.842  1.00  0.00     0.329 C 
BRANCH   7   8
ATOM      8  O   UNL A   1      35.462  35.666  32.788  1.00  0.00    -0.483 OA
BRANCH   8   9
ATOM      9  C   UNL A   1      36.030  34.632  33.497  1.00  0.00     0.127 A 
ATOM     10  C   UNL A   1      35.701  34.516  34.852  1.00  0.00     0.047 A 
ATOM     11  C   UNL A   1      37.020  33.807  32.935  1.00  0.00     0.024 A 
ATOM     12  C   UNL A   1      36.345  33.570  35.656  1.00  0.00     0.004 A 
ATOM     13  C   UNL A   1      37.639  32.846  33.759  1.00  0.00     0.012 A 
ATOM     14  C   UNL A   1      37.313  32.733  35.109  1.00  0.00     0.001 A 
BRANCH  11  15
ATOM     15  C   UNL A   1      37.530  33.962  31.571  1.00  0.00    -0.015 A 
ATOM     16  C   UNL A   1      36.914  33.324  30.485  1.00  0.00     0.009 A 
ATOM     17  C   UNL A   1      38.716  34.680  31.351  1.00  0.00     0.009 A 
ATOM     18  C   UNL A   1      37.476  33.398  29.209  1.00  0.00     0.001 A 
ATOM     19  C   UNL A   1      39.291  34.731  30.082  1.00  0.00     0.001 A 
ATOM     20  C   UNL A   1      38.670  34.089  29.011  1.00  0.00     0.000 A 
ENDBRANCH  11  15
ENDBRANCH   8   9
ENDBRANCH   7   8
ENDBRANCH   5   7
ENDBRANCH   2   3
ENDBRANCH   1   2
BRANCH   1  21
ATOM     21  C   UNL A   1      33.959  33.691  28.039  1.00  0.00     0.023 C 
BRANCH  21  22
ATOM     22  C   UNL A   1      33.982  32.367  28.800  1.00  0.00     0.116 C 
BRANCH  22  23
ATOM     23  N   UNL A   1      33.675  31.204  27.979  1.00  0.00    -0.352 N 
ATOM     24  C   UNL A   1      34.451  30.124  27.627  1.00  0.00     0.251 C 
ATOM     25  H   UNL A   1      32.760  31.188  27.615  1.00  0.00     0.163 HD
ATOM     26  O   UNL A   1      34.011  29.287  26.841  1.00  0.00    -0.269 OA
BRANCH  24  27
ATOM     27  C   UNL A   1      35.832  29.971  28.144  1.00  0.00     0.039 A 
ATOM     28  C   UNL A   1      36.014  29.660  29.495  1.00  0.00     0.014 A 
ATOM     29  C   UNL A   1      36.946  30.137  27.319  1.00  0.00     0.014 A 
ATOM     30  C   UNL A   1      37.299  29.413  29.991  1.00  0.00     0.010 A 
ATOM     31  C   UNL A   1      38.218  29.810  27.793  1.00  0.00     0.010 A 
ATOM     32  C   UNL A   1      38.409  29.429  29.130  1.00  0.00    -0.014 A 
BRANCH  32  33
ATOM     33  C   UNL A   1      39.761  29.018  29.602  1.00  0.00     0.031 A 
ATOM     34  C   UNL A   1      40.541  29.886  30.552  1.00  0.00     0.074 A 
ATOM     35  C   UNL A   1      40.323  27.892  29.117  1.00  0.00     0.049 A 
ATOM     36  N   UNL A   1      41.757  29.726  31.015  1.00  0.00    -0.248 NA
ATOM     37  C   UNL A   1      39.877  31.108  31.029  1.00  0.00     0.031 C 
ATOM     38  C   UNL A   1      39.696  26.981  28.156  1.00  0.00     0.029 A 
ATOM     39  N   UNL A   1      41.551  27.325  29.355  1.00  0.00    -0.354 N 
ATOM     40  C   UNL A   1      42.007  30.829  31.820  1.00  0.00     0.074 A 
ATOM     41  C   UNL A   1      40.836  31.678  31.745  1.00  0.00     0.031 C 
ATOM     42  C   UNL A   1      40.531  25.960  27.909  1.00  0.00     0.029 A 
ATOM     43  C   UNL A   1      41.769  26.164  28.652  1.00  0.00     0.049 A 
ATOM     44  H   UNL A   1      42.214  27.714  29.971  1.00  0.00     0.167 HD
ATOM     45  C   UNL A   1      43.102  31.101  32.571  1.00  0.00     0.037 A 
ATOM     46  C   UNL A   1      42.848  25.358  28.602  1.00  0.00     0.037 A 
ATOM     47  C   UNL A   1      44.259  30.247  32.662  1.00  0.00     0.049 A 
ATOM     48  C   UNL A   1      44.062  25.697  29.427  1.00  0.00     0.074 A 
ATOM     49  C   UNL A   1      45.388  30.407  33.446  1.00  0.00     0.029 A 
ATOM     50  N   UNL A   1      44.440  29.078  31.938  1.00  0.00    -0.354 N 
ATOM     51  N   UNL A   1      44.254  26.704  30.244  1.00  0.00    -0.248 NA
ATOM     52  C   UNL A   1      45.209  24.784  29.324  1.00  0.00     0.031 C 
ATOM     53  C   UNL A   1      46.278  29.370  33.152  1.00  0.00     0.029 A 
ATOM     54  C   UNL A   1      45.676  28.525  32.234  1.00  0.00     0.049 A 
ATOM     55  H   UNL A   1      43.786  28.697  31.308  1.00  0.00     0.167 HD
ATOM     56  C   UNL A   1      45.524  26.526  30.779  1.00  0.00     0.074 A 
ATOM     57  C   UNL A   1      46.051  25.307  30.204  1.00  0.00     0.031 C 
ATOM     58  C   UNL A   1      46.190  27.304  31.666  1.00  0.00     0.037 A 
BRANCH  45  59
ATOM     59  C   UNL A   1      43.109  32.382  33.358  1.00  0.00     0.064 A 
ATOM     60  C   UNL A   1      43.630  33.572  32.827  1.00  0.00     0.173 A 
ATOM     61  C   UNL A   1      42.541  32.432  34.640  1.00  0.00     0.173 A 
ATOM     62  F   UNL A   1      44.191  33.580  31.609  1.00  0.00    -0.203 F 
ATOM     63  C   UNL A   1      43.610  34.755  33.562  1.00  0.00     0.198 A 
ATOM     64  C   UNL A   1      42.491  33.624  35.359  1.00  0.00     0.198 A 
ATOM     65  F   UNL A   1      42.019  31.326  35.193  1.00  0.00    -0.203 F 
ATOM     66  F   UNL A   1      44.159  35.867  33.054  1.00  0.00    -0.200 F 
ATOM     67  C   UNL A   1      43.033  34.782  34.823  1.00  0.00     0.200 A 
ATOM     68  F   UNL A   1      41.917  33.651  36.570  1.00  0.00    -0.200 F 
ATOM     69  F   UNL A   1      43.005  35.923  35.524  1.00  0.00    -0.200 F 
ENDBRANCH  45  59
BRANCH  46  70
ATOM     70  C   UNL A   1      42.832  24.137  27.752  1.00  0.00     0.064 A 
ATOM     71  C   UNL A   1      43.132  24.208  26.384  1.00  0.00     0.173 A 
ATOM     72  C   UNL A   1      42.495  22.881  28.279  1.00  0.00     0.173 A 
ATOM     73  F   UNL A   1      43.438  25.390  25.827  1.00  0.00    -0.203 F 
ATOM     74  C   UNL A   1      43.071  23.078  25.571  1.00  0.00     0.198 A 
ATOM     75  C   UNL A   1      42.466  21.746  27.472  1.00  0.00     0.198 A 
ATOM     76  F   UNL A   1      42.201  22.755  29.581  1.00  0.00    -0.203 F 
ATOM     77  F   UNL A   1      43.306  23.187  24.257  1.00  0.00    -0.200 F 
ATOM     78  C   UNL A   1      42.743  21.846  26.117  1.00  0.00     0.200 A 
ATOM     79  F   UNL A   1      42.163  20.555  28.006  1.00  0.00    -0.200 F 
ATOM     80  F   UNL A   1      42.683  20.759  25.335  1.00  0.00    -0.200 F 
ENDBRANCH  46  70
BRANCH  58  81
ATOM     81  C   UNL A   1      47.549  26.839  32.112  1.00  0.00     0.064 A 
ATOM     82  C   UNL A   1      47.712  25.944  33.180  1.00  0.00     0.173 A 
ATOM     83  C   UNL A   1      48.701  27.267  31.433  1.00  0.00     0.173 A 
ATOM     84  F   UNL A   1      46.646  25.516  33.872  1.00  0.00    -0.203 F 
ATOM     85  C   UNL A   1      48.980  25.520  33.571  1.00  0.00     0.198 A 
ATOM     86  C   UNL A   1      49.963  26.813  31.804  1.00  0.00     0.198 A 
ATOM     87  F   UNL A   1      48.602  28.117  30.400  1.00  0.00    -0.203 F 
ATOM     88  F   UNL A   1      49.116  24.708  34.628  1.00  0.00    -0.200 F 
ATOM     89  C   UNL A   1      50.103  25.947  32.877  1.00  0.00     0.200 A 
ATOM     90  F   UNL A   1      51.045  27.213  31.121  1.00  0.00    -0.200 F 
ATOM     91  F   UNL A   1      51.321  25.529  33.248  1.00  0.00    -0.200 F 
ENDBRANCH  58  81
ENDBRANCH  32  33
ENDBRANCH  24  27
ENDBRANCH  22  23
ENDBRANCH  21  22
ENDBRANCH   1  21
TORSDOF 14
ENDMDL
MODEL 3
REMARK VINA RESULT:     -10.3      1.211      2.577
REMARK SMILES O=C(COc1ccccc1-c1ccccc1)NCCCCNC(=O)c1ccc(-c2c3nc(c(-c4c(F)c(F)c(F)c(F)c4F)c4ccc([nH]4)c(-c4c(F)c(F)c(F)c(F)c4F)c4nc(c(-c5c(F)c(F)c(F)c(F)c5F)c5ccc2[nH]5)C=C4)C=C3)cc1
REMARK SMILES IDX 19 1 18 2 17 3 1 4 2 5 3 7 4 8 5 9 6 10 10 11 7 12 9 13 8 14
REMARK SMILES IDX 11 15 12 16 16 17 13 18 15 19 14 20 20 21 21 22 22 23 23 24
REMARK SMILES IDX 24 26 25 27 26 28 87 29 27 30 86 31 28 32 29 33 30 34 80 35
REMARK SMILES IDX 31 36 85 37 79 38 81 39 32 40 84 41 78 42 77 43 33 45 65 46
REMARK SMILES IDX 45 47 64 48 46 49 49 50 63 51 82 52 47 53 48 54 62 56 83 57
REMARK SMILES IDX 50 58 34 59 35 60 43 61 36 62 37 63 41 64 44 65 38 66 39 67
REMARK SMILES IDX 42 68 40 69 66 70 67 71 75 72 68 73 69 74 73 75 76 76 70 77
REMARK SMILES IDX 71 78 74 79 72 80 51 81 52 82 60 83 53 84 54 85 58 86 61 87
REMARK SMILES IDX 55 88 56 89 59 90 57 91
REMARK H PARENT 17 6 22 25 81 44 49 55
REMARK Flexibility Score: inf
ROOT
ATOM      1  C   UNL A   1      33.247  34.879  29.061  1.00  0.00     0.023 C 
ENDROOT
BRANCH   1   2
ATOM      2  C   UNL A   1      33.019  35.807  30.250  1.00  0.00     0.116 C 
BRANCH   2   3
ATOM      3  N   UNL A   1      34.089  35.890  31.225  1.00  0.00    -0.353 N 
ATOM      4  O   UNL A   1      33.278  34.204  32.571  1.00  0.00    -0.271 OA
ATOM      5  C   UNL A   1      34.199  34.945  32.235  1.00  0.00     0.257 C 
ATOM      6  H   UNL A   1      34.744  36.624  31.171  1.00  0.00     0.163 HD
BRANCH   5   7
ATOM      7  C   UNL A   1      35.556  34.917  32.953  1.00  0.00     0.329 C 
BRANCH   7   8
ATOM      8  O   UNL A   1      36.346  33.775  32.609  1.00  0.00    -0.483 OA
BRANCH   8   9
ATOM      9  C   UNL A   1      37.635  34.115  32.266  1.00  0.00     0.127 A 
ATOM     10  C   UNL A   1      37.877  34.490  30.939  1.00  0.00     0.047 A 
ATOM     11  C   UNL A   1      38.706  33.951  33.161  1.00  0.00     0.024 A 
ATOM     12  C   UNL A   1      39.184  34.717  30.496  1.00  0.00     0.004 A 
ATOM     13  C   UNL A   1      40.013  34.208  32.698  1.00  0.00     0.012 A 
ATOM     14  C   UNL A   1      40.253  34.578  31.377  1.00  0.00     0.001 A 
BRANCH  11  15
ATOM     15  C   UNL A   1      38.558  33.418  34.517  1.00  0.00    -0.015 A 
ATOM     16  C   UNL A   1      38.398  32.044  34.748  1.00  0.00     0.009 A 
ATOM     17  C   UNL A   1      38.474  34.302  35.604  1.00  0.00     0.009 A 
ATOM     18  C   UNL A   1      38.153  31.567  36.037  1.00  0.00     0.001 A 
ATOM     19  C   UNL A   1      38.203  33.828  36.887  1.00  0.00     0.001 A 
ATOM     20  C   UNL A   1      38.042  32.459  37.103  1.00  0.00     0.000 A 
ENDBRANCH  11  15
ENDBRANCH   8   9
ENDBRANCH   7   8
ENDBRANCH   5   7
ENDBRANCH   2   3
ENDBRANCH   1   2
BRANCH   1  21
ATOM     21  C   UNL A   1      34.698  34.633  28.647  1.00  0.00     0.023 C 
BRANCH  21  22
ATOM     22  C   UNL A   1      35.193  33.190  28.702  1.00  0.00     0.116 C 
BRANCH  22  23
ATOM     23  N   UNL A   1      34.359  32.246  27.971  1.00  0.00    -0.352 N 
ATOM     24  C   UNL A   1      34.575  30.928  27.638  1.00  0.00     0.251 C 
ATOM     25  H   UNL A   1      33.498  32.611  27.663  1.00  0.00     0.163 HD
ATOM     26  O   UNL A   1      33.761  30.337  26.930  1.00  0.00    -0.269 OA
BRANCH  24  27
ATOM     27  C   UNL A   1      35.797  30.216  28.080  1.00  0.00     0.039 A 
ATOM     28  C   UNL A   1      36.924  30.235  27.251  1.00  0.00     0.014 A 
ATOM     29  C   UNL A   1      35.846  29.525  29.292  1.00  0.00     0.014 A 
ATOM     30  C   UNL A   1      38.122  29.656  27.683  1.00  0.00     0.010 A 
ATOM     31  C   UNL A   1      37.061  29.021  29.759  1.00  0.00     0.010 A 
ATOM     32  C   UNL A   1      38.219  29.093  28.967  1.00  0.00    -0.014 A 
BRANCH  32  33
ATOM     33  C   UNL A   1      39.521  28.613  29.506  1.00  0.00     0.031 A 
ATOM     34  C   UNL A   1      40.252  29.394  30.564  1.00  0.00     0.074 A 
ATOM     35  C   UNL A   1      40.088  27.503  28.989  1.00  0.00     0.049 A 
ATOM     36  N   UNL A   1      41.427  29.168  31.100  1.00  0.00    -0.248 NA
ATOM     37  C   UNL A   1      39.586  30.603  31.072  1.00  0.00     0.031 C 
ATOM     38  C   UNL A   1      39.510  26.675  27.928  1.00  0.00     0.029 A 
ATOM     39  N   UNL A   1      41.281  26.885  29.276  1.00  0.00    -0.354 N 
ATOM     40  C   UNL A   1      41.645  30.210  31.993  1.00  0.00     0.074 A 
ATOM     41  C   UNL A   1      40.505  31.096  31.890  1.00  0.00     0.031 C 
ATOM     42  C   UNL A   1      40.334  25.647  27.674  1.00  0.00     0.029 A 
ATOM     43  C   UNL A   1      41.520  25.765  28.515  1.00  0.00     0.049 A 
ATOM     44  H   UNL A   1      41.906  27.214  29.961  1.00  0.00     0.167 HD
ATOM     45  C   UNL A   1      42.689  30.400  32.836  1.00  0.00     0.037 A 
ATOM     46  C   UNL A   1      42.579  24.932  28.489  1.00  0.00     0.037 A 
ATOM     47  C   UNL A   1      43.814  29.507  32.952  1.00  0.00     0.049 A 
ATOM     48  C   UNL A   1      43.737  25.181  29.419  1.00  0.00     0.074 A 
ATOM     49  C   UNL A   1      44.887  29.582  33.823  1.00  0.00     0.029 A 
ATOM     50  N   UNL A   1      44.017  28.382  32.167  1.00  0.00    -0.354 N 
ATOM     51  N   UNL A   1      43.894  26.127  30.312  1.00  0.00    -0.248 NA
ATOM     52  C   UNL A   1      44.865  24.242  29.338  1.00  0.00     0.031 C 
ATOM     53  C   UNL A   1      45.769  28.540  33.525  1.00  0.00     0.029 A 
ATOM     54  C   UNL A   1      45.214  27.774  32.514  1.00  0.00     0.049 A 
ATOM     55  H   UNL A   1      43.402  28.061  31.469  1.00  0.00     0.167 HD
ATOM     56  C   UNL A   1      45.117  25.877  30.923  1.00  0.00     0.074 A 
ATOM     57  C   UNL A   1      45.654  24.682  30.308  1.00  0.00     0.031 C 
ATOM     58  C   UNL A   1      45.737  26.577  31.905  1.00  0.00     0.037 A 
BRANCH  45  59
ATOM     59  C   UNL A   1      42.671  31.627  33.704  1.00  0.00     0.064 A 
ATOM     60  C   UNL A   1      42.020  31.643  34.946  1.00  0.00     0.173 A 
ATOM     61  C   UNL A   1      43.359  32.785  33.312  1.00  0.00     0.173 A 
ATOM     62  F   UNL A   1      41.340  30.566  35.368  1.00  0.00    -0.203 F 
ATOM     63  C   UNL A   1      42.030  32.782  35.748  1.00  0.00     0.198 A 
ATOM     64  C   UNL A   1      43.398  33.911  34.130  1.00  0.00     0.198 A 
ATOM     65  F   UNL A   1      44.009  32.822  32.138  1.00  0.00    -0.203 F 
ATOM     66  F   UNL A   1      41.359  32.791  36.907  1.00  0.00    -0.200 F 
ATOM     67  C   UNL A   1      42.726  33.911  35.343  1.00  0.00     0.200 A 
ATOM     68  F   UNL A   1      44.086  34.995  33.745  1.00  0.00    -0.200 F 
ATOM     69  F   UNL A   1      42.746  35.003  36.121  1.00  0.00    -0.200 F 
ENDBRANCH  45  59
BRANCH  46  70
ATOM     70  C   UNL A   1      42.593  23.768  27.561  1.00  0.00     0.064 A 
ATOM     71  C   UNL A   1      42.197  22.496  27.998  1.00  0.00     0.173 A 
ATOM     72  C   UNL A   1      43.022  23.896  26.232  1.00  0.00     0.173 A 
ATOM     73  F   UNL A   1      41.800  22.317  29.267  1.00  0.00    -0.203 F 
ATOM     74  C   UNL A   1      42.254  21.392  27.149  1.00  0.00     0.198 A 
ATOM     75  C   UNL A   1      43.047  22.798  25.375  1.00  0.00     0.198 A 
ATOM     76  F   UNL A   1      43.409  25.090  25.762  1.00  0.00    -0.203 F 
ATOM     77  F   UNL A   1      41.925  20.178  27.610  1.00  0.00    -0.200 F 
ATOM     78  C   UNL A   1      42.675  21.545  25.836  1.00  0.00     0.200 A 
ATOM     79  F   UNL A   1      43.440  22.953  24.104  1.00  0.00    -0.200 F 
ATOM     80  F   UNL A   1      42.730  20.483  25.021  1.00  0.00    -0.200 F 
ENDBRANCH  46  70
BRANCH  58  81
ATOM     81  C   UNL A   1      47.047  26.043  32.414  1.00  0.00     0.064 A 
ATOM     82  C   UNL A   1      48.275  26.448  31.868  1.00  0.00     0.173 A 
ATOM     83  C   UNL A   1      47.074  25.141  33.489  1.00  0.00     0.173 A 
ATOM     84  F   UNL A   1      48.306  27.297  30.830  1.00  0.00    -0.203 F 
ATOM     85  C   UNL A   1      49.477  25.948  32.362  1.00  0.00     0.198 A 
ATOM     86  C   UNL A   1      48.279  24.670  34.003  1.00  0.00     0.198 A 
ATOM     87  F   UNL A   1      45.930  24.726  34.053  1.00  0.00    -0.203 F 
ATOM     88  F   UNL A   1      50.635  26.307  31.790  1.00  0.00    -0.200 F 
ATOM     89  C   UNL A   1      49.479  25.067  33.433  1.00  0.00     0.200 A 
ATOM     90  F   UNL A   1      48.278  23.833  35.049  1.00  0.00    -0.200 F 
ATOM     91  F   UNL A   1      50.638  24.594  33.913  1.00  0.00    -0.200 F 
ENDBRANCH  58  81
ENDBRANCH  32  33
ENDBRANCH  24  27
ENDBRANCH  22  23
ENDBRANCH  21  22
ENDBRANCH   1  21
TORSDOF 14
ENDMDL
