MODEL 1
REMARK VINA RESULT:     -12.8      0.000      0.000
REMARK SMILES CC[C@H]1CC[C@](C(=O)NCCCCNC(=O)c2ccc(-c3c4nc(c(-c5c(F)c(F)c(F)c(F)c5F)c5ccc([nH]5)c(-c5c(F)c(F)c(F)c(F)c5F)c5nc(c(-c6c(F)c(F)c(F)c(F)c6F)c6ccc3[nH]6)C=C5)C=C4)cc2)([C@H]2CCC[C@@H](S(C)(=O)=O)C2)CC1
REMARK SMILES IDX 11 1 10 2 9 3 7 4 8 5 6 7 3 8 91 9 4 10 90 11 5 12 2 13 1 14
REMARK SMILES IDX 80 15 81 16 89 17 82 18 84 19 83 20 85 21 86 22 87 23 88 24
REMARK SMILES IDX 12 25 13 26 14 27 15 28 16 30 17 31 18 32 79 33 19 34 78 35
REMARK SMILES IDX 20 36 21 37 22 38 72 39 23 40 77 41 71 42 73 43 24 44 76 45
REMARK SMILES IDX 70 46 69 47 25 49 57 50 37 51 56 52 38 53 41 54 55 55 74 56
REMARK SMILES IDX 39 57 40 58 54 60 75 61 42 62 26 63 27 64 35 65 28 66 29 67
REMARK SMILES IDX 33 68 36 69 30 70 31 71 34 72 32 73 58 74 59 75 67 76 60 77
REMARK SMILES IDX 61 78 65 79 68 80 62 81 63 82 66 83 64 84 43 85 44 86 52 87
REMARK SMILES IDX 45 88 46 89 50 90 53 91 47 92 48 93 51 94 49 95
REMARK H PARENT 9 6 14 29 73 48 41 59
REMARK Flexibility Score: inf
ROOT
ATOM      1  C   UNL A   1      32.655  29.692  26.944  1.00  0.00     0.023 C 
ENDROOT
BRANCH   1   2
ATOM      2  C   UNL A   1      31.733  28.718  26.220  1.00  0.00     0.116 C 
BRANCH   2   3
ATOM      3  N   UNL A   1      32.423  27.498  25.857  1.00  0.00    -0.356 N 
ATOM      4  C   UNL A   1      32.864  27.379  24.570  1.00  0.00     0.226 C 
ATOM      5  O   UNL A   1      33.775  28.101  24.168  1.00  0.00    -0.274 OA
ATOM      6  H   UNL A   1      32.567  26.778  26.514  1.00  0.00     0.163 HD
BRANCH   4   7
ATOM      7  C   UNL A   1      32.174  26.335  23.681  1.00  0.00     0.052 C 
ATOM      8  C   UNL A   1      29.733  27.987  22.794  1.00  0.00    -0.011 C 
ATOM      9  C   UNL A   1      31.166  28.266  22.324  1.00  0.00     0.005 C 
ATOM     10  C   UNL A   1      29.644  27.008  23.972  1.00  0.00     0.005 C 
ATOM     11  C   UNL A   1      32.053  27.012  22.285  1.00  0.00     0.017 C 
ATOM     12  C   UNL A   1      30.724  25.938  24.077  1.00  0.00     0.017 C 
BRANCH   8  13
ATOM     13  C   UNL A   1      28.928  29.259  23.168  1.00  0.00    -0.000 C 
ATOM     14  C   UNL A   1      27.422  29.185  22.982  1.00  0.00     0.004 C 
ENDBRANCH   8  13
BRANCH   7  15
ATOM     15  C   UNL A   1      33.052  25.006  23.617  1.00  0.00     0.006 C 
ATOM     16  C   UNL A   1      34.529  25.102  24.044  1.00  0.00     0.005 C 
ATOM     17  C   UNL A   1      32.414  23.693  24.157  1.00  0.00     0.024 C 
ATOM     18  C   UNL A   1      34.813  24.750  25.499  1.00  0.00     0.002 C 
ATOM     19  C   UNL A   1      32.816  23.146  25.533  1.00  0.00     0.108 C 
ATOM     20  C   UNL A   1      34.283  23.380  25.892  1.00  0.00     0.020 C 
BRANCH  19  21
ATOM     21  S   UNL A   1      31.718  23.503  26.923  1.00  0.00     0.150 S 
ATOM     22  C   UNL A   1      30.148  22.762  26.536  1.00  0.00     0.158 C 
ATOM     23  O   UNL A   1      32.228  22.776  28.072  1.00  0.00    -0.229 OA
ATOM     24  O   UNL A   1      31.497  24.932  27.026  1.00  0.00    -0.229 OA
ENDBRANCH  19  21
ENDBRANCH   7  15
ENDBRANCH   4   7
ENDBRANCH   2   3
ENDBRANCH   1   2
BRANCH   1  25
ATOM     25  C   UNL A   1      32.191  31.140  26.864  1.00  0.00     0.023 C 
BRANCH  25  26
ATOM     26  C   UNL A   1      33.135  32.162  27.484  1.00  0.00     0.116 C 
BRANCH  26  27
ATOM     27  N   UNL A   1      32.582  33.503  27.607  1.00  0.00    -0.352 N 
ATOM     28  C   UNL A   1      33.039  34.524  28.413  1.00  0.00     0.251 C 
ATOM     29  H   UNL A   1      31.795  33.703  27.051  1.00  0.00     0.163 HD
ATOM     30  O   UNL A   1      32.466  35.602  28.461  1.00  0.00    -0.269 OA
BRANCH  28  31
ATOM     31  C   UNL A   1      34.212  34.258  29.273  1.00  0.00     0.039 A 
ATOM     32  C   UNL A   1      34.007  33.680  30.527  1.00  0.00     0.014 A 
ATOM     33  C   UNL A   1      35.504  34.448  28.777  1.00  0.00     0.014 A 
ATOM     34  C   UNL A   1      35.102  33.198  31.245  1.00  0.00     0.010 A 
ATOM     35  C   UNL A   1      36.583  33.895  29.457  1.00  0.00     0.010 A 
ATOM     36  C   UNL A   1      36.392  33.251  30.691  1.00  0.00    -0.014 A 
BRANCH  36  37
ATOM     37  C   UNL A   1      37.552  32.618  31.367  1.00  0.00     0.031 A 
ATOM     38  C   UNL A   1      38.263  31.467  30.713  1.00  0.00     0.074 A 
ATOM     39  C   UNL A   1      37.904  33.015  32.606  1.00  0.00     0.049 A 
ATOM     40  N   UNL A   1      39.227  30.715  31.181  1.00  0.00    -0.248 NA
ATOM     41  C   UNL A   1      37.808  31.087  29.366  1.00  0.00     0.031 C 
ATOM     42  C   UNL A   1      37.248  34.073  33.379  1.00  0.00     0.029 A 
ATOM     43  N   UNL A   1      38.894  32.562  33.445  1.00  0.00    -0.354 N 
ATOM     44  C   UNL A   1      39.468  29.761  30.204  1.00  0.00     0.074 A 
ATOM     45  C   UNL A   1      38.525  29.998  29.134  1.00  0.00     0.031 C 
ATOM     46  C   UNL A   1      37.863  34.199  34.566  1.00  0.00     0.029 A 
ATOM     47  C   UNL A   1      38.934  33.212  34.655  1.00  0.00     0.049 A 
ATOM     48  H   UNL A   1      39.515  31.839  33.202  1.00  0.00     0.167 HD
ATOM     49  C   UNL A   1      40.408  28.786  30.190  1.00  0.00     0.037 A 
ATOM     50  C   UNL A   1      39.741  33.027  35.718  1.00  0.00     0.037 A 
ATOM     51  C   UNL A   1      41.383  28.589  31.229  1.00  0.00     0.049 A 
ATOM     52  C   UNL A   1      40.807  31.966  35.654  1.00  0.00     0.074 A 
ATOM     53  C   UNL A   1      42.436  27.690  31.262  1.00  0.00     0.029 A 
ATOM     54  N   UNL A   1      41.430  29.305  32.414  1.00  0.00    -0.354 N 
ATOM     55  N   UNL A   1      41.082  31.127  34.685  1.00  0.00    -0.248 NA
ATOM     56  C   UNL A   1      41.680  31.829  36.829  1.00  0.00     0.031 C 
ATOM     57  C   UNL A   1      43.100  27.841  32.483  1.00  0.00     0.029 A 
ATOM     58  C   UNL A   1      42.485  28.860  33.192  1.00  0.00     0.049 A 
ATOM     59  H   UNL A   1      40.806  30.025  32.665  1.00  0.00     0.167 HD
ATOM     60  C   UNL A   1      42.175  30.388  35.118  1.00  0.00     0.074 A 
ATOM     61  C   UNL A   1      42.522  30.887  36.432  1.00  0.00     0.031 C 
ATOM     62  C   UNL A   1      42.830  29.385  34.486  1.00  0.00     0.037 A 
BRANCH  49  63
ATOM     63  C   UNL A   1      40.445  27.867  29.007  1.00  0.00     0.064 A 
ATOM     64  C   UNL A   1      39.681  26.692  28.968  1.00  0.00     0.173 A 
ATOM     65  C   UNL A   1      41.205  28.197  27.875  1.00  0.00     0.173 A 
ATOM     66  F   UNL A   1      38.947  26.327  30.031  1.00  0.00    -0.203 F 
ATOM     67  C   UNL A   1      39.691  25.870  27.845  1.00  0.00     0.198 A 
ATOM     68  C   UNL A   1      41.191  27.387  26.744  1.00  0.00     0.198 A 
ATOM     69  F   UNL A   1      41.948  29.314  27.860  1.00  0.00    -0.203 F 
ATOM     70  F   UNL A   1      38.981  24.733  27.843  1.00  0.00    -0.200 F 
ATOM     71  C   UNL A   1      40.438  26.222  26.731  1.00  0.00     0.200 A 
ATOM     72  F   UNL A   1      41.904  27.734  25.663  1.00  0.00    -0.200 F 
ATOM     73  F   UNL A   1      40.434  25.437  25.645  1.00  0.00    -0.200 F 
ENDBRANCH  49  63
BRANCH  50  74
ATOM     74  C   UNL A   1      39.598  33.876  36.929  1.00  0.00     0.064 A 
ATOM     75  C   UNL A   1      38.849  33.437  38.030  1.00  0.00     0.173 A 
ATOM     76  C   UNL A   1      40.172  35.153  37.000  1.00  0.00     0.173 A 
ATOM     77  F   UNL A   1      38.261  32.231  38.001  1.00  0.00    -0.203 F 
ATOM     78  C   UNL A   1      38.652  34.254  39.141  1.00  0.00     0.198 A 
ATOM     79  C   UNL A   1      39.999  35.959  38.123  1.00  0.00     0.198 A 
ATOM     80  F   UNL A   1      40.903  35.619  35.976  1.00  0.00    -0.203 F 
ATOM     81  F   UNL A   1      37.884  33.831  40.154  1.00  0.00    -0.200 F 
ATOM     82  C   UNL A   1      39.230  35.514  39.188  1.00  0.00     0.200 A 
ATOM     83  F   UNL A   1      40.567  37.172  38.171  1.00  0.00    -0.200 F 
ATOM     84  F   UNL A   1      39.035  36.303  40.253  1.00  0.00    -0.200 F 
ENDBRANCH  50  74
BRANCH  62  85
ATOM     85  C   UNL A   1      44.016  28.790  35.184  1.00  0.00     0.064 A 
ATOM     86  C   UNL A   1      45.310  29.292  34.990  1.00  0.00     0.173 A 
ATOM     87  C   UNL A   1      43.846  27.735  36.094  1.00  0.00     0.173 A 
ATOM     88  F   UNL A   1      45.523  30.289  34.117  1.00  0.00    -0.203 F 
ATOM     89  C   UNL A   1      46.396  28.747  35.667  1.00  0.00     0.198 A 
ATOM     90  C   UNL A   1      44.930  27.211  36.790  1.00  0.00     0.198 A 
ATOM     91  F   UNL A   1      42.626  27.225  36.318  1.00  0.00    -0.203 F 
ATOM     92  F   UNL A   1      47.631  29.214  35.436  1.00  0.00    -0.200 F 
ATOM     93  C   UNL A   1      46.205  27.711  36.572  1.00  0.00     0.200 A 
ATOM     94  F   UNL A   1      44.742  26.219  37.671  1.00  0.00    -0.200 F 
ATOM     95  F   UNL A   1      47.251  27.193  37.229  1.00  0.00    -0.200 F 
ENDBRANCH  62  85
ENDBRANCH  36  37
ENDBRANCH  28  31
ENDBRANCH  26  27
ENDBRANCH  25  26
ENDBRANCH   1  25
TORSDOF 14
ENDMDL
MODEL 2
REMARK VINA RESULT:     -12.7      1.243      7.433
REMARK SMILES CC[C@H]1CC[C@](C(=O)NCCCCNC(=O)c2ccc(-c3c4nc(c(-c5c(F)c(F)c(F)c(F)c5F)c5ccc([nH]5)c(-c5c(F)c(F)c(F)c(F)c5F)c5nc(c(-c6c(F)c(F)c(F)c(F)c6F)c6ccc3[nH]6)C=C5)C=C4)cc2)([C@H]2CCC[C@@H](S(C)(=O)=O)C2)CC1
REMARK SMILES IDX 11 1 10 2 9 3 7 4 8 5 6 7 3 8 91 9 4 10 90 11 5 12 2 13 1 14
REMARK SMILES IDX 80 15 81 16 89 17 82 18 84 19 83 20 85 21 86 22 87 23 88 24
REMARK SMILES IDX 12 25 13 26 14 27 15 28 16 30 17 31 18 32 79 33 19 34 78 35
REMARK SMILES IDX 20 36 21 37 22 38 72 39 23 40 77 41 71 42 73 43 24 44 76 45
REMARK SMILES IDX 70 46 69 47 25 49 57 50 37 51 56 52 38 53 41 54 55 55 74 56
REMARK SMILES IDX 39 57 40 58 54 60 75 61 42 62 26 63 27 64 35 65 28 66 29 67
REMARK SMILES IDX 33 68 36 69 30 70 31 71 34 72 32 73 58 74 59 75 67 76 60 77
REMARK SMILES IDX 61 78 65 79 68 80 62 81 63 82 66 83 64 84 43 85 44 86 52 87
REMARK SMILES IDX 45 88 46 89 50 90 53 91 47 92 48 93 51 94 49 95
REMARK H PARENT 9 6 14 29 73 48 41 59
REMARK Flexibility Score: inf
ROOT
ATOM      1  C   UNL A   1      32.278  30.033  26.577  1.00  0.00     0.023 C 
ENDROOT
BRANCH   1   2
ATOM      2  C   UNL A   1      32.723  29.699  25.158  1.00  0.00     0.116 C 
BRANCH   2   3
ATOM      3  N   UNL A   1      33.638  28.579  25.134  1.00  0.00    -0.356 N 
ATOM      4  C   UNL A   1      33.666  27.808  24.007  1.00  0.00     0.226 C 
ATOM      5  O   UNL A   1      34.097  28.279  22.956  1.00  0.00    -0.274 OA
ATOM      6  H   UNL A   1      34.220  28.378  25.903  1.00  0.00     0.163 HD
BRANCH   4   7
ATOM      7  C   UNL A   1      33.136  26.371  24.121  1.00  0.00     0.052 C 
ATOM      8  C   UNL A   1      30.194  26.877  23.368  1.00  0.00    -0.011 C 
ATOM      9  C   UNL A   1      31.356  26.969  22.372  1.00  0.00     0.005 C 
ATOM     10  C   UNL A   1      30.637  26.805  24.835  1.00  0.00     0.005 C 
ATOM     11  C   UNL A   1      32.537  26.051  22.720  1.00  0.00     0.017 C 
ATOM     12  C   UNL A   1      31.977  26.140  25.131  1.00  0.00     0.017 C 
BRANCH   8  13
ATOM     13  C   UNL A   1      29.153  28.020  23.240  1.00  0.00    -0.000 C 
ATOM     14  C   UNL A   1      29.550  29.202  22.372  1.00  0.00     0.004 C 
ENDBRANCH   8  13
BRANCH   7  15
ATOM     15  C   UNL A   1      34.325  25.378  24.495  1.00  0.00     0.006 C 
ATOM     16  C   UNL A   1      34.477  24.968  25.972  1.00  0.00     0.005 C 
ATOM     17  C   UNL A   1      34.564  24.155  23.563  1.00  0.00     0.024 C 
ATOM     18  C   UNL A   1      33.791  23.665  26.363  1.00  0.00     0.002 C 
ATOM     19  C   UNL A   1      34.096  22.756  23.987  1.00  0.00     0.108 C 
ATOM     20  C   UNL A   1      34.205  22.492  25.488  1.00  0.00     0.020 C 
BRANCH  19  21
ATOM     21  S   UNL A   1      32.529  22.162  23.311  1.00  0.00     0.150 S 
ATOM     22  C   UNL A   1      32.397  20.447  23.762  1.00  0.00     0.158 C 
ATOM     23  O   UNL A   1      31.467  22.845  24.027  1.00  0.00    -0.229 OA
ATOM     24  O   UNL A   1      32.561  22.217  21.863  1.00  0.00    -0.229 OA
ENDBRANCH  19  21
ENDBRANCH   7  15
ENDBRANCH   4   7
ENDBRANCH   2   3
ENDBRANCH   1   2
BRANCH   1  25
ATOM     25  C   UNL A   1      31.847  31.483  26.752  1.00  0.00     0.023 C 
BRANCH  25  26
ATOM     26  C   UNL A   1      32.911  32.415  27.319  1.00  0.00     0.116 C 
BRANCH  26  27
ATOM     27  N   UNL A   1      32.457  33.775  27.566  1.00  0.00    -0.352 N 
ATOM     28  C   UNL A   1      32.999  34.691  28.444  1.00  0.00     0.251 C 
ATOM     29  H   UNL A   1      31.676  34.076  27.047  1.00  0.00     0.163 HD
ATOM     30  O   UNL A   1      32.505  35.797  28.596  1.00  0.00    -0.269 OA
BRANCH  28  31
ATOM     31  C   UNL A   1      34.165  34.271  29.251  1.00  0.00     0.039 A 
ATOM     32  C   UNL A   1      33.941  33.573  30.439  1.00  0.00     0.014 A 
ATOM     33  C   UNL A   1      35.459  34.446  28.758  1.00  0.00     0.014 A 
ATOM     34  C   UNL A   1      35.016  32.959  31.083  1.00  0.00     0.010 A 
ATOM     35  C   UNL A   1      36.514  33.766  29.357  1.00  0.00     0.010 A 
ATOM     36  C   UNL A   1      36.301  33.004  30.517  1.00  0.00    -0.014 A 
BRANCH  36  37
ATOM     37  C   UNL A   1      37.433  32.241  31.103  1.00  0.00     0.031 A 
ATOM     38  C   UNL A   1      37.943  32.593  32.472  1.00  0.00     0.074 A 
ATOM     39  C   UNL A   1      38.057  31.298  30.368  1.00  0.00     0.049 A 
ATOM     40  N   UNL A   1      38.979  32.119  33.116  1.00  0.00    -0.248 NA
ATOM     41  C   UNL A   1      37.213  33.642  33.201  1.00  0.00     0.031 C 
ATOM     42  C   UNL A   1      37.703  30.913  29.000  1.00  0.00     0.029 A 
ATOM     43  N   UNL A   1      39.137  30.503  30.665  1.00  0.00    -0.354 N 
ATOM     44  C   UNL A   1      39.041  32.832  34.304  1.00  0.00     0.074 A 
ATOM     45  C   UNL A   1      37.967  33.799  34.279  1.00  0.00     0.031 C 
ATOM     46  C   UNL A   1      38.535  29.945  28.584  1.00  0.00     0.029 A 
ATOM     47  C   UNL A   1      39.503  29.663  29.640  1.00  0.00     0.049 A 
ATOM     48  H   UNL A   1      39.606  30.531  31.529  1.00  0.00     0.167 HD
ATOM     49  C   UNL A   1      39.905  32.677  35.336  1.00  0.00     0.037 A 
ATOM     50  C   UNL A   1      40.509  28.771  29.560  1.00  0.00     0.037 A 
ATOM     51  C   UNL A   1      40.936  31.676  35.385  1.00  0.00     0.049 A 
ATOM     52  C   UNL A   1      41.424  28.590  30.743  1.00  0.00     0.074 A 
ATOM     53  C   UNL A   1      41.799  31.379  36.426  1.00  0.00     0.029 A 
ATOM     54  N   UNL A   1      41.239  30.804  34.351  1.00  0.00    -0.354 N 
ATOM     55  N   UNL A   1      41.417  29.210  31.897  1.00  0.00    -0.248 NA
ATOM     56  C   UNL A   1      42.484  27.580  30.612  1.00  0.00     0.031 C 
ATOM     57  C   UNL A   1      42.646  30.348  36.009  1.00  0.00     0.029 A 
ATOM     58  C   UNL A   1      42.285  29.977  34.724  1.00  0.00     0.049 A 
ATOM     59  H   UNL A   1      40.778  30.777  33.481  1.00  0.00     0.167 HD
ATOM     60  C   UNL A   1      42.444  28.646  32.640  1.00  0.00     0.074 A 
ATOM     61  C   UNL A   1      43.047  27.623  31.811  1.00  0.00     0.031 C 
ATOM     62  C   UNL A   1      42.855  28.949  33.895  1.00  0.00     0.037 A 
BRANCH  49  63
ATOM     63  C   UNL A   1      39.763  33.599  36.509  1.00  0.00     0.064 A 
ATOM     64  C   UNL A   1      40.416  34.840  36.549  1.00  0.00     0.173 A 
ATOM     65  C   UNL A   1      38.917  33.265  37.577  1.00  0.00     0.173 A 
ATOM     66  F   UNL A   1      41.245  35.200  35.557  1.00  0.00    -0.203 F 
ATOM     67  C   UNL A   1      40.240  35.704  37.626  1.00  0.00     0.198 A 
ATOM     68  C   UNL A   1      38.724  34.143  38.638  1.00  0.00     0.198 A 
ATOM     69  F   UNL A   1      38.266  32.091  37.583  1.00  0.00    -0.203 F 
ATOM     70  F   UNL A   1      40.901  36.870  37.660  1.00  0.00    -0.200 F 
ATOM     71  C   UNL A   1      39.388  35.361  38.664  1.00  0.00     0.200 A 
ATOM     72  F   UNL A   1      37.891  33.815  39.636  1.00  0.00    -0.200 F 
ATOM     73  F   UNL A   1      39.209  36.201  39.692  1.00  0.00    -0.200 F 
ENDBRANCH  49  63
BRANCH  50  74
ATOM     74  C   UNL A   1      40.699  27.957  28.332  1.00  0.00     0.064 A 
ATOM     75  C   UNL A   1      40.117  26.687  28.215  1.00  0.00     0.173 A 
ATOM     76  C   UNL A   1      41.491  28.411  27.267  1.00  0.00     0.173 A 
ATOM     77  F   UNL A   1      39.369  26.199  29.216  1.00  0.00    -0.203 F 
ATOM     78  C   UNL A   1      40.347  25.888  27.096  1.00  0.00     0.198 A 
ATOM     79  C   UNL A   1      41.698  27.623  26.137  1.00  0.00     0.198 A 
ATOM     80  F   UNL A   1      42.066  29.621  27.327  1.00  0.00    -0.203 F 
ATOM     81  F   UNL A   1      39.825  24.655  27.038  1.00  0.00    -0.200 F 
ATOM     82  C   UNL A   1      41.135  26.358  26.057  1.00  0.00     0.200 A 
ATOM     83  F   UNL A   1      42.450  28.085  25.128  1.00  0.00    -0.200 F 
ATOM     84  F   UNL A   1      41.361  25.588  24.984  1.00  0.00    -0.200 F 
ENDBRANCH  50  74
BRANCH  62  85
ATOM     85  C   UNL A   1      43.978  28.137  34.467  1.00  0.00     0.064 A 
ATOM     86  C   UNL A   1      43.744  26.924  35.128  1.00  0.00     0.173 A 
ATOM     87  C   UNL A   1      45.307  28.558  34.309  1.00  0.00     0.173 A 
ATOM     88  F   UNL A   1      42.488  26.489  35.318  1.00  0.00    -0.203 F 
ATOM     89  C   UNL A   1      44.800  26.169  35.629  1.00  0.00     0.198 A 
ATOM     90  C   UNL A   1      46.362  27.787  34.786  1.00  0.00     0.198 A 
ATOM     91  F   UNL A   1      45.582  29.709  33.677  1.00  0.00    -0.203 F 
ATOM     92  F   UNL A   1      44.552  25.032  36.294  1.00  0.00    -0.200 F 
ATOM     93  C   UNL A   1      46.108  26.597  35.452  1.00  0.00     0.200 A 
ATOM     94  F   UNL A   1      47.625  28.196  34.605  1.00  0.00    -0.200 F 
ATOM     95  F   UNL A   1      47.124  25.864  35.927  1.00  0.00    -0.200 F 
ENDBRANCH  62  85
ENDBRANCH  36  37
ENDBRANCH  28  31
ENDBRANCH  26  27
ENDBRANCH  25  26
ENDBRANCH   1  25
TORSDOF 14
ENDMDL
MODEL 3
REMARK VINA RESULT:     -12.7      5.419      9.742
REMARK SMILES CC[C@H]1CC[C@](C(=O)NCCCCNC(=O)c2ccc(-c3c4nc(c(-c5c(F)c(F)c(F)c(F)c5F)c5ccc([nH]5)c(-c5c(F)c(F)c(F)c(F)c5F)c5nc(c(-c6c(F)c(F)c(F)c(F)c6F)c6ccc3[nH]6)C=C5)C=C4)cc2)([C@H]2CCC[C@@H](S(C)(=O)=O)C2)CC1
REMARK SMILES IDX 11 1 10 2 9 3 7 4 8 5 6 7 3 8 91 9 4 10 90 11 5 12 2 13 1 14
REMARK SMILES IDX 80 15 81 16 89 17 82 18 84 19 83 20 85 21 86 22 87 23 88 24
REMARK SMILES IDX 12 25 13 26 14 27 15 28 16 30 17 31 18 32 79 33 19 34 78 35
REMARK SMILES IDX 20 36 21 37 22 38 72 39 23 40 77 41 71 42 73 43 24 44 76 45
REMARK SMILES IDX 70 46 69 47 25 49 57 50 37 51 56 52 38 53 41 54 55 55 74 56
REMARK SMILES IDX 39 57 40 58 54 60 75 61 42 62 26 63 27 64 35 65 28 66 29 67
REMARK SMILES IDX 33 68 36 69 30 70 31 71 34 72 32 73 58 74 59 75 67 76 60 77
REMARK SMILES IDX 61 78 65 79 68 80 62 81 63 82 66 83 64 84 43 85 44 86 52 87
REMARK SMILES IDX 45 88 46 89 50 90 53 91 47 92 48 93 51 94 49 95
REMARK H PARENT 9 6 14 29 73 48 41 59
REMARK Flexibility Score: inf
ROOT
ATOM      1  C   UNL A   1      37.084  21.527  24.829  1.00  0.00     0.023 C 
ENDROOT
BRANCH   1   2
ATOM      2  C   UNL A   1      35.807  21.512  25.660  1.00  0.00     0.116 C 
BRANCH   2   3
ATOM      3  N   UNL A   1      35.382  22.849  26.015  1.00  0.00    -0.356 N 
ATOM      4  C   UNL A   1      34.128  22.998  26.535  1.00  0.00     0.226 C 
ATOM      5  O   UNL A   1      33.870  22.542  27.647  1.00  0.00    -0.274 OA
ATOM      6  H   UNL A   1      35.975  23.624  25.884  1.00  0.00     0.163 HD
BRANCH   4   7
ATOM      7  C   UNL A   1      33.090  23.735  25.675  1.00  0.00     0.052 C 
ATOM      8  C   UNL A   1      32.179  21.392  23.899  1.00  0.00    -0.011 C 
ATOM      9  C   UNL A   1      31.852  21.505  25.392  1.00  0.00     0.005 C 
ATOM     10  C   UNL A   1      33.246  22.384  23.418  1.00  0.00     0.005 C 
ATOM     11  C   UNL A   1      31.761  22.955  25.892  1.00  0.00     0.017 C 
ATOM     12  C   UNL A   1      33.332  23.724  24.139  1.00  0.00     0.017 C 
BRANCH   8  13
ATOM     13  C   UNL A   1      32.610  19.972  23.447  1.00  0.00    -0.000 C 
ATOM     14  C   UNL A   1      32.566  18.883  24.505  1.00  0.00     0.004 C 
ENDBRANCH   8  13
BRANCH   7  15
ATOM     15  C   UNL A   1      32.968  25.252  26.147  1.00  0.00     0.006 C 
ATOM     16  C   UNL A   1      34.039  26.244  25.655  1.00  0.00     0.005 C 
ATOM     17  C   UNL A   1      31.558  25.909  26.105  1.00  0.00     0.024 C 
ATOM     18  C   UNL A   1      33.683  27.019  24.393  1.00  0.00     0.002 C 
ATOM     19  C   UNL A   1      31.191  26.884  24.978  1.00  0.00     0.108 C 
ATOM     20  C   UNL A   1      32.356  27.754  24.504  1.00  0.00     0.020 C 
BRANCH  19  21
ATOM     21  S   UNL A   1      30.233  26.232  23.592  1.00  0.00     0.150 S 
ATOM     22  C   UNL A   1      28.541  26.704  23.876  1.00  0.00     0.158 C 
ATOM     23  O   UNL A   1      30.652  26.951  22.403  1.00  0.00    -0.229 OA
ATOM     24  O   UNL A   1      30.274  24.783  23.599  1.00  0.00    -0.229 OA
ENDBRANCH  19  21
ENDBRANCH   7  15
ENDBRANCH   4   7
ENDBRANCH   2   3
ENDBRANCH   1   2
BRANCH   1  25
ATOM     25  C   UNL A   1      37.935  20.277  25.001  1.00  0.00     0.023 C 
BRANCH  25  26
ATOM     26  C   UNL A   1      39.233  20.473  25.775  1.00  0.00     0.116 C 
BRANCH  26  27
ATOM     27  N   UNL A   1      40.086  19.296  25.837  1.00  0.00    -0.352 N 
ATOM     28  C   UNL A   1      41.434  19.256  26.126  1.00  0.00     0.251 C 
ATOM     29  H   UNL A   1      39.653  18.432  25.652  1.00  0.00     0.163 HD
ATOM     30  O   UNL A   1      42.058  18.206  26.109  1.00  0.00    -0.269 OA
BRANCH  28  31
ATOM     31  C   UNL A   1      42.125  20.536  26.394  1.00  0.00     0.039 A 
ATOM     32  C   UNL A   1      42.537  21.315  25.312  1.00  0.00     0.014 A 
ATOM     33  C   UNL A   1      42.228  21.016  27.701  1.00  0.00     0.014 A 
ATOM     34  C   UNL A   1      42.964  22.625  25.536  1.00  0.00     0.010 A 
ATOM     35  C   UNL A   1      42.576  22.346  27.913  1.00  0.00     0.010 A 
ATOM     36  C   UNL A   1      42.933  23.168  26.832  1.00  0.00    -0.014 A 
BRANCH  36  37
ATOM     37  C   UNL A   1      43.242  24.599  27.078  1.00  0.00     0.031 A 
ATOM     38  C   UNL A   1      44.624  25.123  26.807  1.00  0.00     0.074 A 
ATOM     39  C   UNL A   1      42.310  25.401  27.631  1.00  0.00     0.049 A 
ATOM     40  N   UNL A   1      45.123  26.309  27.051  1.00  0.00    -0.248 NA
ATOM     41  C   UNL A   1      45.586  24.179  26.216  1.00  0.00     0.031 C 
ATOM     42  C   UNL A   1      40.953  24.995  28.006  1.00  0.00     0.029 A 
ATOM     43  N   UNL A   1      42.369  26.725  27.992  1.00  0.00    -0.354 N 
ATOM     44  C   UNL A   1      46.456  26.241  26.674  1.00  0.00     0.074 A 
ATOM     45  C   UNL A   1      46.704  24.890  26.224  1.00  0.00     0.031 C 
ATOM     46  C   UNL A   1      40.305  26.050  28.525  1.00  0.00     0.029 A 
ATOM     47  C   UNL A   1      41.205  27.198  28.552  1.00  0.00     0.049 A 
ATOM     48  H   UNL A   1      43.168  27.284  27.862  1.00  0.00     0.167 HD
ATOM     49  C   UNL A   1      47.386  27.226  26.681  1.00  0.00     0.037 A 
ATOM     50  C   UNL A   1      40.904  28.418  29.037  1.00  0.00     0.037 A 
ATOM     51  C   UNL A   1      47.122  28.584  27.073  1.00  0.00     0.049 A 
ATOM     52  C   UNL A   1      41.945  29.505  28.987  1.00  0.00     0.074 A 
ATOM     53  C   UNL A   1      47.973  29.675  27.025  1.00  0.00     0.029 A 
ATOM     54  N   UNL A   1      45.915  29.038  27.580  1.00  0.00    -0.354 N 
ATOM     55  N   UNL A   1      43.177  29.450  28.545  1.00  0.00    -0.248 NA
ATOM     56  C   UNL A   1      41.551  30.825  29.500  1.00  0.00     0.031 C 
ATOM     57  C   UNL A   1      47.290  30.784  27.533  1.00  0.00     0.029 A 
ATOM     58  C   UNL A   1      46.002  30.392  27.861  1.00  0.00     0.049 A 
ATOM     59  H   UNL A   1      45.114  28.482  27.718  1.00  0.00     0.167 HD
ATOM     60  C   UNL A   1      43.694  30.730  28.695  1.00  0.00     0.074 A 
ATOM     61  C   UNL A   1      42.636  31.545  29.257  1.00  0.00     0.031 C 
ATOM     62  C   UNL A   1      44.932  31.190  28.397  1.00  0.00     0.037 A 
BRANCH  49  63
ATOM     63  C   UNL A   1      48.773  26.879  26.233  1.00  0.00     0.064 A 
ATOM     64  C   UNL A   1      49.728  26.377  27.128  1.00  0.00     0.173 A 
ATOM     65  C   UNL A   1      49.133  26.995  24.881  1.00  0.00     0.173 A 
ATOM     66  F   UNL A   1      49.436  26.260  28.433  1.00  0.00    -0.203 F 
ATOM     67  C   UNL A   1      51.000  26.019  26.689  1.00  0.00     0.198 A 
ATOM     68  C   UNL A   1      50.396  26.610  24.443  1.00  0.00     0.198 A 
ATOM     69  F   UNL A   1      48.253  27.465  23.984  1.00  0.00    -0.203 F 
ATOM     70  F   UNL A   1      51.908  25.573  27.569  1.00  0.00    -0.200 F 
ATOM     71  C   UNL A   1      51.330  26.126  25.347  1.00  0.00     0.200 A 
ATOM     72  F   UNL A   1      50.710  26.703  23.143  1.00  0.00    -0.200 F 
ATOM     73  F   UNL A   1      52.550  25.767  24.924  1.00  0.00    -0.200 F 
ENDBRANCH  49  63
BRANCH  50  74
ATOM     74  C   UNL A   1      39.553  28.696  29.589  1.00  0.00     0.064 A 
ATOM     75  C   UNL A   1      38.527  29.184  28.767  1.00  0.00     0.173 A 
ATOM     76  C   UNL A   1      39.267  28.517  30.951  1.00  0.00     0.173 A 
ATOM     77  F   UNL A   1      38.758  29.393  27.463  1.00  0.00    -0.203 F 
ATOM     78  C   UNL A   1      37.278  29.513  29.291  1.00  0.00     0.198 A 
ATOM     79  C   UNL A   1      38.010  28.820  31.468  1.00  0.00     0.198 A 
ATOM     80  F   UNL A   1      40.212  28.048  31.779  1.00  0.00    -0.203 F 
ATOM     81  F   UNL A   1      36.335  30.031  28.493  1.00  0.00    -0.200 F 
ATOM     82  C   UNL A   1      37.020  29.328  30.641  1.00  0.00     0.200 A 
ATOM     83  F   UNL A   1      37.759  28.629  32.771  1.00  0.00    -0.200 F 
ATOM     84  F   UNL A   1      35.821  29.650  31.146  1.00  0.00    -0.200 F 
ENDBRANCH  50  74
BRANCH  62  85
ATOM     85  C   UNL A   1      45.200  32.647  28.628  1.00  0.00     0.064 A 
ATOM     86  C   UNL A   1      45.785  33.106  29.816  1.00  0.00     0.173 A 
ATOM     87  C   UNL A   1      44.911  33.587  27.628  1.00  0.00     0.173 A 
ATOM     88  F   UNL A   1      46.064  32.246  30.808  1.00  0.00    -0.203 F 
ATOM     89  C   UNL A   1      46.052  34.459  30.003  1.00  0.00     0.198 A 
ATOM     90  C   UNL A   1      45.205  34.935  27.807  1.00  0.00     0.198 A 
ATOM     91  F   UNL A   1      44.357  33.195  26.470  1.00  0.00    -0.203 F 
ATOM     92  F   UNL A   1      46.573  34.883  31.163  1.00  0.00    -0.200 F 
ATOM     93  C   UNL A   1      45.769  35.371  28.996  1.00  0.00     0.200 A 
ATOM     94  F   UNL A   1      44.942  35.813  26.829  1.00  0.00    -0.200 F 
ATOM     95  F   UNL A   1      46.035  36.672  29.175  1.00  0.00    -0.200 F 
ENDBRANCH  62  85
ENDBRANCH  36  37
ENDBRANCH  28  31
ENDBRANCH  26  27
ENDBRANCH  25  26
ENDBRANCH   1  25
TORSDOF 14
ENDMDL
