MODEL 1
REMARK VINA RESULT:     -12.8      0.000      0.000
REMARK SMILES COc1ccc(CNC(=O)[C@H]2CC(C)=C(C)C[C@@H]2C(=O)NCCCCNC(=O)c2ccc(-c3c4nc(c(-c5c(F)c(F)c(F)c(F)c5F)c5ccc([nH]5)c(-c5c(F)c(F)c(F)c(F)c5F)c5nc(c(-c6c(F)c(F)c(F)c(F)c6F)c6ccc3[nH]6)C=C5)C=C4)cc2)cc1OC
REMARK SMILES IDX 22 1 21 2 19 3 20 4 18 6 11 7 12 8 13 9 17 10 14 11 15 12
REMARK SMILES IDX 16 13 9 14 8 15 10 17 7 18 6 19 3 20 4 21 93 22 5 23 92 24
REMARK SMILES IDX 2 25 1 26 94 27 95 28 23 29 24 30 25 31 26 32 27 33 28 35
REMARK SMILES IDX 29 36 30 37 91 38 31 39 90 40 32 41 33 42 34 43 84 44 35 45
REMARK SMILES IDX 89 46 83 47 85 48 36 49 88 50 82 51 81 52 37 54 69 55 49 56
REMARK SMILES IDX 68 57 50 58 53 59 67 60 86 61 51 62 52 63 66 65 87 66 54 67
REMARK SMILES IDX 38 68 39 69 47 70 40 71 41 72 45 73 48 74 42 75 43 76 46 77
REMARK SMILES IDX 44 78 70 79 71 80 79 81 72 82 73 83 77 84 80 85 74 86 75 87
REMARK SMILES IDX 78 88 76 89 55 90 56 91 64 92 57 93 58 94 62 95 65 96 59 97
REMARK SMILES IDX 60 98 63 99 61 100
REMARK H PARENT 21 5 8 16 26 34 85 53 53 64
REMARK Flexibility Score: inf
ROOT
ATOM      1  C   UNL A   1      36.933  22.423  25.567  1.00  0.00     0.116 C 
ENDROOT
BRANCH   1   2
ATOM      2  N   UNL A   1      35.976  21.842  26.487  1.00  0.00    -0.356 N 
ATOM      3  C   UNL A   1      34.618  21.950  26.568  1.00  0.00     0.224 C 
ATOM      4  O   UNL A   1      34.111  21.453  27.577  1.00  0.00    -0.275 OA
ATOM      5  H   UNL A   1      36.376  21.266  27.178  1.00  0.00     0.163 HD
BRANCH   3   6
ATOM      6  C   UNL A   1      33.764  22.531  25.421  1.00  0.00     0.095 C 
ATOM      7  C   UNL A   1      34.210  23.900  24.880  1.00  0.00     0.095 C 
ATOM      8  C   UNL A   1      33.702  25.102  25.664  1.00  0.00     0.045 C 
ATOM      9  C   UNL A   1      32.312  25.006  26.219  1.00  0.00    -0.074 C 
ATOM     10  C   UNL A   1      32.260  22.528  25.796  1.00  0.00     0.045 C 
ATOM     11  C   UNL A   1      31.736  26.340  26.629  1.00  0.00     0.039 C 
ATOM     12  C   UNL A   1      31.661  23.829  26.296  1.00  0.00    -0.074 C 
ATOM     13  C   UNL A   1      30.273  23.712  26.872  1.00  0.00     0.039 C 
BRANCH   7  14
ATOM     14  C   UNL A   1      34.259  23.906  23.348  1.00  0.00     0.224 C 
ATOM     15  N   UNL A   1      33.228  24.141  22.517  1.00  0.00    -0.352 N 
ATOM     16  H   UNL A   1      33.504  24.322  21.590  1.00  0.00     0.163 HD
ATOM     17  O   UNL A   1      35.344  23.697  22.788  1.00  0.00    -0.275 OA
BRANCH  15  18
ATOM     18  C   UNL A   1      31.803  24.181  22.713  1.00  0.00     0.151 C 
BRANCH  18  19
ATOM     19  C   UNL A   1      31.289  25.573  22.986  1.00  0.00    -0.025 A 
ATOM     20  C   UNL A   1      30.344  28.213  23.254  1.00  0.00     0.160 A 
ATOM     21  C   UNL A   1      29.533  27.129  23.610  1.00  0.00     0.051 A 
ATOM     22  C   UNL A   1      31.655  27.994  22.822  1.00  0.00     0.161 A 
ATOM     23  C   UNL A   1      30.004  25.820  23.481  1.00  0.00     0.009 A 
ATOM     24  C   UNL A   1      32.102  26.672  22.676  1.00  0.00     0.056 A 
BRANCH  20  25
ATOM     25  O   UNL A   1      29.825  29.470  23.404  1.00  0.00    -0.493 OA
ATOM     26  C   UNL A   1      29.528  30.054  22.134  1.00  0.00     0.278 C 
ENDBRANCH  20  25
BRANCH  22  27
ATOM     27  O   UNL A   1      32.617  28.907  22.488  1.00  0.00    -0.493 OA
ATOM     28  C   UNL A   1      33.974  28.596  22.752  1.00  0.00     0.278 C 
ENDBRANCH  22  27
ENDBRANCH  18  19
ENDBRANCH  15  18
ENDBRANCH   7  14
ENDBRANCH   3   6
ENDBRANCH   1   2
BRANCH   1  29
ATOM     29  C   UNL A   1      37.331  21.392  24.501  1.00  0.00     0.023 C 
BRANCH  29  30
ATOM     30  C   UNL A   1      37.993  20.135  25.056  1.00  0.00     0.023 C 
BRANCH  30  31
ATOM     31  C   UNL A   1      39.316  20.385  25.762  1.00  0.00     0.116 C 
BRANCH  31  32
ATOM     32  N   UNL A   1      40.164  19.206  25.852  1.00  0.00    -0.352 N 
ATOM     33  C   UNL A   1      41.510  19.162  26.126  1.00  0.00     0.251 C 
ATOM     34  H   UNL A   1      39.722  18.339  25.701  1.00  0.00     0.163 HD
ATOM     35  O   UNL A   1      42.135  18.109  26.083  1.00  0.00    -0.269 OA
BRANCH  33  36
ATOM     36  C   UNL A   1      42.201  20.431  26.419  1.00  0.00     0.039 A 
ATOM     37  C   UNL A   1      42.694  21.191  25.358  1.00  0.00     0.014 A 
ATOM     38  C   UNL A   1      42.269  20.905  27.732  1.00  0.00     0.014 A 
ATOM     39  C   UNL A   1      43.193  22.469  25.607  1.00  0.00     0.010 A 
ATOM     40  C   UNL A   1      42.693  22.206  27.967  1.00  0.00     0.010 A 
ATOM     41  C   UNL A   1      43.158  23.000  26.907  1.00  0.00    -0.014 A 
BRANCH  41  42
ATOM     42  C   UNL A   1      43.600  24.388  27.183  1.00  0.00     0.031 A 
ATOM     43  C   UNL A   1      42.607  25.404  27.672  1.00  0.00     0.074 A 
ATOM     44  C   UNL A   1      44.869  24.750  26.911  1.00  0.00     0.049 A 
ATOM     45  N   UNL A   1      42.774  26.684  27.892  1.00  0.00    -0.248 NA
ATOM     46  C   UNL A   1      41.235  24.927  27.915  1.00  0.00     0.031 C 
ATOM     47  C   UNL A   1      45.903  23.869  26.363  1.00  0.00     0.029 A 
ATOM     48  N   UNL A   1      45.501  25.962  27.039  1.00  0.00    -0.354 N 
ATOM     49  C   UNL A   1      41.526  27.166  28.267  1.00  0.00     0.074 A 
ATOM     50  C   UNL A   1      40.603  26.055  28.205  1.00  0.00     0.031 C 
ATOM     51  C   UNL A   1      47.041  24.566  26.214  1.00  0.00     0.029 A 
ATOM     52  C   UNL A   1      46.810  25.948  26.625  1.00  0.00     0.049 A 
ATOM     53  H   UNL A   1      45.057  26.766  27.394  1.00  0.00     0.167 HD
ATOM     54  C   UNL A   1      41.190  28.419  28.650  1.00  0.00     0.037 A 
ATOM     55  C   UNL A   1      47.719  26.941  26.577  1.00  0.00     0.037 A 
ATOM     56  C   UNL A   1      42.125  29.506  28.763  1.00  0.00     0.049 A 
ATOM     57  C   UNL A   1      47.326  28.313  27.056  1.00  0.00     0.074 A 
ATOM     58  C   UNL A   1      41.904  30.785  29.243  1.00  0.00     0.029 A 
ATOM     59  N   UNL A   1      43.459  29.439  28.392  1.00  0.00    -0.354 N 
ATOM     60  N   UNL A   1      46.169  28.734  27.506  1.00  0.00    -0.248 NA
ATOM     61  C   UNL A   1      48.371  29.349  27.033  1.00  0.00     0.031 C 
ATOM     62  C   UNL A   1      43.096  31.506  29.121  1.00  0.00     0.029 A 
ATOM     63  C   UNL A   1      44.069  30.663  28.611  1.00  0.00     0.049 A 
ATOM     64  H   UNL A   1      43.906  28.642  28.026  1.00  0.00     0.167 HD
ATOM     65  C   UNL A   1      46.351  30.067  27.843  1.00  0.00     0.074 A 
ATOM     66  C   UNL A   1      47.736  30.384  27.562  1.00  0.00     0.031 C 
ATOM     67  C   UNL A   1      45.453  30.952  28.338  1.00  0.00     0.037 A 
BRANCH  54  68
ATOM     68  C   UNL A   1      39.754  28.686  28.990  1.00  0.00     0.064 A 
ATOM     69  C   UNL A   1      39.261  28.520  30.292  1.00  0.00     0.173 A 
ATOM     70  C   UNL A   1      38.874  29.173  28.011  1.00  0.00     0.173 A 
ATOM     71  F   UNL A   1      40.060  28.045  31.260  1.00  0.00    -0.203 F 
ATOM     72  C   UNL A   1      37.936  28.815  30.598  1.00  0.00     0.198 A 
ATOM     73  C   UNL A   1      37.557  29.493  28.328  1.00  0.00     0.198 A 
ATOM     74  F   UNL A   1      39.298  29.353  26.750  1.00  0.00    -0.203 F 
ATOM     75  F   UNL A   1      37.477  28.613  31.842  1.00  0.00    -0.200 F 
ATOM     76  C   UNL A   1      37.088  29.309  29.620  1.00  0.00     0.200 A 
ATOM     77  F   UNL A   1      36.742  29.982  27.383  1.00  0.00    -0.200 F 
ATOM     78  F   UNL A   1      35.816  29.607  29.920  1.00  0.00    -0.200 F 
ENDBRANCH  54  68
BRANCH  55  79
ATOM     79  C   UNL A   1      49.091  26.678  26.072  1.00  0.00     0.064 A 
ATOM     80  C   UNL A   1      49.442  26.968  24.746  1.00  0.00     0.173 A 
ATOM     81  C   UNL A   1      50.074  26.107  26.895  1.00  0.00     0.173 A 
ATOM     82  F   UNL A   1      48.532  27.497  23.914  1.00  0.00    -0.203 F 
ATOM     83  C   UNL A   1      50.710  26.671  24.253  1.00  0.00     0.198 A 
ATOM     84  C   UNL A   1      51.351  25.836  26.409  1.00  0.00     0.198 A 
ATOM     85  F   UNL A   1      49.793  25.816  28.174  1.00  0.00    -0.203 F 
ATOM     86  F   UNL A   1      50.999  26.907  22.967  1.00  0.00    -0.200 F 
ATOM     87  C   UNL A   1      51.665  26.108  25.086  1.00  0.00     0.200 A 
ATOM     88  F   UNL A   1      52.275  25.305  27.221  1.00  0.00    -0.200 F 
ATOM     89  F   UNL A   1      52.884  25.818  24.612  1.00  0.00    -0.200 F 
ENDBRANCH  55  79
BRANCH  67  90
ATOM     90  C   UNL A   1      45.945  32.336  28.644  1.00  0.00     0.064 A 
ATOM     91  C   UNL A   1      45.876  33.366  27.695  1.00  0.00     0.173 A 
ATOM     92  C   UNL A   1      46.450  32.644  29.917  1.00  0.00     0.173 A 
ATOM     93  F   UNL A   1      45.415  33.116  26.460  1.00  0.00    -0.203 F 
ATOM     94  C   UNL A   1      46.313  34.651  28.004  1.00  0.00     0.198 A 
ATOM     95  C   UNL A   1      46.859  33.936  30.230  1.00  0.00     0.198 A 
ATOM     96  F   UNL A   1      46.530  31.694  30.860  1.00  0.00    -0.203 F 
ATOM     97  F   UNL A   1      46.278  35.610  27.068  1.00  0.00    -0.200 F 
ATOM     98  C   UNL A   1      46.797  34.937  29.272  1.00  0.00     0.200 A 
ATOM     99  F   UNL A   1      47.312  34.214  31.460  1.00  0.00    -0.200 F 
ATOM    100  F   UNL A   1      47.209  36.176  29.569  1.00  0.00    -0.200 F 
ENDBRANCH  67  90
ENDBRANCH  41  42
ENDBRANCH  33  36
ENDBRANCH  31  32
ENDBRANCH  30  31
ENDBRANCH  29  30
ENDBRANCH   1  29
TORSDOF 16
ENDMDL
MODEL 2
REMARK VINA RESULT:     -12.7      5.536     11.027
REMARK SMILES COc1ccc(CNC(=O)[C@H]2CC(C)=C(C)C[C@@H]2C(=O)NCCCCNC(=O)c2ccc(-c3c4nc(c(-c5c(F)c(F)c(F)c(F)c5F)c5ccc([nH]5)c(-c5c(F)c(F)c(F)c(F)c5F)c5nc(c(-c6c(F)c(F)c(F)c(F)c6F)c6ccc3[nH]6)C=C5)C=C4)cc2)cc1OC
REMARK SMILES IDX 22 1 21 2 19 3 20 4 18 6 11 7 12 8 13 9 17 10 14 11 15 12
REMARK SMILES IDX 16 13 9 14 8 15 10 17 7 18 6 19 3 20 4 21 93 22 5 23 92 24
REMARK SMILES IDX 2 25 1 26 94 27 95 28 23 29 24 30 25 31 26 32 27 33 28 35
REMARK SMILES IDX 29 36 30 37 91 38 31 39 90 40 32 41 33 42 34 43 84 44 35 45
REMARK SMILES IDX 89 46 83 47 85 48 36 49 88 50 82 51 81 52 37 54 69 55 49 56
REMARK SMILES IDX 68 57 50 58 53 59 67 60 86 61 51 62 52 63 66 65 87 66 54 67
REMARK SMILES IDX 38 68 39 69 47 70 40 71 41 72 45 73 48 74 42 75 43 76 46 77
REMARK SMILES IDX 44 78 70 79 71 80 79 81 72 82 73 83 77 84 80 85 74 86 75 87
REMARK SMILES IDX 78 88 76 89 55 90 56 91 64 92 57 93 58 94 62 95 65 96 59 97
REMARK SMILES IDX 60 98 63 99 61 100
REMARK H PARENT 21 5 8 16 26 34 85 53 53 64
REMARK Flexibility Score: inf
ROOT
ATOM      1  C   UNL A   1      31.216  30.117  25.094  1.00  0.00     0.116 C 
ENDROOT
BRANCH   1   2
ATOM      2  N   UNL A   1      31.881  29.705  23.875  1.00  0.00    -0.356 N 
ATOM      3  C   UNL A   1      32.317  28.484  23.451  1.00  0.00     0.224 C 
ATOM      4  O   UNL A   1      32.995  28.497  22.419  1.00  0.00    -0.275 OA
ATOM      5  H   UNL A   1      32.047  30.436  23.237  1.00  0.00     0.163 HD
BRANCH   3   6
ATOM      6  C   UNL A   1      31.885  27.167  24.132  1.00  0.00     0.095 C 
ATOM      7  C   UNL A   1      32.671  26.777  25.394  1.00  0.00     0.095 C 
ATOM      8  C   UNL A   1      33.979  26.039  25.140  1.00  0.00     0.045 C 
ATOM      9  C   UNL A   1      33.993  25.068  23.997  1.00  0.00    -0.074 C 
ATOM     10  C   UNL A   1      31.837  26.005  23.107  1.00  0.00     0.045 C 
ATOM     11  C   UNL A   1      35.155  24.105  24.042  1.00  0.00     0.039 C 
ATOM     12  C   UNL A   1      33.025  25.064  23.060  1.00  0.00    -0.074 C 
ATOM     13  C   UNL A   1      33.037  24.109  21.893  1.00  0.00     0.039 C 
BRANCH   7  14
ATOM     14  C   UNL A   1      31.732  26.368  26.534  1.00  0.00     0.224 C 
ATOM     15  N   UNL A   1      31.060  25.209  26.639  1.00  0.00    -0.352 N 
ATOM     16  H   UNL A   1      30.694  25.046  27.537  1.00  0.00     0.163 HD
ATOM     17  O   UNL A   1      31.567  27.154  27.477  1.00  0.00    -0.275 OA
BRANCH  15  18
ATOM     18  C   UNL A   1      30.770  24.157  25.700  1.00  0.00     0.151 C 
BRANCH  18  19
ATOM     19  C   UNL A   1      31.785  23.042  25.740  1.00  0.00    -0.025 A 
ATOM     20  C   UNL A   1      33.773  21.049  25.606  1.00  0.00     0.160 A 
ATOM     21  C   UNL A   1      33.749  21.958  26.670  1.00  0.00     0.051 A 
ATOM     22  C   UNL A   1      32.770  21.085  24.633  1.00  0.00     0.161 A 
ATOM     23  C   UNL A   1      32.760  22.943  26.739  1.00  0.00     0.009 A 
ATOM     24  C   UNL A   1      31.800  22.096  24.705  1.00  0.00     0.056 A 
BRANCH  20  25
ATOM     25  O   UNL A   1      34.766  20.109  25.597  1.00  0.00    -0.493 OA
ATOM     26  C   UNL A   1      35.998  20.672  25.139  1.00  0.00     0.278 C 
ENDBRANCH  20  25
BRANCH  22  27
ATOM     27  O   UNL A   1      32.581  20.259  23.560  1.00  0.00    -0.493 OA
ATOM     28  C   UNL A   1      32.454  18.865  23.785  1.00  0.00     0.278 C 
ENDBRANCH  22  27
ENDBRANCH  18  19
ENDBRANCH  15  18
ENDBRANCH   7  14
ENDBRANCH   3   6
ENDBRANCH   1   2
BRANCH   1  29
ATOM     29  C   UNL A   1      32.255  30.461  26.171  1.00  0.00     0.023 C 
BRANCH  29  30
ATOM     30  C   UNL A   1      31.857  31.615  27.086  1.00  0.00     0.023 C 
BRANCH  30  31
ATOM     31  C   UNL A   1      32.982  32.594  27.383  1.00  0.00     0.116 C 
BRANCH  31  32
ATOM     32  N   UNL A   1      32.525  33.954  27.625  1.00  0.00    -0.352 N 
ATOM     33  C   UNL A   1      33.024  34.854  28.536  1.00  0.00     0.251 C 
ATOM     34  H   UNL A   1      31.773  34.267  27.072  1.00  0.00     0.163 HD
ATOM     35  O   UNL A   1      32.492  35.944  28.712  1.00  0.00    -0.269 OA
BRANCH  33  36
ATOM     36  C   UNL A   1      34.190  34.451  29.344  1.00  0.00     0.039 A 
ATOM     37  C   UNL A   1      33.974  33.857  30.589  1.00  0.00     0.014 A 
ATOM     38  C   UNL A   1      35.480  34.574  28.823  1.00  0.00     0.014 A 
ATOM     39  C   UNL A   1      35.055  33.317  31.283  1.00  0.00     0.010 A 
ATOM     40  C   UNL A   1      36.542  33.967  29.479  1.00  0.00     0.010 A 
ATOM     41  C   UNL A   1      36.340  33.332  30.714  1.00  0.00    -0.014 A 
BRANCH  41  42
ATOM     42  C   UNL A   1      37.489  32.686  31.393  1.00  0.00     0.031 A 
ATOM     43  C   UNL A   1      38.184  31.525  30.740  1.00  0.00     0.074 A 
ATOM     44  C   UNL A   1      37.847  33.088  32.628  1.00  0.00     0.049 A 
ATOM     45  N   UNL A   1      39.150  30.773  31.203  1.00  0.00    -0.248 NA
ATOM     46  C   UNL A   1      37.708  31.134  29.402  1.00  0.00     0.031 C 
ATOM     47  C   UNL A   1      37.198  34.156  33.392  1.00  0.00     0.029 A 
ATOM     48  N   UNL A   1      38.832  32.632  33.467  1.00  0.00    -0.354 N 
ATOM     49  C   UNL A   1      39.374  29.807  30.230  1.00  0.00     0.074 A 
ATOM     50  C   UNL A   1      38.418  30.039  29.171  1.00  0.00     0.031 C 
ATOM     51  C   UNL A   1      37.810  34.279  34.581  1.00  0.00     0.029 A 
ATOM     52  C   UNL A   1      38.872  33.282  34.676  1.00  0.00     0.049 A 
ATOM     53  H   UNL A   1      39.453  31.906  33.225  1.00  0.00     0.167 HD
ATOM     54  C   UNL A   1      40.310  28.830  30.214  1.00  0.00     0.037 A 
ATOM     55  C   UNL A   1      39.672  33.089  35.742  1.00  0.00     0.037 A 
ATOM     56  C   UNL A   1      41.294  28.640  31.245  1.00  0.00     0.049 A 
ATOM     57  C   UNL A   1      40.735  32.025  35.675  1.00  0.00     0.074 A 
ATOM     58  C   UNL A   1      42.351  27.747  31.273  1.00  0.00     0.029 A 
ATOM     59  N   UNL A   1      41.342  29.358  32.430  1.00  0.00    -0.354 N 
ATOM     60  N   UNL A   1      41.004  31.184  34.706  1.00  0.00    -0.248 NA
ATOM     61  C   UNL A   1      41.616  31.891  36.845  1.00  0.00     0.031 C 
ATOM     62  C   UNL A   1      43.013  27.895  32.496  1.00  0.00     0.029 A 
ATOM     63  C   UNL A   1      42.397  28.911  33.207  1.00  0.00     0.049 A 
ATOM     64  H   UNL A   1      40.719  30.077  32.682  1.00  0.00     0.167 HD
ATOM     65  C   UNL A   1      42.096  30.443  35.135  1.00  0.00     0.074 A 
ATOM     66  C   UNL A   1      42.452  30.944  36.446  1.00  0.00     0.031 C 
ATOM     67  C   UNL A   1      42.744  29.436  34.503  1.00  0.00     0.037 A 
BRANCH  54  68
ATOM     68  C   UNL A   1      40.327  27.895  29.041  1.00  0.00     0.064 A 
ATOM     69  C   UNL A   1      39.567  26.717  29.027  1.00  0.00     0.173 A 
ATOM     70  C   UNL A   1      41.067  28.215  27.893  1.00  0.00     0.173 A 
ATOM     71  F   UNL A   1      38.852  26.362  30.106  1.00  0.00    -0.203 F 
ATOM     72  C   UNL A   1      39.560  25.884  27.912  1.00  0.00     0.198 A 
ATOM     73  C   UNL A   1      41.036  27.393  26.770  1.00  0.00     0.198 A 
ATOM     74  F   UNL A   1      41.808  29.333  27.854  1.00  0.00    -0.203 F 
ATOM     75  F   UNL A   1      38.855  24.744  27.935  1.00  0.00    -0.200 F 
ATOM     76  C   UNL A   1      40.286  26.226  26.783  1.00  0.00     0.200 A 
ATOM     77  F   UNL A   1      41.729  27.732  25.674  1.00  0.00    -0.200 F 
ATOM     78  F   UNL A   1      40.266  25.430  25.704  1.00  0.00    -0.200 F 
ENDBRANCH  54  68
BRANCH  55  79
ATOM     79  C   UNL A   1      39.513  33.927  36.960  1.00  0.00     0.064 A 
ATOM     80  C   UNL A   1      38.759  33.477  38.053  1.00  0.00     0.173 A 
ATOM     81  C   UNL A   1      40.089  35.203  37.047  1.00  0.00     0.173 A 
ATOM     82  F   UNL A   1      38.173  32.271  38.010  1.00  0.00    -0.203 F 
ATOM     83  C   UNL A   1      38.561  34.282  39.173  1.00  0.00     0.198 A 
ATOM     84  C   UNL A   1      39.914  35.995  38.179  1.00  0.00     0.198 A 
ATOM     85  F   UNL A   1      40.826  35.678  36.032  1.00  0.00    -0.203 F 
ATOM     86  F   UNL A   1      37.789  33.849  40.179  1.00  0.00    -0.200 F 
ATOM     87  C   UNL A   1      39.142  35.539  39.237  1.00  0.00     0.200 A 
ATOM     88  F   UNL A   1      40.489  37.205  38.243  1.00  0.00    -0.200 F 
ATOM     89  F   UNL A   1      38.948  36.315  40.312  1.00  0.00    -0.200 F 
ENDBRANCH  55  79
BRANCH  67  90
ATOM     90  C   UNL A   1      43.927  28.833  35.201  1.00  0.00     0.064 A 
ATOM     91  C   UNL A   1      45.224  29.329  35.009  1.00  0.00     0.173 A 
ATOM     92  C   UNL A   1      43.752  27.776  36.108  1.00  0.00     0.173 A 
ATOM     93  F   UNL A   1      45.444  30.328  34.140  1.00  0.00    -0.203 F 
ATOM     94  C   UNL A   1      46.308  28.774  35.685  1.00  0.00     0.198 A 
ATOM     95  C   UNL A   1      44.834  27.244  36.803  1.00  0.00     0.198 A 
ATOM     96  F   UNL A   1      42.529  27.272  36.331  1.00  0.00    -0.203 F 
ATOM     97  F   UNL A   1      47.545  29.235  35.453  1.00  0.00    -0.200 F 
ATOM     98  C   UNL A   1      46.111  27.738  36.586  1.00  0.00     0.200 A 
ATOM     99  F   UNL A   1      44.639  26.254  37.684  1.00  0.00    -0.200 F 
ATOM    100  F   UNL A   1      47.154  27.212  37.242  1.00  0.00    -0.200 F 
ENDBRANCH  67  90
ENDBRANCH  41  42
ENDBRANCH  33  36
ENDBRANCH  31  32
ENDBRANCH  30  31
ENDBRANCH  29  30
ENDBRANCH   1  29
TORSDOF 16
ENDMDL
MODEL 3
REMARK VINA RESULT:     -12.6      0.743      7.253
REMARK SMILES COc1ccc(CNC(=O)[C@H]2CC(C)=C(C)C[C@@H]2C(=O)NCCCCNC(=O)c2ccc(-c3c4nc(c(-c5c(F)c(F)c(F)c(F)c5F)c5ccc([nH]5)c(-c5c(F)c(F)c(F)c(F)c5F)c5nc(c(-c6c(F)c(F)c(F)c(F)c6F)c6ccc3[nH]6)C=C5)C=C4)cc2)cc1OC
REMARK SMILES IDX 22 1 21 2 19 3 20 4 18 6 11 7 12 8 13 9 17 10 14 11 15 12
REMARK SMILES IDX 16 13 9 14 8 15 10 17 7 18 6 19 3 20 4 21 93 22 5 23 92 24
REMARK SMILES IDX 2 25 1 26 94 27 95 28 23 29 24 30 25 31 26 32 27 33 28 35
REMARK SMILES IDX 29 36 30 37 91 38 31 39 90 40 32 41 33 42 34 43 84 44 35 45
REMARK SMILES IDX 89 46 83 47 85 48 36 49 88 50 82 51 81 52 37 54 69 55 49 56
REMARK SMILES IDX 68 57 50 58 53 59 67 60 86 61 51 62 52 63 66 65 87 66 54 67
REMARK SMILES IDX 38 68 39 69 47 70 40 71 41 72 45 73 48 74 42 75 43 76 46 77
REMARK SMILES IDX 44 78 70 79 71 80 79 81 72 82 73 83 77 84 80 85 74 86 75 87
REMARK SMILES IDX 78 88 76 89 55 90 56 91 64 92 57 93 58 94 62 95 65 96 59 97
REMARK SMILES IDX 60 98 63 99 61 100
REMARK H PARENT 21 5 8 16 26 34 85 53 53 64
REMARK Flexibility Score: inf
ROOT
ATOM      1  C   UNL A   1      35.909  20.606  24.861  1.00  0.00     0.116 C 
ENDROOT
BRANCH   1   2
ATOM      2  N   UNL A   1      35.155  20.856  26.073  1.00  0.00    -0.356 N 
ATOM      3  C   UNL A   1      34.167  21.754  26.354  1.00  0.00     0.224 C 
ATOM      4  O   UNL A   1      33.840  21.819  27.542  1.00  0.00    -0.275 OA
ATOM      5  H   UNL A   1      35.397  20.274  26.828  1.00  0.00     0.163 HD
BRANCH   3   6
ATOM      6  C   UNL A   1      33.419  22.535  25.252  1.00  0.00     0.095 C 
ATOM      7  C   UNL A   1      34.053  23.870  24.830  1.00  0.00     0.095 C 
ATOM      8  C   UNL A   1      33.697  25.063  25.706  1.00  0.00     0.045 C 
ATOM      9  C   UNL A   1      32.296  25.110  26.241  1.00  0.00    -0.074 C 
ATOM     10  C   UNL A   1      31.922  22.704  25.614  1.00  0.00     0.045 C 
ATOM     11  C   UNL A   1      31.895  26.472  26.755  1.00  0.00     0.039 C 
ATOM     12  C   UNL A   1      31.492  24.029  26.215  1.00  0.00    -0.074 C 
ATOM     13  C   UNL A   1      30.090  24.054  26.770  1.00  0.00     0.039 C 
BRANCH   7  14
ATOM     14  C   UNL A   1      34.131  23.994  23.304  1.00  0.00     0.224 C 
ATOM     15  N   UNL A   1      33.139  24.378  22.482  1.00  0.00    -0.352 N 
ATOM     16  H   UNL A   1      33.445  24.608  21.576  1.00  0.00     0.163 HD
ATOM     17  O   UNL A   1      35.206  23.741  22.742  1.00  0.00    -0.275 OA
BRANCH  15  18
ATOM     18  C   UNL A   1      31.718  24.520  22.663  1.00  0.00     0.151 C 
BRANCH  18  19
ATOM     19  C   UNL A   1      31.317  25.917  23.067  1.00  0.00    -0.025 A 
ATOM     20  C   UNL A   1      30.618  28.595  23.592  1.00  0.00     0.160 A 
ATOM     21  C   UNL A   1      29.661  27.579  23.696  1.00  0.00     0.051 A 
ATOM     22  C   UNL A   1      31.945  28.279  23.288  1.00  0.00     0.161 A 
ATOM     23  C   UNL A   1      30.010  26.250  23.440  1.00  0.00     0.009 A 
ATOM     24  C   UNL A   1      32.271  26.943  23.011  1.00  0.00     0.056 A 
BRANCH  20  25
ATOM     25  O   UNL A   1      30.214  29.875  23.856  1.00  0.00    -0.493 OA
ATOM     26  C   UNL A   1      28.988  30.173  23.183  1.00  0.00     0.278 C 
ENDBRANCH  20  25
BRANCH  22  27
ATOM     27  O   UNL A   1      33.030  29.107  23.200  1.00  0.00    -0.493 OA
ATOM     28  C   UNL A   1      34.145  28.691  22.430  1.00  0.00     0.278 C 
ENDBRANCH  22  27
ENDBRANCH  18  19
ENDBRANCH  15  18
ENDBRANCH   7  14
ENDBRANCH   3   6
ENDBRANCH   1   2
BRANCH   1  29
ATOM     29  C   UNL A   1      37.375  21.019  25.058  1.00  0.00     0.023 C 
BRANCH  29  30
ATOM     30  C   UNL A   1      38.357  19.852  25.113  1.00  0.00     0.023 C 
BRANCH  30  31
ATOM     31  C   UNL A   1      39.628  20.142  25.895  1.00  0.00     0.116 C 
BRANCH  31  32
ATOM     32  N   UNL A   1      40.581  19.043  25.891  1.00  0.00    -0.352 N 
ATOM     33  C   UNL A   1      41.936  19.109  26.113  1.00  0.00     0.251 C 
ATOM     34  H   UNL A   1      40.214  18.148  25.709  1.00  0.00     0.163 HD
ATOM     35  O   UNL A   1      42.651  18.122  25.991  1.00  0.00    -0.269 OA
BRANCH  33  36
ATOM     36  C   UNL A   1      42.521  20.421  26.449  1.00  0.00     0.039 A 
ATOM     37  C   UNL A   1      43.022  21.219  25.419  1.00  0.00     0.014 A 
ATOM     38  C   UNL A   1      42.481  20.890  27.764  1.00  0.00     0.014 A 
ATOM     39  C   UNL A   1      43.418  22.525  25.700  1.00  0.00     0.010 A 
ATOM     40  C   UNL A   1      42.802  22.215  28.027  1.00  0.00     0.010 A 
ATOM     41  C   UNL A   1      43.272  23.046  26.997  1.00  0.00    -0.014 A 
BRANCH  41  42
ATOM     42  C   UNL A   1      43.603  24.458  27.301  1.00  0.00     0.031 A 
ATOM     43  C   UNL A   1      45.038  24.903  27.306  1.00  0.00     0.074 A 
ATOM     44  C   UNL A   1      42.623  25.312  27.654  1.00  0.00     0.049 A 
ATOM     45  N   UNL A   1      45.541  26.069  27.626  1.00  0.00    -0.248 NA
ATOM     46  C   UNL A   1      46.046  23.896  26.936  1.00  0.00     0.031 C 
ATOM     47  C   UNL A   1      41.201  24.975  27.756  1.00  0.00     0.029 A 
ATOM     48  N   UNL A   1      42.675  26.635  28.013  1.00  0.00    -0.354 N 
ATOM     49  C   UNL A   1      46.919  25.924  27.525  1.00  0.00     0.074 A 
ATOM     50  C   UNL A   1      47.178  24.550  27.156  1.00  0.00     0.031 C 
ATOM     51  C   UNL A   1      40.517  26.065  28.139  1.00  0.00     0.029 A 
ATOM     52  C   UNL A   1      41.452  27.168  28.339  1.00  0.00     0.049 A 
ATOM     53  H   UNL A   1      43.512  27.155  28.035  1.00  0.00     0.167 HD
ATOM     54  C   UNL A   1      47.878  26.862  27.701  1.00  0.00     0.037 A 
ATOM     55  C   UNL A   1      41.125  28.405  28.760  1.00  0.00     0.037 A 
ATOM     56  C   UNL A   1      47.611  28.240  28.013  1.00  0.00     0.049 A 
ATOM     57  C   UNL A   1      42.210  29.439  28.900  1.00  0.00     0.074 A 
ATOM     58  C   UNL A   1      48.506  29.290  28.108  1.00  0.00     0.029 A 
ATOM     59  N   UNL A   1      46.352  28.757  28.278  1.00  0.00    -0.354 N 
ATOM     60  N   UNL A   1      43.500  29.317  28.703  1.00  0.00    -0.248 NA
ATOM     61  C   UNL A   1      41.792  30.788  29.311  1.00  0.00     0.031 C 
ATOM     62  C   UNL A   1      47.793  30.437  28.474  1.00  0.00     0.029 A 
ATOM     63  C   UNL A   1      46.451  30.109  28.560  1.00  0.00     0.049 A 
ATOM     64  H   UNL A   1      45.514  28.241  28.268  1.00  0.00     0.167 HD
ATOM     65  C   UNL A   1      44.043  30.573  28.937  1.00  0.00     0.074 A 
ATOM     66  C   UNL A   1      42.940  31.449  29.275  1.00  0.00     0.031 C 
ATOM     67  C   UNL A   1      45.338  30.966  28.880  1.00  0.00     0.037 A 
BRANCH  54  68
ATOM     68  C   UNL A   1      49.309  26.437  27.551  1.00  0.00     0.064 A 
ATOM     69  C   UNL A   1      49.890  26.241  26.290  1.00  0.00     0.173 A 
ATOM     70  C   UNL A   1      50.124  26.285  28.682  1.00  0.00     0.173 A 
ATOM     71  F   UNL A   1      49.149  26.363  25.178  1.00  0.00    -0.203 F 
ATOM     72  C   UNL A   1      51.232  25.890  26.168  1.00  0.00     0.198 A 
ATOM     73  C   UNL A   1      51.472  25.961  28.555  1.00  0.00     0.198 A 
ATOM     74  F   UNL A   1      49.617  26.465  29.911  1.00  0.00    -0.203 F 
ATOM     75  F   UNL A   1      51.757  25.671  24.954  1.00  0.00    -0.200 F 
ATOM     76  C   UNL A   1      52.023  25.760  27.298  1.00  0.00     0.200 A 
ATOM     77  F   UNL A   1      52.238  25.847  29.649  1.00  0.00    -0.200 F 
ATOM     78  F   UNL A   1      53.318  25.437  27.178  1.00  0.00    -0.200 F 
ENDBRANCH  54  68
BRANCH  55  79
ATOM     79  C   UNL A   1      39.710  28.743  29.065  1.00  0.00     0.064 A 
ATOM     80  C   UNL A   1      39.183  28.553  30.350  1.00  0.00     0.173 A 
ATOM     81  C   UNL A   1      38.850  29.239  28.074  1.00  0.00     0.173 A 
ATOM     82  F   UNL A   1      39.961  28.064  31.327  1.00  0.00    -0.203 F 
ATOM     83  C   UNL A   1      37.843  28.816  30.626  1.00  0.00     0.198 A 
ATOM     84  C   UNL A   1      37.517  29.528  28.359  1.00  0.00     0.198 A 
ATOM     85  F   UNL A   1      39.305  29.446  26.830  1.00  0.00    -0.203 F 
ATOM     86  F   UNL A   1      37.352  28.572  31.848  1.00  0.00    -0.200 F 
ATOM     87  C   UNL A   1      37.011  29.307  29.631  1.00  0.00     0.200 A 
ATOM     88  F   UNL A   1      36.720  30.016  27.397  1.00  0.00    -0.200 F 
ATOM     89  F   UNL A   1      35.721  29.556  29.894  1.00  0.00    -0.200 F 
ENDBRANCH  55  79
BRANCH  67  90
ATOM     90  C   UNL A   1      45.631  32.411  29.153  1.00  0.00     0.064 A 
ATOM     91  C   UNL A   1      45.963  32.863  30.438  1.00  0.00     0.173 A 
ATOM     92  C   UNL A   1      45.626  33.346  28.106  1.00  0.00     0.173 A 
ATOM     93  F   UNL A   1      45.967  32.010  31.474  1.00  0.00    -0.203 F 
ATOM     94  C   UNL A   1      46.258  34.204  30.669  1.00  0.00     0.198 A 
ATOM     95  C   UNL A   1      45.950  34.679  28.336  1.00  0.00     0.198 A 
ATOM     96  F   UNL A   1      45.322  32.961  26.857  1.00  0.00    -0.203 F 
ATOM     97  F   UNL A   1      46.530  34.623  31.913  1.00  0.00    -0.200 F 
ATOM     98  C   UNL A   1      46.259  35.109  29.617  1.00  0.00     0.200 A 
ATOM     99  F   UNL A   1      45.965  35.549  27.316  1.00  0.00    -0.200 F 
ATOM    100  F   UNL A   1      46.552  36.397  29.841  1.00  0.00    -0.200 F 
ENDBRANCH  67  90
ENDBRANCH  41  42
ENDBRANCH  33  36
ENDBRANCH  31  32
ENDBRANCH  30  31
ENDBRANCH  29  30
ENDBRANCH   1  29
TORSDOF 16
ENDMDL
