MODEL 1
REMARK VINA RESULT:     -13.0      0.000      0.000
REMARK SMILES O=C(NCCCCNC(=O)C1(C[C@@H]2COc3ccccc32)CC[NH2+]CC1)c1ccc(-c2c3nc(c(-c4c(F)c(F)c(F)c(F)c4F)c4ccc([nH]4)c(-c4c(F)c(F)c(F)c(F)c4F)c4nc(c(-c5c(F)c(F)c(F)c(F)c5F)c5ccc2[nH]5)C=C4)C=C3)cc1
REMARK SMILES IDX 5 1 4 2 3 3 1 4 2 5 27 7 28 8 89 9 29 10 88 11 30 12 31 13
REMARK SMILES IDX 32 14 82 15 33 16 87 17 81 18 83 19 34 20 86 21 80 22 79 23
REMARK SMILES IDX 35 25 67 26 47 27 66 28 48 29 51 30 65 31 84 32 49 33 50 34
REMARK SMILES IDX 64 36 85 37 52 38 36 39 37 40 45 41 38 42 39 43 43 44 46 45
REMARK SMILES IDX 40 46 41 47 44 48 42 49 68 50 69 51 77 52 70 53 71 54 75 55
REMARK SMILES IDX 78 56 72 57 73 58 76 59 74 60 53 61 54 62 62 63 55 64 56 65
REMARK SMILES IDX 60 66 63 67 57 68 58 69 61 70 59 71 6 72 7 73 8 74 9 75
REMARK SMILES IDX 10 77 11 78 22 79 26 80 23 81 25 82 24 83 12 86 13 87 14 88
REMARK SMILES IDX 21 89 15 90 16 91 20 92 17 93 19 94 18 95
REMARK H PARENT 3 6 83 24 51 35 8 76 24 84 24 85
REMARK Flexibility Score: inf
ROOT
ATOM      1  C   UNL A   1      31.618  31.979  26.841  1.00  0.00     0.023 C 
ENDROOT
BRANCH   1   2
ATOM      2  C   UNL A   1      32.805  32.842  27.237  1.00  0.00     0.116 C 
BRANCH   2   3
ATOM      3  N   UNL A   1      32.436  34.185  27.662  1.00  0.00    -0.352 N 
ATOM      4  O   UNL A   1      32.540  36.038  28.956  1.00  0.00    -0.269 OA
ATOM      5  C   UNL A   1      33.016  34.951  28.646  1.00  0.00     0.251 C 
ATOM      6  H   UNL A   1      31.679  34.595  27.186  1.00  0.00     0.163 HD
BRANCH   5   7
ATOM      7  C   UNL A   1      34.201  34.426  29.354  1.00  0.00     0.039 A 
ATOM      8  C   UNL A   1      35.478  34.655  28.841  1.00  0.00     0.014 A 
ATOM      9  C   UNL A   1      34.027  33.653  30.505  1.00  0.00     0.014 A 
ATOM     10  C   UNL A   1      36.561  33.980  29.381  1.00  0.00     0.010 A 
ATOM     11  C   UNL A   1      35.136  33.051  31.107  1.00  0.00     0.010 A 
ATOM     12  C   UNL A   1      36.406  33.181  30.528  1.00  0.00    -0.014 A 
BRANCH  12  13
ATOM     13  C   UNL A   1      37.616  32.561  31.120  1.00  0.00     0.031 A 
ATOM     14  C   UNL A   1      38.075  32.905  32.508  1.00  0.00     0.074 A 
ATOM     15  C   UNL A   1      38.252  31.614  30.406  1.00  0.00     0.049 A 
ATOM     16  N   UNL A   1      39.061  32.387  33.198  1.00  0.00    -0.248 NA
ATOM     17  C   UNL A   1      37.345  33.969  33.214  1.00  0.00     0.031 C 
ATOM     18  C   UNL A   1      37.901  31.220  29.038  1.00  0.00     0.029 A 
ATOM     19  N   UNL A   1      39.290  30.783  30.735  1.00  0.00    -0.354 N 
ATOM     20  C   UNL A   1      39.080  33.066  34.408  1.00  0.00     0.074 A 
ATOM     21  C   UNL A   1      38.021  34.053  34.353  1.00  0.00     0.031 C 
ATOM     22  C   UNL A   1      38.661  30.180  28.672  1.00  0.00     0.029 A 
ATOM     23  C   UNL A   1      39.592  29.873  29.751  1.00  0.00     0.049 A 
ATOM     24  H   UNL A   1      39.772  30.833  31.592  1.00  0.00     0.167 HD
ATOM     25  C   UNL A   1      39.902  32.875  35.468  1.00  0.00     0.037 A 
ATOM     26  C   UNL A   1      40.519  28.900  29.720  1.00  0.00     0.037 A 
ATOM     27  C   UNL A   1      40.944  31.882  35.518  1.00  0.00     0.049 A 
ATOM     28  C   UNL A   1      41.397  28.698  30.918  1.00  0.00     0.074 A 
ATOM     29  C   UNL A   1      41.833  31.611  36.546  1.00  0.00     0.029 A 
ATOM     30  N   UNL A   1      41.235  30.990  34.496  1.00  0.00    -0.354 N 
ATOM     31  N   UNL A   1      41.399  29.345  32.057  1.00  0.00    -0.248 NA
ATOM     32  C   UNL A   1      42.402  27.632  30.828  1.00  0.00     0.031 C 
ATOM     33  C   UNL A   1      42.678  30.574  36.133  1.00  0.00     0.029 A 
ATOM     34  C   UNL A   1      42.293  30.173  34.865  1.00  0.00     0.049 A 
ATOM     35  H   UNL A   1      40.760  30.944  33.636  1.00  0.00     0.167 HD
ATOM     36  C   UNL A   1      42.407  28.774  32.818  1.00  0.00     0.074 A 
ATOM     37  C   UNL A   1      42.967  27.697  32.024  1.00  0.00     0.031 C 
ATOM     38  C   UNL A   1      42.842  29.119  34.053  1.00  0.00     0.037 A 
BRANCH  25  39
ATOM     39  C   UNL A   1      39.719  33.764  36.664  1.00  0.00     0.064 A 
ATOM     40  C   UNL A   1      40.318  35.031  36.735  1.00  0.00     0.173 A 
ATOM     41  C   UNL A   1      38.884  33.374  37.722  1.00  0.00     0.173 A 
ATOM     42  F   UNL A   1      41.134  35.447  35.756  1.00  0.00    -0.203 F 
ATOM     43  C   UNL A   1      40.097  35.868  37.826  1.00  0.00     0.198 A 
ATOM     44  C   UNL A   1      38.647  34.222  38.801  1.00  0.00     0.198 A 
ATOM     45  F   UNL A   1      38.283  32.174  37.701  1.00  0.00    -0.203 F 
ATOM     46  F   UNL A   1      40.702  37.062  37.886  1.00  0.00    -0.200 F 
ATOM     47  C   UNL A   1      39.256  35.466  38.853  1.00  0.00     0.200 A 
ATOM     48  F   UNL A   1      37.826  33.836  39.788  1.00  0.00    -0.200 F 
ATOM     49  F   UNL A   1      39.034  36.278  39.897  1.00  0.00    -0.200 F 
ENDBRANCH  25  39
BRANCH  26  50
ATOM     50  C   UNL A   1      40.655  28.055  28.506  1.00  0.00     0.064 A 
ATOM     51  C   UNL A   1      41.460  28.454  27.431  1.00  0.00     0.173 A 
ATOM     52  C   UNL A   1      40.002  26.817  28.412  1.00  0.00     0.173 A 
ATOM     53  F   UNL A   1      42.091  29.636  27.470  1.00  0.00    -0.203 F 
ATOM     54  C   UNL A   1      41.595  27.652  26.301  1.00  0.00     0.198 A 
ATOM     55  C   UNL A   1      40.163  26.003  27.295  1.00  0.00     0.198 A 
ATOM     56  F   UNL A   1      39.228  26.388  29.419  1.00  0.00    -0.203 F 
ATOM     57  F   UNL A   1      42.342  28.072  25.270  1.00  0.00    -0.200 F 
ATOM     58  C   UNL A   1      40.954  26.423  26.237  1.00  0.00     0.200 A 
ATOM     59  F   UNL A   1      39.558  24.809  27.247  1.00  0.00    -0.200 F 
ATOM     60  F   UNL A   1      41.096  25.647  25.154  1.00  0.00    -0.200 F 
ENDBRANCH  26  50
BRANCH  38  61
ATOM     61  C   UNL A   1      43.984  28.321  34.608  1.00  0.00     0.064 A 
ATOM     62  C   UNL A   1      45.314  28.722  34.411  1.00  0.00     0.173 A 
ATOM     63  C   UNL A   1      43.748  27.149  35.340  1.00  0.00     0.173 A 
ATOM     64  F   UNL A   1      45.589  29.826  33.701  1.00  0.00    -0.203 F 
ATOM     65  C   UNL A   1      46.369  27.957  34.900  1.00  0.00     0.198 A 
ATOM     66  C   UNL A   1      44.805  26.401  35.849  1.00  0.00     0.198 A 
ATOM     67  F   UNL A   1      42.493  26.729  35.556  1.00  0.00    -0.203 F 
ATOM     68  F   UNL A   1      47.633  28.328  34.654  1.00  0.00    -0.200 F 
ATOM     69  C   UNL A   1      46.114  26.801  35.621  1.00  0.00     0.200 A 
ATOM     70  F   UNL A   1      44.558  25.287  36.551  1.00  0.00    -0.200 F 
ATOM     71  F   UNL A   1      47.131  26.062  36.087  1.00  0.00    -0.200 F 
ENDBRANCH  38  61
ENDBRANCH  12  13
ENDBRANCH   5   7
ENDBRANCH   2   3
ENDBRANCH   1   2
BRANCH   1  72
ATOM     72  C   UNL A   1      31.899  30.481  26.799  1.00  0.00     0.023 C 
BRANCH  72  73
ATOM     73  C   UNL A   1      32.357  29.935  25.447  1.00  0.00     0.116 C 
BRANCH  73  74
ATOM     74  N   UNL A   1      31.255  29.558  24.580  1.00  0.00    -0.356 N 
ATOM     75  C   UNL A   1      30.892  28.399  23.966  1.00  0.00     0.226 C 
ATOM     76  H   UNL A   1      30.638  30.303  24.395  1.00  0.00     0.163 HD
ATOM     77  O   UNL A   1      29.860  28.471  23.292  1.00  0.00    -0.274 OA
BRANCH  75  78
ATOM     78  C   UNL A   1      31.687  27.080  24.085  1.00  0.00     0.061 C 
ATOM     79  C   UNL A   1      33.202  27.346  23.852  1.00  0.00     0.078 C 
ATOM     80  C   UNL A   1      31.223  26.112  22.955  1.00  0.00     0.078 C 
ATOM     81  C   UNL A   1      33.591  27.680  22.411  1.00  0.00     0.261 C 
ATOM     82  C   UNL A   1      31.647  26.571  21.560  1.00  0.00     0.261 C 
ATOM     83  N   UNL A   1      33.098  26.669  21.480  1.00  0.00    -0.346 N 
ATOM     84  H   UNL A   1      33.510  25.766  21.713  1.00  0.00     0.346 HD
ATOM     85  H   UNL A   1      33.358  26.939  20.531  1.00  0.00     0.346 HD
BRANCH  78  86
ATOM     86  C   UNL A   1      31.491  26.383  25.477  1.00  0.00     0.029 C 
BRANCH  86  87
ATOM     87  C   UNL A   1      31.306  24.850  25.620  1.00  0.00     0.062 C 
ATOM     88  C   UNL A   1      30.212  24.317  26.563  1.00  0.00     0.238 C 
ATOM     89  C   UNL A   1      32.475  24.084  26.120  1.00  0.00     0.001 A 
ATOM     90  O   UNL A   1      30.740  23.276  27.416  1.00  0.00    -0.493 OA
ATOM     91  C   UNL A   1      32.079  23.244  27.147  1.00  0.00     0.122 A 
ATOM     92  C   UNL A   1      33.797  24.118  25.707  1.00  0.00     0.008 A 
ATOM     93  C   UNL A   1      32.981  22.461  27.837  1.00  0.00     0.047 A 
ATOM     94  C   UNL A   1      34.729  23.341  26.398  1.00  0.00     0.001 A 
ATOM     95  C   UNL A   1      34.324  22.524  27.464  1.00  0.00     0.004 A 
ENDBRANCH  86  87
ENDBRANCH  78  86
ENDBRANCH  75  78
ENDBRANCH  73  74
ENDBRANCH  72  73
ENDBRANCH   1  72
TORSDOF 13
ENDMDL
MODEL 2
REMARK VINA RESULT:     -13.0      1.462      3.617
REMARK SMILES O=C(NCCCCNC(=O)C1(C[C@@H]2COc3ccccc32)CC[NH2+]CC1)c1ccc(-c2c3nc(c(-c4c(F)c(F)c(F)c(F)c4F)c4ccc([nH]4)c(-c4c(F)c(F)c(F)c(F)c4F)c4nc(c(-c5c(F)c(F)c(F)c(F)c5F)c5ccc2[nH]5)C=C4)C=C3)cc1
REMARK SMILES IDX 5 1 4 2 3 3 1 4 2 5 27 7 28 8 89 9 29 10 88 11 30 12 31 13
REMARK SMILES IDX 32 14 82 15 33 16 87 17 81 18 83 19 34 20 86 21 80 22 79 23
REMARK SMILES IDX 35 25 67 26 47 27 66 28 48 29 51 30 65 31 84 32 49 33 50 34
REMARK SMILES IDX 64 36 85 37 52 38 36 39 37 40 45 41 38 42 39 43 43 44 46 45
REMARK SMILES IDX 40 46 41 47 44 48 42 49 68 50 69 51 77 52 70 53 71 54 75 55
REMARK SMILES IDX 78 56 72 57 73 58 76 59 74 60 53 61 54 62 62 63 55 64 56 65
REMARK SMILES IDX 60 66 63 67 57 68 58 69 61 70 59 71 6 72 7 73 8 74 9 75
REMARK SMILES IDX 10 77 11 78 22 79 26 80 23 81 25 82 24 83 12 86 13 87 14 88
REMARK SMILES IDX 21 89 15 90 16 91 20 92 17 93 19 94 18 95
REMARK H PARENT 3 6 83 24 51 35 8 76 24 84 24 85
REMARK Flexibility Score: inf
ROOT
ATOM      1  C   UNL A   1      33.161  32.113  28.021  1.00  0.00     0.023 C 
ENDROOT
BRANCH   1   2
ATOM      2  C   UNL A   1      33.215  33.370  27.171  1.00  0.00     0.116 C 
BRANCH   2   3
ATOM      3  N   UNL A   1      32.661  34.546  27.828  1.00  0.00    -0.352 N 
ATOM      4  O   UNL A   1      32.455  36.080  29.479  1.00  0.00    -0.269 OA
ATOM      5  C   UNL A   1      33.078  35.140  28.996  1.00  0.00     0.251 C 
ATOM      6  H   UNL A   1      31.893  34.969  27.380  1.00  0.00     0.163 HD
BRANCH   5   7
ATOM      7  C   UNL A   1      34.267  34.600  29.685  1.00  0.00     0.039 A 
ATOM      8  C   UNL A   1      35.532  34.751  29.116  1.00  0.00     0.014 A 
ATOM      9  C   UNL A   1      34.107  33.891  30.879  1.00  0.00     0.014 A 
ATOM     10  C   UNL A   1      36.607  34.058  29.648  1.00  0.00     0.010 A 
ATOM     11  C   UNL A   1      35.214  33.273  31.468  1.00  0.00     0.010 A 
ATOM     12  C   UNL A   1      36.465  33.322  30.837  1.00  0.00    -0.014 A 
BRANCH  12  13
ATOM     13  C   UNL A   1      37.672  32.682  31.415  1.00  0.00     0.031 A 
ATOM     14  C   UNL A   1      38.156  33.020  32.795  1.00  0.00     0.074 A 
ATOM     15  C   UNL A   1      38.280  31.721  30.695  1.00  0.00     0.049 A 
ATOM     16  N   UNL A   1      39.142  32.486  33.473  1.00  0.00    -0.248 NA
ATOM     17  C   UNL A   1      37.455  34.099  33.509  1.00  0.00     0.031 C 
ATOM     18  C   UNL A   1      37.904  31.330  29.333  1.00  0.00     0.029 A 
ATOM     19  N   UNL A   1      39.307  30.872  31.011  1.00  0.00    -0.354 N 
ATOM     20  C   UNL A   1      39.189  33.167  34.681  1.00  0.00     0.074 A 
ATOM     21  C   UNL A   1      38.148  34.173  34.638  1.00  0.00     0.031 C 
ATOM     22  C   UNL A   1      38.639  30.275  28.958  1.00  0.00     0.029 A 
ATOM     23  C   UNL A   1      39.579  29.954  30.026  1.00  0.00     0.049 A 
ATOM     24  H   UNL A   1      39.802  30.915  31.862  1.00  0.00     0.167 HD
ATOM     25  C   UNL A   1      40.023  32.964  35.730  1.00  0.00     0.037 A 
ATOM     26  C   UNL A   1      40.488  28.964  29.984  1.00  0.00     0.037 A 
ATOM     27  C   UNL A   1      41.047  31.952  35.768  1.00  0.00     0.049 A 
ATOM     28  C   UNL A   1      41.378  28.749  31.171  1.00  0.00     0.074 A 
ATOM     29  C   UNL A   1      41.944  31.667  36.785  1.00  0.00     0.029 A 
ATOM     30  N   UNL A   1      41.308  31.052  34.745  1.00  0.00    -0.354 N 
ATOM     31  N   UNL A   1      41.407  29.399  32.308  1.00  0.00    -0.248 NA
ATOM     32  C   UNL A   1      42.361  27.664  31.070  1.00  0.00     0.031 C 
ATOM     33  C   UNL A   1      42.765  30.614  36.363  1.00  0.00     0.029 A 
ATOM     34  C   UNL A   1      42.355  30.217  35.101  1.00  0.00     0.049 A 
ATOM     35  H   UNL A   1      40.819  31.013  33.891  1.00  0.00     0.167 HD
ATOM     36  C   UNL A   1      42.415  28.811  33.056  1.00  0.00     0.074 A 
ATOM     37  C   UNL A   1      42.944  27.722  32.258  1.00  0.00     0.031 C 
ATOM     38  C   UNL A   1      42.874  29.151  34.285  1.00  0.00     0.037 A 
BRANCH  25  39
ATOM     39  C   UNL A   1      39.872  33.859  36.926  1.00  0.00     0.064 A 
ATOM     40  C   UNL A   1      40.519  35.102  36.997  1.00  0.00     0.173 A 
ATOM     41  C   UNL A   1      39.022  33.501  37.983  1.00  0.00     0.173 A 
ATOM     42  F   UNL A   1      41.352  35.487  36.019  1.00  0.00    -0.203 F 
ATOM     43  C   UNL A   1      40.329  35.947  38.089  1.00  0.00     0.198 A 
ATOM     44  C   UNL A   1      38.816  34.358  39.062  1.00  0.00     0.198 A 
ATOM     45  F   UNL A   1      38.376  32.325  37.961  1.00  0.00    -0.203 F 
ATOM     46  F   UNL A   1      40.979  37.117  38.150  1.00  0.00    -0.200 F 
ATOM     47  C   UNL A   1      39.472  35.577  39.115  1.00  0.00     0.200 A 
ATOM     48  F   UNL A   1      37.980  34.003  40.048  1.00  0.00    -0.200 F 
ATOM     49  F   UNL A   1      39.281  36.397  40.158  1.00  0.00    -0.200 F 
ENDBRANCH  25  39
BRANCH  26  50
ATOM     50  C   UNL A   1      40.591  28.114  28.771  1.00  0.00     0.064 A 
ATOM     51  C   UNL A   1      39.883  26.911  28.666  1.00  0.00     0.173 A 
ATOM     52  C   UNL A   1      41.382  28.506  27.681  1.00  0.00     0.173 A 
ATOM     53  F   UNL A   1      39.126  26.488  29.690  1.00  0.00    -0.203 F 
ATOM     54  C   UNL A   1      39.972  26.124  27.521  1.00  0.00     0.198 A 
ATOM     55  C   UNL A   1      41.446  27.734  26.525  1.00  0.00     0.198 A 
ATOM     56  F   UNL A   1      42.072  29.655  27.730  1.00  0.00    -0.203 F 
ATOM     57  F   UNL A   1      39.313  24.958  27.459  1.00  0.00    -0.200 F 
ATOM     58  C   UNL A   1      40.746  26.539  26.448  1.00  0.00     0.200 A 
ATOM     59  F   UNL A   1      42.178  28.150  25.484  1.00  0.00    -0.200 F 
ATOM     60  F   UNL A   1      40.820  25.788  25.342  1.00  0.00    -0.200 F 
ENDBRANCH  26  50
BRANCH  38  61
ATOM     61  C   UNL A   1      44.008  28.333  34.826  1.00  0.00     0.064 A 
ATOM     62  C   UNL A   1      43.773  27.165  35.567  1.00  0.00     0.173 A 
ATOM     63  C   UNL A   1      45.336  28.720  34.604  1.00  0.00     0.173 A 
ATOM     64  F   UNL A   1      42.518  26.767  35.820  1.00  0.00    -0.203 F 
ATOM     65  C   UNL A   1      44.831  26.431  36.094  1.00  0.00     0.198 A 
ATOM     66  C   UNL A   1      46.392  27.968  35.111  1.00  0.00     0.198 A 
ATOM     67  F   UNL A   1      45.610  29.827  33.899  1.00  0.00    -0.203 F 
ATOM     68  F   UNL A   1      44.583  25.348  36.845  1.00  0.00    -0.200 F 
ATOM     69  C   UNL A   1      46.138  26.830  35.863  1.00  0.00     0.200 A 
ATOM     70  F   UNL A   1      47.656  28.351  34.883  1.00  0.00    -0.200 F 
ATOM     71  F   UNL A   1      47.156  26.125  36.376  1.00  0.00    -0.200 F 
ENDBRANCH  38  61
ENDBRANCH  12  13
ENDBRANCH   5   7
ENDBRANCH   2   3
ENDBRANCH   1   2
BRANCH   1  72
ATOM     72  C   UNL A   1      34.358  31.180  27.864  1.00  0.00     0.023 C 
BRANCH  72  73
ATOM     73  C   UNL A   1      34.068  29.850  27.170  1.00  0.00     0.116 C 
BRANCH  73  74
ATOM     74  N   UNL A   1      32.929  29.147  27.733  1.00  0.00    -0.356 N 
ATOM     75  C   UNL A   1      31.959  28.350  27.207  1.00  0.00     0.226 C 
ATOM     76  H   UNL A   1      32.838  29.276  28.705  1.00  0.00     0.163 HD
ATOM     77  O   UNL A   1      31.139  27.923  28.027  1.00  0.00    -0.274 OA
BRANCH  75  78
ATOM     78  C   UNL A   1      31.864  27.989  25.708  1.00  0.00     0.061 C 
ATOM     79  C   UNL A   1      30.929  26.760  25.514  1.00  0.00     0.078 C 
ATOM     80  C   UNL A   1      33.276  27.562  25.205  1.00  0.00     0.078 C 
ATOM     81  C   UNL A   1      31.497  25.426  26.001  1.00  0.00     0.261 C 
ATOM     82  C   UNL A   1      33.743  26.228  25.787  1.00  0.00     0.261 C 
ATOM     83  N   UNL A   1      32.814  25.166  25.426  1.00  0.00    -0.346 N 
ATOM     84  H   UNL A   1      32.735  25.120  24.410  1.00  0.00     0.346 HD
ATOM     85  H   UNL A   1      33.166  24.281  25.792  1.00  0.00     0.346 HD
BRANCH  78  86
ATOM     86  C   UNL A   1      31.341  29.181  24.834  1.00  0.00     0.029 C 
BRANCH  86  87
ATOM     87  C   UNL A   1      30.127  29.041  23.879  1.00  0.00     0.062 C 
ATOM     88  C   UNL A   1      30.317  28.313  22.536  1.00  0.00     0.238 C 
ATOM     89  C   UNL A   1      29.507  30.304  23.404  1.00  0.00     0.001 A 
ATOM     90  O   UNL A   1      29.743  29.083  21.455  1.00  0.00    -0.493 OA
ATOM     91  C   UNL A   1      29.352  30.259  22.029  1.00  0.00     0.122 A 
ATOM     92  C   UNL A   1      29.106  31.417  24.124  1.00  0.00     0.008 A 
ATOM     93  C   UNL A   1      28.856  31.331  21.316  1.00  0.00     0.047 A 
ATOM     94  C   UNL A   1      28.610  32.518  23.422  1.00  0.00     0.001 A 
ATOM     95  C   UNL A   1      28.495  32.479  22.025  1.00  0.00     0.004 A 
ENDBRANCH  86  87
ENDBRANCH  78  86
ENDBRANCH  75  78
ENDBRANCH  73  74
ENDBRANCH  72  73
ENDBRANCH   1  72
TORSDOF 13
ENDMDL
MODEL 3
REMARK VINA RESULT:     -12.9      5.429     10.467
REMARK SMILES O=C(NCCCCNC(=O)C1(C[C@@H]2COc3ccccc32)CC[NH2+]CC1)c1ccc(-c2c3nc(c(-c4c(F)c(F)c(F)c(F)c4F)c4ccc([nH]4)c(-c4c(F)c(F)c(F)c(F)c4F)c4nc(c(-c5c(F)c(F)c(F)c(F)c5F)c5ccc2[nH]5)C=C4)C=C3)cc1
REMARK SMILES IDX 5 1 4 2 3 3 1 4 2 5 27 7 28 8 89 9 29 10 88 11 30 12 31 13
REMARK SMILES IDX 32 14 82 15 33 16 87 17 81 18 83 19 34 20 86 21 80 22 79 23
REMARK SMILES IDX 35 25 67 26 47 27 66 28 48 29 51 30 65 31 84 32 49 33 50 34
REMARK SMILES IDX 64 36 85 37 52 38 36 39 37 40 45 41 38 42 39 43 43 44 46 45
REMARK SMILES IDX 40 46 41 47 44 48 42 49 68 50 69 51 77 52 70 53 71 54 75 55
REMARK SMILES IDX 78 56 72 57 73 58 76 59 74 60 53 61 54 62 62 63 55 64 56 65
REMARK SMILES IDX 60 66 63 67 57 68 58 69 61 70 59 71 6 72 7 73 8 74 9 75
REMARK SMILES IDX 10 77 11 78 22 79 26 80 23 81 25 82 24 83 12 86 13 87 14 88
REMARK SMILES IDX 21 89 15 90 16 91 20 92 17 93 19 94 18 95
REMARK H PARENT 3 6 83 24 51 35 8 76 24 84 24 85
REMARK Flexibility Score: inf
ROOT
ATOM      1  C   UNL A   1      39.358  21.082  25.699  1.00  0.00     0.023 C 
ENDROOT
BRANCH   1   2
ATOM      2  C   UNL A   1      39.890  19.980  26.600  1.00  0.00     0.116 C 
BRANCH   2   3
ATOM      3  N   UNL A   1      40.953  19.191  25.995  1.00  0.00    -0.352 N 
ATOM      4  O   UNL A   1      43.038  18.802  25.203  1.00  0.00    -0.269 OA
ATOM      5  C   UNL A   1      42.271  19.541  25.812  1.00  0.00     0.251 C 
ATOM      6  H   UNL A   1      40.698  18.294  25.679  1.00  0.00     0.163 HD
BRANCH   5   7
ATOM      7  C   UNL A   1      42.739  20.843  26.326  1.00  0.00     0.039 A 
ATOM      8  C   UNL A   1      42.751  21.089  27.699  1.00  0.00     0.014 A 
ATOM      9  C   UNL A   1      43.117  21.843  25.424  1.00  0.00     0.014 A 
ATOM     10  C   UNL A   1      42.980  22.375  28.160  1.00  0.00     0.010 A 
ATOM     11  C   UNL A   1      43.442  23.116  25.900  1.00  0.00     0.010 A 
ATOM     12  C   UNL A   1      43.341  23.401  27.269  1.00  0.00    -0.014 A 
BRANCH  12  13
ATOM     13  C   UNL A   1      43.670  24.734  27.830  1.00  0.00     0.031 A 
ATOM     14  C   UNL A   1      45.090  25.199  27.969  1.00  0.00     0.074 A 
ATOM     15  C   UNL A   1      42.649  25.556  28.138  1.00  0.00     0.049 A 
ATOM     16  N   UNL A   1      45.537  26.367  28.359  1.00  0.00    -0.248 NA
ATOM     17  C   UNL A   1      46.150  24.234  27.637  1.00  0.00     0.031 C 
ATOM     18  C   UNL A   1      41.230  25.195  28.061  1.00  0.00     0.029 A 
ATOM     19  N   UNL A   1      42.637  26.868  28.533  1.00  0.00    -0.354 N 
ATOM     20  C   UNL A   1      46.922  26.276  28.333  1.00  0.00     0.074 A 
ATOM     21  C   UNL A   1      47.246  24.929  27.912  1.00  0.00     0.031 C 
ATOM     22  C   UNL A   1      40.486  26.276  28.330  1.00  0.00     0.029 A 
ATOM     23  C   UNL A   1      41.371  27.388  28.657  1.00  0.00     0.049 A 
ATOM     24  H   UNL A   1      43.454  27.386  28.712  1.00  0.00     0.167 HD
ATOM     25  C   UNL A   1      47.834  27.233  28.628  1.00  0.00     0.037 A 
ATOM     26  C   UNL A   1      40.967  28.623  28.999  1.00  0.00     0.037 A 
ATOM     27  C   UNL A   1      47.501  28.574  29.034  1.00  0.00     0.049 A 
ATOM     28  C   UNL A   1      42.002  29.667  29.295  1.00  0.00     0.074 A 
ATOM     29  C   UNL A   1      48.353  29.618  29.357  1.00  0.00     0.029 A 
ATOM     30  N   UNL A   1      46.209  29.061  29.168  1.00  0.00    -0.354 N 
ATOM     31  N   UNL A   1      43.308  29.566  29.262  1.00  0.00    -0.248 NA
ATOM     32  C   UNL A   1      41.508  30.995  29.677  1.00  0.00     0.031 C 
ATOM     33  C   UNL A   1      47.575  30.726  29.713  1.00  0.00     0.029 A 
ATOM     34  C   UNL A   1      46.239  30.386  29.575  1.00  0.00     0.049 A 
ATOM     35  H   UNL A   1      45.390  28.542  28.997  1.00  0.00     0.167 HD
ATOM     36  C   UNL A   1      43.795  30.812  29.626  1.00  0.00     0.074 A 
ATOM     37  C   UNL A   1      42.641  31.664  29.833  1.00  0.00     0.031 C 
ATOM     38  C   UNL A   1      45.079  31.210  29.789  1.00  0.00     0.037 A 
BRANCH  25  39
ATOM     39  C   UNL A   1      49.287  26.867  28.534  1.00  0.00     0.064 A 
ATOM     40  C   UNL A   1      49.999  26.997  27.332  1.00  0.00     0.173 A 
ATOM     41  C   UNL A   1      49.992  26.443  29.671  1.00  0.00     0.173 A 
ATOM     42  F   UNL A   1      49.370  27.387  26.213  1.00  0.00    -0.203 F 
ATOM     43  C   UNL A   1      51.360  26.705  27.270  1.00  0.00     0.198 A 
ATOM     44  C   UNL A   1      51.357  26.173  29.611  1.00  0.00     0.198 A 
ATOM     45  F   UNL A   1      49.358  26.307  30.846  1.00  0.00    -0.203 F 
ATOM     46  F   UNL A   1      52.013  26.808  26.105  1.00  0.00    -0.200 F 
ATOM     47  C   UNL A   1      52.038  26.301  28.411  1.00  0.00     0.200 A 
ATOM     48  F   UNL A   1      52.013  25.793  30.716  1.00  0.00    -0.200 F 
ATOM     49  F   UNL A   1      53.350  26.032  28.352  1.00  0.00    -0.200 F 
ENDBRANCH  25  39
BRANCH  26  50
ATOM     50  C   UNL A   1      39.515  28.924  29.079  1.00  0.00     0.064 A 
ATOM     51  C   UNL A   1      38.824  28.844  30.295  1.00  0.00     0.173 A 
ATOM     52  C   UNL A   1      38.797  29.325  27.943  1.00  0.00     0.173 A 
ATOM     53  F   UNL A   1      39.466  28.450  31.405  1.00  0.00    -0.203 F 
ATOM     54  C   UNL A   1      37.465  29.140  30.368  1.00  0.00     0.198 A 
ATOM     55  C   UNL A   1      37.446  29.651  28.024  1.00  0.00     0.198 A 
ATOM     56  F   UNL A   1      39.417  29.425  26.758  1.00  0.00    -0.203 F 
ATOM     57  F   UNL A   1      36.818  29.021  31.536  1.00  0.00    -0.200 F 
ATOM     58  C   UNL A   1      36.779  29.551  29.235  1.00  0.00     0.200 A 
ATOM     59  F   UNL A   1      36.794  30.067  26.931  1.00  0.00    -0.200 F 
ATOM     60  F   UNL A   1      35.476  29.849  29.310  1.00  0.00    -0.200 F 
ENDBRANCH  26  50
BRANCH  38  61
ATOM     61  C   UNL A   1      45.289  32.630  30.221  1.00  0.00     0.064 A 
ATOM     62  C   UNL A   1      45.366  32.972  31.580  1.00  0.00     0.173 A 
ATOM     63  C   UNL A   1      45.415  33.654  29.273  1.00  0.00     0.173 A 
ATOM     64  F   UNL A   1      45.232  32.028  32.523  1.00  0.00    -0.203 F 
ATOM     65  C   UNL A   1      45.528  34.297  31.973  1.00  0.00     0.198 A 
ATOM     66  C   UNL A   1      45.602  34.975  29.671  1.00  0.00     0.198 A 
ATOM     67  F   UNL A   1      45.352  33.375  27.964  1.00  0.00    -0.203 F 
ATOM     68  F   UNL A   1      45.543  34.610  33.276  1.00  0.00    -0.200 F 
ATOM     69  C   UNL A   1      45.650  35.296  31.020  1.00  0.00     0.200 A 
ATOM     70  F   UNL A   1      45.726  35.939  28.748  1.00  0.00    -0.200 F 
ATOM     71  F   UNL A   1      45.799  36.573  31.399  1.00  0.00    -0.200 F 
ENDBRANCH  38  61
ENDBRANCH  12  13
ENDBRANCH   5   7
ENDBRANCH   2   3
ENDBRANCH   1   2
BRANCH   1  72
ATOM     72  C   UNL A   1      39.180  22.436  26.378  1.00  0.00     0.023 C 
BRANCH  72  73
ATOM     73  C   UNL A   1      37.916  23.204  25.992  1.00  0.00     0.116 C 
BRANCH  73  74
ATOM     74  N   UNL A   1      37.669  23.216  24.561  1.00  0.00    -0.356 N 
ATOM     75  C   UNL A   1      36.567  23.002  23.793  1.00  0.00     0.226 C 
ATOM     76  H   UNL A   1      38.474  23.423  24.033  1.00  0.00     0.163 HD
ATOM     77  O   UNL A   1      36.755  23.106  22.576  1.00  0.00    -0.274 OA
BRANCH  75  78
ATOM     78  C   UNL A   1      35.175  22.657  24.367  1.00  0.00     0.061 C 
ATOM     79  C   UNL A   1      34.072  22.967  23.313  1.00  0.00     0.078 C 
ATOM     80  C   UNL A   1      34.895  23.577  25.593  1.00  0.00     0.078 C 
ATOM     81  C   UNL A   1      33.814  24.453  23.057  1.00  0.00     0.261 C 
ATOM     82  C   UNL A   1      34.685  25.042  25.209  1.00  0.00     0.261 C 
ATOM     83  N   UNL A   1      33.553  25.170  24.303  1.00  0.00    -0.346 N 
ATOM     84  H   UNL A   1      32.721  24.781  24.746  1.00  0.00     0.346 HD
ATOM     85  H   UNL A   1      33.409  26.158  24.091  1.00  0.00     0.346 HD
BRANCH  78  86
ATOM     86  C   UNL A   1      35.061  21.156  24.809  1.00  0.00     0.029 C 
BRANCH  86  87
ATOM     87  C   UNL A   1      33.887  20.246  24.366  1.00  0.00     0.062 C 
ATOM     88  C   UNL A   1      32.493  20.481  24.975  1.00  0.00     0.238 C 
ATOM     89  C   UNL A   1      34.041  18.792  24.623  1.00  0.00     0.001 A 
ATOM     90  O   UNL A   1      31.915  19.231  25.418  1.00  0.00    -0.493 OA
ATOM     91  C   UNL A   1      32.902  18.304  25.241  1.00  0.00     0.122 A 
ATOM     92  C   UNL A   1      35.104  17.951  24.337  1.00  0.00     0.008 A 
ATOM     93  C   UNL A   1      32.801  16.990  25.652  1.00  0.00     0.047 A 
ATOM     94  C   UNL A   1      35.027  16.620  24.751  1.00  0.00     0.001 A 
ATOM     95  C   UNL A   1      33.886  16.145  25.414  1.00  0.00     0.004 A 
ENDBRANCH  86  87
ENDBRANCH  78  86
ENDBRANCH  75  78
ENDBRANCH  73  74
ENDBRANCH  72  73
ENDBRANCH   1  72
TORSDOF 13
ENDMDL
