MODEL 1
REMARK VINA RESULT:     -12.0      0.000      0.000
REMARK SMILES CC[C@](C)(NC(=O)N[C@@H]1C[C@@H]1C)C(=O)NCCCCNC(=O)c1ccc(-c2c3nc(c(-c4c(F)c(F)c(F)c(F)c4F)c4ccc([nH]4)c(-c4c(F)c(F)c(F)c(F)c4F)c4nc(c(-c5c(F)c(F)c(F)c(F)c5F)c5ccc2[nH]5)C=C4)C=C3)cc1
REMARK SMILES IDX 17 1 16 2 15 3 13 4 14 5 3 7 4 8 2 9 1 10 5 11 6 12 7 14
REMARK SMILES IDX 8 15 9 17 10 18 11 19 12 20 18 21 19 22 20 23 21 24 22 26
REMARK SMILES IDX 23 27 24 28 85 29 25 30 84 31 26 32 27 33 28 34 78 35 29 36
REMARK SMILES IDX 83 37 77 38 79 39 30 40 82 41 76 42 75 43 31 45 63 46 43 47
REMARK SMILES IDX 62 48 44 49 47 50 61 51 80 52 45 53 46 54 60 56 81 57 48 58
REMARK SMILES IDX 32 59 33 60 41 61 34 62 35 63 39 64 42 65 36 66 37 67 40 68
REMARK SMILES IDX 38 69 64 70 65 71 73 72 66 73 67 74 71 75 74 76 68 77 69 78
REMARK SMILES IDX 72 79 70 80 49 81 50 82 58 83 51 84 52 85 56 86 59 87 53 88
REMARK SMILES IDX 54 89 57 90 55 91
REMARK H PARENT 15 6 5 13 8 16 20 25 79 44 47 55
REMARK Flexibility Score: inf
ROOT
ATOM      1  C   UNL A   1      31.778  30.524  26.720  1.00  0.00     0.023 C 
ENDROOT
BRANCH   1   2
ATOM      2  C   UNL A   1      31.403  29.882  25.385  1.00  0.00     0.116 C 
BRANCH   2   3
ATOM      3  N   UNL A   1      32.520  29.605  24.501  1.00  0.00    -0.354 N 
ATOM      4  C   UNL A   1      32.640  28.784  23.413  1.00  0.00     0.245 C 
ATOM      5  O   UNL A   1      33.698  28.879  22.780  1.00  0.00    -0.272 OA
ATOM      6  H   UNL A   1      33.341  30.099  24.725  1.00  0.00     0.163 HD
BRANCH   4   7
ATOM      7  C   UNL A   1      31.468  27.895  22.911  1.00  0.00     0.117 C 
ATOM      8  C   UNL A   1      30.288  28.729  22.376  1.00  0.00     0.045 C 
BRANCH   7   9
ATOM      9  C   UNL A   1      30.946  27.103  24.159  1.00  0.00     0.035 C 
ATOM     10  C   UNL A   1      29.838  26.086  23.874  1.00  0.00     0.007 C 
ENDBRANCH   7   9
BRANCH   7  11
ATOM     11  N   UNL A   1      31.871  26.920  21.868  1.00  0.00    -0.324 N 
ATOM     12  C   UNL A   1      32.885  26.048  21.715  1.00  0.00     0.315 C 
ATOM     13  H   UNL A   1      31.249  26.908  21.105  1.00  0.00     0.166 HD
ATOM     14  O   UNL A   1      33.089  25.626  20.573  1.00  0.00    -0.249 OA
ATOM     15  N   UNL A   1      33.655  25.569  22.714  1.00  0.00    -0.335 N 
ATOM     16  H   UNL A   1      34.423  25.036  22.404  1.00  0.00     0.165 HD
BRANCH  15  17
ATOM     17  C   UNL A   1      33.571  25.687  24.126  1.00  0.00     0.087 C 
ATOM     18  C   UNL A   1      34.607  25.014  24.989  1.00  0.00     0.030 C 
ATOM     19  C   UNL A   1      33.172  24.590  25.082  1.00  0.00     0.010 C 
ATOM     20  C   UNL A   1      32.703  23.259  24.623  1.00  0.00     0.010 C 
ENDBRANCH  15  17
ENDBRANCH   7  11
ENDBRANCH   4   7
ENDBRANCH   2   3
ENDBRANCH   1   2
BRANCH   1  21
ATOM     21  C   UNL A   1      31.538  32.024  26.849  1.00  0.00     0.023 C 
BRANCH  21  22
ATOM     22  C   UNL A   1      32.747  32.852  27.251  1.00  0.00     0.116 C 
BRANCH  22  23
ATOM     23  N   UNL A   1      32.413  34.202  27.670  1.00  0.00    -0.352 N 
ATOM     24  C   UNL A   1      32.996  34.991  28.633  1.00  0.00     0.251 C 
ATOM     25  H   UNL A   1      31.657  34.615  27.193  1.00  0.00     0.163 HD
ATOM     26  O   UNL A   1      32.530  36.090  28.892  1.00  0.00    -0.269 OA
BRANCH  24  27
ATOM     27  C   UNL A   1      34.161  34.484  29.389  1.00  0.00     0.039 A 
ATOM     28  C   UNL A   1      33.936  33.886  30.633  1.00  0.00     0.014 A 
ATOM     29  C   UNL A   1      35.457  34.577  28.878  1.00  0.00     0.014 A 
ATOM     30  C   UNL A   1      35.003  33.318  31.330  1.00  0.00     0.010 A 
ATOM     31  C   UNL A   1      36.505  33.942  29.535  1.00  0.00     0.010 A 
ATOM     32  C   UNL A   1      36.289  33.309  30.769  1.00  0.00    -0.014 A 
BRANCH  32  33
ATOM     33  C   UNL A   1      37.424  32.650  31.458  1.00  0.00     0.031 A 
ATOM     34  C   UNL A   1      38.134  31.501  30.801  1.00  0.00     0.074 A 
ATOM     35  C   UNL A   1      37.765  33.039  32.701  1.00  0.00     0.049 A 
ATOM     36  N   UNL A   1      39.089  30.740  31.270  1.00  0.00    -0.248 NA
ATOM     37  C   UNL A   1      37.689  31.138  29.446  1.00  0.00     0.031 C 
ATOM     38  C   UNL A   1      37.116  34.107  33.461  1.00  0.00     0.029 A 
ATOM     39  N   UNL A   1      38.738  32.571  33.548  1.00  0.00    -0.354 N 
ATOM     40  C   UNL A   1      39.341  29.798  30.283  1.00  0.00     0.074 A 
ATOM     41  C   UNL A   1      38.407  30.052  29.207  1.00  0.00     0.031 C 
ATOM     42  C   UNL A   1      37.720  34.228  34.655  1.00  0.00     0.029 A 
ATOM     43  C   UNL A   1      38.777  33.225  34.755  1.00  0.00     0.049 A 
ATOM     44  H   UNL A   1      39.350  31.836  33.314  1.00  0.00     0.167 HD
ATOM     45  C   UNL A   1      40.281  28.824  30.265  1.00  0.00     0.037 A 
ATOM     46  C   UNL A   1      39.573  33.032  35.823  1.00  0.00     0.037 A 
ATOM     47  C   UNL A   1      41.234  28.602  31.319  1.00  0.00     0.049 A 
ATOM     48  C   UNL A   1      40.625  31.959  35.769  1.00  0.00     0.074 A 
ATOM     49  C   UNL A   1      42.272  27.689  31.367  1.00  0.00     0.029 A 
ATOM     50  N   UNL A   1      41.264  29.307  32.514  1.00  0.00    -0.354 N 
ATOM     51  N   UNL A   1      40.898  31.117  34.802  1.00  0.00    -0.248 NA
ATOM     52  C   UNL A   1      41.484  31.813  36.952  1.00  0.00     0.031 C 
ATOM     53  C   UNL A   1      42.911  27.818  32.605  1.00  0.00     0.029 A 
ATOM     54  C   UNL A   1      42.294  28.839  33.313  1.00  0.00     0.049 A 
ATOM     55  H   UNL A   1      40.645  30.033  32.758  1.00  0.00     0.167 HD
ATOM     56  C   UNL A   1      41.972  30.359  35.248  1.00  0.00     0.074 A 
ATOM     57  C   UNL A   1      42.311  30.850  36.567  1.00  0.00     0.031 C 
ATOM     58  C   UNL A   1      42.620  29.348  34.620  1.00  0.00     0.037 A 
BRANCH  45  59
ATOM     59  C   UNL A   1      40.327  27.931  29.060  1.00  0.00     0.064 A 
ATOM     60  C   UNL A   1      41.079  28.267  27.924  1.00  0.00     0.173 A 
ATOM     61  C   UNL A   1      39.632  26.713  29.051  1.00  0.00     0.173 A 
ATOM     62  F   UNL A   1      41.751  29.428  27.878  1.00  0.00    -0.203 F 
ATOM     63  C   UNL A   1      41.108  27.431  26.811  1.00  0.00     0.198 A 
ATOM     64  C   UNL A   1      39.686  25.865  27.947  1.00  0.00     0.198 A 
ATOM     65  F   UNL A   1      38.902  26.342  30.113  1.00  0.00    -0.203 F 
ATOM     66  F   UNL A   1      41.790  27.798  25.717  1.00  0.00    -0.200 F 
ATOM     67  C   UNL A   1      40.416  26.229  26.826  1.00  0.00     0.200 A 
ATOM     68  F   UNL A   1      39.026  24.699  27.966  1.00  0.00    -0.200 F 
ATOM     69  F   UNL A   1      40.448  25.424  25.754  1.00  0.00    -0.200 F 
ENDBRANCH  45  59
BRANCH  46  70
ATOM     70  C   UNL A   1      39.430  33.900  37.020  1.00  0.00     0.064 A 
ATOM     71  C   UNL A   1      38.683  33.476  38.127  1.00  0.00     0.173 A 
ATOM     72  C   UNL A   1      40.037  35.163  37.085  1.00  0.00     0.173 A 
ATOM     73  F   UNL A   1      38.068  32.284  38.102  1.00  0.00    -0.203 F 
ATOM     74  C   UNL A   1      38.534  34.289  39.249  1.00  0.00     0.198 A 
ATOM     75  C   UNL A   1      39.908  35.964  38.217  1.00  0.00     0.198 A 
ATOM     76  F   UNL A   1      40.766  35.611  36.052  1.00  0.00    -0.203 F 
ATOM     77  F   UNL A   1      37.782  33.875  40.277  1.00  0.00    -0.200 F 
ATOM     78  C   UNL A   1      39.151  35.530  39.295  1.00  0.00     0.200 A 
ATOM     79  F   UNL A   1      40.515  37.158  38.262  1.00  0.00    -0.200 F 
ATOM     80  F   UNL A   1      39.011  36.309  40.376  1.00  0.00    -0.200 F 
ENDBRANCH  46  70
BRANCH  58  81
ATOM     81  C   UNL A   1      43.780  28.727  35.339  1.00  0.00     0.064 A 
ATOM     82  C   UNL A   1      45.090  29.193  35.156  1.00  0.00     0.173 A 
ATOM     83  C   UNL A   1      43.571  27.683  36.253  1.00  0.00     0.173 A 
ATOM     84  F   UNL A   1      45.340  30.179  34.281  1.00  0.00    -0.203 F 
ATOM     85  C   UNL A   1      46.154  28.620  35.848  1.00  0.00     0.198 A 
ATOM     86  C   UNL A   1      44.635  27.131  36.962  1.00  0.00     0.198 A 
ATOM     87  F   UNL A   1      42.336  27.207  36.466  1.00  0.00    -0.203 F 
ATOM     88  F   UNL A   1      47.403  29.053  35.628  1.00  0.00    -0.200 F 
ATOM     89  C   UNL A   1      45.924  27.596  36.754  1.00  0.00     0.200 A 
ATOM     90  F   UNL A   1      44.410  26.148  37.844  1.00  0.00    -0.200 F 
ATOM     91  F   UNL A   1      46.949  27.051  37.424  1.00  0.00    -0.200 F 
ENDBRANCH  58  81
ENDBRANCH  32  33
ENDBRANCH  24  27
ENDBRANCH  22  23
ENDBRANCH  21  22
ENDBRANCH   1  21
TORSDOF 14
ENDMDL
MODEL 2
REMARK VINA RESULT:     -12.0      0.209      2.006
REMARK SMILES CC[C@](C)(NC(=O)N[C@@H]1C[C@@H]1C)C(=O)NCCCCNC(=O)c1ccc(-c2c3nc(c(-c4c(F)c(F)c(F)c(F)c4F)c4ccc([nH]4)c(-c4c(F)c(F)c(F)c(F)c4F)c4nc(c(-c5c(F)c(F)c(F)c(F)c5F)c5ccc2[nH]5)C=C4)C=C3)cc1
REMARK SMILES IDX 17 1 16 2 15 3 13 4 14 5 3 7 4 8 2 9 1 10 5 11 6 12 7 14
REMARK SMILES IDX 8 15 9 17 10 18 11 19 12 20 18 21 19 22 20 23 21 24 22 26
REMARK SMILES IDX 23 27 24 28 85 29 25 30 84 31 26 32 27 33 28 34 78 35 29 36
REMARK SMILES IDX 83 37 77 38 79 39 30 40 82 41 76 42 75 43 31 45 63 46 43 47
REMARK SMILES IDX 62 48 44 49 47 50 61 51 80 52 45 53 46 54 60 56 81 57 48 58
REMARK SMILES IDX 32 59 33 60 41 61 34 62 35 63 39 64 42 65 36 66 37 67 40 68
REMARK SMILES IDX 38 69 64 70 65 71 73 72 66 73 67 74 71 75 74 76 68 77 69 78
REMARK SMILES IDX 72 79 70 80 49 81 50 82 58 83 51 84 52 85 56 86 59 87 53 88
REMARK SMILES IDX 54 89 57 90 55 91
REMARK H PARENT 15 6 5 13 8 16 20 25 79 44 47 55
REMARK Flexibility Score: inf
ROOT
ATOM      1  C   UNL A   1      31.795  30.544  26.656  1.00  0.00     0.023 C 
ENDROOT
BRANCH   1   2
ATOM      2  C   UNL A   1      31.443  29.947  25.295  1.00  0.00     0.116 C 
BRANCH   2   3
ATOM      3  N   UNL A   1      32.580  29.624  24.452  1.00  0.00    -0.354 N 
ATOM      4  C   UNL A   1      32.708  28.792  23.374  1.00  0.00     0.245 C 
ATOM      5  O   UNL A   1      33.791  28.845  22.778  1.00  0.00    -0.272 OA
ATOM      6  H   UNL A   1      33.410  30.089  24.703  1.00  0.00     0.163 HD
BRANCH   4   7
ATOM      7  C   UNL A   1      31.524  27.943  22.834  1.00  0.00     0.117 C 
ATOM      8  C   UNL A   1      30.370  28.817  22.305  1.00  0.00     0.045 C 
BRANCH   7   9
ATOM      9  C   UNL A   1      30.967  27.132  24.056  1.00  0.00     0.035 C 
ATOM     10  C   UNL A   1      29.623  26.439  23.825  1.00  0.00     0.007 C 
ENDBRANCH   7   9
BRANCH   7  11
ATOM     11  N   UNL A   1      31.919  26.985  21.773  1.00  0.00    -0.324 N 
ATOM     12  C   UNL A   1      32.907  26.085  21.617  1.00  0.00     0.315 C 
ATOM     13  H   UNL A   1      31.314  27.015  20.996  1.00  0.00     0.166 HD
ATOM     14  O   UNL A   1      33.124  25.688  20.468  1.00  0.00    -0.249 OA
ATOM     15  N   UNL A   1      33.638  25.552  22.619  1.00  0.00    -0.335 N 
ATOM     16  H   UNL A   1      34.395  25.003  22.310  1.00  0.00     0.165 HD
BRANCH  15  17
ATOM     17  C   UNL A   1      33.525  25.632  24.031  1.00  0.00     0.087 C 
ATOM     18  C   UNL A   1      34.588  25.008  24.897  1.00  0.00     0.030 C 
ATOM     19  C   UNL A   1      33.182  24.491  24.957  1.00  0.00     0.010 C 
ATOM     20  C   UNL A   1      32.806  23.144  24.463  1.00  0.00     0.010 C 
ENDBRANCH  15  17
ENDBRANCH   7  11
ENDBRANCH   4   7
ENDBRANCH   2   3
ENDBRANCH   1   2
BRANCH   1  21
ATOM     21  C   UNL A   1      31.546  32.038  26.832  1.00  0.00     0.023 C 
BRANCH  21  22
ATOM     22  C   UNL A   1      32.756  32.863  27.240  1.00  0.00     0.116 C 
BRANCH  22  23
ATOM     23  N   UNL A   1      32.423  34.216  27.653  1.00  0.00    -0.352 N 
ATOM     24  C   UNL A   1      33.014  35.012  28.605  1.00  0.00     0.251 C 
ATOM     25  H   UNL A   1      31.662  34.623  27.181  1.00  0.00     0.163 HD
ATOM     26  O   UNL A   1      32.549  36.112  28.861  1.00  0.00    -0.269 OA
BRANCH  24  27
ATOM     27  C   UNL A   1      34.188  34.512  29.353  1.00  0.00     0.039 A 
ATOM     28  C   UNL A   1      33.971  33.856  30.568  1.00  0.00     0.014 A 
ATOM     29  C   UNL A   1      35.486  34.669  28.861  1.00  0.00     0.014 A 
ATOM     30  C   UNL A   1      35.048  33.294  31.253  1.00  0.00     0.010 A 
ATOM     31  C   UNL A   1      36.548  34.043  29.503  1.00  0.00     0.010 A 
ATOM     32  C   UNL A   1      36.340  33.351  30.707  1.00  0.00    -0.014 A 
BRANCH  32  33
ATOM     33  C   UNL A   1      37.489  32.702  31.381  1.00  0.00     0.031 A 
ATOM     34  C   UNL A   1      38.211  31.570  30.706  1.00  0.00     0.074 A 
ATOM     35  C   UNL A   1      37.833  33.082  32.625  1.00  0.00     0.049 A 
ATOM     36  N   UNL A   1      39.181  30.818  31.161  1.00  0.00    -0.248 NA
ATOM     37  C   UNL A   1      37.763  31.216  29.351  1.00  0.00     0.031 C 
ATOM     38  C   UNL A   1      37.173  34.132  33.402  1.00  0.00     0.029 A 
ATOM     39  N   UNL A   1      38.818  32.619  33.461  1.00  0.00    -0.354 N 
ATOM     40  C   UNL A   1      39.439  29.891  30.162  1.00  0.00     0.074 A 
ATOM     41  C   UNL A   1      38.494  30.142  29.095  1.00  0.00     0.031 C 
ATOM     42  C   UNL A   1      37.785  34.249  34.593  1.00  0.00     0.029 A 
ATOM     43  C   UNL A   1      38.856  33.261  34.675  1.00  0.00     0.049 A 
ATOM     44  H   UNL A   1      39.439  31.896  33.214  1.00  0.00     0.167 HD
ATOM     45  C   UNL A   1      40.394  28.931  30.127  1.00  0.00     0.037 A 
ATOM     46  C   UNL A   1      39.663  33.068  35.735  1.00  0.00     0.037 A 
ATOM     47  C   UNL A   1      41.357  28.712  31.172  1.00  0.00     0.049 A 
ATOM     48  C   UNL A   1      40.730  32.011  35.662  1.00  0.00     0.074 A 
ATOM     49  C   UNL A   1      42.409  27.813  31.203  1.00  0.00     0.029 A 
ATOM     50  N   UNL A   1      41.385  29.404  32.374  1.00  0.00    -0.354 N 
ATOM     51  N   UNL A   1      41.008  31.183  34.684  1.00  0.00    -0.248 NA
ATOM     52  C   UNL A   1      41.599  31.865  36.838  1.00  0.00     0.031 C 
ATOM     53  C   UNL A   1      43.054  27.939  32.438  1.00  0.00     0.029 A 
ATOM     54  C   UNL A   1      42.427  28.943  33.161  1.00  0.00     0.049 A 
ATOM     55  H   UNL A   1      40.757  30.118  32.630  1.00  0.00     0.167 HD
ATOM     56  C   UNL A   1      42.096  30.437  35.114  1.00  0.00     0.074 A 
ATOM     57  C   UNL A   1      42.437  30.919  36.437  1.00  0.00     0.031 C 
ATOM     58  C   UNL A   1      42.754  29.442  34.472  1.00  0.00     0.037 A 
BRANCH  45  59
ATOM     59  C   UNL A   1      40.445  28.052  28.912  1.00  0.00     0.064 A 
ATOM     60  C   UNL A   1      39.736  26.842  28.850  1.00  0.00     0.173 A 
ATOM     61  C   UNL A   1      41.190  28.435  27.788  1.00  0.00     0.173 A 
ATOM     62  F   UNL A   1      39.020  26.424  29.905  1.00  0.00    -0.203 F 
ATOM     63  C   UNL A   1      39.797  26.033  27.719  1.00  0.00     0.198 A 
ATOM     64  C   UNL A   1      41.227  27.637  26.646  1.00  0.00     0.198 A 
ATOM     65  F   UNL A   1      41.882  29.583  27.793  1.00  0.00    -0.203 F 
ATOM     66  F   UNL A   1      39.155  24.857  27.703  1.00  0.00    -0.200 F 
ATOM     67  C   UNL A   1      40.538  26.434  26.616  1.00  0.00     0.200 A 
ATOM     68  F   UNL A   1      41.933  28.030  25.577  1.00  0.00    -0.200 F 
ATOM     69  F   UNL A   1      40.593  25.655  25.526  1.00  0.00    -0.200 F 
ENDBRANCH  45  59
BRANCH  46  70
ATOM     70  C   UNL A   1      39.515  33.921  36.942  1.00  0.00     0.064 A 
ATOM     71  C   UNL A   1      40.125  35.180  37.009  1.00  0.00     0.173 A 
ATOM     72  C   UNL A   1      38.761  33.499  38.048  1.00  0.00     0.173 A 
ATOM     73  F   UNL A   1      40.871  35.617  35.984  1.00  0.00    -0.203 F 
ATOM     74  C   UNL A   1      40.001  35.982  38.142  1.00  0.00     0.198 A 
ATOM     75  C   UNL A   1      38.618  34.312  39.170  1.00  0.00     0.198 A 
ATOM     76  F   UNL A   1      38.154  32.303  38.030  1.00  0.00    -0.203 F 
ATOM     77  F   UNL A   1      40.626  37.165  38.194  1.00  0.00    -0.200 F 
ATOM     78  C   UNL A   1      39.242  35.548  39.219  1.00  0.00     0.200 A 
ATOM     79  F   UNL A   1      37.875  33.895  40.205  1.00  0.00    -0.200 F 
ATOM     80  F   UNL A   1      39.120  36.321  40.307  1.00  0.00    -0.200 F 
ENDBRANCH  46  70
BRANCH  58  81
ATOM     81  C   UNL A   1      43.929  28.830  35.176  1.00  0.00     0.064 A 
ATOM     82  C   UNL A   1      43.782  27.711  36.009  1.00  0.00     0.173 A 
ATOM     83  C   UNL A   1      45.219  29.344  34.980  1.00  0.00     0.173 A 
ATOM     84  F   UNL A   1      42.565  27.195  36.238  1.00  0.00    -0.203 F 
ATOM     85  C   UNL A   1      44.885  27.141  36.638  1.00  0.00     0.198 A 
ATOM     86  C   UNL A   1      46.323  28.755  35.591  1.00  0.00     0.198 A 
ATOM     87  F   UNL A   1      45.410  30.409  34.189  1.00  0.00    -0.203 F 
ATOM     88  F   UNL A   1      44.718  26.098  37.462  1.00  0.00    -0.200 F 
ATOM     89  C   UNL A   1      46.154  27.658  36.423  1.00  0.00     0.200 A 
ATOM     90  F   UNL A   1      47.549  29.249  35.374  1.00  0.00    -0.200 F 
ATOM     91  F   UNL A   1      47.215  27.103  37.024  1.00  0.00    -0.200 F 
ENDBRANCH  58  81
ENDBRANCH  32  33
ENDBRANCH  24  27
ENDBRANCH  22  23
ENDBRANCH  21  22
ENDBRANCH   1  21
TORSDOF 14
ENDMDL
MODEL 3
REMARK VINA RESULT:     -11.8      6.092     11.563
REMARK SMILES CC[C@](C)(NC(=O)N[C@@H]1C[C@@H]1C)C(=O)NCCCCNC(=O)c1ccc(-c2c3nc(c(-c4c(F)c(F)c(F)c(F)c4F)c4ccc([nH]4)c(-c4c(F)c(F)c(F)c(F)c4F)c4nc(c(-c5c(F)c(F)c(F)c(F)c5F)c5ccc2[nH]5)C=C4)C=C3)cc1
REMARK SMILES IDX 17 1 16 2 15 3 13 4 14 5 3 7 4 8 2 9 1 10 5 11 6 12 7 14
REMARK SMILES IDX 8 15 9 17 10 18 11 19 12 20 18 21 19 22 20 23 21 24 22 26
REMARK SMILES IDX 23 27 24 28 85 29 25 30 84 31 26 32 27 33 28 34 78 35 29 36
REMARK SMILES IDX 83 37 77 38 79 39 30 40 82 41 76 42 75 43 31 45 63 46 43 47
REMARK SMILES IDX 62 48 44 49 47 50 61 51 80 52 45 53 46 54 60 56 81 57 48 58
REMARK SMILES IDX 32 59 33 60 41 61 34 62 35 63 39 64 42 65 36 66 37 67 40 68
REMARK SMILES IDX 38 69 64 70 65 71 73 72 66 73 67 74 71 75 74 76 68 77 69 78
REMARK SMILES IDX 72 79 70 80 49 81 50 82 58 83 51 84 52 85 56 86 59 87 53 88
REMARK SMILES IDX 54 89 57 90 55 91
REMARK H PARENT 15 6 5 13 8 16 20 25 79 44 47 55
REMARK Flexibility Score: inf
ROOT
ATOM      1  C   UNL A   1      37.263  20.776  24.702  1.00  0.00     0.023 C 
ENDROOT
BRANCH   1   2
ATOM      2  C   UNL A   1      35.787  20.521  25.003  1.00  0.00     0.116 C 
BRANCH   2   3
ATOM      3  N   UNL A   1      35.283  21.164  26.202  1.00  0.00    -0.354 N 
ATOM      4  C   UNL A   1      34.024  21.559  26.565  1.00  0.00     0.245 C 
ATOM      5  O   UNL A   1      33.899  21.956  27.729  1.00  0.00    -0.272 OA
ATOM      6  H   UNL A   1      35.974  21.350  26.878  1.00  0.00     0.163 HD
BRANCH   4   7
ATOM      7  C   UNL A   1      32.797  21.382  25.629  1.00  0.00     0.117 C 
ATOM      8  C   UNL A   1      32.556  19.908  25.250  1.00  0.00     0.045 C 
BRANCH   7   9
ATOM      9  C   UNL A   1      33.135  22.151  24.304  1.00  0.00     0.035 C 
ATOM     10  C   UNL A   1      32.061  22.085  23.216  1.00  0.00     0.007 C 
ENDBRANCH   7   9
BRANCH   7  11
ATOM     11  N   UNL A   1      31.541  21.939  26.190  1.00  0.00    -0.324 N 
ATOM     12  C   UNL A   1      31.180  23.107  26.752  1.00  0.00     0.315 C 
ATOM     13  H   UNL A   1      30.792  21.301  26.139  1.00  0.00     0.166 HD
ATOM     14  O   UNL A   1      30.131  23.112  27.403  1.00  0.00    -0.249 OA
ATOM     15  N   UNL A   1      31.848  24.273  26.618  1.00  0.00    -0.335 N 
ATOM     16  H   UNL A   1      31.508  24.994  27.196  1.00  0.00     0.165 HD
BRANCH  15  17
ATOM     17  C   UNL A   1      32.946  24.657  25.806  1.00  0.00     0.087 C 
ATOM     18  C   UNL A   1      33.526  26.040  25.948  1.00  0.00     0.030 C 
ATOM     19  C   UNL A   1      32.895  25.627  24.652  1.00  0.00     0.010 C 
ATOM     20  C   UNL A   1      31.627  26.219  24.158  1.00  0.00     0.010 C 
ENDBRANCH  15  17
ENDBRANCH   7  11
ENDBRANCH   4   7
ENDBRANCH   2   3
ENDBRANCH   1   2
BRANCH   1  21
ATOM     21  C   UNL A   1      38.231  19.642  25.022  1.00  0.00     0.023 C 
BRANCH  21  22
ATOM     22  C   UNL A   1      39.468  20.036  25.812  1.00  0.00     0.116 C 
BRANCH  22  23
ATOM     23  N   UNL A   1      40.480  18.995  25.863  1.00  0.00    -0.352 N 
ATOM     24  C   UNL A   1      41.826  19.093  26.124  1.00  0.00     0.251 C 
ATOM     25  H   UNL A   1      40.154  18.083  25.684  1.00  0.00     0.163 HD
ATOM     26  O   UNL A   1      42.539  18.103  26.058  1.00  0.00    -0.269 OA
BRANCH  24  27
ATOM     27  C   UNL A   1      42.418  20.411  26.439  1.00  0.00     0.039 A 
ATOM     28  C   UNL A   1      42.982  21.152  25.396  1.00  0.00     0.014 A 
ATOM     29  C   UNL A   1      42.404  20.924  27.738  1.00  0.00     0.014 A 
ATOM     30  C   UNL A   1      43.467  22.436  25.643  1.00  0.00     0.010 A 
ATOM     31  C   UNL A   1      42.815  22.232  27.968  1.00  0.00     0.010 A 
ATOM     32  C   UNL A   1      43.353  23.000  26.924  1.00  0.00    -0.014 A 
BRANCH  32  33
ATOM     33  C   UNL A   1      43.797  24.388  27.195  1.00  0.00     0.031 A 
ATOM     34  C   UNL A   1      42.817  25.399  27.717  1.00  0.00     0.074 A 
ATOM     35  C   UNL A   1      45.060  24.753  26.902  1.00  0.00     0.049 A 
ATOM     36  N   UNL A   1      42.985  26.679  27.936  1.00  0.00    -0.248 NA
ATOM     37  C   UNL A   1      41.457  24.915  28.000  1.00  0.00     0.031 C 
ATOM     38  C   UNL A   1      46.087  23.873  26.343  1.00  0.00     0.029 A 
ATOM     39  N   UNL A   1      45.691  25.965  27.025  1.00  0.00    -0.354 N 
ATOM     40  C   UNL A   1      41.751  27.154  28.358  1.00  0.00     0.074 A 
ATOM     41  C   UNL A   1      40.831  26.037  28.319  1.00  0.00     0.031 C 
ATOM     42  C   UNL A   1      47.226  24.568  26.190  1.00  0.00     0.029 A 
ATOM     43  C   UNL A   1      47.001  25.948  26.610  1.00  0.00     0.049 A 
ATOM     44  H   UNL A   1      45.248  26.770  27.378  1.00  0.00     0.167 HD
ATOM     45  C   UNL A   1      41.421  28.402  28.764  1.00  0.00     0.037 A 
ATOM     46  C   UNL A   1      47.912  26.937  26.569  1.00  0.00     0.037 A 
ATOM     47  C   UNL A   1      42.349  29.499  28.841  1.00  0.00     0.049 A 
ATOM     48  C   UNL A   1      47.527  28.310  27.046  1.00  0.00     0.074 A 
ATOM     49  C   UNL A   1      42.132  30.783  29.305  1.00  0.00     0.029 A 
ATOM     50  N   UNL A   1      43.676  29.435  28.441  1.00  0.00    -0.354 N 
ATOM     51  N   UNL A   1      46.374  28.732  27.507  1.00  0.00    -0.248 NA
ATOM     52  C   UNL A   1      48.571  29.343  27.006  1.00  0.00     0.031 C 
ATOM     53  C   UNL A   1      43.320  31.508  29.156  1.00  0.00     0.029 A 
ATOM     54  C   UNL A   1      44.287  30.662  28.636  1.00  0.00     0.049 A 
ATOM     55  H   UNL A   1      44.119  28.635  28.075  1.00  0.00     0.167 HD
ATOM     56  C   UNL A   1      46.559  30.068  27.832  1.00  0.00     0.074 A 
ATOM     57  C   UNL A   1      47.939  30.384  27.530  1.00  0.00     0.031 C 
ATOM     58  C   UNL A   1      45.666  30.953  28.336  1.00  0.00     0.037 A 
BRANCH  45  59
ATOM     59  C   UNL A   1      39.995  28.644  29.164  1.00  0.00     0.064 A 
ATOM     60  C   UNL A   1      39.546  28.398  30.470  1.00  0.00     0.173 A 
ATOM     61  C   UNL A   1      39.073  29.152  28.237  1.00  0.00     0.173 A 
ATOM     62  F   UNL A   1      40.385  27.899  31.390  1.00  0.00    -0.203 F 
ATOM     63  C   UNL A   1      38.218  28.621  30.826  1.00  0.00     0.198 A 
ATOM     64  C   UNL A   1      37.752  29.401  28.603  1.00  0.00     0.198 A 
ATOM     65  F   UNL A   1      39.452  29.409  26.976  1.00  0.00    -0.203 F 
ATOM     66  F   UNL A   1      37.800  28.329  32.065  1.00  0.00    -0.200 F 
ATOM     67  C   UNL A   1      37.325  29.128  29.894  1.00  0.00     0.200 A 
ATOM     68  F   UNL A   1      36.892  29.901  27.705  1.00  0.00    -0.200 F 
ATOM     69  F   UNL A   1      36.048  29.346  30.238  1.00  0.00    -0.200 F 
ENDBRANCH  45  59
BRANCH  46  70
ATOM     70  C   UNL A   1      49.289  26.655  26.090  1.00  0.00     0.064 A 
ATOM     71  C   UNL A   1      50.258  26.136  26.960  1.00  0.00     0.173 A 
ATOM     72  C   UNL A   1      49.665  26.892  24.760  1.00  0.00     0.173 A 
ATOM     73  F   UNL A   1      49.950  25.911  28.246  1.00  0.00    -0.203 F 
ATOM     74  C   UNL A   1      51.555  25.879  26.522  1.00  0.00     0.198 A 
ATOM     75  C   UNL A   1      50.955  26.612  24.317  1.00  0.00     0.198 A 
ATOM     76  F   UNL A   1      48.772  27.384  23.888  1.00  0.00    -0.203 F 
ATOM     77  F   UNL A   1      52.472  25.419  27.384  1.00  0.00    -0.200 F 
ATOM     78  C   UNL A   1      51.901  26.112  25.199  1.00  0.00     0.200 A 
ATOM     79  F   UNL A   1      51.283  26.827  23.035  1.00  0.00    -0.200 F 
ATOM     80  F   UNL A   1      53.148  25.861  24.778  1.00  0.00    -0.200 F 
ENDBRANCH  46  70
BRANCH  58  81
ATOM     81  C   UNL A   1      46.162  32.340  28.622  1.00  0.00     0.064 A 
ATOM     82  C   UNL A   1      46.082  33.359  27.663  1.00  0.00     0.173 A 
ATOM     83  C   UNL A   1      46.682  32.660  29.885  1.00  0.00     0.173 A 
ATOM     84  F   UNL A   1      45.606  33.096  26.436  1.00  0.00    -0.203 F 
ATOM     85  C   UNL A   1      46.527  34.647  27.951  1.00  0.00     0.198 A 
ATOM     86  C   UNL A   1      47.101  33.954  30.178  1.00  0.00     0.198 A 
ATOM     87  F   UNL A   1      46.773  31.719  30.837  1.00  0.00    -0.203 F 
ATOM     88  F   UNL A   1      46.480  35.596  27.007  1.00  0.00    -0.200 F 
ATOM     89  C   UNL A   1      47.028  34.944  29.210  1.00  0.00     0.200 A 
ATOM     90  F   UNL A   1      47.576  34.243  31.397  1.00  0.00    -0.200 F 
ATOM     91  F   UNL A   1      47.449  36.186  29.487  1.00  0.00    -0.200 F 
ENDBRANCH  58  81
ENDBRANCH  32  33
ENDBRANCH  24  27
ENDBRANCH  22  23
ENDBRANCH  21  22
ENDBRANCH   1  21
TORSDOF 14
ENDMDL
