MODEL 1
REMARK VINA RESULT:     -13.5      0.000      0.000
REMARK SMILES O=C(NCCCCNC(=O)[C@@H]1CCCC[C@@H]1C(=O)Nc1ccccc1C(=O)N1CCN(c2ccc(F)cc2)CC1)c1ccc(-c2c3nc(c(-c4c(F)c(F)c(F)c(F)c4F)c4ccc([nH]4)c(-c4c(F)c(F)c(F)c(F)c4F)c4nc(c(-c5c(F)c(F)c(F)c(F)c5F)c5ccc2[nH]5)C=C4)C=C3)cc1
REMARK SMILES IDX 6 1 5 2 4 3 3 4 1 5 2 6 41 8 42 9 103 10 43 11 102 12 44 13
REMARK SMILES IDX 45 14 46 15 96 16 47 17 101 18 95 19 97 20 48 21 100 22
REMARK SMILES IDX 94 23 93 24 49 26 81 27 61 28 80 29 62 30 65 31 79 32 98 33
REMARK SMILES IDX 63 34 64 35 78 37 99 38 66 39 50 40 51 41 59 42 52 43 53 44
REMARK SMILES IDX 57 45 60 46 54 47 55 48 58 49 56 50 82 51 83 52 91 53 84 54
REMARK SMILES IDX 85 55 89 56 92 57 86 58 87 59 90 60 88 61 67 62 68 63 76 64
REMARK SMILES IDX 69 65 70 66 74 67 77 68 71 69 72 70 75 71 73 72 7 73 8 74
REMARK SMILES IDX 9 75 10 77 11 78 12 79 16 80 13 81 15 82 14 83 17 84 18 85
REMARK SMILES IDX 19 86 20 88 21 89 25 90 22 91 24 92 23 93 26 94 27 95 28 96
REMARK SMILES IDX 29 97 40 98 30 99 39 100 31 101 32 102 33 103 38 104 34 105
REMARK SMILES IDX 37 106 35 107 36 108
REMARK H PARENT 3 7 97 25 65 36 8 76 19 87
REMARK Flexibility Score: inf
ROOT
ATOM      1  C   UNL A   1      47.418  25.357  39.856  1.00  0.00     0.023 C 
ENDROOT
BRANCH   1   2
ATOM      2  C   UNL A   1      46.980  26.825  39.798  1.00  0.00     0.023 C 
BRANCH   2   3
ATOM      3  C   UNL A   1      47.346  27.538  38.501  1.00  0.00     0.116 C 
BRANCH   3   4
ATOM      4  N   UNL A   1      48.201  26.722  37.656  1.00  0.00    -0.352 N 
ATOM      5  O   UNL A   1      48.713  25.386  35.915  1.00  0.00    -0.269 OA
ATOM      6  C   UNL A   1      47.966  26.226  36.399  1.00  0.00     0.251 C 
ATOM      7  H   UNL A   1      49.078  26.493  38.041  1.00  0.00     0.163 HD
BRANCH   6   8
ATOM      8  C   UNL A   1      46.794  26.701  35.637  1.00  0.00     0.039 A 
ATOM      9  C   UNL A   1      46.863  27.871  34.875  1.00  0.00     0.014 A 
ATOM     10  C   UNL A   1      45.619  25.949  35.675  1.00  0.00     0.014 A 
ATOM     11  C   UNL A   1      45.722  28.353  34.243  1.00  0.00     0.010 A 
ATOM     12  C   UNL A   1      44.495  26.396  34.981  1.00  0.00     0.010 A 
ATOM     13  C   UNL A   1      44.532  27.612  34.279  1.00  0.00    -0.014 A 
BRANCH  13  14
ATOM     14  C   UNL A   1      43.333  28.083  33.545  1.00  0.00     0.031 A 
ATOM     15  C   UNL A   1      43.123  27.708  32.108  1.00  0.00     0.074 A 
ATOM     16  C   UNL A   1      42.460  28.891  34.172  1.00  0.00     0.049 A 
ATOM     17  N   UNL A   1      42.201  28.116  31.273  1.00  0.00    -0.248 NA
ATOM     18  C   UNL A   1      44.083  26.758  31.530  1.00  0.00     0.031 C 
ATOM     19  C   UNL A   1      42.561  29.319  35.568  1.00  0.00     0.029 A 
ATOM     20  N   UNL A   1      41.325  29.511  33.714  1.00  0.00    -0.354 N 
ATOM     21  C   UNL A   1      42.484  27.493  30.065  1.00  0.00     0.074 A 
ATOM     22  C   UNL A   1      43.679  26.703  30.268  1.00  0.00     0.031 C 
ATOM     23  C   UNL A   1      41.533  30.129  35.854  1.00  0.00     0.029 A 
ATOM     24  C   UNL A   1      40.739  30.330  34.646  1.00  0.00     0.049 A 
ATOM     25  H   UNL A   1      40.968  29.383  32.806  1.00  0.00     0.167 HD
ATOM     26  C   UNL A   1      41.803  27.576  28.896  1.00  0.00     0.037 A 
ATOM     27  C   UNL A   1      39.704  31.180  34.533  1.00  0.00     0.037 A 
ATOM     28  C   UNL A   1      40.614  28.370  28.711  1.00  0.00     0.049 A 
ATOM     29  C   UNL A   1      38.994  31.297  33.215  1.00  0.00     0.074 A 
ATOM     30  C   UNL A   1      39.827  28.494  27.579  1.00  0.00     0.029 A 
ATOM     31  N   UNL A   1      40.049  29.188  29.680  1.00  0.00    -0.354 N 
ATOM     32  N   UNL A   1      39.246  30.683  32.085  1.00  0.00    -0.248 NA
ATOM     33  C   UNL A   1      37.857  32.225  33.153  1.00  0.00     0.031 C 
ATOM     34  C   UNL A   1      38.830  29.438  27.841  1.00  0.00     0.029 A 
ATOM     35  C   UNL A   1      38.944  29.845  29.162  1.00  0.00     0.049 A 
ATOM     36  H   UNL A   1      40.385  29.288  30.600  1.00  0.00     0.167 HD
ATOM     37  C   UNL A   1      38.281  31.118  31.189  1.00  0.00     0.074 A 
ATOM     38  C   UNL A   1      37.439  32.054  31.906  1.00  0.00     0.031 C 
ATOM     39  C   UNL A   1      38.106  30.765  29.892  1.00  0.00     0.037 A 
BRANCH  26  40
ATOM     40  C   UNL A   1      42.354  26.822  27.717  1.00  0.00     0.064 A 
ATOM     41  C   UNL A   1      41.968  25.504  27.428  1.00  0.00     0.173 A 
ATOM     42  C   UNL A   1      43.279  27.434  26.856  1.00  0.00     0.173 A 
ATOM     43  F   UNL A   1      41.091  24.868  28.220  1.00  0.00    -0.203 F 
ATOM     44  C   UNL A   1      42.522  24.812  26.354  1.00  0.00     0.198 A 
ATOM     45  C   UNL A   1      43.803  26.752  25.761  1.00  0.00     0.198 A 
ATOM     46  F   UNL A   1      43.676  28.696  27.075  1.00  0.00    -0.203 F 
ATOM     47  F   UNL A   1      42.189  23.531  26.140  1.00  0.00    -0.200 F 
ATOM     48  C   UNL A   1      43.435  25.437  25.519  1.00  0.00     0.200 A 
ATOM     49  F   UNL A   1      44.672  27.364  24.946  1.00  0.00    -0.200 F 
ATOM     50  F   UNL A   1      43.970  24.769  24.488  1.00  0.00    -0.200 F 
ENDBRANCH  26  40
BRANCH  27  51
ATOM     51  C   UNL A   1      39.297  31.988  35.712  1.00  0.00     0.064 A 
ATOM     52  C   UNL A   1      38.370  31.496  36.638  1.00  0.00     0.173 A 
ATOM     53  C   UNL A   1      39.872  33.244  35.963  1.00  0.00     0.173 A 
ATOM     54  F   UNL A   1      37.783  30.308  36.431  1.00  0.00    -0.203 F 
ATOM     55  C   UNL A   1      38.026  32.232  37.770  1.00  0.00     0.198 A 
ATOM     56  C   UNL A   1      39.551  33.964  37.111  1.00  0.00     0.198 A 
ATOM     57  F   UNL A   1      40.774  33.753  35.111  1.00  0.00    -0.203 F 
ATOM     58  F   UNL A   1      37.115  31.753  38.627  1.00  0.00    -0.200 F 
ATOM     59  C   UNL A   1      38.624  33.460  38.011  1.00  0.00     0.200 A 
ATOM     60  F   UNL A   1      40.147  35.140  37.350  1.00  0.00    -0.200 F 
ATOM     61  F   UNL A   1      38.308  34.159  39.109  1.00  0.00    -0.200 F 
ENDBRANCH  27  51
BRANCH  39  62
ATOM     62  C   UNL A   1      36.923  31.342  29.167  1.00  0.00     0.064 A 
ATOM     63  C   UNL A   1      35.784  30.579  28.876  1.00  0.00     0.173 A 
ATOM     64  C   UNL A   1      36.905  32.705  28.830  1.00  0.00     0.173 A 
ATOM     65  F   UNL A   1      35.758  29.269  29.162  1.00  0.00    -0.203 F 
ATOM     66  C   UNL A   1      34.674  31.157  28.264  1.00  0.00     0.198 A 
ATOM     67  C   UNL A   1      35.783  33.286  28.248  1.00  0.00     0.198 A 
ATOM     68  F   UNL A   1      37.969  33.480  29.092  1.00  0.00    -0.203 F 
ATOM     69  F   UNL A   1      33.609  30.402  27.962  1.00  0.00    -0.200 F 
ATOM     70  C   UNL A   1      34.670  32.512  27.962  1.00  0.00     0.200 A 
ATOM     71  F   UNL A   1      35.776  34.598  27.974  1.00  0.00    -0.200 F 
ATOM     72  F   UNL A   1      33.593  33.070  27.394  1.00  0.00    -0.200 F 
ENDBRANCH  39  62
ENDBRANCH  13  14
ENDBRANCH   6   8
ENDBRANCH   3   4
ENDBRANCH   2   3
ENDBRANCH   1   2
BRANCH   1  73
ATOM     73  C   UNL A   1      46.386  24.382  39.276  1.00  0.00     0.116 C 
BRANCH  73  74
ATOM     74  N   UNL A   1      46.436  23.123  39.994  1.00  0.00    -0.356 N 
ATOM     75  C   UNL A   1      46.124  21.914  39.423  1.00  0.00     0.223 C 
ATOM     76  H   UNL A   1      46.708  23.135  40.940  1.00  0.00     0.163 HD
ATOM     77  O   UNL A   1      45.377  21.161  40.041  1.00  0.00    -0.275 OA
BRANCH  75  78
ATOM     78  C   UNL A   1      46.712  21.610  38.045  1.00  0.00     0.091 C 
ATOM     79  C   UNL A   1      45.708  21.801  36.901  1.00  0.00     0.014 C 
ATOM     80  C   UNL A   1      47.398  20.212  37.949  1.00  0.00     0.091 C 
ATOM     81  C   UNL A   1      46.416  21.702  35.547  1.00  0.00     0.001 C 
ATOM     82  C   UNL A   1      48.153  20.227  36.612  1.00  0.00     0.014 C 
ATOM     83  C   UNL A   1      47.234  20.425  35.414  1.00  0.00     0.001 C 
BRANCH  80  84
ATOM     84  C   UNL A   1      46.368  19.088  38.237  1.00  0.00     0.228 C 
ATOM     85  O   UNL A   1      45.442  18.868  37.447  1.00  0.00    -0.274 OA
ATOM     86  N   UNL A   1      46.332  18.266  39.314  1.00  0.00    -0.325 N 
ATOM     87  H   UNL A   1      45.589  17.621  39.300  1.00  0.00     0.169 HD
BRANCH  86  88
ATOM     88  C   UNL A   1      47.149  18.164  40.436  1.00  0.00     0.054 A 
ATOM     89  C   UNL A   1      48.521  18.231  40.138  1.00  0.00     0.027 A 
ATOM     90  C   UNL A   1      46.711  18.112  41.766  1.00  0.00     0.063 A 
ATOM     91  C   UNL A   1      49.446  18.477  41.146  1.00  0.00     0.002 A 
ATOM     92  C   UNL A   1      47.667  18.348  42.774  1.00  0.00     0.016 A 
ATOM     93  C   UNL A   1      49.014  18.571  42.463  1.00  0.00     0.001 A 
BRANCH  90  94
ATOM     94  C   UNL A   1      45.277  18.047  42.192  1.00  0.00     0.256 C 
ATOM     95  O   UNL A   1      44.545  18.973  41.831  1.00  0.00    -0.269 OA
ATOM     96  N   UNL A   1      44.759  16.944  42.861  1.00  0.00    -0.335 N 
ATOM     97  C   UNL A   1      43.315  16.703  42.781  1.00  0.00     0.141 C 
ATOM     98  C   UNL A   1      45.434  16.179  43.922  1.00  0.00     0.141 C 
ATOM     99  C   UNL A   1      43.010  15.205  42.632  1.00  0.00     0.138 C 
ATOM    100  C   UNL A   1      45.085  14.667  43.915  1.00  0.00     0.138 C 
ATOM    101  N   UNL A   1      43.638  14.445  43.721  1.00  0.00    -0.368 N 
BRANCH 101 102
ATOM    102  C   UNL A   1      43.201  13.128  43.862  1.00  0.00     0.037 A 
ATOM    103  C   UNL A   1      43.718  12.248  44.827  1.00  0.00     0.029 A 
ATOM    104  C   UNL A   1      42.234  12.651  42.969  1.00  0.00     0.029 A 
ATOM    105  C   UNL A   1      43.314  10.909  44.858  1.00  0.00     0.041 A 
ATOM    106  C   UNL A   1      41.828  11.316  42.997  1.00  0.00     0.041 A 
ATOM    107  C   UNL A   1      42.381  10.455  43.936  1.00  0.00     0.123 A 
ATOM    108  F   UNL A   1      42.012   9.167  43.946  1.00  0.00    -0.207 F 
ENDBRANCH 101 102
ENDBRANCH  90  94
ENDBRANCH  86  88
ENDBRANCH  80  84
ENDBRANCH  75  78
ENDBRANCH  73  74
ENDBRANCH   1  73
TORSDOF 15
ENDMDL
MODEL 2
REMARK VINA RESULT:     -13.2      8.103     14.391
REMARK SMILES O=C(NCCCCNC(=O)[C@@H]1CCCC[C@@H]1C(=O)Nc1ccccc1C(=O)N1CCN(c2ccc(F)cc2)CC1)c1ccc(-c2c3nc(c(-c4c(F)c(F)c(F)c(F)c4F)c4ccc([nH]4)c(-c4c(F)c(F)c(F)c(F)c4F)c4nc(c(-c5c(F)c(F)c(F)c(F)c5F)c5ccc2[nH]5)C=C4)C=C3)cc1
REMARK SMILES IDX 6 1 5 2 4 3 3 4 1 5 2 6 41 8 42 9 103 10 43 11 102 12 44 13
REMARK SMILES IDX 45 14 46 15 96 16 47 17 101 18 95 19 97 20 48 21 100 22
REMARK SMILES IDX 94 23 93 24 49 26 81 27 61 28 80 29 62 30 65 31 79 32 98 33
REMARK SMILES IDX 63 34 64 35 78 37 99 38 66 39 50 40 51 41 59 42 52 43 53 44
REMARK SMILES IDX 57 45 60 46 54 47 55 48 58 49 56 50 82 51 83 52 91 53 84 54
REMARK SMILES IDX 85 55 89 56 92 57 86 58 87 59 90 60 88 61 67 62 68 63 76 64
REMARK SMILES IDX 69 65 70 66 74 67 77 68 71 69 72 70 75 71 73 72 7 73 8 74
REMARK SMILES IDX 9 75 10 77 11 78 12 79 16 80 13 81 15 82 14 83 17 84 18 85
REMARK SMILES IDX 19 86 20 88 21 89 25 90 22 91 24 92 23 93 26 94 27 95 28 96
REMARK SMILES IDX 29 97 40 98 30 99 39 100 31 101 32 102 33 103 38 104 34 105
REMARK SMILES IDX 37 106 35 107 36 108
REMARK H PARENT 3 7 97 25 65 36 8 76 19 87
REMARK Flexibility Score: inf
ROOT
ATOM      1  C   UNL A   1      34.045  31.136  27.874  1.00  0.00     0.023 C 
ENDROOT
BRANCH   1   2
ATOM      2  C   UNL A   1      33.896  32.608  27.470  1.00  0.00     0.023 C 
BRANCH   2   3
ATOM      3  C   UNL A   1      32.483  33.160  27.623  1.00  0.00     0.116 C 
BRANCH   3   4
ATOM      4  N   UNL A   1      32.485  34.576  27.951  1.00  0.00    -0.352 N 
ATOM      5  O   UNL A   1      32.970  36.413  29.162  1.00  0.00    -0.269 OA
ATOM      6  C   UNL A   1      33.241  35.256  28.871  1.00  0.00     0.251 C 
ATOM      7  H   UNL A   1      31.853  35.128  27.437  1.00  0.00     0.163 HD
BRANCH   6   8
ATOM      8  C   UNL A   1      34.378  34.575  29.523  1.00  0.00     0.039 A 
ATOM      9  C   UNL A   1      34.192  33.833  30.693  1.00  0.00     0.014 A 
ATOM     10  C   UNL A   1      35.642  34.669  28.938  1.00  0.00     0.014 A 
ATOM     11  C   UNL A   1      35.289  33.281  31.344  1.00  0.00     0.010 A 
ATOM     12  C   UNL A   1      36.731  34.052  29.553  1.00  0.00     0.010 A 
ATOM     13  C   UNL A   1      36.567  33.374  30.772  1.00  0.00    -0.014 A 
BRANCH  13  14
ATOM     14  C   UNL A   1      37.729  32.722  31.422  1.00  0.00     0.031 A 
ATOM     15  C   UNL A   1      38.390  31.535  30.789  1.00  0.00     0.074 A 
ATOM     16  C   UNL A   1      38.152  33.183  32.613  1.00  0.00     0.049 A 
ATOM     17  N   UNL A   1      39.339  30.766  31.262  1.00  0.00    -0.248 NA
ATOM     18  C   UNL A   1      37.914  31.153  29.453  1.00  0.00     0.031 C 
ATOM     19  C   UNL A   1      37.586  34.331  33.321  1.00  0.00     0.029 A 
ATOM     20  N   UNL A   1      39.143  32.730  33.447  1.00  0.00    -0.354 N 
ATOM     21  C   UNL A   1      39.557  29.796  30.293  1.00  0.00     0.074 A 
ATOM     22  C   UNL A   1      38.621  30.056  29.219  1.00  0.00     0.031 C 
ATOM     23  C   UNL A   1      38.238  34.497  34.480  1.00  0.00     0.029 A 
ATOM     24  C   UNL A   1      39.220  33.427  34.627  1.00  0.00     0.049 A 
ATOM     25  H   UNL A   1      39.739  31.980  33.222  1.00  0.00     0.167 HD
ATOM     26  C   UNL A   1      40.458  28.784  30.304  1.00  0.00     0.037 A 
ATOM     27  C   UNL A   1      39.968  33.208  35.723  1.00  0.00     0.037 A 
ATOM     28  C   UNL A   1      41.382  28.539  31.383  1.00  0.00     0.049 A 
ATOM     29  C   UNL A   1      40.924  32.049  35.736  1.00  0.00     0.074 A 
ATOM     30  C   UNL A   1      42.360  27.565  31.476  1.00  0.00     0.029 A 
ATOM     31  N   UNL A   1      41.430  29.267  32.564  1.00  0.00    -0.354 N 
ATOM     32  N   UNL A   1      41.148  31.154  34.805  1.00  0.00    -0.248 NA
ATOM     33  C   UNL A   1      41.732  31.869  36.949  1.00  0.00     0.031 C 
ATOM     34  C   UNL A   1      42.952  27.659  32.740  1.00  0.00     0.029 A 
ATOM     35  C   UNL A   1      42.398  28.743  33.406  1.00  0.00     0.049 A 
ATOM     36  H   UNL A   1      40.860  30.042  32.773  1.00  0.00     0.167 HD
ATOM     37  C   UNL A   1      42.144  30.326  35.302  1.00  0.00     0.074 A 
ATOM     38  C   UNL A   1      42.480  30.825  36.620  1.00  0.00     0.031 C 
ATOM     39  C   UNL A   1      42.732  29.257  34.712  1.00  0.00     0.037 A 
BRANCH  26  40
ATOM     40  C   UNL A   1      40.456  27.842  29.132  1.00  0.00     0.064 A 
ATOM     41  C   UNL A   1      41.251  28.062  27.996  1.00  0.00     0.173 A 
ATOM     42  C   UNL A   1      39.651  26.692  29.150  1.00  0.00     0.173 A 
ATOM     43  F   UNL A   1      42.036  29.148  27.922  1.00  0.00    -0.203 F 
ATOM     44  C   UNL A   1      41.202  27.197  26.906  1.00  0.00     0.198 A 
ATOM     45  C   UNL A   1      39.633  25.808  28.074  1.00  0.00     0.198 A 
ATOM     46  F   UNL A   1      38.880  26.422  30.213  1.00  0.00    -0.203 F 
ATOM     47  F   UNL A   1      41.918  27.467  25.805  1.00  0.00    -0.200 F 
ATOM     48  C   UNL A   1      40.398  26.069  26.947  1.00  0.00     0.200 A 
ATOM     49  F   UNL A   1      38.868  24.709  28.123  1.00  0.00    -0.200 F 
ATOM     50  F   UNL A   1      40.350  25.238  25.896  1.00  0.00    -0.200 F 
ENDBRANCH  26  40
BRANCH  27  51
ATOM     51  C   UNL A   1      39.821  34.110  36.893  1.00  0.00     0.064 A 
ATOM     52  C   UNL A   1      38.985  33.772  37.964  1.00  0.00     0.173 A 
ATOM     53  C   UNL A   1      40.558  35.302  36.987  1.00  0.00     0.173 A 
ATOM     54  F   UNL A   1      38.251  32.652  37.912  1.00  0.00    -0.203 F 
ATOM     55  C   UNL A   1      38.886  34.595  39.084  1.00  0.00     0.198 A 
ATOM     56  C   UNL A   1      40.482  36.107  38.121  1.00  0.00     0.198 A 
ATOM     57  F   UNL A   1      41.382  35.663  35.992  1.00  0.00    -0.203 F 
ATOM     58  F   UNL A   1      38.058  34.265  40.084  1.00  0.00    -0.200 F 
ATOM     59  C   UNL A   1      39.642  35.755  39.166  1.00  0.00     0.200 A 
ATOM     60  F   UNL A   1      41.230  37.215  38.204  1.00  0.00    -0.200 F 
ATOM     61  F   UNL A   1      39.560  36.536  40.252  1.00  0.00    -0.200 F 
ENDBRANCH  27  51
BRANCH  39  62
ATOM     62  C   UNL A   1      43.847  28.578  35.455  1.00  0.00     0.064 A 
ATOM     63  C   UNL A   1      43.610  27.544  36.372  1.00  0.00     0.173 A 
ATOM     64  C   UNL A   1      45.181  28.921  35.182  1.00  0.00     0.173 A 
ATOM     65  F   UNL A   1      42.353  27.191  36.680  1.00  0.00    -0.203 F 
ATOM     66  C   UNL A   1      44.666  26.887  36.996  1.00  0.00     0.198 A 
ATOM     67  C   UNL A   1      46.235  28.240  35.784  1.00  0.00     0.198 A 
ATOM     68  F   UNL A   1      45.462  29.901  34.309  1.00  0.00    -0.203 F 
ATOM     69  F   UNL A   1      44.417  25.925  37.896  1.00  0.00    -0.200 F 
ATOM     70  C   UNL A   1      45.977  27.226  36.693  1.00  0.00     0.200 A 
ATOM     71  F   UNL A   1      47.500  28.559  35.475  1.00  0.00    -0.200 F 
ATOM     72  F   UNL A   1      46.992  26.577  37.278  1.00  0.00    -0.200 F 
ENDBRANCH  39  62
ENDBRANCH  13  14
ENDBRANCH   6   8
ENDBRANCH   3   4
ENDBRANCH   2   3
ENDBRANCH   1   2
BRANCH   1  73
ATOM     73  C   UNL A   1      33.403  30.157  26.883  1.00  0.00     0.116 C 
BRANCH  73  74
ATOM     74  N   UNL A   1      32.948  28.971  27.583  1.00  0.00    -0.356 N 
ATOM     75  C   UNL A   1      31.915  28.182  27.140  1.00  0.00     0.223 C 
ATOM     76  H   UNL A   1      33.403  28.718  28.418  1.00  0.00     0.163 HD
ATOM     77  O   UNL A   1      31.057  27.848  27.953  1.00  0.00    -0.275 OA
BRANCH  75  78
ATOM     78  C   UNL A   1      31.899  27.801  25.661  1.00  0.00     0.091 C 
ATOM     79  C   UNL A   1      30.517  27.364  25.161  1.00  0.00     0.014 C 
ATOM     80  C   UNL A   1      32.984  26.750  25.270  1.00  0.00     0.091 C 
ATOM     81  C   UNL A   1      30.521  27.217  23.636  1.00  0.00     0.001 C 
ATOM     82  C   UNL A   1      32.987  26.727  23.735  1.00  0.00     0.014 C 
ATOM     83  C   UNL A   1      31.645  26.314  23.146  1.00  0.00     0.001 C 
BRANCH  80  84
ATOM     84  C   UNL A   1      32.763  25.432  26.058  1.00  0.00     0.228 C 
ATOM     85  O   UNL A   1      31.815  25.324  26.845  1.00  0.00    -0.274 OA
ATOM     86  N   UNL A   1      33.523  24.311  26.010  1.00  0.00    -0.325 N 
ATOM     87  H   UNL A   1      33.204  23.587  26.595  1.00  0.00     0.169 HD
BRANCH  86  88
ATOM     88  C   UNL A   1      34.670  23.992  25.289  1.00  0.00     0.054 A 
ATOM     89  C   UNL A   1      35.833  24.606  25.786  1.00  0.00     0.027 A 
ATOM     90  C   UNL A   1      34.746  23.072  24.234  1.00  0.00     0.063 A 
ATOM     91  C   UNL A   1      37.087  24.146  25.404  1.00  0.00     0.002 A 
ATOM     92  C   UNL A   1      36.027  22.630  23.850  1.00  0.00     0.016 A 
ATOM     93  C   UNL A   1      37.184  23.131  24.460  1.00  0.00     0.001 A 
BRANCH  90  94
ATOM     94  C   UNL A   1      33.574  22.359  23.637  1.00  0.00     0.256 C 
ATOM     95  O   UNL A   1      33.069  22.861  22.629  1.00  0.00    -0.269 OA
ATOM     96  N   UNL A   1      33.139  21.129  24.117  1.00  0.00    -0.335 N 
ATOM     97  C   UNL A   1      32.377  20.263  23.212  1.00  0.00     0.141 C 
ATOM     98  C   UNL A   1      33.058  20.731  25.532  1.00  0.00     0.141 C 
ATOM     99  C   UNL A   1      32.787  18.792  23.374  1.00  0.00     0.138 C 
ATOM    100  C   UNL A   1      33.343  19.225  25.771  1.00  0.00     0.138 C 
ATOM    101  N   UNL A   1      32.655  18.377  24.777  1.00  0.00    -0.368 N 
BRANCH 101 102
ATOM    102  C   UNL A   1      32.716  17.002  25.003  1.00  0.00     0.037 A 
ATOM    103  C   UNL A   1      31.642  16.263  25.524  1.00  0.00     0.029 A 
ATOM    104  C   UNL A   1      33.922  16.340  24.742  1.00  0.00     0.029 A 
ATOM    105  C   UNL A   1      31.792  14.905  25.825  1.00  0.00     0.041 A 
ATOM    106  C   UNL A   1      34.076  14.986  25.041  1.00  0.00     0.041 A 
ATOM    107  C   UNL A   1      33.012  14.283  25.590  1.00  0.00     0.123 A 
ATOM    108  F   UNL A   1      33.167  12.990  25.902  1.00  0.00    -0.207 F 
ENDBRANCH 101 102
ENDBRANCH  90  94
ENDBRANCH  86  88
ENDBRANCH  80  84
ENDBRANCH  75  78
ENDBRANCH  73  74
ENDBRANCH   1  73
TORSDOF 15
ENDMDL
MODEL 3
REMARK VINA RESULT:     -13.1      8.881     13.928
REMARK SMILES O=C(NCCCCNC(=O)[C@@H]1CCCC[C@@H]1C(=O)Nc1ccccc1C(=O)N1CCN(c2ccc(F)cc2)CC1)c1ccc(-c2c3nc(c(-c4c(F)c(F)c(F)c(F)c4F)c4ccc([nH]4)c(-c4c(F)c(F)c(F)c(F)c4F)c4nc(c(-c5c(F)c(F)c(F)c(F)c5F)c5ccc2[nH]5)C=C4)C=C3)cc1
REMARK SMILES IDX 6 1 5 2 4 3 3 4 1 5 2 6 41 8 42 9 103 10 43 11 102 12 44 13
REMARK SMILES IDX 45 14 46 15 96 16 47 17 101 18 95 19 97 20 48 21 100 22
REMARK SMILES IDX 94 23 93 24 49 26 81 27 61 28 80 29 62 30 65 31 79 32 98 33
REMARK SMILES IDX 63 34 64 35 78 37 99 38 66 39 50 40 51 41 59 42 52 43 53 44
REMARK SMILES IDX 57 45 60 46 54 47 55 48 58 49 56 50 82 51 83 52 91 53 84 54
REMARK SMILES IDX 85 55 89 56 92 57 86 58 87 59 90 60 88 61 67 62 68 63 76 64
REMARK SMILES IDX 69 65 70 66 74 67 77 68 71 69 72 70 75 71 73 72 7 73 8 74
REMARK SMILES IDX 9 75 10 77 11 78 12 79 16 80 13 81 15 82 14 83 17 84 18 85
REMARK SMILES IDX 19 86 20 88 21 89 25 90 22 91 24 92 23 93 26 94 27 95 28 96
REMARK SMILES IDX 29 97 40 98 30 99 39 100 31 101 32 102 33 103 38 104 34 105
REMARK SMILES IDX 37 106 35 107 36 108
REMARK H PARENT 3 7 97 25 65 36 8 76 19 87
REMARK Flexibility Score: inf
ROOT
ATOM      1  C   UNL A   1      36.066  33.307  30.801  1.00  0.00     0.023 C 
ENDROOT
BRANCH   1   2
ATOM      2  C   UNL A   1      34.841  32.515  30.325  1.00  0.00     0.023 C 
BRANCH   2   3
ATOM      3  C   UNL A   1      34.682  32.458  28.810  1.00  0.00     0.116 C 
BRANCH   3   4
ATOM      4  N   UNL A   1      34.034  31.232  28.377  1.00  0.00    -0.352 N 
ATOM      5  O   UNL A   1      33.909  29.171  27.476  1.00  0.00    -0.269 OA
ATOM      6  C   UNL A   1      34.592  30.034  28.009  1.00  0.00     0.251 C 
ATOM      7  H   UNL A   1      33.050  31.265  28.344  1.00  0.00     0.163 HD
BRANCH   6   8
ATOM      8  C   UNL A   1      36.030  29.799  28.248  1.00  0.00     0.039 A 
ATOM      9  C   UNL A   1      36.973  30.061  27.250  1.00  0.00     0.014 A 
ATOM     10  C   UNL A   1      36.435  29.328  29.498  1.00  0.00     0.014 A 
ATOM     11  C   UNL A   1      38.309  29.743  27.460  1.00  0.00     0.010 A 
ATOM     12  C   UNL A   1      37.786  29.078  29.733  1.00  0.00     0.010 A 
ATOM     13  C   UNL A   1      38.730  29.261  28.708  1.00  0.00    -0.014 A 
BRANCH  13  14
ATOM     14  C   UNL A   1      40.166  28.992  28.963  1.00  0.00     0.031 A 
ATOM     15  C   UNL A   1      41.045  30.046  29.564  1.00  0.00     0.074 A 
ATOM     16  C   UNL A   1      40.679  27.801  28.604  1.00  0.00     0.049 A 
ATOM     17  N   UNL A   1      42.341  30.035  29.753  1.00  0.00    -0.248 NA
ATOM     18  C   UNL A   1      40.383  31.284  30.000  1.00  0.00     0.031 C 
ATOM     19  C   UNL A   1      39.918  26.700  28.013  1.00  0.00     0.029 A 
ATOM     20  N   UNL A   1      41.964  27.326  28.664  1.00  0.00    -0.354 N 
ATOM     21  C   UNL A   1      42.652  31.270  30.307  1.00  0.00     0.074 A 
ATOM     22  C   UNL A   1      41.415  32.016  30.395  1.00  0.00     0.031 C 
ATOM     23  C   UNL A   1      40.747  25.676  27.767  1.00  0.00     0.029 A 
ATOM     24  C   UNL A   1      42.106  26.074  28.120  1.00  0.00     0.049 A 
ATOM     25  H   UNL A   1      42.710  27.832  29.057  1.00  0.00     0.167 HD
ATOM     26  C   UNL A   1      43.863  31.733  30.703  1.00  0.00     0.037 A 
ATOM     27  C   UNL A   1      43.211  25.341  27.891  1.00  0.00     0.037 A 
ATOM     28  C   UNL A   1      45.086  30.976  30.605  1.00  0.00     0.049 A 
ATOM     29  C   UNL A   1      44.550  25.893  28.290  1.00  0.00     0.074 A 
ATOM     30  C   UNL A   1      46.358  31.337  31.012  1.00  0.00     0.029 A 
ATOM     31  N   UNL A   1      45.191  29.710  30.047  1.00  0.00    -0.354 N 
ATOM     32  N   UNL A   1      44.835  27.048  28.840  1.00  0.00    -0.248 NA
ATOM     33  C   UNL A   1      45.720  25.043  28.037  1.00  0.00     0.031 C 
ATOM     34  C   UNL A   1      47.242  30.320  30.638  1.00  0.00     0.029 A 
ATOM     35  C   UNL A   1      46.511  29.288  30.068  1.00  0.00     0.049 A 
ATOM     36  H   UNL A   1      44.437  29.186  29.688  1.00  0.00     0.167 HD
ATOM     37  C   UNL A   1      46.208  27.051  29.033  1.00  0.00     0.074 A 
ATOM     38  C   UNL A   1      46.701  25.782  28.537  1.00  0.00     0.031 C 
ATOM     39  C   UNL A   1      46.986  28.016  29.582  1.00  0.00     0.037 A 
BRANCH  26  40
ATOM     40  C   UNL A   1      43.928  33.136  31.237  1.00  0.00     0.064 A 
ATOM     41  C   UNL A   1      43.980  33.409  32.613  1.00  0.00     0.173 A 
ATOM     42  C   UNL A   1      43.946  34.229  30.355  1.00  0.00     0.173 A 
ATOM     43  F   UNL A   1      43.960  32.405  33.502  1.00  0.00    -0.203 F 
ATOM     44  C   UNL A   1      43.999  34.719  33.085  1.00  0.00     0.198 A 
ATOM     45  C   UNL A   1      44.003  35.537  30.830  1.00  0.00     0.198 A 
ATOM     46  F   UNL A   1      43.910  34.030  29.029  1.00  0.00    -0.203 F 
ATOM     47  F   UNL A   1      43.979  34.955  34.405  1.00  0.00    -0.200 F 
ATOM     48  C   UNL A   1      44.015  35.781  32.195  1.00  0.00     0.200 A 
ATOM     49  F   UNL A   1      44.035  36.561  29.966  1.00  0.00    -0.200 F 
ATOM     50  F   UNL A   1      44.031  37.042  32.650  1.00  0.00    -0.200 F 
ENDBRANCH  26  40
BRANCH  27  51
ATOM     51  C   UNL A   1      43.078  24.013  27.241  1.00  0.00     0.064 A 
ATOM     52  C   UNL A   1      42.608  22.904  27.955  1.00  0.00     0.173 A 
ATOM     53  C   UNL A   1      43.365  23.840  25.878  1.00  0.00     0.173 A 
ATOM     54  F   UNL A   1      42.334  23.017  29.263  1.00  0.00    -0.203 F 
ATOM     55  C   UNL A   1      42.435  21.670  27.332  1.00  0.00     0.198 A 
ATOM     56  C   UNL A   1      43.163  22.615  25.249  1.00  0.00     0.198 A 
ATOM     57  F   UNL A   1      43.808  24.875  25.148  1.00  0.00    -0.203 F 
ATOM     58  F   UNL A   1      42.011  20.617  28.043  1.00  0.00    -0.200 F 
ATOM     59  C   UNL A   1      42.703  21.528  25.979  1.00  0.00     0.200 A 
ATOM     60  F   UNL A   1      43.402  22.488  23.937  1.00  0.00    -0.200 F 
ATOM     61  F   UNL A   1      42.518  20.346  25.376  1.00  0.00    -0.200 F 
ENDBRANCH  27  51
BRANCH  39  62
ATOM     62  C   UNL A   1      48.452  27.724  29.736  1.00  0.00     0.064 A 
ATOM     63  C   UNL A   1      48.970  27.091  30.875  1.00  0.00     0.173 A 
ATOM     64  C   UNL A   1      49.338  28.016  28.686  1.00  0.00     0.173 A 
ATOM     65  F   UNL A   1      48.168  26.807  31.911  1.00  0.00    -0.203 F 
ATOM     66  C   UNL A   1      50.322  26.771  30.961  1.00  0.00     0.198 A 
ATOM     67  C   UNL A   1      50.682  27.665  28.763  1.00  0.00     0.198 A 
ATOM     68  F   UNL A   1      48.892  28.617  27.573  1.00  0.00    -0.203 F 
ATOM     69  F   UNL A   1      50.803  26.198  32.073  1.00  0.00    -0.200 F 
ATOM     70  C   UNL A   1      51.175  27.047  29.902  1.00  0.00     0.200 A 
ATOM     71  F   UNL A   1      51.499  27.919  27.731  1.00  0.00    -0.200 F 
ATOM     72  F   UNL A   1      52.471  26.718  29.979  1.00  0.00    -0.200 F 
ENDBRANCH  39  62
ENDBRANCH  13  14
ENDBRANCH   6   8
ENDBRANCH   3   4
ENDBRANCH   2   3
ENDBRANCH   1   2
BRANCH   1  73
ATOM     73  C   UNL A   1      37.204  32.424  31.328  1.00  0.00     0.116 C 
BRANCH  73  74
ATOM     74  N   UNL A   1      37.439  32.704  32.732  1.00  0.00    -0.356 N 
ATOM     75  C   UNL A   1      37.792  31.742  33.645  1.00  0.00     0.223 C 
ATOM     76  H   UNL A   1      37.340  33.632  33.046  1.00  0.00     0.163 HD
ATOM     77  O   UNL A   1      37.191  31.717  34.716  1.00  0.00    -0.275 OA
BRANCH  75  78
ATOM     78  C   UNL A   1      38.890  30.757  33.247  1.00  0.00     0.091 C 
ATOM     79  C   UNL A   1      38.426  29.295  33.252  1.00  0.00     0.014 C 
ATOM     80  C   UNL A   1      40.208  30.920  34.066  1.00  0.00     0.091 C 
ATOM     81  C   UNL A   1      39.496  28.392  32.631  1.00  0.00     0.001 C 
ATOM     82  C   UNL A   1      41.246  30.058  33.333  1.00  0.00     0.014 C 
ATOM     83  C   UNL A   1      40.862  28.586  33.277  1.00  0.00     0.001 C 
BRANCH  80  84
ATOM     84  C   UNL A   1      39.936  30.677  35.574  1.00  0.00     0.228 C 
ATOM     85  O   UNL A   1      39.800  29.527  36.010  1.00  0.00    -0.274 OA
ATOM     86  N   UNL A   1      39.804  31.614  36.545  1.00  0.00    -0.325 N 
ATOM     87  H   UNL A   1      39.631  31.241  37.439  1.00  0.00     0.169 HD
BRANCH  86  88
ATOM     88  C   UNL A   1      39.867  33.004  36.513  1.00  0.00     0.054 A 
ATOM     89  C   UNL A   1      40.970  33.498  35.795  1.00  0.00     0.027 A 
ATOM     90  C   UNL A   1      38.901  33.879  37.026  1.00  0.00     0.063 A 
ATOM     91  C   UNL A   1      41.003  34.827  35.387  1.00  0.00     0.002 A 
ATOM     92  C   UNL A   1      38.960  35.225  36.614  1.00  0.00     0.016 A 
ATOM     93  C   UNL A   1      39.978  35.684  35.768  1.00  0.00     0.001 A 
BRANCH  90  94
ATOM     94  C   UNL A   1      37.689  33.457  37.796  1.00  0.00     0.256 C 
ATOM     95  O   UNL A   1      36.640  33.326  37.158  1.00  0.00    -0.269 OA
ATOM     96  N   UNL A   1      37.755  33.114  39.141  1.00  0.00    -0.335 N 
ATOM     97  C   UNL A   1      36.712  32.239  39.684  1.00  0.00     0.141 C 
ATOM     98  C   UNL A   1      38.555  33.797  40.171  1.00  0.00     0.141 C 
ATOM     99  C   UNL A   1      37.302  31.214  40.664  1.00  0.00     0.138 C 
ATOM    100  C   UNL A   1      39.093  32.845  41.272  1.00  0.00     0.138 C 
ATOM    101  N   UNL A   1      38.056  31.897  41.723  1.00  0.00    -0.368 N 
BRANCH 101 102
ATOM    102  C   UNL A   1      38.391  31.108  42.824  1.00  0.00     0.037 A 
ATOM    103  C   UNL A   1      37.434  30.476  43.634  1.00  0.00     0.029 A 
ATOM    104  C   UNL A   1      39.744  30.981  43.162  1.00  0.00     0.029 A 
ATOM    105  C   UNL A   1      37.821  29.780  44.783  1.00  0.00     0.041 A 
ATOM    106  C   UNL A   1      40.135  30.287  44.308  1.00  0.00     0.041 A 
ATOM    107  C   UNL A   1      39.168  29.702  45.114  1.00  0.00     0.123 A 
ATOM    108  F   UNL A   1      39.541  29.059  46.228  1.00  0.00    -0.207 F 
ENDBRANCH 101 102
ENDBRANCH  90  94
ENDBRANCH  86  88
ENDBRANCH  80  84
ENDBRANCH  75  78
ENDBRANCH  73  74
ENDBRANCH   1  73
TORSDOF 15
ENDMDL
