MODEL 1
REMARK VINA RESULT:     -13.1      0.000      0.000
REMARK SMILES C[C@@H](C(=O)NCCCCNC(=O)c1ccc(-c2c3nc(c(-c4c(F)c(F)c(F)c(F)c4F)c4ccc([nH]4)c(-c4c(F)c(F)c(F)c(F)c4F)c4nc(c(-c5c(F)c(F)c(F)c(F)c5F)c5ccc2[nH]5)C=C4)C=C3)cc1)c1ccc(-c2ccccc2)c(F)c1
REMARK SMILES IDX 7 1 6 2 5 3 3 4 4 5 2 7 1 8 76 9 77 10 88 11 78 12 86 13
REMARK SMILES IDX 79 14 87 15 80 16 81 17 85 18 82 19 84 20 83 21 8 22 9 23
REMARK SMILES IDX 10 24 11 25 12 27 13 28 14 29 75 30 15 31 74 32 16 33 17 34
REMARK SMILES IDX 18 35 68 36 19 37 73 38 67 39 69 40 20 41 72 42 66 43 65 44
REMARK SMILES IDX 21 46 53 47 33 48 52 49 34 50 37 51 51 52 70 53 35 54 36 55
REMARK SMILES IDX 50 57 71 58 38 59 22 60 23 61 31 62 24 63 25 64 29 65 32 66
REMARK SMILES IDX 26 67 27 68 30 69 28 70 54 71 55 72 63 73 56 74 57 75 61 76
REMARK SMILES IDX 64 77 58 78 59 79 62 80 60 81 39 82 40 83 48 84 41 85 42 86
REMARK SMILES IDX 46 87 49 88 43 89 44 90 47 91 45 92
REMARK H PARENT 5 6 10 26 69 45 37 56
REMARK Flexibility Score: inf
ROOT
ATOM      1  C   UNL A   1      31.853  27.870  27.070  1.00  0.00     0.023 C 
ENDROOT
BRANCH   1   2
ATOM      2  C   UNL A   1      32.253  26.562  26.376  1.00  0.00     0.116 C 
BRANCH   2   3
ATOM      3  N   UNL A   1      31.404  25.468  26.801  1.00  0.00    -0.356 N 
ATOM      4  C   UNL A   1      30.464  24.755  26.116  1.00  0.00     0.227 C 
ATOM      5  O   UNL A   1      29.713  24.081  26.823  1.00  0.00    -0.274 OA
ATOM      6  H   UNL A   1      31.525  25.195  27.738  1.00  0.00     0.163 HD
BRANCH   4   7
ATOM      7  C   UNL A   1      30.397  24.831  24.578  1.00  0.00     0.105 C 
ATOM      8  C   UNL A   1      31.774  24.518  23.977  1.00  0.00     0.023 C 
BRANCH   7   9
ATOM      9  C   UNL A   1      29.883  26.132  23.943  1.00  0.00    -0.033 A 
ATOM     10  C   UNL A   1      30.822  27.000  23.350  1.00  0.00     0.005 A 
ATOM     11  C   UNL A   1      28.554  26.564  23.977  1.00  0.00     0.044 A 
ATOM     12  C   UNL A   1      30.456  28.273  22.887  1.00  0.00     0.012 A 
ATOM     13  C   UNL A   1      28.193  27.827  23.503  1.00  0.00     0.131 A 
ATOM     14  C   UNL A   1      29.132  28.719  22.977  1.00  0.00     0.017 A 
ATOM     15  F   UNL A   1      26.899  28.180  23.586  1.00  0.00    -0.206 F 
BRANCH  14  16
ATOM     16  C   UNL A   1      28.756  30.083  22.572  1.00  0.00    -0.015 A 
ATOM     17  C   UNL A   1      28.381  30.374  21.250  1.00  0.00     0.009 A 
ATOM     18  C   UNL A   1      28.772  31.138  23.501  1.00  0.00     0.009 A 
ATOM     19  C   UNL A   1      28.029  31.673  20.875  1.00  0.00     0.001 A 
ATOM     20  C   UNL A   1      28.422  32.436  23.127  1.00  0.00     0.001 A 
ATOM     21  C   UNL A   1      28.049  32.703  21.813  1.00  0.00     0.000 A 
ENDBRANCH  14  16
ENDBRANCH   7   9
ENDBRANCH   4   7
ENDBRANCH   2   3
ENDBRANCH   1   2
BRANCH   1  22
ATOM     22  C   UNL A   1      31.682  29.073  26.138  1.00  0.00     0.023 C 
BRANCH  22  23
ATOM     23  C   UNL A   1      32.923  29.935  25.961  1.00  0.00     0.116 C 
BRANCH  23  24
ATOM     24  N   UNL A   1      32.711  31.312  26.376  1.00  0.00    -0.352 N 
ATOM     25  C   UNL A   1      33.414  32.055  27.293  1.00  0.00     0.251 C 
ATOM     26  H   UNL A   1      31.961  31.776  25.941  1.00  0.00     0.163 HD
ATOM     27  O   UNL A   1      33.012  33.165  27.627  1.00  0.00    -0.269 OA
BRANCH  25  28
ATOM     28  C   UNL A   1      34.640  31.499  27.900  1.00  0.00     0.039 A 
ATOM     29  C   UNL A   1      35.742  32.338  28.079  1.00  0.00     0.014 A 
ATOM     30  C   UNL A   1      34.697  30.164  28.309  1.00  0.00     0.014 A 
ATOM     31  C   UNL A   1      36.882  31.855  28.724  1.00  0.00     0.010 A 
ATOM     32  C   UNL A   1      35.804  29.705  29.018  1.00  0.00     0.010 A 
ATOM     33  C   UNL A   1      36.907  30.545  29.231  1.00  0.00    -0.014 A 
BRANCH  33  34
ATOM     34  C   UNL A   1      38.077  30.036  29.989  1.00  0.00     0.031 A 
ATOM     35  C   UNL A   1      38.319  30.495  31.400  1.00  0.00     0.074 A 
ATOM     36  C   UNL A   1      38.955  29.213  29.385  1.00  0.00     0.049 A 
ATOM     37  N   UNL A   1      39.319  30.224  32.200  1.00  0.00    -0.248 NA
ATOM     38  C   UNL A   1      37.318  31.404  31.980  1.00  0.00     0.031 C 
ATOM     39  C   UNL A   1      38.855  28.736  28.005  1.00  0.00     0.029 A 
ATOM     40  N   UNL A   1      40.114  28.643  29.851  1.00  0.00    -0.354 N 
ATOM     41  C   UNL A   1      39.075  30.937  33.365  1.00  0.00     0.074 A 
ATOM     42  C   UNL A   1      37.863  31.696  33.151  1.00  0.00     0.031 C 
ATOM     43  C   UNL A   1      39.897  27.930  27.743  1.00  0.00     0.029 A 
ATOM     44  C   UNL A   1      40.757  27.864  28.919  1.00  0.00     0.049 A 
ATOM     45  H   UNL A   1      40.452  28.780  30.765  1.00  0.00     0.167 HD
ATOM     46  C   UNL A   1      39.785  30.939  34.519  1.00  0.00     0.037 A 
ATOM     47  C   UNL A   1      41.915  27.181  29.005  1.00  0.00     0.037 A 
ATOM     48  C   UNL A   1      40.978  30.163  34.736  1.00  0.00     0.049 A 
ATOM     49  C   UNL A   1      42.687  27.205  30.296  1.00  0.00     0.074 A 
ATOM     50  C   UNL A   1      41.737  30.050  35.887  1.00  0.00     0.029 A 
ATOM     51  N   UNL A   1      41.587  29.367  33.776  1.00  0.00    -0.354 N 
ATOM     52  N   UNL A   1      42.410  27.826  31.417  1.00  0.00    -0.248 NA
ATOM     53  C   UNL A   1      43.934  26.426  30.337  1.00  0.00     0.031 C 
ATOM     54  C   UNL A   1      42.832  29.226  35.611  1.00  0.00     0.029 A 
ATOM     55  C   UNL A   1      42.725  28.779  34.303  1.00  0.00     0.049 A 
ATOM     56  H   UNL A   1      41.260  29.241  32.856  1.00  0.00     0.167 HD
ATOM     57  C   UNL A   1      43.424  27.490  32.302  1.00  0.00     0.074 A 
ATOM     58  C   UNL A   1      44.318  26.599  31.593  1.00  0.00     0.031 C 
ATOM     59  C   UNL A   1      43.598  27.882  33.588  1.00  0.00     0.037 A 
BRANCH  46  60
ATOM     60  C   UNL A   1      39.288  31.806  35.639  1.00  0.00     0.064 A 
ATOM     61  C   UNL A   1      38.379  31.326  36.593  1.00  0.00     0.173 A 
ATOM     62  C   UNL A   1      39.755  33.122  35.782  1.00  0.00     0.173 A 
ATOM     63  F   UNL A   1      37.893  30.080  36.497  1.00  0.00    -0.203 F 
ATOM     64  C   UNL A   1      37.932  32.140  37.632  1.00  0.00     0.198 A 
ATOM     65  C   UNL A   1      39.331  33.922  36.841  1.00  0.00     0.198 A 
ATOM     66  F   UNL A   1      40.630  33.630  34.901  1.00  0.00    -0.203 F 
ATOM     67  F   UNL A   1      37.025  31.675  38.502  1.00  0.00    -0.200 F 
ATOM     68  C   UNL A   1      38.415  33.433  37.759  1.00  0.00     0.200 A 
ATOM     69  F   UNL A   1      39.809  35.167  36.969  1.00  0.00    -0.200 F 
ATOM     70  F   UNL A   1      37.991  34.212  38.764  1.00  0.00    -0.200 F 
ENDBRANCH  46  60
BRANCH  47  71
ATOM     71  C   UNL A   1      42.401  26.396  27.841  1.00  0.00     0.064 A 
ATOM     72  C   UNL A   1      41.937  25.093  27.609  1.00  0.00     0.173 A 
ATOM     73  C   UNL A   1      43.339  26.923  26.942  1.00  0.00     0.173 A 
ATOM     74  F   UNL A   1      41.055  24.537  28.451  1.00  0.00    -0.203 F 
ATOM     75  C   UNL A   1      42.411  24.340  26.536  1.00  0.00     0.198 A 
ATOM     76  C   UNL A   1      43.790  26.180  25.853  1.00  0.00     0.198 A 
ATOM     77  F   UNL A   1      43.811  28.167  27.116  1.00  0.00    -0.203 F 
ATOM     78  F   UNL A   1      41.987  23.081  26.365  1.00  0.00    -0.200 F 
ATOM     79  C   UNL A   1      43.332  24.887  25.656  1.00  0.00     0.200 A 
ATOM     80  F   UNL A   1      44.669  26.718  24.996  1.00  0.00    -0.200 F 
ATOM     81  F   UNL A   1      43.785  24.164  24.622  1.00  0.00    -0.200 F 
ENDBRANCH  47  71
BRANCH  59  82
ATOM     82  C   UNL A   1      44.775  27.317  34.329  1.00  0.00     0.064 A 
ATOM     83  C   UNL A   1      44.696  26.102  35.024  1.00  0.00     0.173 A 
ATOM     84  C   UNL A   1      46.011  27.981  34.302  1.00  0.00     0.173 A 
ATOM     85  F   UNL A   1      43.533  25.436  35.091  1.00  0.00    -0.203 F 
ATOM     86  C   UNL A   1      45.806  25.584  35.686  1.00  0.00     0.198 A 
ATOM     87  C   UNL A   1      47.127  27.444  34.939  1.00  0.00     0.198 A 
ATOM     88  F   UNL A   1      46.141  29.144  33.645  1.00  0.00    -0.203 F 
ATOM     89  F   UNL A   1      45.697  24.445  36.383  1.00  0.00    -0.200 F 
ATOM     90  C   UNL A   1      47.022  26.251  35.636  1.00  0.00     0.200 A 
ATOM     91  F   UNL A   1      48.303  28.083  34.877  1.00  0.00    -0.200 F 
ATOM     92  F   UNL A   1      48.092  25.746  36.267  1.00  0.00    -0.200 F 
ENDBRANCH  59  82
ENDBRANCH  33  34
ENDBRANCH  25  28
ENDBRANCH  23  24
ENDBRANCH  22  23
ENDBRANCH   1  22
TORSDOF 13
ENDMDL
MODEL 2
REMARK VINA RESULT:     -12.9      2.713      8.570
REMARK SMILES C[C@@H](C(=O)NCCCCNC(=O)c1ccc(-c2c3nc(c(-c4c(F)c(F)c(F)c(F)c4F)c4ccc([nH]4)c(-c4c(F)c(F)c(F)c(F)c4F)c4nc(c(-c5c(F)c(F)c(F)c(F)c5F)c5ccc2[nH]5)C=C4)C=C3)cc1)c1ccc(-c2ccccc2)c(F)c1
REMARK SMILES IDX 7 1 6 2 5 3 3 4 4 5 2 7 1 8 76 9 77 10 88 11 78 12 86 13
REMARK SMILES IDX 79 14 87 15 80 16 81 17 85 18 82 19 84 20 83 21 8 22 9 23
REMARK SMILES IDX 10 24 11 25 12 27 13 28 14 29 75 30 15 31 74 32 16 33 17 34
REMARK SMILES IDX 18 35 68 36 19 37 73 38 67 39 69 40 20 41 72 42 66 43 65 44
REMARK SMILES IDX 21 46 53 47 33 48 52 49 34 50 37 51 51 52 70 53 35 54 36 55
REMARK SMILES IDX 50 57 71 58 38 59 22 60 23 61 31 62 24 63 25 64 29 65 32 66
REMARK SMILES IDX 26 67 27 68 30 69 28 70 54 71 55 72 63 73 56 74 57 75 61 76
REMARK SMILES IDX 64 77 58 78 59 79 62 80 60 81 39 82 40 83 48 84 41 85 42 86
REMARK SMILES IDX 46 87 49 88 43 89 44 90 47 91 45 92
REMARK H PARENT 5 6 10 26 69 45 37 56
REMARK Flexibility Score: inf
ROOT
ATOM      1  C   UNL A   1      31.631  30.554  26.837  1.00  0.00     0.023 C 
ENDROOT
BRANCH   1   2
ATOM      2  C   UNL A   1      32.506  29.984  25.715  1.00  0.00     0.116 C 
BRANCH   2   3
ATOM      3  N   UNL A   1      31.701  29.290  24.731  1.00  0.00    -0.356 N 
ATOM      4  C   UNL A   1      32.067  28.510  23.673  1.00  0.00     0.227 C 
ATOM      5  O   UNL A   1      31.169  28.294  22.857  1.00  0.00    -0.274 OA
ATOM      6  H   UNL A   1      30.730  29.400  24.844  1.00  0.00     0.163 HD
BRANCH   4   7
ATOM      7  C   UNL A   1      33.508  27.973  23.564  1.00  0.00     0.105 C 
ATOM      8  C   UNL A   1      34.100  28.332  22.194  1.00  0.00     0.023 C 
BRANCH   7   9
ATOM      9  C   UNL A   1      33.738  26.473  23.805  1.00  0.00    -0.033 A 
ATOM     10  C   UNL A   1      33.674  25.602  22.699  1.00  0.00     0.005 A 
ATOM     11  C   UNL A   1      33.928  25.889  25.061  1.00  0.00     0.044 A 
ATOM     12  C   UNL A   1      33.719  24.209  22.857  1.00  0.00     0.012 A 
ATOM     13  C   UNL A   1      33.986  24.502  25.211  1.00  0.00     0.131 A 
ATOM     14  C   UNL A   1      33.855  23.631  24.125  1.00  0.00     0.017 A 
ATOM     15  F   UNL A   1      34.153  24.013  26.452  1.00  0.00    -0.206 F 
BRANCH  14  16
ATOM     16  C   UNL A   1      33.818  22.172  24.308  1.00  0.00    -0.015 A 
ATOM     17  C   UNL A   1      34.956  21.460  24.719  1.00  0.00     0.009 A 
ATOM     18  C   UNL A   1      32.638  21.447  24.064  1.00  0.00     0.009 A 
ATOM     19  C   UNL A   1      34.912  20.073  24.887  1.00  0.00     0.001 A 
ATOM     20  C   UNL A   1      32.594  20.062  24.228  1.00  0.00     0.001 A 
ATOM     21  C   UNL A   1      33.731  19.375  24.642  1.00  0.00     0.000 A 
ENDBRANCH  14  16
ENDBRANCH   7   9
ENDBRANCH   4   7
ENDBRANCH   2   3
ENDBRANCH   1   2
BRANCH   1  22
ATOM     22  C   UNL A   1      31.486  32.079  26.836  1.00  0.00     0.023 C 
BRANCH  22  23
ATOM     23  C   UNL A   1      32.722  32.846  27.279  1.00  0.00     0.116 C 
BRANCH  23  24
ATOM     24  N   UNL A   1      32.428  34.224  27.635  1.00  0.00    -0.352 N 
ATOM     25  C   UNL A   1      33.009  35.009  28.600  1.00  0.00     0.251 C 
ATOM     26  H   UNL A   1      31.714  34.655  27.112  1.00  0.00     0.163 HD
ATOM     27  O   UNL A   1      32.542  36.113  28.863  1.00  0.00    -0.269 OA
BRANCH  25  28
ATOM     28  C   UNL A   1      34.180  34.506  29.346  1.00  0.00     0.039 A 
ATOM     29  C   UNL A   1      33.975  33.880  30.578  1.00  0.00     0.014 A 
ATOM     30  C   UNL A   1      35.472  34.634  28.827  1.00  0.00     0.014 A 
ATOM     31  C   UNL A   1      35.059  33.326  31.261  1.00  0.00     0.010 A 
ATOM     32  C   UNL A   1      36.539  34.016  29.472  1.00  0.00     0.010 A 
ATOM     33  C   UNL A   1      36.344  33.358  30.695  1.00  0.00    -0.014 A 
BRANCH  33  34
ATOM     34  C   UNL A   1      37.497  32.707  31.366  1.00  0.00     0.031 A 
ATOM     35  C   UNL A   1      38.216  31.570  30.695  1.00  0.00     0.074 A 
ATOM     36  C   UNL A   1      37.852  33.095  32.606  1.00  0.00     0.049 A 
ATOM     37  N   UNL A   1      39.194  30.827  31.147  1.00  0.00    -0.248 NA
ATOM     38  C   UNL A   1      37.755  31.201  29.348  1.00  0.00     0.031 C 
ATOM     39  C   UNL A   1      37.201  34.153  33.380  1.00  0.00     0.029 A 
ATOM     40  N   UNL A   1      38.842  32.635  33.439  1.00  0.00    -0.354 N 
ATOM     41  C   UNL A   1      39.453  29.898  30.149  1.00  0.00     0.074 A 
ATOM     42  C   UNL A   1      38.496  30.133  29.091  1.00  0.00     0.031 C 
ATOM     43  C   UNL A   1      37.821  34.274  34.565  1.00  0.00     0.029 A 
ATOM     44  C   UNL A   1      38.885  33.280  34.651  1.00  0.00     0.049 A 
ATOM     45  H   UNL A   1      39.461  31.911  33.191  1.00  0.00     0.167 HD
ATOM     46  C   UNL A   1      40.419  28.948  30.109  1.00  0.00     0.037 A 
ATOM     47  C   UNL A   1      39.689  33.084  35.714  1.00  0.00     0.037 A 
ATOM     48  C   UNL A   1      41.386  28.733  31.154  1.00  0.00     0.049 A 
ATOM     49  C   UNL A   1      40.750  32.019  35.645  1.00  0.00     0.074 A 
ATOM     50  C   UNL A   1      42.441  27.838  31.183  1.00  0.00     0.029 A 
ATOM     51  N   UNL A   1      41.413  29.422  32.358  1.00  0.00    -0.354 N 
ATOM     52  N   UNL A   1      41.033  31.193  34.668  1.00  0.00    -0.248 NA
ATOM     53  C   UNL A   1      41.609  31.864  36.828  1.00  0.00     0.031 C 
ATOM     54  C   UNL A   1      43.076  27.950  32.424  1.00  0.00     0.029 A 
ATOM     55  C   UNL A   1      42.452  28.956  33.146  1.00  0.00     0.049 A 
ATOM     56  H   UNL A   1      40.785  30.136  32.615  1.00  0.00     0.167 HD
ATOM     57  C   UNL A   1      42.118  30.445  35.102  1.00  0.00     0.074 A 
ATOM     58  C   UNL A   1      42.452  30.923  36.426  1.00  0.00     0.031 C 
ATOM     59  C   UNL A   1      42.780  29.452  34.459  1.00  0.00     0.037 A 
BRANCH  46  60
ATOM     60  C   UNL A   1      40.482  28.072  28.892  1.00  0.00     0.064 A 
ATOM     61  C   UNL A   1      39.781  26.858  28.822  1.00  0.00     0.173 A 
ATOM     62  C   UNL A   1      41.222  28.466  27.767  1.00  0.00     0.173 A 
ATOM     63  F   UNL A   1      39.067  26.429  29.874  1.00  0.00    -0.203 F 
ATOM     64  C   UNL A   1      39.842  26.058  27.683  1.00  0.00     0.198 A 
ATOM     65  C   UNL A   1      41.255  27.679  26.618  1.00  0.00     0.198 A 
ATOM     66  F   UNL A   1      41.907  29.620  27.778  1.00  0.00    -0.203 F 
ATOM     67  F   UNL A   1      39.204  24.880  27.660  1.00  0.00    -0.200 F 
ATOM     68  C   UNL A   1      40.572  26.473  26.580  1.00  0.00     0.200 A 
ATOM     69  F   UNL A   1      41.950  28.089  25.548  1.00  0.00    -0.200 F 
ATOM     70  F   UNL A   1      40.623  25.707  25.482  1.00  0.00    -0.200 F 
ENDBRANCH  46  60
BRANCH  47  71
ATOM     71  C   UNL A   1      39.537  33.932  36.925  1.00  0.00     0.064 A 
ATOM     72  C   UNL A   1      40.160  35.186  37.006  1.00  0.00     0.173 A 
ATOM     73  C   UNL A   1      38.777  33.509  38.024  1.00  0.00     0.173 A 
ATOM     74  F   UNL A   1      40.914  35.626  35.989  1.00  0.00    -0.203 F 
ATOM     75  C   UNL A   1      40.047  35.974  38.150  1.00  0.00     0.198 A 
ATOM     76  C   UNL A   1      38.641  34.311  39.157  1.00  0.00     0.198 A 
ATOM     77  F   UNL A   1      38.158  32.321  37.995  1.00  0.00    -0.203 F 
ATOM     78  F   UNL A   1      40.691  37.147  38.220  1.00  0.00    -0.200 F 
ATOM     79  C   UNL A   1      39.282  35.538  39.222  1.00  0.00     0.200 A 
ATOM     80  F   UNL A   1      37.888  33.892  40.184  1.00  0.00    -0.200 F 
ATOM     81  F   UNL A   1      39.170  36.297  40.321  1.00  0.00    -0.200 F 
ENDBRANCH  47  71
BRANCH  59  82
ATOM     82  C   UNL A   1      43.960  28.843  35.159  1.00  0.00     0.064 A 
ATOM     83  C   UNL A   1      43.827  27.724  35.994  1.00  0.00     0.173 A 
ATOM     84  C   UNL A   1      45.248  29.362  34.955  1.00  0.00     0.173 A 
ATOM     85  F   UNL A   1      42.616  27.200  36.233  1.00  0.00    -0.203 F 
ATOM     86  C   UNL A   1      44.938  27.162  36.618  1.00  0.00     0.198 A 
ATOM     87  C   UNL A   1      46.360  28.778  35.555  1.00  0.00     0.198 A 
ATOM     88  F   UNL A   1      45.430  30.427  34.160  1.00  0.00    -0.203 F 
ATOM     89  F   UNL A   1      44.782  26.122  37.448  1.00  0.00    -0.200 F 
ATOM     90  C   UNL A   1      46.203  27.683  36.391  1.00  0.00     0.200 A 
ATOM     91  F   UNL A   1      47.583  29.275  35.323  1.00  0.00    -0.200 F 
ATOM     92  F   UNL A   1      47.273  27.134  36.985  1.00  0.00    -0.200 F 
ENDBRANCH  59  82
ENDBRANCH  33  34
ENDBRANCH  25  28
ENDBRANCH  23  24
ENDBRANCH  22  23
ENDBRANCH   1  22
TORSDOF 13
ENDMDL
MODEL 3
REMARK VINA RESULT:     -12.9      4.092      8.633
REMARK SMILES C[C@@H](C(=O)NCCCCNC(=O)c1ccc(-c2c3nc(c(-c4c(F)c(F)c(F)c(F)c4F)c4ccc([nH]4)c(-c4c(F)c(F)c(F)c(F)c4F)c4nc(c(-c5c(F)c(F)c(F)c(F)c5F)c5ccc2[nH]5)C=C4)C=C3)cc1)c1ccc(-c2ccccc2)c(F)c1
REMARK SMILES IDX 7 1 6 2 5 3 3 4 4 5 2 7 1 8 76 9 77 10 88 11 78 12 86 13
REMARK SMILES IDX 79 14 87 15 80 16 81 17 85 18 82 19 84 20 83 21 8 22 9 23
REMARK SMILES IDX 10 24 11 25 12 27 13 28 14 29 75 30 15 31 74 32 16 33 17 34
REMARK SMILES IDX 18 35 68 36 19 37 73 38 67 39 69 40 20 41 72 42 66 43 65 44
REMARK SMILES IDX 21 46 53 47 33 48 52 49 34 50 37 51 51 52 70 53 35 54 36 55
REMARK SMILES IDX 50 57 71 58 38 59 22 60 23 61 31 62 24 63 25 64 29 65 32 66
REMARK SMILES IDX 26 67 27 68 30 69 28 70 54 71 55 72 63 73 56 74 57 75 61 76
REMARK SMILES IDX 64 77 58 78 59 79 62 80 60 81 39 82 40 83 48 84 41 85 42 86
REMARK SMILES IDX 46 87 49 88 43 89 44 90 47 91 45 92
REMARK H PARENT 5 6 10 26 69 45 37 56
REMARK Flexibility Score: inf
ROOT
ATOM      1  C   UNL A   1      35.468  21.930  26.126  1.00  0.00     0.023 C 
ENDROOT
BRANCH   1   2
ATOM      2  C   UNL A   1      34.183  21.442  25.446  1.00  0.00     0.116 C 
BRANCH   2   3
ATOM      3  N   UNL A   1      34.107  21.914  24.079  1.00  0.00    -0.356 N 
ATOM      4  C   UNL A   1      33.164  22.677  23.452  1.00  0.00     0.227 C 
ATOM      5  O   UNL A   1      33.235  22.674  22.222  1.00  0.00    -0.274 OA
ATOM      6  H   UNL A   1      34.860  21.639  23.508  1.00  0.00     0.163 HD
BRANCH   4   7
ATOM      7  C   UNL A   1      32.120  23.455  24.276  1.00  0.00     0.105 C 
ATOM      8  C   UNL A   1      30.849  23.670  23.444  1.00  0.00     0.023 C 
BRANCH   7   9
ATOM      9  C   UNL A   1      32.536  24.809  24.871  1.00  0.00    -0.033 A 
ATOM     10  C   UNL A   1      32.010  25.176  26.126  1.00  0.00     0.005 A 
ATOM     11  C   UNL A   1      33.340  25.751  24.222  1.00  0.00     0.044 A 
ATOM     12  C   UNL A   1      32.217  26.454  26.665  1.00  0.00     0.012 A 
ATOM     13  C   UNL A   1      33.553  27.018  24.768  1.00  0.00     0.131 A 
ATOM     14  C   UNL A   1      32.978  27.410  25.981  1.00  0.00     0.017 A 
ATOM     15  F   UNL A   1      34.323  27.877  24.078  1.00  0.00    -0.206 F 
BRANCH  14  16
ATOM     16  C   UNL A   1      33.129  28.780  26.498  1.00  0.00    -0.015 A 
ATOM     17  C   UNL A   1      32.088  29.717  26.397  1.00  0.00     0.009 A 
ATOM     18  C   UNL A   1      34.331  29.190  27.101  1.00  0.00     0.009 A 
ATOM     19  C   UNL A   1      32.243  31.016  26.888  1.00  0.00     0.001 A 
ATOM     20  C   UNL A   1      34.487  30.488  27.590  1.00  0.00     0.001 A 
ATOM     21  C   UNL A   1      33.442  31.400  27.485  1.00  0.00     0.000 A 
ENDBRANCH  14  16
ENDBRANCH   7   9
ENDBRANCH   4   7
ENDBRANCH   2   3
ENDBRANCH   1   2
BRANCH   1  22
ATOM     22  C   UNL A   1      35.743  23.430  25.993  1.00  0.00     0.023 C 
BRANCH  22  23
ATOM     23  C   UNL A   1      37.042  23.789  25.288  1.00  0.00     0.116 C 
BRANCH  23  24
ATOM     24  N   UNL A   1      38.107  22.836  25.556  1.00  0.00    -0.352 N 
ATOM     25  C   UNL A   1      39.301  23.035  26.203  1.00  0.00     0.251 C 
ATOM     26  H   UNL A   1      37.950  21.921  25.228  1.00  0.00     0.163 HD
ATOM     27  O   UNL A   1      40.150  22.149  26.219  1.00  0.00    -0.269 OA
BRANCH  25  28
ATOM     28  C   UNL A   1      39.575  24.333  26.852  1.00  0.00     0.039 A 
ATOM     29  C   UNL A   1      39.161  24.525  28.172  1.00  0.00     0.014 A 
ATOM     30  C   UNL A   1      40.251  25.349  26.170  1.00  0.00     0.014 A 
ATOM     31  C   UNL A   1      39.481  25.714  28.830  1.00  0.00     0.010 A 
ATOM     32  C   UNL A   1      40.633  26.501  26.851  1.00  0.00     0.010 A 
ATOM     33  C   UNL A   1      40.251  26.696  28.186  1.00  0.00    -0.014 A 
BRANCH  33  34
ATOM     34  C   UNL A   1      40.669  27.932  28.893  1.00  0.00     0.031 A 
ATOM     35  C   UNL A   1      42.070  28.062  29.420  1.00  0.00     0.074 A 
ATOM     36  C   UNL A   1      39.768  28.909  29.116  1.00  0.00     0.049 A 
ATOM     37  N   UNL A   1      42.604  29.028  30.125  1.00  0.00    -0.248 NA
ATOM     38  C   UNL A   1      42.986  26.944  29.144  1.00  0.00     0.031 C 
ATOM     39  C   UNL A   1      38.367  28.878  28.696  1.00  0.00     0.029 A 
ATOM     40  N   UNL A   1      39.895  30.112  29.765  1.00  0.00    -0.354 N 
ATOM     41  C   UNL A   1      43.908  28.627  30.386  1.00  0.00     0.074 A 
ATOM     42  C   UNL A   1      44.069  27.309  29.814  1.00  0.00     0.031 C 
ATOM     43  C   UNL A   1      37.769  30.018  29.080  1.00  0.00     0.029 A 
ATOM     44  C   UNL A   1      38.731  30.841  29.805  1.00  0.00     0.049 A 
ATOM     45  H   UNL A   1      40.739  30.423  30.164  1.00  0.00     0.167 HD
ATOM     46  C   UNL A   1      44.888  29.309  31.026  1.00  0.00     0.037 A 
ATOM     47  C   UNL A   1      38.470  32.035  30.370  1.00  0.00     0.037 A 
ATOM     48  C   UNL A   1      44.730  30.631  31.574  1.00  0.00     0.049 A 
ATOM     49  C   UNL A   1      39.576  32.768  31.080  1.00  0.00     0.074 A 
ATOM     50  C   UNL A   1      45.678  31.430  32.187  1.00  0.00     0.029 A 
ATOM     51  N   UNL A   1      43.541  31.347  31.575  1.00  0.00    -0.354 N 
ATOM     52  N   UNL A   1      40.824  32.412  31.259  1.00  0.00    -0.248 NA
ATOM     53  C   UNL A   1      39.237  34.076  31.661  1.00  0.00     0.031 C 
ATOM     54  C   UNL A   1      45.053  32.610  32.604  1.00  0.00     0.029 A 
ATOM     55  C   UNL A   1      43.728  32.570  32.198  1.00  0.00     0.049 A 
ATOM     56  H   UNL A   1      42.692  31.033  31.190  1.00  0.00     0.167 HD
ATOM     57  C   UNL A   1      41.426  33.460  31.943  1.00  0.00     0.074 A 
ATOM     58  C   UNL A   1      40.409  34.472  32.135  1.00  0.00     0.031 C 
ATOM     59  C   UNL A   1      42.708  33.573  32.370  1.00  0.00     0.037 A 
BRANCH  46  60
ATOM     60  C   UNL A   1      46.223  28.638  31.166  1.00  0.00     0.064 A 
ATOM     61  C   UNL A   1      47.223  28.778  30.191  1.00  0.00     0.173 A 
ATOM     62  C   UNL A   1      46.522  27.874  32.305  1.00  0.00     0.173 A 
ATOM     63  F   UNL A   1      46.987  29.488  29.078  1.00  0.00    -0.203 F 
ATOM     64  C   UNL A   1      48.461  28.155  30.338  1.00  0.00     0.198 A 
ATOM     65  C   UNL A   1      47.771  27.280  32.463  1.00  0.00     0.198 A 
ATOM     66  F   UNL A   1      45.604  27.712  33.270  1.00  0.00    -0.203 F 
ATOM     67  F   UNL A   1      49.381  28.263  29.370  1.00  0.00    -0.200 F 
ATOM     68  C   UNL A   1      48.736  27.414  31.476  1.00  0.00     0.200 A 
ATOM     69  F   UNL A   1      48.040  26.575  33.571  1.00  0.00    -0.200 F 
ATOM     70  F   UNL A   1      49.930  26.823  31.620  1.00  0.00    -0.200 F 
ENDBRANCH  46  60
BRANCH  47  71
ATOM     71  C   UNL A   1      37.109  32.624  30.266  1.00  0.00     0.064 A 
ATOM     72  C   UNL A   1      36.153  32.402  31.268  1.00  0.00     0.173 A 
ATOM     73  C   UNL A   1      36.733  33.411  29.169  1.00  0.00     0.173 A 
ATOM     74  F   UNL A   1      36.459  31.640  32.328  1.00  0.00    -0.203 F 
ATOM     75  C   UNL A   1      34.866  32.926  31.164  1.00  0.00     0.198 A 
ATOM     76  C   UNL A   1      35.454  33.958  29.080  1.00  0.00     0.198 A 
ATOM     77  F   UNL A   1      37.612  33.657  28.186  1.00  0.00    -0.203 F 
ATOM     78  F   UNL A   1      33.957  32.659  32.111  1.00  0.00    -0.200 F 
ATOM     79  C   UNL A   1      34.520  33.708  30.072  1.00  0.00     0.200 A 
ATOM     80  F   UNL A   1      35.129  34.726  28.031  1.00  0.00    -0.200 F 
ATOM     81  F   UNL A   1      33.283  34.215  29.973  1.00  0.00    -0.200 F 
ENDBRANCH  47  71
BRANCH  59  82
ATOM     82  C   UNL A   1      43.097  34.854  33.051  1.00  0.00     0.064 A 
ATOM     83  C   UNL A   1      43.467  35.994  32.322  1.00  0.00     0.173 A 
ATOM     84  C   UNL A   1      43.053  34.952  34.450  1.00  0.00     0.173 A 
ATOM     85  F   UNL A   1      43.539  35.946  30.984  1.00  0.00    -0.203 F 
ATOM     86  C   UNL A   1      43.804  37.179  32.972  1.00  0.00     0.198 A 
ATOM     87  C   UNL A   1      43.360  36.148  35.094  1.00  0.00     0.198 A 
ATOM     88  F   UNL A   1      42.698  33.893  35.192  1.00  0.00    -0.203 F 
ATOM     89  F   UNL A   1      44.200  38.242  32.259  1.00  0.00    -0.200 F 
ATOM     90  C   UNL A   1      43.741  37.257  34.355  1.00  0.00     0.200 A 
ATOM     91  F   UNL A   1      43.284  36.225  36.430  1.00  0.00    -0.200 F 
ATOM     92  F   UNL A   1      44.056  38.402  34.978  1.00  0.00    -0.200 F 
ENDBRANCH  59  82
ENDBRANCH  33  34
ENDBRANCH  25  28
ENDBRANCH  23  24
ENDBRANCH  22  23
ENDBRANCH   1  22
TORSDOF 13
ENDMDL
