MODEL 1
REMARK VINA RESULT:     -11.8      0.000      0.000
REMARK SMILES C#CC[C@@]1(C(=O)NCCCCNC(=O)c2ccc(-c3c4nc(c(-c5c(F)c(F)c(F)c(F)c5F)c5ccc([nH]5)c(-c5c(F)c(F)c(F)c(F)c5F)c5nc(c(-c6c(F)c(F)c(F)c(F)c6F)c6ccc3[nH]6)C=C5)C=C4)cc2)CCCN1C(=O)OC(C)(C)C
REMARK SMILES IDX 9 1 8 2 7 3 5 4 6 5 4 7 78 8 81 9 79 10 80 11 3 12 2 13 1 14
REMARK SMILES IDX 82 15 83 16 84 17 85 18 86 19 87 20 88 21 10 22 11 23 12 24
REMARK SMILES IDX 13 25 14 27 15 28 16 29 77 30 17 31 76 32 18 33 19 34 20 35
REMARK SMILES IDX 70 36 21 37 75 38 69 39 71 40 22 41 74 42 68 43 67 44 23 46
REMARK SMILES IDX 55 47 35 48 54 49 36 50 39 51 53 52 72 53 37 54 38 55 52 57
REMARK SMILES IDX 73 58 40 59 24 60 25 61 33 62 26 63 27 64 31 65 34 66 28 67
REMARK SMILES IDX 29 68 32 69 30 70 56 71 57 72 65 73 58 74 59 75 63 76 66 77
REMARK SMILES IDX 60 78 61 79 64 80 62 81 41 82 42 83 50 84 43 85 44 86 48 87
REMARK SMILES IDX 51 88 45 89 46 90 49 91 47 92
REMARK H PARENT 7 6 12 26 71 45 39 56
REMARK Flexibility Score: inf
ROOT
ATOM      1  C   UNL A   1      32.158  30.204  27.068  1.00  0.00     0.023 C 
ENDROOT
BRANCH   1   2
ATOM      2  C   UNL A   1      31.749  29.280  25.921  1.00  0.00     0.116 C 
BRANCH   2   3
ATOM      3  N   UNL A   1      32.546  29.522  24.732  1.00  0.00    -0.354 N 
ATOM      4  C   UNL A   1      32.928  28.777  23.659  1.00  0.00     0.247 C 
ATOM      5  O   UNL A   1      33.694  29.361  22.877  1.00  0.00    -0.272 OA
ATOM      6  H   UNL A   1      32.892  30.443  24.693  1.00  0.00     0.163 HD
BRANCH   4   7
ATOM      7  C   UNL A   1      32.551  27.273  23.433  1.00  0.00     0.136 C 
ATOM      8  C   UNL A   1      33.543  26.745  22.361  1.00  0.00     0.042 C 
ATOM      9  N   UNL A   1      31.257  27.149  22.708  1.00  0.00    -0.292 N 
ATOM     10  C   UNL A   1      32.760  25.738  21.522  1.00  0.00     0.025 C 
ATOM     11  C   UNL A   1      31.312  26.176  21.635  1.00  0.00     0.124 C 
BRANCH   7  12
ATOM     12  C   UNL A   1      32.590  26.413  24.708  1.00  0.00     0.128 C 
BRANCH  12  13
ATOM     13  C   UNL A   1      33.838  25.562  24.884  1.00  0.00    -0.104 C 
ATOM     14  C   UNL A   1      34.908  24.833  25.034  1.00  0.00     0.004 C 
ENDBRANCH  12  13
ENDBRANCH   7  12
BRANCH   9  15
ATOM     15  C   UNL A   1      30.048  27.758  22.973  1.00  0.00     0.411 C 
ATOM     16  O   UNL A   1      29.305  27.380  23.865  1.00  0.00    -0.224 OA
BRANCH  15  17
ATOM     17  O   UNL A   1      29.736  28.738  22.083  1.00  0.00    -0.444 OA
BRANCH  17  18
ATOM     18  C   UNL A   1      28.773  29.762  22.467  1.00  0.00     0.106 C 
ATOM     19  C   UNL A   1      27.411  29.165  22.866  1.00  0.00     0.056 C 
ATOM     20  C   UNL A   1      29.334  30.666  23.569  1.00  0.00     0.056 C 
ATOM     21  C   UNL A   1      28.555  30.606  21.201  1.00  0.00     0.056 C 
ENDBRANCH  17  18
ENDBRANCH  15  17
ENDBRANCH   9  15
ENDBRANCH   4   7
ENDBRANCH   2   3
ENDBRANCH   1   2
BRANCH   1  22
ATOM     22  C   UNL A   1      32.015  31.684  26.711  1.00  0.00     0.023 C 
BRANCH  22  23
ATOM     23  C   UNL A   1      32.979  32.603  27.452  1.00  0.00     0.116 C 
BRANCH  23  24
ATOM     24  N   UNL A   1      32.484  33.960  27.627  1.00  0.00    -0.352 N 
ATOM     25  C   UNL A   1      32.949  34.897  28.521  1.00  0.00     0.251 C 
ATOM     26  H   UNL A   1      31.739  34.238  27.046  1.00  0.00     0.163 HD
ATOM     27  O   UNL A   1      32.400  35.981  28.662  1.00  0.00    -0.269 OA
BRANCH  25  28
ATOM     28  C   UNL A   1      34.113  34.526  29.345  1.00  0.00     0.039 A 
ATOM     29  C   UNL A   1      33.898  33.942  30.593  1.00  0.00     0.014 A 
ATOM     30  C   UNL A   1      35.399  34.625  28.805  1.00  0.00     0.014 A 
ATOM     31  C   UNL A   1      34.980  33.389  31.277  1.00  0.00     0.010 A 
ATOM     32  C   UNL A   1      36.456  33.997  29.448  1.00  0.00     0.010 A 
ATOM     33  C   UNL A   1      36.257  33.375  30.690  1.00  0.00    -0.014 A 
BRANCH  33  34
ATOM     34  C   UNL A   1      37.402  32.716  31.366  1.00  0.00     0.031 A 
ATOM     35  C   UNL A   1      38.088  31.554  30.705  1.00  0.00     0.074 A 
ATOM     36  C   UNL A   1      37.776  33.120  32.596  1.00  0.00     0.049 A 
ATOM     37  N   UNL A   1      39.065  30.806  31.151  1.00  0.00    -0.248 NA
ATOM     38  C   UNL A   1      37.589  31.157  29.378  1.00  0.00     0.031 C 
ATOM     39  C   UNL A   1      37.147  34.196  33.363  1.00  0.00     0.029 A 
ATOM     40  N   UNL A   1      38.773  32.663  33.423  1.00  0.00    -0.354 N 
ATOM     41  C   UNL A   1      39.281  29.846  30.173  1.00  0.00     0.074 A 
ATOM     42  C   UNL A   1      38.299  30.066  29.136  1.00  0.00     0.031 C 
ATOM     43  C   UNL A   1      37.785  34.333  34.536  1.00  0.00     0.029 A 
ATOM     44  C   UNL A   1      38.842  33.330  34.623  1.00  0.00     0.049 A 
ATOM     45  H   UNL A   1      39.380  31.928  33.180  1.00  0.00     0.167 HD
ATOM     46  C   UNL A   1      40.232  28.884  30.133  1.00  0.00     0.037 A 
ATOM     47  C   UNL A   1      39.661  33.144  35.676  1.00  0.00     0.037 A 
ATOM     48  C   UNL A   1      41.228  28.695  31.153  1.00  0.00     0.049 A 
ATOM     49  C   UNL A   1      40.713  32.067  35.601  1.00  0.00     0.074 A 
ATOM     50  C   UNL A   1      42.286  27.803  31.168  1.00  0.00     0.029 A 
ATOM     51  N   UNL A   1      41.283  29.405  32.344  1.00  0.00    -0.354 N 
ATOM     52  N   UNL A   1      40.969  31.226  34.629  1.00  0.00    -0.248 NA
ATOM     53  C   UNL A   1      41.594  31.920  36.767  1.00  0.00     0.031 C 
ATOM     54  C   UNL A   1      42.944  27.930  32.395  1.00  0.00     0.029 A 
ATOM     55  C   UNL A   1      42.338  28.947  33.115  1.00  0.00     0.049 A 
ATOM     56  H   UNL A   1      40.665  30.127  32.601  1.00  0.00     0.167 HD
ATOM     57  C   UNL A   1      42.057  30.474  35.051  1.00  0.00     0.074 A 
ATOM     58  C   UNL A   1      42.423  30.970  36.361  1.00  0.00     0.031 C 
ATOM     59  C   UNL A   1      42.695  29.461  34.414  1.00  0.00     0.037 A 
BRANCH  46  60
ATOM     60  C   UNL A   1      40.243  27.961  28.948  1.00  0.00     0.064 A 
ATOM     61  C   UNL A   1      40.938  28.275  27.771  1.00  0.00     0.173 A 
ATOM     62  C   UNL A   1      39.587  26.722  29.012  1.00  0.00     0.173 A 
ATOM     63  F   UNL A   1      41.571  29.453  27.653  1.00  0.00    -0.203 F 
ATOM     64  C   UNL A   1      40.955  27.395  26.691  1.00  0.00     0.198 A 
ATOM     65  C   UNL A   1      39.634  25.830  27.944  1.00  0.00     0.198 A 
ATOM     66  F   UNL A   1      38.909  26.370  30.114  1.00  0.00    -0.203 F 
ATOM     67  F   UNL A   1      41.585  27.738  25.560  1.00  0.00    -0.200 F 
ATOM     68  C   UNL A   1      40.311  26.170  26.782  1.00  0.00     0.200 A 
ATOM     69  F   UNL A   1      39.024  24.641  28.038  1.00  0.00    -0.200 F 
ATOM     70  F   UNL A   1      40.340  25.319  25.748  1.00  0.00    -0.200 F 
ENDBRANCH  46  60
BRANCH  47  71
ATOM     71  C   UNL A   1      39.531  33.997  36.888  1.00  0.00     0.064 A 
ATOM     72  C   UNL A   1      40.159  35.249  36.963  1.00  0.00     0.173 A 
ATOM     73  C   UNL A   1      38.797  33.571  38.005  1.00  0.00     0.173 A 
ATOM     74  F   UNL A   1      40.888  35.695  35.931  1.00  0.00    -0.203 F 
ATOM     75  C   UNL A   1      40.086  36.024  38.120  1.00  0.00     0.198 A 
ATOM     76  C   UNL A   1      38.696  34.362  39.148  1.00  0.00     0.198 A 
ATOM     77  F   UNL A   1      38.170  32.385  37.983  1.00  0.00    -0.203 F 
ATOM     78  F   UNL A   1      40.746  37.188  38.185  1.00  0.00    -0.200 F 
ATOM     79  C   UNL A   1      39.351  35.582  39.209  1.00  0.00     0.200 A 
ATOM     80  F   UNL A   1      37.970  33.938  40.191  1.00  0.00    -0.200 F 
ATOM     81  F   UNL A   1      39.281  36.327  40.321  1.00  0.00    -0.200 F 
ENDBRANCH  47  71
BRANCH  59  82
ATOM     82  C   UNL A   1      43.880  28.849  35.102  1.00  0.00     0.064 A 
ATOM     83  C   UNL A   1      43.750  27.745  35.957  1.00  0.00     0.173 A 
ATOM     84  C   UNL A   1      45.172  29.347  34.865  1.00  0.00     0.173 A 
ATOM     85  F   UNL A   1      42.537  27.239  36.228  1.00  0.00    -0.203 F 
ATOM     86  C   UNL A   1      44.864  27.181  36.572  1.00  0.00     0.198 A 
ATOM     87  C   UNL A   1      46.286  28.757  35.452  1.00  0.00     0.198 A 
ATOM     88  F   UNL A   1      45.352  30.396  34.048  1.00  0.00    -0.203 F 
ATOM     89  F   UNL A   1      44.711  26.160  37.427  1.00  0.00    -0.200 F 
ATOM     90  C   UNL A   1      46.132  27.681  36.311  1.00  0.00     0.200 A 
ATOM     91  F   UNL A   1      47.511  29.231  35.185  1.00  0.00    -0.200 F 
ATOM     92  F   UNL A   1      47.205  27.129  36.895  1.00  0.00    -0.200 F 
ENDBRANCH  59  82
ENDBRANCH  33  34
ENDBRANCH  25  28
ENDBRANCH  23  24
ENDBRANCH  22  23
ENDBRANCH   1  22
TORSDOF 16
ENDMDL
MODEL 2
REMARK VINA RESULT:     -11.8      0.991      7.550
REMARK SMILES C#CC[C@@]1(C(=O)NCCCCNC(=O)c2ccc(-c3c4nc(c(-c5c(F)c(F)c(F)c(F)c5F)c5ccc([nH]5)c(-c5c(F)c(F)c(F)c(F)c5F)c5nc(c(-c6c(F)c(F)c(F)c(F)c6F)c6ccc3[nH]6)C=C5)C=C4)cc2)CCCN1C(=O)OC(C)(C)C
REMARK SMILES IDX 9 1 8 2 7 3 5 4 6 5 4 7 78 8 81 9 79 10 80 11 3 12 2 13 1 14
REMARK SMILES IDX 82 15 83 16 84 17 85 18 86 19 87 20 88 21 10 22 11 23 12 24
REMARK SMILES IDX 13 25 14 27 15 28 16 29 77 30 17 31 76 32 18 33 19 34 20 35
REMARK SMILES IDX 70 36 21 37 75 38 69 39 71 40 22 41 74 42 68 43 67 44 23 46
REMARK SMILES IDX 55 47 35 48 54 49 36 50 39 51 53 52 72 53 37 54 38 55 52 57
REMARK SMILES IDX 73 58 40 59 24 60 25 61 33 62 26 63 27 64 31 65 34 66 28 67
REMARK SMILES IDX 29 68 32 69 30 70 56 71 57 72 65 73 58 74 59 75 63 76 66 77
REMARK SMILES IDX 60 78 61 79 64 80 62 81 41 82 42 83 50 84 43 85 44 86 48 87
REMARK SMILES IDX 51 88 45 89 46 90 49 91 47 92
REMARK H PARENT 7 6 12 26 71 45 39 56
REMARK Flexibility Score: inf
ROOT
ATOM      1  C   UNL A   1      31.976  30.767  26.170  1.00  0.00     0.023 C 
ENDROOT
BRANCH   1   2
ATOM      2  C   UNL A   1      32.637  29.667  27.002  1.00  0.00     0.116 C 
BRANCH   2   3
ATOM      3  N   UNL A   1      31.831  28.461  27.024  1.00  0.00    -0.354 N 
ATOM      4  C   UNL A   1      31.658  27.400  26.187  1.00  0.00     0.247 C 
ATOM      5  O   UNL A   1      30.794  26.592  26.557  1.00  0.00    -0.272 OA
ATOM      6  H   UNL A   1      31.279  28.393  27.837  1.00  0.00     0.163 HD
BRANCH   4   7
ATOM      7  C   UNL A   1      32.385  27.219  24.811  1.00  0.00     0.136 C 
ATOM      8  C   UNL A   1      33.762  27.921  24.964  1.00  0.00     0.042 C 
ATOM      9  N   UNL A   1      31.754  28.059  23.758  1.00  0.00    -0.292 N 
ATOM     10  C   UNL A   1      34.081  28.526  23.601  1.00  0.00     0.025 C 
ATOM     11  C   UNL A   1      32.729  28.769  22.954  1.00  0.00     0.124 C 
BRANCH   7  12
ATOM     12  C   UNL A   1      32.547  25.754  24.370  1.00  0.00     0.128 C 
BRANCH  12  13
ATOM     13  C   UNL A   1      33.545  24.936  25.174  1.00  0.00    -0.104 C 
ATOM     14  C   UNL A   1      34.401  24.235  25.863  1.00  0.00     0.004 C 
ENDBRANCH  12  13
ENDBRANCH   7  12
BRANCH   9  15
ATOM     15  C   UNL A   1      30.423  28.174  23.416  1.00  0.00     0.411 C 
ATOM     16  O   UNL A   1      29.875  27.403  22.644  1.00  0.00    -0.224 OA
BRANCH  15  17
ATOM     17  O   UNL A   1      29.828  29.278  23.943  1.00  0.00    -0.444 OA
BRANCH  17  18
ATOM     18  C   UNL A   1      28.989  30.106  23.087  1.00  0.00     0.106 C 
ATOM     19  C   UNL A   1      29.567  30.256  21.668  1.00  0.00     0.056 C 
ATOM     20  C   UNL A   1      27.548  29.587  23.053  1.00  0.00     0.056 C 
ATOM     21  C   UNL A   1      28.996  31.498  23.739  1.00  0.00     0.056 C 
ENDBRANCH  17  18
ENDBRANCH  15  17
ENDBRANCH   9  15
ENDBRANCH   4   7
ENDBRANCH   2   3
ENDBRANCH   1   2
BRANCH   1  22
ATOM     22  C   UNL A   1      31.571  31.978  27.010  1.00  0.00     0.023 C 
BRANCH  22  23
ATOM     23  C   UNL A   1      32.737  32.866  27.430  1.00  0.00     0.116 C 
BRANCH  23  24
ATOM     24  N   UNL A   1      32.366  34.253  27.669  1.00  0.00    -0.352 N 
ATOM     25  C   UNL A   1      32.947  35.118  28.567  1.00  0.00     0.251 C 
ATOM     26  H   UNL A   1      31.621  34.610  27.131  1.00  0.00     0.163 HD
ATOM     27  O   UNL A   1      32.498  36.238  28.765  1.00  0.00    -0.269 OA
BRANCH  25  28
ATOM     28  C   UNL A   1      34.112  34.625  29.323  1.00  0.00     0.039 A 
ATOM     29  C   UNL A   1      33.902  33.990  30.546  1.00  0.00     0.014 A 
ATOM     30  C   UNL A   1      35.380  34.666  28.738  1.00  0.00     0.014 A 
ATOM     31  C   UNL A   1      34.967  33.330  31.158  1.00  0.00     0.010 A 
ATOM     32  C   UNL A   1      36.414  33.934  29.305  1.00  0.00     0.010 A 
ATOM     33  C   UNL A   1      36.218  33.261  30.520  1.00  0.00    -0.014 A 
BRANCH  33  34
ATOM     34  C   UNL A   1      37.337  32.490  31.115  1.00  0.00     0.031 A 
ATOM     35  C   UNL A   1      37.842  32.846  32.484  1.00  0.00     0.074 A 
ATOM     36  C   UNL A   1      37.938  31.521  30.397  1.00  0.00     0.049 A 
ATOM     37  N   UNL A   1      38.842  32.337  33.157  1.00  0.00    -0.248 NA
ATOM     38  C   UNL A   1      37.150  33.943  33.181  1.00  0.00     0.031 C 
ATOM     39  C   UNL A   1      37.577  31.127  29.033  1.00  0.00     0.029 A 
ATOM     40  N   UNL A   1      38.990  30.696  30.711  1.00  0.00    -0.354 N 
ATOM     41  C   UNL A   1      38.909  33.061  34.338  1.00  0.00     0.074 A 
ATOM     42  C   UNL A   1      37.889  34.082  34.271  1.00  0.00     0.031 C 
ATOM     43  C   UNL A   1      38.376  30.123  28.638  1.00  0.00     0.029 A 
ATOM     44  C   UNL A   1      39.332  29.828  29.701  1.00  0.00     0.049 A 
ATOM     45  H   UNL A   1      39.456  30.723  31.578  1.00  0.00     0.167 HD
ATOM     46  C   UNL A   1      39.732  32.872  35.396  1.00  0.00     0.037 A 
ATOM     47  C   UNL A   1      40.311  28.906  29.640  1.00  0.00     0.037 A 
ATOM     48  C   UNL A   1      40.722  31.831  35.470  1.00  0.00     0.049 A 
ATOM     49  C   UNL A   1      41.210  28.716  30.835  1.00  0.00     0.074 A 
ATOM     50  C   UNL A   1      41.548  31.503  36.529  1.00  0.00     0.029 A 
ATOM     51  N   UNL A   1      41.023  30.954  34.437  1.00  0.00    -0.354 N 
ATOM     52  N   UNL A   1      41.202  29.344  31.986  1.00  0.00    -0.248 NA
ATOM     53  C   UNL A   1      42.249  27.682  30.725  1.00  0.00     0.031 C 
ATOM     54  C   UNL A   1      42.394  30.469  36.117  1.00  0.00     0.029 A 
ATOM     55  C   UNL A   1      42.048  30.108  34.825  1.00  0.00     0.049 A 
ATOM     56  H   UNL A   1      40.574  30.937  33.561  1.00  0.00     0.167 HD
ATOM     57  C   UNL A   1      42.208  28.763  32.745  1.00  0.00     0.074 A 
ATOM     58  C   UNL A   1      42.795  27.719  31.931  1.00  0.00     0.031 C 
ATOM     59  C   UNL A   1      42.613  29.066  34.003  1.00  0.00     0.037 A 
BRANCH  46  60
ATOM     60  C   UNL A   1      39.599  33.810  36.562  1.00  0.00     0.064 A 
ATOM     61  C   UNL A   1      38.822  33.491  37.685  1.00  0.00     0.173 A 
ATOM     62  C   UNL A   1      40.299  35.026  36.573  1.00  0.00     0.173 A 
ATOM     63  F   UNL A   1      38.122  32.346  37.719  1.00  0.00    -0.203 F 
ATOM     64  C   UNL A   1      38.730  34.364  38.765  1.00  0.00     0.198 A 
ATOM     65  C   UNL A   1      40.232  35.882  37.669  1.00  0.00     0.198 A 
ATOM     66  F   UNL A   1      41.058  35.381  35.526  1.00  0.00    -0.203 F 
ATOM     67  F   UNL A   1      37.942  34.059  39.806  1.00  0.00    -0.200 F 
ATOM     68  C   UNL A   1      39.442  35.554  38.761  1.00  0.00     0.200 A 
ATOM     69  F   UNL A   1      40.932  37.025  37.669  1.00  0.00    -0.200 F 
ATOM     70  F   UNL A   1      39.363  36.387  39.807  1.00  0.00    -0.200 F 
ENDBRANCH  46  60
BRANCH  47  71
ATOM     71  C   UNL A   1      40.494  28.084  28.413  1.00  0.00     0.064 A 
ATOM     72  C   UNL A   1      39.893  26.823  28.290  1.00  0.00     0.173 A 
ATOM     73  C   UNL A   1      41.290  28.531  27.348  1.00  0.00     0.173 A 
ATOM     74  F   UNL A   1      39.138  26.341  29.288  1.00  0.00    -0.203 F 
ATOM     75  C   UNL A   1      40.109  26.027  27.166  1.00  0.00     0.198 A 
ATOM     76  C   UNL A   1      41.477  27.749  26.209  1.00  0.00     0.198 A 
ATOM     77  F   UNL A   1      41.881  29.734  27.410  1.00  0.00    -0.203 F 
ATOM     78  F   UNL A   1      39.572  24.801  27.103  1.00  0.00    -0.200 F 
ATOM     79  C   UNL A   1      40.898  26.493  26.125  1.00  0.00     0.200 A 
ATOM     80  F   UNL A   1      42.225  28.211  25.198  1.00  0.00    -0.200 F 
ATOM     81  F   UNL A   1      41.105  25.728  25.045  1.00  0.00    -0.200 F 
ENDBRANCH  47  71
BRANCH  59  82
ATOM     82  C   UNL A   1      43.714  28.235  34.595  1.00  0.00     0.064 A 
ATOM     83  C   UNL A   1      43.453  27.028  35.259  1.00  0.00     0.173 A 
ATOM     84  C   UNL A   1      45.054  28.629  34.452  1.00  0.00     0.173 A 
ATOM     85  F   UNL A   1      42.190  26.611  35.434  1.00  0.00    -0.203 F 
ATOM     86  C   UNL A   1      44.490  26.262  35.785  1.00  0.00     0.198 A 
ATOM     87  C   UNL A   1      46.089  27.843  34.946  1.00  0.00     0.198 A 
ATOM     88  F   UNL A   1      45.359  29.771  33.817  1.00  0.00    -0.203 F 
ATOM     89  F   UNL A   1      44.215  25.138  36.462  1.00  0.00    -0.200 F 
ATOM     90  C   UNL A   1      45.808  26.665  35.620  1.00  0.00     0.200 A 
ATOM     91  F   UNL A   1      47.362  28.226  34.770  1.00  0.00    -0.200 F 
ATOM     92  F   UNL A   1      46.805  25.921  36.116  1.00  0.00    -0.200 F 
ENDBRANCH  59  82
ENDBRANCH  33  34
ENDBRANCH  25  28
ENDBRANCH  23  24
ENDBRANCH  22  23
ENDBRANCH   1  22
TORSDOF 16
ENDMDL
MODEL 3
REMARK VINA RESULT:     -11.7      0.173      1.968
REMARK SMILES C#CC[C@@]1(C(=O)NCCCCNC(=O)c2ccc(-c3c4nc(c(-c5c(F)c(F)c(F)c(F)c5F)c5ccc([nH]5)c(-c5c(F)c(F)c(F)c(F)c5F)c5nc(c(-c6c(F)c(F)c(F)c(F)c6F)c6ccc3[nH]6)C=C5)C=C4)cc2)CCCN1C(=O)OC(C)(C)C
REMARK SMILES IDX 9 1 8 2 7 3 5 4 6 5 4 7 78 8 81 9 79 10 80 11 3 12 2 13 1 14
REMARK SMILES IDX 82 15 83 16 84 17 85 18 86 19 87 20 88 21 10 22 11 23 12 24
REMARK SMILES IDX 13 25 14 27 15 28 16 29 77 30 17 31 76 32 18 33 19 34 20 35
REMARK SMILES IDX 70 36 21 37 75 38 69 39 71 40 22 41 74 42 68 43 67 44 23 46
REMARK SMILES IDX 55 47 35 48 54 49 36 50 39 51 53 52 72 53 37 54 38 55 52 57
REMARK SMILES IDX 73 58 40 59 24 60 25 61 33 62 26 63 27 64 31 65 34 66 28 67
REMARK SMILES IDX 29 68 32 69 30 70 56 71 57 72 65 73 58 74 59 75 63 76 66 77
REMARK SMILES IDX 60 78 61 79 64 80 62 81 41 82 42 83 50 84 43 85 44 86 48 87
REMARK SMILES IDX 51 88 45 89 46 90 49 91 47 92
REMARK H PARENT 7 6 12 26 71 45 39 56
REMARK Flexibility Score: inf
ROOT
ATOM      1  C   UNL A   1      32.566  30.182  26.997  1.00  0.00     0.023 C 
ENDROOT
BRANCH   1   2
ATOM      2  C   UNL A   1      31.944  29.395  25.844  1.00  0.00     0.116 C 
BRANCH   2   3
ATOM      3  N   UNL A   1      32.681  29.589  24.609  1.00  0.00    -0.354 N 
ATOM      4  C   UNL A   1      33.012  28.800  23.549  1.00  0.00     0.247 C 
ATOM      5  O   UNL A   1      33.737  29.352  22.708  1.00  0.00    -0.272 OA
ATOM      6  H   UNL A   1      33.022  30.507  24.515  1.00  0.00     0.163 HD
BRANCH   4   7
ATOM      7  C   UNL A   1      32.627  27.288  23.404  1.00  0.00     0.136 C 
ATOM      8  C   UNL A   1      33.584  26.711  22.324  1.00  0.00     0.042 C 
ATOM      9  N   UNL A   1      31.311  27.133  22.728  1.00  0.00    -0.292 N 
ATOM     10  C   UNL A   1      32.775  25.668  21.558  1.00  0.00     0.025 C 
ATOM     11  C   UNL A   1      31.330  26.112  21.699  1.00  0.00     0.124 C 
BRANCH   7  12
ATOM     12  C   UNL A   1      32.709  26.486  24.714  1.00  0.00     0.128 C 
BRANCH  12  13
ATOM     13  C   UNL A   1      33.924  25.581  24.852  1.00  0.00    -0.104 C 
ATOM     14  C   UNL A   1      34.965  24.807  24.969  1.00  0.00     0.004 C 
ENDBRANCH  12  13
ENDBRANCH   7  12
BRANCH   9  15
ATOM     15  C   UNL A   1      30.111  27.755  23.005  1.00  0.00     0.411 C 
ATOM     16  O   UNL A   1      29.390  27.406  23.927  1.00  0.00    -0.224 OA
BRANCH  15  17
ATOM     17  O   UNL A   1      29.779  28.708  22.094  1.00  0.00    -0.444 OA
BRANCH  17  18
ATOM     18  C   UNL A   1      28.826  29.744  22.469  1.00  0.00     0.106 C 
ATOM     19  C   UNL A   1      27.447  29.166  22.835  1.00  0.00     0.056 C 
ATOM     20  C   UNL A   1      29.380  30.628  23.591  1.00  0.00     0.056 C 
ATOM     21  C   UNL A   1      28.647  30.604  21.207  1.00  0.00     0.056 C 
ENDBRANCH  17  18
ENDBRANCH  15  17
ENDBRANCH   9  15
ENDBRANCH   4   7
ENDBRANCH   2   3
ENDBRANCH   1   2
BRANCH   1  22
ATOM     22  C   UNL A   1      32.066  31.625  27.061  1.00  0.00     0.023 C 
BRANCH  22  23
ATOM     23  C   UNL A   1      33.128  32.638  27.474  1.00  0.00     0.116 C 
BRANCH  23  24
ATOM     24  N   UNL A   1      32.615  33.986  27.669  1.00  0.00    -0.352 N 
ATOM     25  C   UNL A   1      33.053  34.908  28.592  1.00  0.00     0.251 C 
ATOM     26  H   UNL A   1      31.878  34.268  27.080  1.00  0.00     0.163 HD
ATOM     27  O   UNL A   1      32.490  35.982  28.746  1.00  0.00    -0.269 OA
BRANCH  25  28
ATOM     28  C   UNL A   1      34.207  34.532  29.428  1.00  0.00     0.039 A 
ATOM     29  C   UNL A   1      33.976  33.933  30.665  1.00  0.00     0.014 A 
ATOM     30  C   UNL A   1      35.500  34.642  28.908  1.00  0.00     0.014 A 
ATOM     31  C   UNL A   1      35.050  33.376  31.359  1.00  0.00     0.010 A 
ATOM     32  C   UNL A   1      36.550  34.010  29.559  1.00  0.00     0.010 A 
ATOM     33  C   UNL A   1      36.336  33.373  30.791  1.00  0.00    -0.014 A 
BRANCH  33  34
ATOM     34  C   UNL A   1      37.473  32.711  31.475  1.00  0.00     0.031 A 
ATOM     35  C   UNL A   1      38.158  31.544  30.822  1.00  0.00     0.074 A 
ATOM     36  C   UNL A   1      37.841  33.116  32.707  1.00  0.00     0.049 A 
ATOM     37  N   UNL A   1      39.129  30.794  31.276  1.00  0.00    -0.248 NA
ATOM     38  C   UNL A   1      37.666  31.147  29.493  1.00  0.00     0.031 C 
ATOM     39  C   UNL A   1      37.211  34.197  33.468  1.00  0.00     0.029 A 
ATOM     40  N   UNL A   1      38.830  32.657  33.542  1.00  0.00    -0.354 N 
ATOM     41  C   UNL A   1      39.347  29.831  30.302  1.00  0.00     0.074 A 
ATOM     42  C   UNL A   1      38.373  30.052  29.258  1.00  0.00     0.031 C 
ATOM     43  C   UNL A   1      37.843  34.334  34.645  1.00  0.00     0.029 A 
ATOM     44  C   UNL A   1      38.894  33.326  34.741  1.00  0.00     0.049 A 
ATOM     45  H   UNL A   1      39.435  31.918  33.304  1.00  0.00     0.167 HD
ATOM     46  C   UNL A   1      40.295  28.864  30.270  1.00  0.00     0.037 A 
ATOM     47  C   UNL A   1      39.705  33.139  35.799  1.00  0.00     0.037 A 
ATOM     48  C   UNL A   1      41.283  28.673  31.297  1.00  0.00     0.049 A 
ATOM     49  C   UNL A   1      40.753  32.058  35.734  1.00  0.00     0.074 A 
ATOM     50  C   UNL A   1      42.337  27.777  31.321  1.00  0.00     0.029 A 
ATOM     51  N   UNL A   1      41.333  29.385  32.487  1.00  0.00    -0.354 N 
ATOM     52  N   UNL A   1      41.012  31.213  34.765  1.00  0.00    -0.248 NA
ATOM     53  C   UNL A   1      41.626  31.909  36.906  1.00  0.00     0.031 C 
ATOM     54  C   UNL A   1      42.987  27.903  32.552  1.00  0.00     0.029 A 
ATOM     55  C   UNL A   1      42.381  28.924  33.266  1.00  0.00     0.049 A 
ATOM     56  H   UNL A   1      40.716  30.110  32.738  1.00  0.00     0.167 HD
ATOM     57  C   UNL A   1      42.093  30.457  35.196  1.00  0.00     0.074 A 
ATOM     58  C   UNL A   1      42.454  30.955  36.507  1.00  0.00     0.031 C 
ATOM     59  C   UNL A   1      42.731  29.440  34.566  1.00  0.00     0.037 A 
BRANCH  46  60
ATOM     60  C   UNL A   1      40.310  27.938  29.087  1.00  0.00     0.064 A 
ATOM     61  C   UNL A   1      39.565  26.750  29.067  1.00  0.00     0.173 A 
ATOM     62  C   UNL A   1      41.044  28.272  27.938  1.00  0.00     0.173 A 
ATOM     63  F   UNL A   1      38.857  26.378  30.145  1.00  0.00    -0.203 F 
ATOM     64  C   UNL A   1      39.575  25.916  27.952  1.00  0.00     0.198 A 
ATOM     65  C   UNL A   1      41.024  27.453  26.813  1.00  0.00     0.198 A 
ATOM     66  F   UNL A   1      41.772  29.397  27.902  1.00  0.00    -0.203 F 
ATOM     67  F   UNL A   1      38.895  24.761  27.976  1.00  0.00    -0.200 F 
ATOM     68  C   UNL A   1      40.296  26.272  26.823  1.00  0.00     0.200 A 
ATOM     69  F   UNL A   1      41.710  27.806  25.717  1.00  0.00    -0.200 F 
ATOM     70  F   UNL A   1      40.294  25.476  25.746  1.00  0.00    -0.200 F 
ENDBRANCH  46  60
BRANCH  47  71
ATOM     71  C   UNL A   1      39.571  33.995  37.009  1.00  0.00     0.064 A 
ATOM     72  C   UNL A   1      38.804  33.581  38.108  1.00  0.00     0.173 A 
ATOM     73  C   UNL A   1      40.185  35.254  37.084  1.00  0.00     0.173 A 
ATOM     74  F   UNL A   1      38.181  32.394  38.080  1.00  0.00    -0.203 F 
ATOM     75  C   UNL A   1      38.630  34.406  39.218  1.00  0.00     0.198 A 
ATOM     76  C   UNL A   1      40.038  36.064  38.209  1.00  0.00     0.198 A 
ATOM     77  F   UNL A   1      40.936  35.696  36.064  1.00  0.00    -0.203 F 
ATOM     78  F   UNL A   1      37.843  34.009  40.227  1.00  0.00    -0.200 F 
ATOM     79  C   UNL A   1      39.251  35.644  39.269  1.00  0.00     0.200 A 
ATOM     80  F   UNL A   1      40.655  37.252  38.261  1.00  0.00    -0.200 F 
ATOM     81  F   UNL A   1      39.083  36.437  40.337  1.00  0.00    -0.200 F 
ENDBRANCH  47  71
BRANCH  59  82
ATOM     82  C   UNL A   1      43.909  28.825  35.263  1.00  0.00     0.064 A 
ATOM     83  C   UNL A   1      45.213  29.306  35.076  1.00  0.00     0.173 A 
ATOM     84  C   UNL A   1      43.724  27.767  36.169  1.00  0.00     0.173 A 
ATOM     85  F   UNL A   1      45.448  30.306  34.212  1.00  0.00    -0.203 F 
ATOM     86  C   UNL A   1      46.290  28.733  35.747  1.00  0.00     0.198 A 
ATOM     87  C   UNL A   1      44.797  27.222  36.864  1.00  0.00     0.198 A 
ATOM     88  F   UNL A   1      42.495  27.276  36.391  1.00  0.00    -0.203 F 
ATOM     89  F   UNL A   1      47.535  29.174  35.513  1.00  0.00    -0.200 F 
ATOM     90  C   UNL A   1      46.081  27.698  36.647  1.00  0.00     0.200 A 
ATOM     91  F   UNL A   1      44.589  26.235  37.746  1.00  0.00    -0.200 F 
ATOM     92  F   UNL A   1      47.117  27.156  37.300  1.00  0.00    -0.200 F 
ENDBRANCH  59  82
ENDBRANCH  33  34
ENDBRANCH  25  28
ENDBRANCH  23  24
ENDBRANCH  22  23
ENDBRANCH   1  22
TORSDOF 16
ENDMDL
