MODEL 1
REMARK VINA RESULT:     -13.1      0.000      0.000
REMARK SMILES CCc1ccnc(C(=O)c2[nH]c3ccc(OC(F)(F)F)cc3c2CC(=O)NCCCCNC(=O)c2ccc(-c3c4nc(c(-c5c(F)c(F)c(F)c(F)c5F)c5ccc([nH]5)c(-c5c(F)c(F)c(F)c(F)c5F)c5nc(c(-c6c(F)c(F)c(F)c(F)c6F)c6ccc3[nH]6)C=C5)C=C4)cc2)c1
REMARK SMILES IDX 28 1 27 2 25 3 26 4 24 6 23 7 10 8 11 9 12 10 22 12 13 13
REMARK SMILES IDX 21 14 14 15 15 16 8 17 9 18 7 19 3 20 4 21 98 22 5 23 6 24
REMARK SMILES IDX 2 25 1 26 16 27 17 28 18 29 19 30 20 31 29 32 30 33 31 34
REMARK SMILES IDX 32 35 33 36 34 38 35 39 36 40 97 41 37 42 96 43 38 44 39 45
REMARK SMILES IDX 40 46 90 47 41 48 95 49 89 50 91 51 42 52 94 53 88 54 87 55
REMARK SMILES IDX 43 57 75 58 55 59 74 60 56 61 59 62 73 63 92 64 57 65 58 66
REMARK SMILES IDX 72 68 93 69 60 70 44 71 45 72 53 73 46 74 47 75 51 76 54 77
REMARK SMILES IDX 48 78 49 79 52 80 50 81 76 82 77 83 85 84 78 85 79 86 83 87
REMARK SMILES IDX 86 88 80 89 81 90 84 91 82 92 61 93 62 94 70 95 63 96 64 97
REMARK SMILES IDX 68 98 71 99 65 100 66 101 69 102 67 103
REMARK H PARENT 27 5 11 11 32 37 91 56 59 67
REMARK Flexibility Score: inf
ROOT
ATOM      1  C   UNL A   1      32.219  30.028  26.914  1.00  0.00     0.116 C 
ENDROOT
BRANCH   1   2
ATOM      2  N   UNL A   1      31.608  28.737  27.144  1.00  0.00    -0.356 N 
ATOM      3  C   UNL A   1      31.974  27.510  26.667  1.00  0.00     0.224 C 
ATOM      4  O   UNL A   1      31.426  26.518  27.156  1.00  0.00    -0.275 OA
ATOM      5  H   UNL A   1      30.814  28.743  27.727  1.00  0.00     0.163 HD
BRANCH   3   6
ATOM      6  C   UNL A   1      33.112  27.359  25.669  1.00  0.00     0.138 C 
BRANCH   6   7
ATOM      7  C   UNL A   1      32.783  26.599  24.414  1.00  0.00    -0.002 A 
ATOM      8  C   UNL A   1      32.172  27.088  23.261  1.00  0.00     0.093 A 
ATOM      9  N   UNL A   1      32.127  26.055  22.352  1.00  0.00    -0.352 N 
ATOM     10  C   UNL A   1      32.605  24.894  22.904  1.00  0.00     0.046 A 
ATOM     11  H   UNL A   1      31.796  26.139  21.428  1.00  0.00     0.167 HD
ATOM     12  C   UNL A   1      33.000  25.193  24.204  1.00  0.00     0.008 A 
ATOM     13  C   UNL A   1      32.731  23.618  22.348  1.00  0.00     0.030 A 
ATOM     14  C   UNL A   1      33.529  24.148  24.993  1.00  0.00     0.057 A 
ATOM     15  C   UNL A   1      33.275  22.606  23.150  1.00  0.00     0.049 A 
ATOM     16  C   UNL A   1      33.672  22.859  24.461  1.00  0.00     0.130 A 
BRANCH   8  17
ATOM     17  C   UNL A   1      31.721  28.438  22.954  1.00  0.00     0.227 C 
ATOM     18  O   UNL A   1      32.510  29.309  22.610  1.00  0.00    -0.285 OA
BRANCH  17  19
ATOM     19  C   UNL A   1      30.241  28.732  23.027  1.00  0.00     0.113 A 
ATOM     20  C   UNL A   1      28.376  30.260  23.141  1.00  0.00    -0.044 A 
ATOM     21  C   UNL A   1      27.539  29.142  23.208  1.00  0.00     0.024 A 
ATOM     22  C   UNL A   1      29.752  30.040  23.008  1.00  0.00     0.036 A 
ATOM     23  C   UNL A   1      28.104  27.877  23.191  1.00  0.00     0.112 A 
ATOM     24  N   UNL A   1      29.430  27.649  23.125  1.00  0.00    -0.253 NA
BRANCH  20  25
ATOM     25  C   UNL A   1      27.771  31.644  23.153  1.00  0.00     0.032 C 
ATOM     26  C   UNL A   1      28.691  32.756  22.658  1.00  0.00     0.009 C 
ENDBRANCH  20  25
ENDBRANCH  17  19
ENDBRANCH   8  17
BRANCH  16  27
ATOM     27  O   UNL A   1      34.217  21.957  25.332  1.00  0.00    -0.406 OA
BRANCH  27  28
ATOM     28  C   UNL A   1      35.511  21.455  25.046  1.00  0.00     0.573 C 
ATOM     29  F   UNL A   1      36.102  22.167  24.062  1.00  0.00    -0.132 F 
ATOM     30  F   UNL A   1      36.293  21.470  26.146  1.00  0.00    -0.132 F 
ATOM     31  F   UNL A   1      35.397  20.176  24.628  1.00  0.00    -0.132 F 
ENDBRANCH  27  28
ENDBRANCH  16  27
ENDBRANCH   6   7
ENDBRANCH   3   6
ENDBRANCH   1   2
BRANCH   1  32
ATOM     32  C   UNL A   1      31.391  30.930  26.002  1.00  0.00     0.023 C 
BRANCH  32  33
ATOM     33  C   UNL A   1      31.334  32.407  26.403  1.00  0.00     0.023 C 
BRANCH  33  34
ATOM     34  C   UNL A   1      32.462  32.898  27.305  1.00  0.00     0.116 C 
BRANCH  34  35
ATOM     35  N   UNL A   1      32.291  34.273  27.743  1.00  0.00    -0.352 N 
ATOM     36  C   UNL A   1      33.010  35.001  28.656  1.00  0.00     0.251 C 
ATOM     37  H   UNL A   1      31.544  34.756  27.320  1.00  0.00     0.163 HD
ATOM     38  O   UNL A   1      32.648  36.138  28.944  1.00  0.00    -0.269 OA
BRANCH  36  39
ATOM     39  C   UNL A   1      34.197  34.424  29.328  1.00  0.00     0.039 A 
ATOM     40  C   UNL A   1      34.002  33.749  30.540  1.00  0.00     0.014 A 
ATOM     41  C   UNL A   1      35.489  34.575  28.816  1.00  0.00     0.014 A 
ATOM     42  C   UNL A   1      35.087  33.180  31.207  1.00  0.00     0.010 A 
ATOM     43  C   UNL A   1      36.570  33.977  29.465  1.00  0.00     0.010 A 
ATOM     44  C   UNL A   1      36.375  33.272  30.662  1.00  0.00    -0.014 A 
BRANCH  44  45
ATOM     45  C   UNL A   1      37.528  32.630  31.333  1.00  0.00     0.031 A 
ATOM     46  C   UNL A   1      38.268  31.511  30.664  1.00  0.00     0.074 A 
ATOM     47  C   UNL A   1      37.878  33.027  32.569  1.00  0.00     0.049 A 
ATOM     48  N   UNL A   1      39.252  30.781  31.126  1.00  0.00    -0.248 NA
ATOM     49  C   UNL A   1      37.835  31.153  29.304  1.00  0.00     0.031 C 
ATOM     50  C   UNL A   1      37.216  34.082  33.338  1.00  0.00     0.029 A 
ATOM     51  N   UNL A   1      38.873  32.580  33.401  1.00  0.00    -0.354 N 
ATOM     52  C   UNL A   1      39.535  29.858  30.130  1.00  0.00     0.074 A 
ATOM     53  C   UNL A   1      38.622  30.121  29.035  1.00  0.00     0.031 C 
ATOM     54  C   UNL A   1      37.827  34.206  34.526  1.00  0.00     0.029 A 
ATOM     55  C   UNL A   1      38.913  33.232  34.607  1.00  0.00     0.049 A 
ATOM     56  H   UNL A   1      39.498  31.861  33.155  1.00  0.00     0.167 HD
ATOM     57  C   UNL A   1      40.468  28.879  30.131  1.00  0.00     0.037 A 
ATOM     58  C   UNL A   1      39.732  33.060  35.659  1.00  0.00     0.037 A 
ATOM     59  C   UNL A   1      41.404  28.635  31.195  1.00  0.00     0.049 A 
ATOM     60  C   UNL A   1      40.808  32.016  35.603  1.00  0.00     0.074 A 
ATOM     61  C   UNL A   1      42.411  27.688  31.264  1.00  0.00     0.029 A 
ATOM     62  N   UNL A   1      41.451  29.357  32.377  1.00  0.00    -0.354 N 
ATOM     63  N   UNL A   1      41.076  31.160  34.650  1.00  0.00    -0.248 NA
ATOM     64  C   UNL A   1      41.695  31.917  36.771  1.00  0.00     0.031 C 
ATOM     65  C   UNL A   1      43.067  27.836  32.492  1.00  0.00     0.029 A 
ATOM     66  C   UNL A   1      42.472  28.879  33.181  1.00  0.00     0.049 A 
ATOM     67  H   UNL A   1      40.848  30.100  32.610  1.00  0.00     0.167 HD
ATOM     68  C   UNL A   1      42.161  30.423  35.096  1.00  0.00     0.074 A 
ATOM     69  C   UNL A   1      42.510  30.936  36.405  1.00  0.00     0.031 C 
ATOM     70  C   UNL A   1      42.808  29.408  34.476  1.00  0.00     0.037 A 
BRANCH  57  71
ATOM     71  C   UNL A   1      40.515  27.983  28.934  1.00  0.00     0.064 A 
ATOM     72  C   UNL A   1      39.764  26.803  28.880  1.00  0.00     0.173 A 
ATOM     73  C   UNL A   1      41.302  28.326  27.825  1.00  0.00     0.173 A 
ATOM     74  F   UNL A   1      39.010  26.434  29.926  1.00  0.00    -0.203 F 
ATOM     75  C   UNL A   1      39.806  25.985  27.754  1.00  0.00     0.198 A 
ATOM     76  C   UNL A   1      41.334  27.510  26.697  1.00  0.00     0.198 A 
ATOM     77  F   UNL A   1      42.040  29.445  27.838  1.00  0.00    -0.203 F 
ATOM     78  F   UNL A   1      39.097  24.848  27.726  1.00  0.00    -0.200 F 
ATOM     79  C   UNL A   1      40.588  26.341  26.663  1.00  0.00     0.200 A 
ATOM     80  F   UNL A   1      42.092  27.851  25.646  1.00  0.00    -0.200 F 
ATOM     81  F   UNL A   1      40.629  25.550  25.581  1.00  0.00    -0.200 F 
ENDBRANCH  57  71
BRANCH  58  82
ATOM     82  C   UNL A   1      39.572  33.920  36.852  1.00  0.00     0.064 A 
ATOM     83  C   UNL A   1      40.188  35.177  36.913  1.00  0.00     0.173 A 
ATOM     84  C   UNL A   1      38.788  33.513  37.938  1.00  0.00     0.173 A 
ATOM     85  F   UNL A   1      40.959  35.595  35.899  1.00  0.00    -0.203 F 
ATOM     86  C   UNL A   1      40.024  35.999  38.025  1.00  0.00     0.198 A 
ATOM     87  C   UNL A   1      38.619  34.339  39.046  1.00  0.00     0.198 A 
ATOM     88  F   UNL A   1      38.186  32.315  37.918  1.00  0.00    -0.203 F 
ATOM     89  F   UNL A   1      40.632  37.192  38.069  1.00  0.00    -0.200 F 
ATOM     90  C   UNL A   1      39.238  35.580  39.088  1.00  0.00     0.200 A 
ATOM     91  F   UNL A   1      37.859  33.933  40.072  1.00  0.00    -0.200 F 
ATOM     92  F   UNL A   1      39.079  36.373  40.158  1.00  0.00    -0.200 F 
ENDBRANCH  58  82
BRANCH  70  93
ATOM     93  C   UNL A   1      43.960  28.795  35.203  1.00  0.00     0.064 A 
ATOM     94  C   UNL A   1      45.260  29.294  35.046  1.00  0.00     0.173 A 
ATOM     95  C   UNL A   1      43.759  27.724  36.085  1.00  0.00     0.173 A 
ATOM     96  F   UNL A   1      45.495  30.309  34.201  1.00  0.00    -0.203 F 
ATOM     97  C   UNL A   1      46.326  28.735  35.745  1.00  0.00     0.198 A 
ATOM     98  C   UNL A   1      44.826  27.172  36.786  1.00  0.00     0.198 A 
ATOM     99  F   UNL A   1      42.531  27.213  36.257  1.00  0.00    -0.203 F 
ATOM    100  F   UNL A   1      47.565  29.214  35.569  1.00  0.00    -0.200 F 
ATOM    101  C   UNL A   1      46.107  27.677  36.616  1.00  0.00     0.200 A 
ATOM    102  F   UNL A   1      44.617  26.146  37.624  1.00  0.00    -0.200 F 
ATOM    103  F   UNL A   1      47.135  27.137  37.286  1.00  0.00    -0.200 F 
ENDBRANCH  70  93
ENDBRANCH  44  45
ENDBRANCH  36  39
ENDBRANCH  34  35
ENDBRANCH  33  34
ENDBRANCH  32  33
ENDBRANCH   1  32
TORSDOF 17
ENDMDL
MODEL 2
REMARK VINA RESULT:     -13.1      2.366      4.696
REMARK SMILES CCc1ccnc(C(=O)c2[nH]c3ccc(OC(F)(F)F)cc3c2CC(=O)NCCCCNC(=O)c2ccc(-c3c4nc(c(-c5c(F)c(F)c(F)c(F)c5F)c5ccc([nH]5)c(-c5c(F)c(F)c(F)c(F)c5F)c5nc(c(-c6c(F)c(F)c(F)c(F)c6F)c6ccc3[nH]6)C=C5)C=C4)cc2)c1
REMARK SMILES IDX 28 1 27 2 25 3 26 4 24 6 23 7 10 8 11 9 12 10 22 12 13 13
REMARK SMILES IDX 21 14 14 15 15 16 8 17 9 18 7 19 3 20 4 21 98 22 5 23 6 24
REMARK SMILES IDX 2 25 1 26 16 27 17 28 18 29 19 30 20 31 29 32 30 33 31 34
REMARK SMILES IDX 32 35 33 36 34 38 35 39 36 40 97 41 37 42 96 43 38 44 39 45
REMARK SMILES IDX 40 46 90 47 41 48 95 49 89 50 91 51 42 52 94 53 88 54 87 55
REMARK SMILES IDX 43 57 75 58 55 59 74 60 56 61 59 62 73 63 92 64 57 65 58 66
REMARK SMILES IDX 72 68 93 69 60 70 44 71 45 72 53 73 46 74 47 75 51 76 54 77
REMARK SMILES IDX 48 78 49 79 52 80 50 81 76 82 77 83 85 84 78 85 79 86 83 87
REMARK SMILES IDX 86 88 80 89 81 90 84 91 82 92 61 93 62 94 70 95 63 96 64 97
REMARK SMILES IDX 68 98 71 99 65 100 66 101 69 102 67 103
REMARK H PARENT 27 5 11 11 32 37 91 56 59 67
REMARK Flexibility Score: inf
ROOT
ATOM      1  C   UNL A   1      32.382  30.072  25.618  1.00  0.00     0.116 C 
ENDROOT
BRANCH   1   2
ATOM      2  N   UNL A   1      33.079  28.993  26.284  1.00  0.00    -0.356 N 
ATOM      3  C   UNL A   1      33.323  27.722  25.847  1.00  0.00     0.224 C 
ATOM      4  O   UNL A   1      34.113  27.034  26.499  1.00  0.00    -0.275 OA
ATOM      5  H   UNL A   1      33.429  29.206  27.179  1.00  0.00     0.163 HD
BRANCH   3   6
ATOM      6  C   UNL A   1      32.751  27.217  24.531  1.00  0.00     0.138 C 
BRANCH   6   7
ATOM      7  C   UNL A   1      31.323  26.748  24.578  1.00  0.00    -0.002 A 
ATOM      8  C   UNL A   1      30.829  25.589  25.172  1.00  0.00     0.093 A 
ATOM      9  N   UNL A   1      29.460  25.602  25.021  1.00  0.00    -0.352 N 
ATOM     10  C   UNL A   1      29.060  26.681  24.275  1.00  0.00     0.046 A 
ATOM     11  H   UNL A   1      28.851  24.926  25.399  1.00  0.00     0.167 HD
ATOM     12  C   UNL A   1      30.204  27.406  23.958  1.00  0.00     0.008 A 
ATOM     13  C   UNL A   1      27.779  27.073  23.876  1.00  0.00     0.030 A 
ATOM     14  C   UNL A   1      30.054  28.575  23.181  1.00  0.00     0.057 A 
ATOM     15  C   UNL A   1      27.660  28.247  23.120  1.00  0.00     0.049 A 
ATOM     16  C   UNL A   1      28.782  28.997  22.771  1.00  0.00     0.130 A 
BRANCH   8  17
ATOM     17  C   UNL A   1      31.538  24.554  25.912  1.00  0.00     0.227 C 
ATOM     18  O   UNL A   1      31.198  24.238  27.045  1.00  0.00    -0.285 OA
BRANCH  17  19
ATOM     19  C   UNL A   1      32.681  23.841  25.230  1.00  0.00     0.113 A 
ATOM     20  C   UNL A   1      34.947  23.011  25.179  1.00  0.00    -0.044 A 
ATOM     21  C   UNL A   1      34.697  22.575  23.874  1.00  0.00     0.024 A 
ATOM     22  C   UNL A   1      33.898  23.619  25.878  1.00  0.00     0.036 A 
ATOM     23  C   UNL A   1      33.451  22.808  23.314  1.00  0.00     0.112 A 
ATOM     24  N   UNL A   1      32.451  23.447  23.952  1.00  0.00    -0.253 NA
BRANCH  20  25
ATOM     25  C   UNL A   1      36.300  22.757  25.801  1.00  0.00     0.032 C 
ATOM     26  C   UNL A   1      37.405  23.709  25.353  1.00  0.00     0.009 C 
ENDBRANCH  20  25
ENDBRANCH  17  19
ENDBRANCH   8  17
BRANCH  16  27
ATOM     27  O   UNL A   1      28.789  30.155  22.043  1.00  0.00    -0.406 OA
BRANCH  27  28
ATOM     28  C   UNL A   1      28.664  31.380  22.745  1.00  0.00     0.573 C 
ATOM     29  F   UNL A   1      29.307  31.330  23.930  1.00  0.00    -0.132 F 
ATOM     30  F   UNL A   1      29.143  32.410  22.014  1.00  0.00    -0.132 F 
ATOM     31  F   UNL A   1      27.355  31.608  22.986  1.00  0.00    -0.132 F 
ENDBRANCH  27  28
ENDBRANCH  16  27
ENDBRANCH   6   7
ENDBRANCH   3   6
ENDBRANCH   1   2
BRANCH   1  32
ATOM     32  C   UNL A   1      31.344  30.755  26.507  1.00  0.00     0.023 C 
BRANCH  32  33
ATOM     33  C   UNL A   1      31.365  32.286  26.496  1.00  0.00     0.023 C 
BRANCH  33  34
ATOM     34  C   UNL A   1      32.598  32.941  27.112  1.00  0.00     0.116 C 
BRANCH  34  35
ATOM     35  N   UNL A   1      32.340  34.270  27.640  1.00  0.00    -0.352 N 
ATOM     36  C   UNL A   1      32.973  34.956  28.645  1.00  0.00     0.251 C 
ATOM     37  H   UNL A   1      31.595  34.752  27.212  1.00  0.00     0.163 HD
ATOM     38  O   UNL A   1      32.543  36.051  28.994  1.00  0.00    -0.269 OA
BRANCH  36  39
ATOM     39  C   UNL A   1      34.147  34.380  29.340  1.00  0.00     0.039 A 
ATOM     40  C   UNL A   1      33.926  33.683  30.534  1.00  0.00     0.014 A 
ATOM     41  C   UNL A   1      35.451  34.552  28.866  1.00  0.00     0.014 A 
ATOM     42  C   UNL A   1      34.999  33.114  31.222  1.00  0.00     0.010 A 
ATOM     43  C   UNL A   1      36.521  33.955  29.535  1.00  0.00     0.010 A 
ATOM     44  C   UNL A   1      36.300  33.228  30.714  1.00  0.00    -0.014 A 
BRANCH  44  45
ATOM     45  C   UNL A   1      37.441  32.586  31.406  1.00  0.00     0.031 A 
ATOM     46  C   UNL A   1      38.182  31.455  30.759  1.00  0.00     0.074 A 
ATOM     47  C   UNL A   1      37.779  32.996  32.642  1.00  0.00     0.049 A 
ATOM     48  N   UNL A   1      39.155  30.724  31.241  1.00  0.00    -0.248 NA
ATOM     49  C   UNL A   1      37.761  31.083  29.399  1.00  0.00     0.031 C 
ATOM     50  C   UNL A   1      37.115  34.064  33.390  1.00  0.00     0.029 A 
ATOM     51  N   UNL A   1      38.761  32.553  33.490  1.00  0.00    -0.354 N 
ATOM     52  C   UNL A   1      39.443  29.787  30.259  1.00  0.00     0.074 A 
ATOM     53  C   UNL A   1      38.545  30.043  29.152  1.00  0.00     0.031 C 
ATOM     54  C   UNL A   1      37.714  34.199  34.584  1.00  0.00     0.029 A 
ATOM     55  C   UNL A   1      38.792  33.219  34.688  1.00  0.00     0.049 A 
ATOM     56  H   UNL A   1      39.385  31.826  33.260  1.00  0.00     0.167 HD
ATOM     57  C   UNL A   1      40.370  28.802  30.283  1.00  0.00     0.037 A 
ATOM     58  C   UNL A   1      39.598  33.054  35.752  1.00  0.00     0.037 A 
ATOM     59  C   UNL A   1      41.291  28.565  31.361  1.00  0.00     0.049 A 
ATOM     60  C   UNL A   1      40.667  32.003  35.721  1.00  0.00     0.074 A 
ATOM     61  C   UNL A   1      42.291  27.613  31.453  1.00  0.00     0.029 A 
ATOM     62  N   UNL A   1      41.330  29.301  32.535  1.00  0.00    -0.354 N 
ATOM     63  N   UNL A   1      40.940  31.133  34.781  1.00  0.00    -0.248 NA
ATOM     64  C   UNL A   1      41.540  31.912  36.900  1.00  0.00     0.031 C 
ATOM     65  C   UNL A   1      42.934  27.770  32.687  1.00  0.00     0.029 A 
ATOM     66  C   UNL A   1      42.338  28.826  33.357  1.00  0.00     0.049 A 
ATOM     67  H   UNL A   1      40.729  30.050  32.752  1.00  0.00     0.167 HD
ATOM     68  C   UNL A   1      42.016  30.394  35.249  1.00  0.00     0.074 A 
ATOM     69  C   UNL A   1      42.353  30.922  36.556  1.00  0.00     0.031 C 
ATOM     70  C   UNL A   1      42.662  29.368  34.648  1.00  0.00     0.037 A 
BRANCH  57  71
ATOM     71  C   UNL A   1      40.424  27.892  29.098  1.00  0.00     0.064 A 
ATOM     72  C   UNL A   1      41.231  28.187  27.992  1.00  0.00     0.173 A 
ATOM     73  C   UNL A   1      39.679  26.704  29.083  1.00  0.00     0.173 A 
ATOM     74  F   UNL A   1      41.948  29.320  27.962  1.00  0.00    -0.203 F 
ATOM     75  C   UNL A   1      41.283  27.325  26.901  1.00  0.00     0.198 A 
ATOM     76  C   UNL A   1      39.741  25.840  27.993  1.00  0.00     0.198 A 
ATOM     77  F   UNL A   1      38.890  26.387  30.119  1.00  0.00    -0.203 F 
ATOM     78  F   UNL A   1      42.044  27.631  25.841  1.00  0.00    -0.200 F 
ATOM     79  C   UNL A   1      40.541  26.151  26.903  1.00  0.00     0.200 A 
ATOM     80  F   UNL A   1      39.022  24.709  27.995  1.00  0.00    -0.200 F 
ATOM     81  F   UNL A   1      40.591  25.323  25.850  1.00  0.00    -0.200 F 
ENDBRANCH  57  71
BRANCH  58  82
ATOM     82  C   UNL A   1      39.430  33.930  36.933  1.00  0.00     0.064 A 
ATOM     83  C   UNL A   1      38.672  33.508  38.032  1.00  0.00     0.173 A 
ATOM     84  C   UNL A   1      40.040  35.189  36.992  1.00  0.00     0.173 A 
ATOM     85  F   UNL A   1      38.060  32.315  38.004  1.00  0.00    -0.203 F 
ATOM     86  C   UNL A   1      38.528  34.319  39.153  1.00  0.00     0.198 A 
ATOM     87  C   UNL A   1      39.902  35.996  38.118  1.00  0.00     0.198 A 
ATOM     88  F   UNL A   1      40.772  35.629  35.959  1.00  0.00    -0.203 F 
ATOM     89  F   UNL A   1      37.786  33.902  40.189  1.00  0.00    -0.200 F 
ATOM     90  C   UNL A   1      39.145  35.561  39.197  1.00  0.00     0.200 A 
ATOM     91  F   UNL A   1      40.498  37.195  38.158  1.00  0.00    -0.200 F 
ATOM     92  F   UNL A   1      39.007  36.341  40.278  1.00  0.00    -0.200 F 
ENDBRANCH  58  82
BRANCH  70  93
ATOM     93  C   UNL A   1      43.802  28.757  35.396  1.00  0.00     0.064 A 
ATOM     94  C   UNL A   1      43.589  27.724  36.319  1.00  0.00     0.173 A 
ATOM     95  C   UNL A   1      45.118  29.183  35.165  1.00  0.00     0.173 A 
ATOM     96  F   UNL A   1      42.344  27.297  36.577  1.00  0.00    -0.203 F 
ATOM     97  C   UNL A   1      44.658  27.141  36.994  1.00  0.00     0.198 A 
ATOM     98  C   UNL A   1      46.183  28.594  35.838  1.00  0.00     0.198 A 
ATOM     99  F   UNL A   1      45.363  30.174  34.295  1.00  0.00    -0.203 F 
ATOM    100  F   UNL A   1      44.433  26.167  37.886  1.00  0.00    -0.200 F 
ATOM    101  C   UNL A   1      45.953  27.575  36.751  1.00  0.00     0.200 A 
ATOM    102  F   UNL A   1      47.435  29.016  35.607  1.00  0.00    -0.200 F 
ATOM    103  F   UNL A   1      46.981  27.016  37.404  1.00  0.00    -0.200 F 
ENDBRANCH  70  93
ENDBRANCH  44  45
ENDBRANCH  36  39
ENDBRANCH  34  35
ENDBRANCH  33  34
ENDBRANCH  32  33
ENDBRANCH   1  32
TORSDOF 17
ENDMDL
MODEL 3
REMARK VINA RESULT:     -12.9      5.354     10.218
REMARK SMILES CCc1ccnc(C(=O)c2[nH]c3ccc(OC(F)(F)F)cc3c2CC(=O)NCCCCNC(=O)c2ccc(-c3c4nc(c(-c5c(F)c(F)c(F)c(F)c5F)c5ccc([nH]5)c(-c5c(F)c(F)c(F)c(F)c5F)c5nc(c(-c6c(F)c(F)c(F)c(F)c6F)c6ccc3[nH]6)C=C5)C=C4)cc2)c1
REMARK SMILES IDX 28 1 27 2 25 3 26 4 24 6 23 7 10 8 11 9 12 10 22 12 13 13
REMARK SMILES IDX 21 14 14 15 15 16 8 17 9 18 7 19 3 20 4 21 98 22 5 23 6 24
REMARK SMILES IDX 2 25 1 26 16 27 17 28 18 29 19 30 20 31 29 32 30 33 31 34
REMARK SMILES IDX 32 35 33 36 34 38 35 39 36 40 97 41 37 42 96 43 38 44 39 45
REMARK SMILES IDX 40 46 90 47 41 48 95 49 89 50 91 51 42 52 94 53 88 54 87 55
REMARK SMILES IDX 43 57 75 58 55 59 74 60 56 61 59 62 73 63 92 64 57 65 58 66
REMARK SMILES IDX 72 68 93 69 60 70 44 71 45 72 53 73 46 74 47 75 51 76 54 77
REMARK SMILES IDX 48 78 49 79 52 80 50 81 76 82 77 83 85 84 78 85 79 86 83 87
REMARK SMILES IDX 86 88 80 89 81 90 84 91 82 92 61 93 62 94 70 95 63 96 64 97
REMARK SMILES IDX 68 98 71 99 65 100 66 101 69 102 67 103
REMARK H PARENT 27 5 11 11 32 37 91 56 59 67
REMARK Flexibility Score: inf
ROOT
ATOM      1  C   UNL A   1      38.085  23.369  26.049  1.00  0.00     0.116 C 
ENDROOT
BRANCH   1   2
ATOM      2  N   UNL A   1      37.810  23.257  24.633  1.00  0.00    -0.356 N 
ATOM      3  C   UNL A   1      36.607  23.223  23.986  1.00  0.00     0.224 C 
ATOM      4  O   UNL A   1      36.615  23.327  22.756  1.00  0.00    -0.275 OA
ATOM      5  H   UNL A   1      38.603  23.198  24.052  1.00  0.00     0.163 HD
BRANCH   3   6
ATOM      6  C   UNL A   1      35.296  23.197  24.758  1.00  0.00     0.138 C 
BRANCH   6   7
ATOM      7  C   UNL A   1      34.098  22.710  23.991  1.00  0.00    -0.002 A 
ATOM      8  C   UNL A   1      33.212  23.469  23.230  1.00  0.00     0.093 A 
ATOM      9  N   UNL A   1      32.308  22.598  22.663  1.00  0.00    -0.352 N 
ATOM     10  C   UNL A   1      32.524  21.316  23.100  1.00  0.00     0.046 A 
ATOM     11  H   UNL A   1      31.603  22.861  22.028  1.00  0.00     0.167 HD
ATOM     12  C   UNL A   1      33.621  21.354  23.955  1.00  0.00     0.008 A 
ATOM     13  C   UNL A   1      31.844  20.134  22.793  1.00  0.00     0.030 A 
ATOM     14  C   UNL A   1      34.043  20.144  24.547  1.00  0.00     0.057 A 
ATOM     15  C   UNL A   1      32.297  18.946  23.382  1.00  0.00     0.049 A 
ATOM     16  C   UNL A   1      33.384  18.942  24.253  1.00  0.00     0.130 A 
BRANCH   8  17
ATOM     17  C   UNL A   1      33.218  24.898  22.954  1.00  0.00     0.227 C 
ATOM     18  O   UNL A   1      33.652  25.340  21.897  1.00  0.00    -0.285 OA
BRANCH  17  19
ATOM     19  C   UNL A   1      32.632  25.830  23.988  1.00  0.00     0.113 A 
ATOM     20  C   UNL A   1      32.848  27.380  25.825  1.00  0.00    -0.044 A 
ATOM     21  C   UNL A   1      31.451  27.453  25.852  1.00  0.00     0.024 A 
ATOM     22  C   UNL A   1      33.442  26.580  24.843  1.00  0.00     0.036 A 
ATOM     23  C   UNL A   1      30.720  26.698  24.948  1.00  0.00     0.112 A 
ATOM     24  N   UNL A   1      31.276  25.877  24.037  1.00  0.00    -0.253 NA
BRANCH  20  25
ATOM     25  C   UNL A   1      33.653  28.203  26.803  1.00  0.00     0.032 C 
ATOM     26  C   UNL A   1      33.488  29.713  26.665  1.00  0.00     0.009 C 
ENDBRANCH  20  25
ENDBRANCH  17  19
ENDBRANCH   8  17
BRANCH  16  27
ATOM     27  O   UNL A   1      33.916  17.850  24.882  1.00  0.00    -0.406 OA
BRANCH  27  28
ATOM     28  C   UNL A   1      34.092  16.667  24.122  1.00  0.00     0.573 C 
ATOM     29  F   UNL A   1      32.984  15.896  24.158  1.00  0.00    -0.132 F 
ATOM     30  F   UNL A   1      34.402  16.953  22.840  1.00  0.00    -0.132 F 
ATOM     31  F   UNL A   1      35.113  15.960  24.654  1.00  0.00    -0.132 F 
ENDBRANCH  27  28
ENDBRANCH  16  27
ENDBRANCH   6   7
ENDBRANCH   3   6
ENDBRANCH   1   2
BRANCH   1  32
ATOM     32  C   UNL A   1      39.176  22.413  26.526  1.00  0.00     0.023 C 
BRANCH  32  33
ATOM     33  C   UNL A   1      39.346  21.135  25.699  1.00  0.00     0.023 C 
BRANCH  33  34
ATOM     34  C   UNL A   1      39.654  19.865  26.486  1.00  0.00     0.116 C 
BRANCH  34  35
ATOM     35  N   UNL A   1      40.813  19.146  25.988  1.00  0.00    -0.352 N 
ATOM     36  C   UNL A   1      42.120  19.548  25.881  1.00  0.00     0.251 C 
ATOM     37  H   UNL A   1      40.633  18.228  25.678  1.00  0.00     0.163 HD
ATOM     38  O   UNL A   1      42.941  18.804  25.352  1.00  0.00    -0.269 OA
BRANCH  36  39
ATOM     39  C   UNL A   1      42.551  20.880  26.362  1.00  0.00     0.039 A 
ATOM     40  C   UNL A   1      42.938  21.829  25.408  1.00  0.00     0.014 A 
ATOM     41  C   UNL A   1      42.622  21.194  27.723  1.00  0.00     0.014 A 
ATOM     42  C   UNL A   1      43.343  23.103  25.810  1.00  0.00     0.010 A 
ATOM     43  C   UNL A   1      42.994  22.477  28.124  1.00  0.00     0.010 A 
ATOM     44  C   UNL A   1      43.353  23.441  27.170  1.00  0.00    -0.014 A 
BRANCH  44  45
ATOM     45  C   UNL A   1      43.731  24.804  27.607  1.00  0.00     0.031 A 
ATOM     46  C   UNL A   1      42.676  25.796  27.998  1.00  0.00     0.074 A 
ATOM     47  C   UNL A   1      45.027  25.162  27.607  1.00  0.00     0.049 A 
ATOM     48  N   UNL A   1      42.812  27.053  28.335  1.00  0.00    -0.248 NA
ATOM     49  C   UNL A   1      41.285  25.317  27.990  1.00  0.00     0.031 C 
ATOM     50  C   UNL A   1      46.143  24.298  27.218  1.00  0.00     0.029 A 
ATOM     51  N   UNL A   1      45.623  26.352  27.937  1.00  0.00    -0.354 N 
ATOM     52  C   UNL A   1      41.525  27.525  28.550  1.00  0.00     0.074 A 
ATOM     53  C   UNL A   1      40.621  26.419  28.309  1.00  0.00     0.031 C 
ATOM     54  C   UNL A   1      47.290  24.985  27.338  1.00  0.00     0.029 A 
ATOM     55  C   UNL A   1      46.988  26.338  27.799  1.00  0.00     0.049 A 
ATOM     56  H   UNL A   1      45.120  27.140  28.244  1.00  0.00     0.167 HD
ATOM     57  C   UNL A   1      41.135  28.769  28.912  1.00  0.00     0.037 A 
ATOM     58  C   UNL A   1      47.892  27.309  28.017  1.00  0.00     0.037 A 
ATOM     59  C   UNL A   1      42.027  29.862  29.191  1.00  0.00     0.049 A 
ATOM     60  C   UNL A   1      47.437  28.658  28.490  1.00  0.00     0.074 A 
ATOM     61  C   UNL A   1      41.720  31.147  29.603  1.00  0.00     0.029 A 
ATOM     62  N   UNL A   1      43.407  29.790  29.098  1.00  0.00    -0.354 N 
ATOM     63  N   UNL A   1      46.219  29.087  28.705  1.00  0.00    -0.248 NA
ATOM     64  C   UNL A   1      48.485  29.655  28.753  1.00  0.00     0.031 C 
ATOM     65  C   UNL A   1      42.917  31.856  29.755  1.00  0.00     0.029 A 
ATOM     66  C   UNL A   1      43.968  31.008  29.446  1.00  0.00     0.049 A 
ATOM     67  H   UNL A   1      43.914  28.992  28.824  1.00  0.00     0.167 HD
ATOM     68  C   UNL A   1      46.350  30.400  29.130  1.00  0.00     0.074 A 
ATOM     69  C   UNL A   1      47.768  30.697  29.151  1.00  0.00     0.031 C 
ATOM     70  C   UNL A   1      45.379  31.281  29.468  1.00  0.00     0.037 A 
BRANCH  57  71
ATOM     71  C   UNL A   1      39.664  29.016  29.016  1.00  0.00     0.064 A 
ATOM     72  C   UNL A   1      38.903  29.360  27.892  1.00  0.00     0.173 A 
ATOM     73  C   UNL A   1      39.010  28.883  30.250  1.00  0.00     0.173 A 
ATOM     74  F   UNL A   1      39.494  29.511  26.697  1.00  0.00    -0.203 F 
ATOM     75  C   UNL A   1      37.532  29.574  28.001  1.00  0.00     0.198 A 
ATOM     76  C   UNL A   1      37.637  29.089  30.352  1.00  0.00     0.198 A 
ATOM     77  F   UNL A   1      39.703  28.560  31.351  1.00  0.00    -0.203 F 
ATOM     78  F   UNL A   1      36.822  29.923  26.919  1.00  0.00    -0.200 F 
ATOM     79  C   UNL A   1      36.900  29.436  29.229  1.00  0.00     0.200 A 
ATOM     80  F   UNL A   1      37.028  28.959  31.539  1.00  0.00    -0.200 F 
ATOM     81  F   UNL A   1      35.580  29.645  29.331  1.00  0.00    -0.200 F 
ENDBRANCH  57  71
BRANCH  58  82
ATOM     82  C   UNL A   1      49.329  27.025  27.805  1.00  0.00     0.064 A 
ATOM     83  C   UNL A   1      50.139  26.617  28.872  1.00  0.00     0.173 A 
ATOM     84  C   UNL A   1      49.908  27.135  26.536  1.00  0.00     0.173 A 
ATOM     85  F   UNL A   1      49.623  26.516  30.105  1.00  0.00    -0.203 F 
ATOM     86  C   UNL A   1      51.487  26.329  28.674  1.00  0.00     0.198 A 
ATOM     87  C   UNL A   1      51.254  26.839  26.338  1.00  0.00     0.198 A 
ATOM     88  F   UNL A   1      49.164  27.525  25.491  1.00  0.00    -0.203 F 
ATOM     89  F   UNL A   1      52.249  25.953  29.711  1.00  0.00    -0.200 F 
ATOM     90  C   UNL A   1      52.042  26.437  27.407  1.00  0.00     0.200 A 
ATOM     91  F   UNL A   1      51.788  26.944  25.114  1.00  0.00    -0.200 F 
ATOM     92  F   UNL A   1      53.339  26.158  27.217  1.00  0.00    -0.200 F 
ENDBRANCH  58  82
BRANCH  70  93
ATOM     93  C   UNL A   1      45.820  32.642  29.897  1.00  0.00     0.064 A 
ATOM     94  C   UNL A   1      45.957  33.683  28.968  1.00  0.00     0.173 A 
ATOM     95  C   UNL A   1      46.076  32.917  31.248  1.00  0.00     0.173 A 
ATOM     96  F   UNL A   1      45.735  33.457  27.665  1.00  0.00    -0.203 F 
ATOM     97  C   UNL A   1      46.344  34.955  29.378  1.00  0.00     0.198 A 
ATOM     98  C   UNL A   1      46.457  34.192  31.653  1.00  0.00     0.198 A 
ATOM     99  F   UNL A   1      45.963  31.947  32.166  1.00  0.00    -0.203 F 
ATOM    100  F   UNL A   1      46.488  35.934  28.473  1.00  0.00    -0.200 F 
ATOM    101  C   UNL A   1      46.591  35.209  30.719  1.00  0.00     0.200 A 
ATOM    102  F   UNL A   1      46.701  34.436  32.949  1.00  0.00    -0.200 F 
ATOM    103  F   UNL A   1      46.968  36.434  31.112  1.00  0.00    -0.200 F 
ENDBRANCH  70  93
ENDBRANCH  44  45
ENDBRANCH  36  39
ENDBRANCH  34  35
ENDBRANCH  33  34
ENDBRANCH  32  33
ENDBRANCH   1  32
TORSDOF 17
ENDMDL
