MODEL 1
REMARK VINA RESULT:     -12.8      0.000      0.000
REMARK SMILES CC[C@@H]1CCCC[N@H+]1Cc1c(C(=O)NCCCCNC(=O)c2ccc(-c3c4nc(c(-c5c(F)c(F)c(F)c(F)c5F)c5ccc([nH]5)c(-c5c(F)c(F)c(F)c(F)c5F)c5nc(c(-c6c(F)c(F)c(F)c(F)c6F)c6ccc3[nH]6)C=C5)C=C4)cc2)oc2ccccc12
REMARK SMILES IDX 16 1 15 2 14 3 12 4 13 5 11 7 10 8 91 9 85 10 86 11 90 12
REMARK SMILES IDX 87 13 89 14 88 15 9 16 8 17 3 18 4 19 5 20 7 21 6 23 2 24
REMARK SMILES IDX 1 25 17 26 18 27 19 28 20 29 21 31 22 32 23 33 84 34 24 35
REMARK SMILES IDX 83 36 25 37 26 38 27 39 77 40 28 41 82 42 76 43 78 44 29 45
REMARK SMILES IDX 81 46 75 47 74 48 30 50 62 51 42 52 61 53 43 54 46 55 60 56
REMARK SMILES IDX 79 57 44 58 45 59 59 61 80 62 47 63 31 64 32 65 40 66 33 67
REMARK SMILES IDX 34 68 38 69 41 70 35 71 36 72 39 73 37 74 63 75 64 76 72 77
REMARK SMILES IDX 65 78 66 79 70 80 73 81 67 82 68 83 71 84 69 85 48 86 49 87
REMARK SMILES IDX 57 88 50 89 51 90 55 91 58 92 52 93 53 94 56 95 54 96
REMARK H PARENT 14 6 8 22 19 30 78 49 46 60
REMARK Flexibility Score: inf
ROOT
ATOM      1  C   UNL A   1      31.664  28.301  27.080  1.00  0.00     0.023 C 
ENDROOT
BRANCH   1   2
ATOM      2  C   UNL A   1      32.329  27.044  26.522  1.00  0.00     0.116 C 
BRANCH   2   3
ATOM      3  N   UNL A   1      31.636  25.843  26.951  1.00  0.00    -0.349 N 
ATOM      4  C   UNL A   1      31.852  24.508  26.685  1.00  0.00     0.287 C 
ATOM      5  O   UNL A   1      31.027  23.741  27.188  1.00  0.00    -0.266 OA
ATOM      6  H   UNL A   1      30.868  26.013  27.542  1.00  0.00     0.163 HD
BRANCH   4   7
ATOM      7  C   UNL A   1      32.972  24.055  25.870  1.00  0.00     0.201 A 
ATOM      8  C   UNL A   1      33.144  23.978  24.479  1.00  0.00     0.066 A 
ATOM      9  C   UNL A   1      34.502  23.511  24.288  1.00  0.00     0.030 A 
ATOM     10  O   UNL A   1      34.098  23.612  26.490  1.00  0.00    -0.450 OA
ATOM     11  C   UNL A   1      35.001  23.260  25.556  1.00  0.00     0.135 A 
ATOM     12  C   UNL A   1      35.386  23.255  23.216  1.00  0.00     0.012 A 
ATOM     13  C   UNL A   1      36.258  22.731  25.843  1.00  0.00     0.048 A 
ATOM     14  C   UNL A   1      36.654  22.703  23.459  1.00  0.00     0.001 A 
ATOM     15  C   UNL A   1      37.079  22.436  24.756  1.00  0.00     0.004 A 
BRANCH   8  16
ATOM     16  C   UNL A   1      32.108  24.387  23.456  1.00  0.00     0.304 C 
BRANCH  16  17
ATOM     17  N   UNL A   1      31.558  25.758  23.568  1.00  0.00    -0.329 N 
ATOM     18  C   UNL A   1      32.064  26.766  22.619  1.00  0.00     0.184 C 
ATOM     19  C   UNL A   1      31.321  28.126  22.751  1.00  0.00     0.065 C 
ATOM     20  C   UNL A   1      29.810  27.988  22.748  1.00  0.00     0.012 C 
ATOM     21  C   UNL A   1      30.086  25.695  23.676  1.00  0.00     0.262 C 
ATOM     22  H   UNL A   1      31.936  26.139  24.435  1.00  0.00     0.348 HD
ATOM     23  C   UNL A   1      29.414  27.050  23.870  1.00  0.00     0.062 C 
BRANCH  18  24
ATOM     24  C   UNL A   1      33.577  27.148  22.720  1.00  0.00     0.061 C 
ATOM     25  C   UNL A   1      34.028  28.599  22.749  1.00  0.00     0.010 C 
ENDBRANCH  18  24
ENDBRANCH  16  17
ENDBRANCH   8  16
ENDBRANCH   4   7
ENDBRANCH   2   3
ENDBRANCH   1   2
BRANCH   1  26
ATOM     26  C   UNL A   1      31.647  29.483  26.104  1.00  0.00     0.023 C 
BRANCH  26  27
ATOM     27  C   UNL A   1      32.891  30.366  26.129  1.00  0.00     0.116 C 
BRANCH  27  28
ATOM     28  N   UNL A   1      32.638  31.702  26.648  1.00  0.00    -0.352 N 
ATOM     29  C   UNL A   1      33.398  32.450  27.518  1.00  0.00     0.251 C 
ATOM     30  H   UNL A   1      31.809  32.130  26.334  1.00  0.00     0.163 HD
ATOM     31  O   UNL A   1      32.996  33.523  27.940  1.00  0.00    -0.269 OA
BRANCH  29  32
ATOM     32  C   UNL A   1      34.695  31.910  27.971  1.00  0.00     0.039 A 
ATOM     33  C   UNL A   1      35.800  32.762  28.002  1.00  0.00     0.014 A 
ATOM     34  C   UNL A   1      34.792  30.593  28.426  1.00  0.00     0.014 A 
ATOM     35  C   UNL A   1      36.989  32.320  28.583  1.00  0.00     0.010 A 
ATOM     36  C   UNL A   1      35.956  30.175  29.059  1.00  0.00     0.010 A 
ATOM     37  C   UNL A   1      37.056  31.042  29.161  1.00  0.00    -0.014 A 
BRANCH  37  38
ATOM     38  C   UNL A   1      38.242  30.611  29.939  1.00  0.00     0.031 A 
ATOM     39  C   UNL A   1      39.175  29.578  29.384  1.00  0.00     0.074 A 
ATOM     40  C   UNL A   1      38.406  31.070  31.194  1.00  0.00     0.049 A 
ATOM     41  N   UNL A   1      40.190  28.986  29.959  1.00  0.00    -0.248 NA
ATOM     42  C   UNL A   1      38.914  29.132  28.008  1.00  0.00     0.031 C 
ATOM     43  C   UNL A   1      37.528  32.032  31.862  1.00  0.00     0.029 A 
ATOM     44  N   UNL A   1      39.351  30.767  32.143  1.00  0.00    -0.354 N 
ATOM     45  C   UNL A   1      40.680  28.087  29.023  1.00  0.00     0.074 A 
ATOM     46  C   UNL A   1      39.823  28.178  27.859  1.00  0.00     0.031 C 
ATOM     47  C   UNL A   1      37.971  32.237  33.112  1.00  0.00     0.029 A 
ATOM     48  C   UNL A   1      39.140  31.393  33.346  1.00  0.00     0.049 A 
ATOM     49  H   UNL A   1      40.107  30.159  31.976  1.00  0.00     0.167 HD
ATOM     50  C   UNL A   1      41.759  27.276  29.121  1.00  0.00     0.037 A 
ATOM     51  C   UNL A   1      39.796  31.281  34.516  1.00  0.00     0.037 A 
ATOM     52  C   UNL A   1      42.614  27.202  30.276  1.00  0.00     0.049 A 
ATOM     53  C   UNL A   1      40.979  30.359  34.608  1.00  0.00     0.074 A 
ATOM     54  C   UNL A   1      43.786  26.485  30.439  1.00  0.00     0.029 A 
ATOM     55  N   UNL A   1      42.378  27.861  31.475  1.00  0.00    -0.354 N 
ATOM     56  N   UNL A   1      41.492  29.581  33.687  1.00  0.00    -0.248 NA
ATOM     57  C   UNL A   1      41.674  30.299  35.902  1.00  0.00     0.031 C 
ATOM     58  C   UNL A   1      44.230  26.668  31.754  1.00  0.00     0.029 A 
ATOM     59  C   UNL A   1      43.360  27.534  32.397  1.00  0.00     0.049 A 
ATOM     60  H   UNL A   1      41.623  28.471  31.645  1.00  0.00     0.167 HD
ATOM     61  C   UNL A   1      42.569  28.942  34.283  1.00  0.00     0.074 A 
ATOM     62  C   UNL A   1      42.651  29.439  35.641  1.00  0.00     0.031 C 
ATOM     63  C   UNL A   1      43.412  28.022  33.752  1.00  0.00     0.037 A 
BRANCH  50  64
ATOM     64  C   UNL A   1      42.067  26.396  27.944  1.00  0.00     0.064 A 
ATOM     65  C   UNL A   1      41.410  25.171  27.749  1.00  0.00     0.173 A 
ATOM     66  C   UNL A   1      43.023  26.787  26.994  1.00  0.00     0.173 A 
ATOM     67  F   UNL A   1      40.495  24.748  28.633  1.00  0.00    -0.203 F 
ATOM     68  C   UNL A   1      41.728  24.353  26.667  1.00  0.00     0.198 A 
ATOM     69  C   UNL A   1      43.316  25.978  25.899  1.00  0.00     0.198 A 
ATOM     70  F   UNL A   1      43.676  27.950  27.131  1.00  0.00    -0.203 F 
ATOM     71  F   UNL A   1      41.129  23.161  26.535  1.00  0.00    -0.200 F 
ATOM     72  C   UNL A   1      42.676  24.758  25.743  1.00  0.00     0.200 A 
ATOM     73  F   UNL A   1      44.225  26.378  24.999  1.00  0.00    -0.200 F 
ATOM     74  F   UNL A   1      42.982  23.968  24.704  1.00  0.00    -0.200 F 
ENDBRANCH  50  64
BRANCH  51  75
ATOM     75  C   UNL A   1      39.333  32.063  35.689  1.00  0.00     0.064 A 
ATOM     76  C   UNL A   1      38.379  31.542  36.572  1.00  0.00     0.173 A 
ATOM     77  C   UNL A   1      39.867  33.329  35.973  1.00  0.00     0.173 A 
ATOM     78  F   UNL A   1      37.828  30.345  36.330  1.00  0.00    -0.203 F 
ATOM     79  C   UNL A   1      37.973  32.260  37.695  1.00  0.00     0.198 A 
ATOM     80  C   UNL A   1      39.478  34.035  37.110  1.00  0.00     0.198 A 
ATOM     81  F   UNL A   1      40.787  33.867  35.161  1.00  0.00    -0.203 F 
ATOM     82  F   UNL A   1      37.042  31.749  38.512  1.00  0.00    -0.200 F 
ATOM     83  C   UNL A   1      38.529  33.500  37.968  1.00  0.00     0.200 A 
ATOM     84  F   UNL A   1      40.030  35.226  37.378  1.00  0.00    -0.200 F 
ATOM     85  F   UNL A   1      38.151  34.182  39.058  1.00  0.00    -0.200 F 
ENDBRANCH  51  75
BRANCH  63  86
ATOM     86  C   UNL A   1      44.489  27.482  34.647  1.00  0.00     0.064 A 
ATOM     87  C   UNL A   1      45.727  28.130  34.769  1.00  0.00     0.173 A 
ATOM     88  C   UNL A   1      44.264  26.339  35.428  1.00  0.00     0.173 A 
ATOM     89  F   UNL A   1      45.996  29.216  34.028  1.00  0.00    -0.203 F 
ATOM     90  C   UNL A   1      46.706  27.644  35.632  1.00  0.00     0.198 A 
ATOM     91  C   UNL A   1      45.235  25.872  36.310  1.00  0.00     0.198 A 
ATOM     92  F   UNL A   1      43.095  25.686  35.350  1.00  0.00    -0.203 F 
ATOM     93  F   UNL A   1      47.894  28.258  35.707  1.00  0.00    -0.200 F 
ATOM     94  C   UNL A   1      46.456  26.522  36.407  1.00  0.00     0.200 A 
ATOM     95  F   UNL A   1      44.988  24.793  37.067  1.00  0.00    -0.200 F 
ATOM     96  F   UNL A   1      47.395  26.063  37.247  1.00  0.00    -0.200 F 
ENDBRANCH  63  86
ENDBRANCH  37  38
ENDBRANCH  29  32
ENDBRANCH  27  28
ENDBRANCH  26  27
ENDBRANCH   1  26
TORSDOF 14
ENDMDL
MODEL 2
REMARK VINA RESULT:     -12.6      0.550      7.323
REMARK SMILES CC[C@@H]1CCCC[N@H+]1Cc1c(C(=O)NCCCCNC(=O)c2ccc(-c3c4nc(c(-c5c(F)c(F)c(F)c(F)c5F)c5ccc([nH]5)c(-c5c(F)c(F)c(F)c(F)c5F)c5nc(c(-c6c(F)c(F)c(F)c(F)c6F)c6ccc3[nH]6)C=C5)C=C4)cc2)oc2ccccc12
REMARK SMILES IDX 16 1 15 2 14 3 12 4 13 5 11 7 10 8 91 9 85 10 86 11 90 12
REMARK SMILES IDX 87 13 89 14 88 15 9 16 8 17 3 18 4 19 5 20 7 21 6 23 2 24
REMARK SMILES IDX 1 25 17 26 18 27 19 28 20 29 21 31 22 32 23 33 84 34 24 35
REMARK SMILES IDX 83 36 25 37 26 38 27 39 77 40 28 41 82 42 76 43 78 44 29 45
REMARK SMILES IDX 81 46 75 47 74 48 30 50 62 51 42 52 61 53 43 54 46 55 60 56
REMARK SMILES IDX 79 57 44 58 45 59 59 61 80 62 47 63 31 64 32 65 40 66 33 67
REMARK SMILES IDX 34 68 38 69 41 70 35 71 36 72 39 73 37 74 63 75 64 76 72 77
REMARK SMILES IDX 65 78 66 79 70 80 73 81 67 82 68 83 71 84 69 85 48 86 49 87
REMARK SMILES IDX 57 88 50 89 51 90 55 91 58 92 52 93 53 94 56 95 54 96
REMARK H PARENT 14 6 8 22 19 30 78 49 46 60
REMARK Flexibility Score: inf
ROOT
ATOM      1  C   UNL A   1      31.730  28.212  27.285  1.00  0.00     0.023 C 
ENDROOT
BRANCH   1   2
ATOM      2  C   UNL A   1      32.291  26.987  26.564  1.00  0.00     0.116 C 
BRANCH   2   3
ATOM      3  N   UNL A   1      31.619  25.771  26.982  1.00  0.00    -0.349 N 
ATOM      4  C   UNL A   1      31.842  24.444  26.684  1.00  0.00     0.287 C 
ATOM      5  O   UNL A   1      31.035  23.659  27.188  1.00  0.00    -0.266 OA
ATOM      6  H   UNL A   1      30.861  25.921  27.591  1.00  0.00     0.163 HD
BRANCH   4   7
ATOM      7  C   UNL A   1      32.950  24.019  25.838  1.00  0.00     0.201 A 
ATOM      8  C   UNL A   1      33.093  23.966  24.443  1.00  0.00     0.066 A 
ATOM      9  C   UNL A   1      34.453  23.520  24.215  1.00  0.00     0.030 A 
ATOM     10  O   UNL A   1      34.095  23.581  26.427  1.00  0.00    -0.450 OA
ATOM     11  C   UNL A   1      34.982  23.255  25.469  1.00  0.00     0.135 A 
ATOM     12  C   UNL A   1      35.316  23.293  23.121  1.00  0.00     0.012 A 
ATOM     13  C   UNL A   1      36.251  22.738  25.720  1.00  0.00     0.048 A 
ATOM     14  C   UNL A   1      36.596  22.754  23.328  1.00  0.00     0.001 A 
ATOM     15  C   UNL A   1      37.053  22.471  24.611  1.00  0.00     0.004 A 
BRANCH   8  16
ATOM     16  C   UNL A   1      32.030  24.378  23.449  1.00  0.00     0.304 C 
BRANCH  16  17
ATOM     17  N   UNL A   1      31.521  25.765  23.547  1.00  0.00    -0.329 N 
ATOM     18  C   UNL A   1      31.993  26.729  22.537  1.00  0.00     0.184 C 
ATOM     19  C   UNL A   1      31.291  28.112  22.666  1.00  0.00     0.065 C 
ATOM     20  C   UNL A   1      29.780  28.012  22.756  1.00  0.00     0.012 C 
ATOM     21  C   UNL A   1      30.056  25.744  23.742  1.00  0.00     0.262 C 
ATOM     22  H   UNL A   1      31.958  26.164  24.377  1.00  0.00     0.348 HD
ATOM     23  C   UNL A   1      29.428  27.121  23.930  1.00  0.00     0.062 C 
BRANCH  18  24
ATOM     24  C   UNL A   1      33.518  27.075  22.537  1.00  0.00     0.061 C 
ATOM     25  C   UNL A   1      34.065  28.247  23.337  1.00  0.00     0.010 C 
ENDBRANCH  18  24
ENDBRANCH  16  17
ENDBRANCH   8  16
ENDBRANCH   4   7
ENDBRANCH   2   3
ENDBRANCH   1   2
BRANCH   1  26
ATOM     26  C   UNL A   1      31.583  29.449  26.393  1.00  0.00     0.023 C 
BRANCH  26  27
ATOM     27  C   UNL A   1      32.853  30.277  26.214  1.00  0.00     0.116 C 
BRANCH  27  28
ATOM     28  N   UNL A   1      32.729  31.637  26.717  1.00  0.00    -0.352 N 
ATOM     29  C   UNL A   1      33.558  32.320  27.576  1.00  0.00     0.251 C 
ATOM     30  H   UNL A   1      31.943  32.138  26.399  1.00  0.00     0.163 HD
ATOM     31  O   UNL A   1      33.261  33.432  27.985  1.00  0.00    -0.269 OA
BRANCH  29  32
ATOM     32  C   UNL A   1      34.799  31.666  28.033  1.00  0.00     0.039 A 
ATOM     33  C   UNL A   1      35.938  32.450  28.224  1.00  0.00     0.014 A 
ATOM     34  C   UNL A   1      34.810  30.303  28.335  1.00  0.00     0.014 A 
ATOM     35  C   UNL A   1      37.069  31.884  28.815  1.00  0.00     0.010 A 
ATOM     36  C   UNL A   1      35.913  29.755  28.978  1.00  0.00     0.010 A 
ATOM     37  C   UNL A   1      37.043  30.547  29.242  1.00  0.00    -0.014 A 
BRANCH  37  38
ATOM     38  C   UNL A   1      38.159  29.969  30.029  1.00  0.00     0.031 A 
ATOM     39  C   UNL A   1      38.415  30.433  31.431  1.00  0.00     0.074 A 
ATOM     40  C   UNL A   1      39.006  29.111  29.432  1.00  0.00     0.049 A 
ATOM     41  N   UNL A   1      39.408  30.139  32.230  1.00  0.00    -0.248 NA
ATOM     42  C   UNL A   1      37.439  31.375  31.998  1.00  0.00     0.031 C 
ATOM     43  C   UNL A   1      38.892  28.634  28.052  1.00  0.00     0.029 A 
ATOM     44  N   UNL A   1      40.149  28.510  29.897  1.00  0.00    -0.354 N 
ATOM     45  C   UNL A   1      39.185  30.869  33.389  1.00  0.00     0.074 A 
ATOM     46  C   UNL A   1      37.989  31.656  33.171  1.00  0.00     0.031 C 
ATOM     47  C   UNL A   1      39.924  27.819  27.782  1.00  0.00     0.029 A 
ATOM     48  C   UNL A   1      40.791  27.747  28.955  1.00  0.00     0.049 A 
ATOM     49  H   UNL A   1      40.477  28.616  30.820  1.00  0.00     0.167 HD
ATOM     50  C   UNL A   1      39.905  30.867  34.536  1.00  0.00     0.037 A 
ATOM     51  C   UNL A   1      41.962  27.085  29.016  1.00  0.00     0.037 A 
ATOM     52  C   UNL A   1      41.085  30.071  34.748  1.00  0.00     0.049 A 
ATOM     53  C   UNL A   1      42.754  27.111  30.292  1.00  0.00     0.074 A 
ATOM     54  C   UNL A   1      41.829  29.923  35.905  1.00  0.00     0.029 A 
ATOM     55  N   UNL A   1      41.701  29.297  33.774  1.00  0.00    -0.354 N 
ATOM     56  N   UNL A   1      42.487  27.732  31.415  1.00  0.00    -0.248 NA
ATOM     57  C   UNL A   1      44.009  26.347  30.310  1.00  0.00     0.031 C 
ATOM     58  C   UNL A   1      42.927  29.103  35.615  1.00  0.00     0.029 A 
ATOM     59  C   UNL A   1      42.841  28.703  34.291  1.00  0.00     0.049 A 
ATOM     60  H   UNL A   1      41.375  29.188  32.851  1.00  0.00     0.167 HD
ATOM     61  C   UNL A   1      43.535  27.433  32.274  1.00  0.00     0.074 A 
ATOM     62  C   UNL A   1      44.432  26.556  31.550  1.00  0.00     0.031 C 
ATOM     63  C   UNL A   1      43.736  27.852  33.548  1.00  0.00     0.037 A 
BRANCH  50  64
ATOM     64  C   UNL A   1      39.434  31.763  35.644  1.00  0.00     0.064 A 
ATOM     65  C   UNL A   1      38.497  31.328  36.594  1.00  0.00     0.173 A 
ATOM     66  C   UNL A   1      39.934  33.068  35.764  1.00  0.00     0.173 A 
ATOM     67  F   UNL A   1      37.981  30.093  36.518  1.00  0.00    -0.203 F 
ATOM     68  C   UNL A   1      38.047  32.182  37.599  1.00  0.00     0.198 A 
ATOM     69  C   UNL A   1      39.503  33.908  36.788  1.00  0.00     0.198 A 
ATOM     70  F   UNL A   1      40.835  33.531  34.886  1.00  0.00    -0.203 F 
ATOM     71  F   UNL A   1      37.108  31.763  38.458  1.00  0.00    -0.200 F 
ATOM     72  C   UNL A   1      38.554  33.468  37.697  1.00  0.00     0.200 A 
ATOM     73  F   UNL A   1      40.002  35.147  36.889  1.00  0.00    -0.200 F 
ATOM     74  F   UNL A   1      38.119  34.288  38.664  1.00  0.00    -0.200 F 
ENDBRANCH  50  64
BRANCH  51  75
ATOM     75  C   UNL A   1      42.446  26.350  27.820  1.00  0.00     0.064 A 
ATOM     76  C   UNL A   1      43.369  26.932  26.942  1.00  0.00     0.173 A 
ATOM     77  C   UNL A   1      42.029  25.037  27.558  1.00  0.00     0.173 A 
ATOM     78  F   UNL A   1      43.781  28.191  27.143  1.00  0.00    -0.203 F 
ATOM     79  C   UNL A   1      43.854  26.228  25.842  1.00  0.00     0.198 A 
ATOM     80  C   UNL A   1      42.534  24.325  26.471  1.00  0.00     0.198 A 
ATOM     81  F   UNL A   1      41.152  24.435  28.374  1.00  0.00    -0.203 F 
ATOM     82  F   UNL A   1      44.719  26.815  25.003  1.00  0.00    -0.200 F 
ATOM     83  C   UNL A   1      43.444  24.923  25.613  1.00  0.00     0.200 A 
ATOM     84  F   UNL A   1      42.147  23.060  26.263  1.00  0.00    -0.200 F 
ATOM     85  F   UNL A   1      43.925  24.241  24.564  1.00  0.00    -0.200 F 
ENDBRANCH  51  75
BRANCH  63  86
ATOM     86  C   UNL A   1      44.981  27.378  34.237  1.00  0.00     0.064 A 
ATOM     87  C   UNL A   1      45.010  26.161  34.934  1.00  0.00     0.173 A 
ATOM     88  C   UNL A   1      46.169  28.119  34.157  1.00  0.00     0.173 A 
ATOM     89  F   UNL A   1      43.894  25.426  35.054  1.00  0.00    -0.203 F 
ATOM     90  C   UNL A   1      46.181  25.709  35.537  1.00  0.00     0.198 A 
ATOM     91  C   UNL A   1      47.345  27.651  34.738  1.00  0.00     0.198 A 
ATOM     92  F   UNL A   1      46.194  29.288  33.499  1.00  0.00    -0.203 F 
ATOM     93  F   UNL A   1      46.178  24.561  36.227  1.00  0.00    -0.200 F 
ATOM     94  C   UNL A   1      47.349  26.450  35.430  1.00  0.00     0.200 A 
ATOM     95  F   UNL A   1      48.476  28.363  34.625  1.00  0.00    -0.200 F 
ATOM     96  F   UNL A   1      48.479  26.008  36.001  1.00  0.00    -0.200 F 
ENDBRANCH  63  86
ENDBRANCH  37  38
ENDBRANCH  29  32
ENDBRANCH  27  28
ENDBRANCH  26  27
ENDBRANCH   1  26
TORSDOF 14
ENDMDL
MODEL 3
REMARK VINA RESULT:     -12.5      1.970      3.941
REMARK SMILES CC[C@@H]1CCCC[N@H+]1Cc1c(C(=O)NCCCCNC(=O)c2ccc(-c3c4nc(c(-c5c(F)c(F)c(F)c(F)c5F)c5ccc([nH]5)c(-c5c(F)c(F)c(F)c(F)c5F)c5nc(c(-c6c(F)c(F)c(F)c(F)c6F)c6ccc3[nH]6)C=C5)C=C4)cc2)oc2ccccc12
REMARK SMILES IDX 16 1 15 2 14 3 12 4 13 5 11 7 10 8 91 9 85 10 86 11 90 12
REMARK SMILES IDX 87 13 89 14 88 15 9 16 8 17 3 18 4 19 5 20 7 21 6 23 2 24
REMARK SMILES IDX 1 25 17 26 18 27 19 28 20 29 21 31 22 32 23 33 84 34 24 35
REMARK SMILES IDX 83 36 25 37 26 38 27 39 77 40 28 41 82 42 76 43 78 44 29 45
REMARK SMILES IDX 81 46 75 47 74 48 30 50 62 51 42 52 61 53 43 54 46 55 60 56
REMARK SMILES IDX 79 57 44 58 45 59 59 61 80 62 47 63 31 64 32 65 40 66 33 67
REMARK SMILES IDX 34 68 38 69 41 70 35 71 36 72 39 73 37 74 63 75 64 76 72 77
REMARK SMILES IDX 65 78 66 79 70 80 73 81 67 82 68 83 71 84 69 85 48 86 49 87
REMARK SMILES IDX 57 88 50 89 51 90 55 91 58 92 52 93 53 94 56 95 54 96
REMARK H PARENT 14 6 8 22 19 30 78 49 46 60
REMARK Flexibility Score: inf
ROOT
ATOM      1  C   UNL A   1      32.046  30.013  26.861  1.00  0.00     0.023 C 
ENDROOT
BRANCH   1   2
ATOM      2  C   UNL A   1      33.441  29.389  26.829  1.00  0.00     0.116 C 
BRANCH   2   3
ATOM      3  N   UNL A   1      33.996  29.398  25.488  1.00  0.00    -0.349 N 
ATOM      4  C   UNL A   1      33.495  28.968  24.279  1.00  0.00     0.287 C 
ATOM      5  O   UNL A   1      34.270  29.090  23.326  1.00  0.00    -0.266 OA
ATOM      6  H   UNL A   1      34.900  29.783  25.432  1.00  0.00     0.163 HD
BRANCH   4   7
ATOM      7  C   UNL A   1      32.153  28.416  24.152  1.00  0.00     0.201 A 
ATOM      8  C   UNL A   1      31.618  27.170  24.514  1.00  0.00     0.066 A 
ATOM      9  C   UNL A   1      30.206  27.252  24.194  1.00  0.00     0.030 A 
ATOM     10  O   UNL A   1      31.176  29.182  23.595  1.00  0.00    -0.450 OA
ATOM     11  C   UNL A   1      30.024  28.486  23.590  1.00  0.00     0.135 A 
ATOM     12  C   UNL A   1      29.050  26.452  24.323  1.00  0.00     0.012 A 
ATOM     13  C   UNL A   1      28.826  28.961  23.060  1.00  0.00     0.048 A 
ATOM     14  C   UNL A   1      27.827  26.883  23.785  1.00  0.00     0.001 A 
ATOM     15  C   UNL A   1      27.720  28.117  23.153  1.00  0.00     0.004 A 
BRANCH   8  16
ATOM     16  C   UNL A   1      32.398  26.051  25.167  1.00  0.00     0.304 C 
BRANCH  16  17
ATOM     17  N   UNL A   1      32.552  24.798  24.391  1.00  0.00    -0.329 N 
ATOM     18  C   UNL A   1      33.661  24.737  23.423  1.00  0.00     0.184 C 
ATOM     19  C   UNL A   1      33.797  23.332  22.767  1.00  0.00     0.065 C 
ATOM     20  C   UNL A   1      33.800  22.198  23.775  1.00  0.00     0.012 C 
ATOM     21  C   UNL A   1      32.460  23.637  25.299  1.00  0.00     0.262 C 
ATOM     22  H   UNL A   1      31.764  24.773  23.744  1.00  0.00     0.348 HD
ATOM     23  C   UNL A   1      32.531  22.284  24.598  1.00  0.00     0.062 C 
BRANCH  18  24
ATOM     24  C   UNL A   1      33.606  25.719  22.208  1.00  0.00     0.061 C 
ATOM     25  C   UNL A   1      32.465  25.676  21.205  1.00  0.00     0.010 C 
ENDBRANCH  18  24
ENDBRANCH  16  17
ENDBRANCH   8  16
ENDBRANCH   4   7
ENDBRANCH   2   3
ENDBRANCH   1   2
BRANCH   1  26
ATOM     26  C   UNL A   1      32.033  31.524  26.601  1.00  0.00     0.023 C 
BRANCH  26  27
ATOM     27  C   UNL A   1      32.986  32.342  27.469  1.00  0.00     0.116 C 
BRANCH  27  28
ATOM     28  N   UNL A   1      32.554  33.719  27.657  1.00  0.00    -0.352 N 
ATOM     29  C   UNL A   1      33.063  34.676  28.503  1.00  0.00     0.251 C 
ATOM     30  H   UNL A   1      31.791  34.005  27.104  1.00  0.00     0.163 HD
ATOM     31  O   UNL A   1      32.521  35.764  28.620  1.00  0.00    -0.269 OA
BRANCH  29  32
ATOM     32  C   UNL A   1      34.257  34.349  29.307  1.00  0.00     0.039 A 
ATOM     33  C   UNL A   1      34.079  33.777  30.568  1.00  0.00     0.014 A 
ATOM     34  C   UNL A   1      35.536  34.544  28.782  1.00  0.00     0.014 A 
ATOM     35  C   UNL A   1      35.190  33.306  31.269  1.00  0.00     0.010 A 
ATOM     36  C   UNL A   1      36.635  34.021  29.454  1.00  0.00     0.010 A 
ATOM     37  C   UNL A   1      36.468  33.379  30.692  1.00  0.00    -0.014 A 
BRANCH  37  38
ATOM     38  C   UNL A   1      37.639  32.732  31.330  1.00  0.00     0.031 A 
ATOM     39  C   UNL A   1      38.293  31.548  30.685  1.00  0.00     0.074 A 
ATOM     40  C   UNL A   1      38.034  33.146  32.549  1.00  0.00     0.049 A 
ATOM     41  N   UNL A   1      39.244  30.777  31.146  1.00  0.00    -0.248 NA
ATOM     42  C   UNL A   1      37.792  31.165  29.357  1.00  0.00     0.031 C 
ATOM     43  C   UNL A   1      37.433  34.249  33.301  1.00  0.00     0.029 A 
ATOM     44  N   UNL A   1      39.013  32.669  33.384  1.00  0.00    -0.354 N 
ATOM     45  C   UNL A   1      39.445  29.808  30.172  1.00  0.00     0.074 A 
ATOM     46  C   UNL A   1      38.486  30.062  29.118  1.00  0.00     0.031 C 
ATOM     47  C   UNL A   1      38.054  34.362  34.485  1.00  0.00     0.029 A 
ATOM     48  C   UNL A   1      39.067  33.317  34.592  1.00  0.00     0.049 A 
ATOM     49  H   UNL A   1      39.620  31.933  33.138  1.00  0.00     0.167 HD
ATOM     50  C   UNL A   1      40.361  28.811  30.155  1.00  0.00     0.037 A 
ATOM     51  C   UNL A   1      39.827  33.079  35.678  1.00  0.00     0.037 A 
ATOM     52  C   UNL A   1      41.319  28.575  31.202  1.00  0.00     0.049 A 
ATOM     53  C   UNL A   1      40.823  31.955  35.644  1.00  0.00     0.074 A 
ATOM     54  C   UNL A   1      42.351  27.654  31.236  1.00  0.00     0.029 A 
ATOM     55  N   UNL A   1      41.354  29.259  32.409  1.00  0.00    -0.354 N 
ATOM     56  N   UNL A   1      41.070  31.100  34.681  1.00  0.00    -0.248 NA
ATOM     57  C   UNL A   1      41.645  31.760  36.847  1.00  0.00     0.031 C 
ATOM     58  C   UNL A   1      42.975  27.744  32.486  1.00  0.00     0.029 A 
ATOM     59  C   UNL A   1      42.362  28.752  33.213  1.00  0.00     0.049 A 
ATOM     60  H   UNL A   1      40.750  29.997  32.657  1.00  0.00     0.167 HD
ATOM     61  C   UNL A   1      42.075  30.270  35.157  1.00  0.00     0.074 A 
ATOM     62  C   UNL A   1      42.409  30.737  36.487  1.00  0.00     0.031 C 
ATOM     63  C   UNL A   1      42.665  29.214  34.544  1.00  0.00     0.037 A 
BRANCH  50  64
ATOM     64  C   UNL A   1      40.358  27.896  28.965  1.00  0.00     0.064 A 
ATOM     65  C   UNL A   1      41.099  28.190  27.809  1.00  0.00     0.173 A 
ATOM     66  C   UNL A   1      39.613  26.708  28.983  1.00  0.00     0.173 A 
ATOM     67  F   UNL A   1      41.819  29.318  27.738  1.00  0.00    -0.203 F 
ATOM     68  C   UNL A   1      41.062  27.346  26.702  1.00  0.00     0.198 A 
ATOM     69  C   UNL A   1      39.603  25.852  27.884  1.00  0.00     0.198 A 
ATOM     70  F   UNL A   1      38.892  26.377  30.064  1.00  0.00    -0.203 F 
ATOM     71  F   UNL A   1      41.731  27.677  25.588  1.00  0.00    -0.200 F 
ATOM     72  C   UNL A   1      40.319  26.177  26.742  1.00  0.00     0.200 A 
ATOM     73  F   UNL A   1      38.893  24.717  27.928  1.00  0.00    -0.200 F 
ATOM     74  F   UNL A   1      40.283  25.367  25.674  1.00  0.00    -0.200 F 
ENDBRANCH  50  64
BRANCH  51  75
ATOM     75  C   UNL A   1      39.659  33.927  36.885  1.00  0.00     0.064 A 
ATOM     76  C   UNL A   1      40.255  35.192  36.965  1.00  0.00     0.173 A 
ATOM     77  C   UNL A   1      38.864  33.507  37.961  1.00  0.00     0.173 A 
ATOM     78  F   UNL A   1      41.038  35.626  35.968  1.00  0.00    -0.203 F 
ATOM     79  C   UNL A   1      40.064  36.005  38.080  1.00  0.00     0.198 A 
ATOM     80  C   UNL A   1      38.655  34.331  39.065  1.00  0.00     0.198 A 
ATOM     81  F   UNL A   1      38.268  32.307  37.928  1.00  0.00    -0.203 F 
ATOM     82  F   UNL A   1      40.665  37.202  38.143  1.00  0.00    -0.200 F 
ATOM     83  C   UNL A   1      39.258  35.578  39.125  1.00  0.00     0.200 A 
ATOM     84  F   UNL A   1      37.862  33.921  40.065  1.00  0.00    -0.200 F 
ATOM     85  F   UNL A   1      39.062  36.368  40.189  1.00  0.00    -0.200 F 
ENDBRANCH  51  75
BRANCH  63  86
ATOM     86  C   UNL A   1      43.724  28.480  35.314  1.00  0.00     0.064 A 
ATOM     87  C   UNL A   1      45.080  28.812  35.184  1.00  0.00     0.173 A 
ATOM     88  C   UNL A   1      43.376  27.473  36.226  1.00  0.00     0.173 A 
ATOM     89  F   UNL A   1      45.463  29.756  34.310  1.00  0.00    -0.203 F 
ATOM     90  C   UNL A   1      46.052  28.153  35.932  1.00  0.00     0.198 A 
ATOM     91  C   UNL A   1      44.349  26.835  36.991  1.00  0.00     0.198 A 
ATOM     92  F   UNL A   1      42.093  27.121  36.389  1.00  0.00    -0.203 F 
ATOM     93  F   UNL A   1      47.346  28.462  35.767  1.00  0.00    -0.200 F 
ATOM     94  C   UNL A   1      45.685  27.172  36.840  1.00  0.00     0.200 A 
ATOM     95  F   UNL A   1      43.991  25.894  37.878  1.00  0.00    -0.200 F 
ATOM     96  F   UNL A   1      46.622  26.546  37.568  1.00  0.00    -0.200 F 
ENDBRANCH  63  86
ENDBRANCH  37  38
ENDBRANCH  29  32
ENDBRANCH  27  28
ENDBRANCH  26  27
ENDBRANCH   1  26
TORSDOF 14
ENDMDL
