MODEL 1
REMARK VINA RESULT:     -12.7      0.000      0.000
REMARK SMILES CSc1nc(N)cc(Nc2cccc(C(=O)NCCCCNC(=O)c3ccc(-c4c5nc(c(-c6c(F)c(F)c(F)c(F)c6F)c6ccc([nH]6)c(-c6c(F)c(F)c(F)c(F)c6F)c6nc(c(-c7c(F)c(F)c(F)c(F)c7F)c7ccc4[nH]7)C=C6)C=C5)cc3)c2)n1
REMARK SMILES IDX 19 1 18 2 17 3 15 4 16 5 14 7 10 8 11 9 88 10 12 11 13 12
REMARK SMILES IDX 9 13 8 15 3 16 4 17 89 18 5 19 7 20 2 21 1 22 6 23 20 26
REMARK SMILES IDX 21 27 22 28 23 29 24 31 25 32 26 33 87 34 27 35 86 36 28 37
REMARK SMILES IDX 29 38 30 39 80 40 31 41 85 42 79 43 81 44 32 45 84 46 78 47
REMARK SMILES IDX 77 48 33 50 65 51 45 52 64 53 46 54 49 55 63 56 82 57 47 58
REMARK SMILES IDX 48 59 62 61 83 62 50 63 34 64 35 65 43 66 36 67 37 68 41 69
REMARK SMILES IDX 44 70 38 71 39 72 42 73 40 74 66 75 67 76 75 77 68 78 69 79
REMARK SMILES IDX 73 80 76 81 70 82 71 83 74 84 72 85 51 86 52 87 60 88 53 89
REMARK SMILES IDX 54 90 58 91 61 92 55 93 56 94 59 95 57 96
REMARK H PARENT 17 6 9 14 6 24 6 25 22 30 81 49 49 60
REMARK Flexibility Score: inf
ROOT
ATOM      1  C   UNL A   1      31.543  30.810  26.171  1.00  0.00     0.023 C 
ENDROOT
BRANCH   1   2
ATOM      2  C   UNL A   1      31.950  29.824  27.259  1.00  0.00     0.116 C 
BRANCH   2   3
ATOM      3  N   UNL A   1      33.386  29.658  27.422  1.00  0.00    -0.352 N 
ATOM      4  C   UNL A   1      34.285  28.880  26.722  1.00  0.00     0.251 C 
ATOM      5  O   UNL A   1      35.466  28.886  27.065  1.00  0.00    -0.269 OA
ATOM      6  H   UNL A   1      33.781  30.186  28.153  1.00  0.00     0.163 HD
BRANCH   4   7
ATOM      7  C   UNL A   1      33.853  27.991  25.612  1.00  0.00     0.041 A 
ATOM      8  C   UNL A   1      32.669  27.662  23.505  1.00  0.00     0.040 A 
ATOM      9  C   UNL A   1      32.754  26.278  23.706  1.00  0.00     0.026 A 
ATOM     10  C   UNL A   1      33.304  28.495  24.431  1.00  0.00     0.040 A 
ATOM     11  C   UNL A   1      33.434  25.752  24.812  1.00  0.00     0.003 A 
ATOM     12  C   UNL A   1      33.965  26.608  25.775  1.00  0.00     0.014 A 
BRANCH   8  13
ATOM     13  N   UNL A   1      31.888  28.173  22.454  1.00  0.00    -0.340 N 
ATOM     14  H   UNL A   1      32.357  28.257  21.592  1.00  0.00     0.168 HD
BRANCH  13  15
ATOM     15  C   UNL A   1      30.540  28.585  22.439  1.00  0.00     0.137 A 
ATOM     16  C   UNL A   1      28.904  30.108  21.939  1.00  0.00     0.191 A 
ATOM     17  N   UNL A   1      27.928  29.370  22.478  1.00  0.00    -0.206 NA
ATOM     18  N   UNL A   1      30.200  29.770  21.911  1.00  0.00    -0.205 NA
ATOM     19  C   UNL A   1      28.288  28.203  23.011  1.00  0.00     0.130 A 
ATOM     20  C   UNL A   1      29.593  27.767  23.026  1.00  0.00     0.093 A 
BRANCH  16  21
ATOM     21  S   UNL A   1      28.426  31.631  21.164  1.00  0.00    -0.090 SA
ATOM     22  C   UNL A   1      28.752  32.757  22.537  1.00  0.00     0.094 C 
ENDBRANCH  16  21
BRANCH  19  23
ATOM     23  N   UNL A   1      27.285  27.468  23.616  1.00  0.00    -0.383 N 
ATOM     24  H   UNL A   1      27.250  27.396  24.597  1.00  0.00     0.158 HD
ATOM     25  H   UNL A   1      26.607  27.016  23.064  1.00  0.00     0.158 HD
ENDBRANCH  19  23
ENDBRANCH  13  15
ENDBRANCH   8  13
ENDBRANCH   4   7
ENDBRANCH   2   3
ENDBRANCH   1   2
BRANCH   1  26
ATOM     26  C   UNL A   1      31.351  32.257  26.603  1.00  0.00     0.023 C 
BRANCH  26  27
ATOM     27  C   UNL A   1      32.529  32.907  27.321  1.00  0.00     0.116 C 
BRANCH  27  28
ATOM     28  N   UNL A   1      32.302  34.293  27.704  1.00  0.00    -0.352 N 
ATOM     29  C   UNL A   1      32.973  35.079  28.613  1.00  0.00     0.251 C 
ATOM     30  H   UNL A   1      31.554  34.736  27.240  1.00  0.00     0.163 HD
ATOM     31  O   UNL A   1      32.583  36.215  28.852  1.00  0.00    -0.269 OA
BRANCH  29  32
ATOM     32  C   UNL A   1      34.140  34.536  29.344  1.00  0.00     0.039 A 
ATOM     33  C   UNL A   1      33.929  33.923  30.582  1.00  0.00     0.014 A 
ATOM     34  C   UNL A   1      35.426  34.597  28.804  1.00  0.00     0.014 A 
ATOM     35  C   UNL A   1      34.989  33.286  31.232  1.00  0.00     0.010 A 
ATOM     36  C   UNL A   1      36.462  33.891  29.407  1.00  0.00     0.010 A 
ATOM     37  C   UNL A   1      36.253  33.221  30.624  1.00  0.00    -0.014 A 
BRANCH  37  38
ATOM     38  C   UNL A   1      37.363  32.441  31.229  1.00  0.00     0.031 A 
ATOM     39  C   UNL A   1      37.878  32.793  32.596  1.00  0.00     0.074 A 
ATOM     40  C   UNL A   1      37.969  31.475  30.510  1.00  0.00     0.049 A 
ATOM     41  N   UNL A   1      38.894  32.291  33.253  1.00  0.00    -0.248 NA
ATOM     42  C   UNL A   1      37.181  33.877  33.304  1.00  0.00     0.031 C 
ATOM     43  C   UNL A   1      37.609  31.086  29.145  1.00  0.00     0.029 A 
ATOM     44  N   UNL A   1      39.028  30.659  30.819  1.00  0.00    -0.354 N 
ATOM     45  C   UNL A   1      38.971  33.015  34.436  1.00  0.00     0.074 A 
ATOM     46  C   UNL A   1      37.932  34.021  34.385  1.00  0.00     0.031 C 
ATOM     47  C   UNL A   1      38.423  30.098  28.740  1.00  0.00     0.029 A 
ATOM     48  C   UNL A   1      39.383  29.806  29.801  1.00  0.00     0.049 A 
ATOM     49  H   UNL A   1      39.491  30.682  31.688  1.00  0.00     0.167 HD
ATOM     50  C   UNL A   1      39.818  32.841  35.479  1.00  0.00     0.037 A 
ATOM     51  C   UNL A   1      40.374  28.899  29.728  1.00  0.00     0.037 A 
ATOM     52  C   UNL A   1      40.823  31.814  35.543  1.00  0.00     0.049 A 
ATOM     53  C   UNL A   1      41.279  28.700  30.913  1.00  0.00     0.074 A 
ATOM     54  C   UNL A   1      41.669  31.499  36.593  1.00  0.00     0.029 A 
ATOM     55  N   UNL A   1      41.121  30.936  34.511  1.00  0.00    -0.354 N 
ATOM     56  N   UNL A   1      41.287  29.331  32.062  1.00  0.00    -0.248 NA
ATOM     57  C   UNL A   1      42.307  27.657  30.796  1.00  0.00     0.031 C 
ATOM     58  C   UNL A   1      42.508  30.458  36.180  1.00  0.00     0.029 A 
ATOM     59  C   UNL A   1      42.154  30.093  34.891  1.00  0.00     0.049 A 
ATOM     60  H   UNL A   1      40.666  30.915  33.638  1.00  0.00     0.167 HD
ATOM     61  C   UNL A   1      42.299  28.749  32.811  1.00  0.00     0.074 A 
ATOM     62  C   UNL A   1      42.876  27.702  31.992  1.00  0.00     0.031 C 
ATOM     63  C   UNL A   1      42.715  29.055  34.065  1.00  0.00     0.037 A 
BRANCH  50  64
ATOM     64  C   UNL A   1      39.687  33.784  36.640  1.00  0.00     0.064 A 
ATOM     65  C   UNL A   1      40.333  35.029  36.654  1.00  0.00     0.173 A 
ATOM     66  C   UNL A   1      38.886  33.448  37.742  1.00  0.00     0.173 A 
ATOM     67  F   UNL A   1      41.119  35.395  35.630  1.00  0.00    -0.203 F 
ATOM     68  C   UNL A   1      40.210  35.889  37.744  1.00  0.00     0.198 A 
ATOM     69  C   UNL A   1      38.741  34.322  38.816  1.00  0.00     0.198 A 
ATOM     70  F   UNL A   1      38.242  32.272  37.777  1.00  0.00    -0.203 F 
ATOM     71  F   UNL A   1      40.880  37.049  37.758  1.00  0.00    -0.200 F 
ATOM     72  C   UNL A   1      39.409  35.537  38.820  1.00  0.00     0.200 A 
ATOM     73  F   UNL A   1      37.957  33.987  39.850  1.00  0.00    -0.200 F 
ATOM     74  F   UNL A   1      39.289  36.367  39.865  1.00  0.00    -0.200 F 
ENDBRANCH  50  64
BRANCH  51  75
ATOM     75  C   UNL A   1      40.544  28.089  28.494  1.00  0.00     0.064 A 
ATOM     76  C   UNL A   1      41.326  28.555  27.429  1.00  0.00     0.173 A 
ATOM     77  C   UNL A   1      39.939  26.830  28.359  1.00  0.00     0.173 A 
ATOM     78  F   UNL A   1      41.907  29.761  27.504  1.00  0.00    -0.203 F 
ATOM     79  C   UNL A   1      41.483  27.801  26.267  1.00  0.00     0.198 A 
ATOM     80  C   UNL A   1      40.119  26.066  27.208  1.00  0.00     0.198 A 
ATOM     81  F   UNL A   1      39.187  26.336  29.353  1.00  0.00    -0.203 F 
ATOM     82  F   UNL A   1      42.203  28.288  25.248  1.00  0.00    -0.200 F 
ATOM     83  C   UNL A   1      40.885  26.555  26.160  1.00  0.00     0.200 A 
ATOM     84  F   UNL A   1      39.552  24.856  27.114  1.00  0.00    -0.200 F 
ATOM     85  F   UNL A   1      41.043  25.828  25.046  1.00  0.00    -0.200 F 
ENDBRANCH  51  75
BRANCH  63  86
ATOM     86  C   UNL A   1      43.830  28.232  34.639  1.00  0.00     0.064 A 
ATOM     87  C   UNL A   1      45.168  28.643  34.552  1.00  0.00     0.173 A 
ATOM     88  C   UNL A   1      43.552  27.038  35.324  1.00  0.00     0.173 A 
ATOM     89  F   UNL A   1      45.487  29.769  33.895  1.00  0.00    -0.203 F 
ATOM     90  C   UNL A   1      46.189  27.878  35.109  1.00  0.00     0.198 A 
ATOM     91  C   UNL A   1      44.573  26.291  35.905  1.00  0.00     0.198 A 
ATOM     92  F   UNL A   1      42.288  26.605  35.440  1.00  0.00    -0.203 F 
ATOM     93  F   UNL A   1      47.465  28.268  34.975  1.00  0.00    -0.200 F 
ATOM     94  C   UNL A   1      45.890  26.708  35.791  1.00  0.00     0.200 A 
ATOM     95  F   UNL A   1      44.280  25.167  36.572  1.00  0.00    -0.200 F 
ATOM     96  F   UNL A   1      46.874  25.977  36.334  1.00  0.00    -0.200 F 
ENDBRANCH  63  86
ENDBRANCH  37  38
ENDBRANCH  29  32
ENDBRANCH  27  28
ENDBRANCH  26  27
ENDBRANCH   1  26
TORSDOF 15
ENDMDL
MODEL 2
REMARK VINA RESULT:     -12.6      0.961      7.454
REMARK SMILES CSc1nc(N)cc(Nc2cccc(C(=O)NCCCCNC(=O)c3ccc(-c4c5nc(c(-c6c(F)c(F)c(F)c(F)c6F)c6ccc([nH]6)c(-c6c(F)c(F)c(F)c(F)c6F)c6nc(c(-c7c(F)c(F)c(F)c(F)c7F)c7ccc4[nH]7)C=C6)C=C5)cc3)c2)n1
REMARK SMILES IDX 19 1 18 2 17 3 15 4 16 5 14 7 10 8 11 9 88 10 12 11 13 12
REMARK SMILES IDX 9 13 8 15 3 16 4 17 89 18 5 19 7 20 2 21 1 22 6 23 20 26
REMARK SMILES IDX 21 27 22 28 23 29 24 31 25 32 26 33 87 34 27 35 86 36 28 37
REMARK SMILES IDX 29 38 30 39 80 40 31 41 85 42 79 43 81 44 32 45 84 46 78 47
REMARK SMILES IDX 77 48 33 50 65 51 45 52 64 53 46 54 49 55 63 56 82 57 47 58
REMARK SMILES IDX 48 59 62 61 83 62 50 63 34 64 35 65 43 66 36 67 37 68 41 69
REMARK SMILES IDX 44 70 38 71 39 72 42 73 40 74 66 75 67 76 75 77 68 78 69 79
REMARK SMILES IDX 73 80 76 81 70 82 71 83 74 84 72 85 51 86 52 87 60 88 53 89
REMARK SMILES IDX 54 90 58 91 61 92 55 93 56 94 59 95 57 96
REMARK H PARENT 17 6 9 14 6 24 6 25 22 30 81 49 49 60
REMARK Flexibility Score: inf
ROOT
ATOM      1  C   UNL A   1      32.029  30.572  26.362  1.00  0.00     0.023 C 
ENDROOT
BRANCH   1   2
ATOM      2  C   UNL A   1      32.854  29.664  27.264  1.00  0.00     0.116 C 
BRANCH   2   3
ATOM      3  N   UNL A   1      32.233  28.385  27.571  1.00  0.00    -0.352 N 
ATOM      4  C   UNL A   1      32.021  27.275  26.778  1.00  0.00     0.251 C 
ATOM      5  O   UNL A   1      31.444  26.304  27.262  1.00  0.00    -0.269 OA
ATOM      6  H   UNL A   1      31.908  28.296  28.497  1.00  0.00     0.163 HD
BRANCH   4   7
ATOM      7  C   UNL A   1      32.413  27.251  25.344  1.00  0.00     0.041 A 
ATOM      8  C   UNL A   1      31.929  27.770  23.011  1.00  0.00     0.040 A 
ATOM      9  C   UNL A   1      32.972  26.914  22.634  1.00  0.00     0.026 A 
ATOM     10  C   UNL A   1      31.727  27.988  24.377  1.00  0.00     0.040 A 
ATOM     11  C   UNL A   1      33.768  26.282  23.597  1.00  0.00     0.003 A 
ATOM     12  C   UNL A   1      33.476  26.434  24.951  1.00  0.00     0.014 A 
BRANCH   8  13
ATOM     13  N   UNL A   1      31.071  28.305  22.035  1.00  0.00    -0.340 N 
ATOM     14  H   UNL A   1      31.403  28.237  21.109  1.00  0.00     0.168 HD
BRANCH  13  15
ATOM     15  C   UNL A   1      29.813  28.924  22.170  1.00  0.00     0.137 A 
ATOM     16  C   UNL A   1      28.428  30.739  21.976  1.00  0.00     0.191 A 
ATOM     17  N   UNL A   1      27.374  30.103  22.500  1.00  0.00    -0.206 NA
ATOM     18  N   UNL A   1      29.646  30.206  21.810  1.00  0.00    -0.205 NA
ATOM     19  C   UNL A   1      27.564  28.836  22.865  1.00  0.00     0.130 A 
ATOM     20  C   UNL A   1      28.777  28.200  22.730  1.00  0.00     0.093 A 
BRANCH  16  21
ATOM     21  S   UNL A   1      28.168  32.404  21.421  1.00  0.00    -0.090 SA
ATOM     22  C   UNL A   1      28.827  33.283  22.853  1.00  0.00     0.094 C 
ENDBRANCH  16  21
BRANCH  19  23
ATOM     23  N   UNL A   1      26.489  28.200  23.456  1.00  0.00    -0.383 N 
ATOM     24  H   UNL A   1      25.577  28.364  23.124  1.00  0.00     0.158 HD
ATOM     25  H   UNL A   1      26.635  27.583  24.209  1.00  0.00     0.158 HD
ENDBRANCH  19  23
ENDBRANCH  13  15
ENDBRANCH   8  13
ENDBRANCH   4   7
ENDBRANCH   2   3
ENDBRANCH   1   2
BRANCH   1  26
ATOM     26  C   UNL A   1      31.665  31.939  26.926  1.00  0.00     0.023 C 
BRANCH  26  27
ATOM     27  C   UNL A   1      32.832  32.842  27.310  1.00  0.00     0.116 C 
BRANCH  27  28
ATOM     28  N   UNL A   1      32.440  34.189  27.695  1.00  0.00    -0.352 N 
ATOM     29  C   UNL A   1      32.984  35.031  28.639  1.00  0.00     0.251 C 
ATOM     30  H   UNL A   1      31.669  34.556  27.205  1.00  0.00     0.163 HD
ATOM     31  O   UNL A   1      32.464  36.115  28.872  1.00  0.00    -0.269 OA
BRANCH  29  32
ATOM     32  C   UNL A   1      34.172  34.607  29.414  1.00  0.00     0.039 A 
ATOM     33  C   UNL A   1      33.987  34.118  30.710  1.00  0.00     0.014 A 
ATOM     34  C   UNL A   1      35.453  34.657  28.861  1.00  0.00     0.014 A 
ATOM     35  C   UNL A   1      35.072  33.589  31.414  1.00  0.00     0.010 A 
ATOM     36  C   UNL A   1      36.516  34.054  29.527  1.00  0.00     0.010 A 
ATOM     37  C   UNL A   1      36.335  33.506  30.807  1.00  0.00    -0.014 A 
BRANCH  37  38
ATOM     38  C   UNL A   1      37.475  32.832  31.482  1.00  0.00     0.031 A 
ATOM     39  C   UNL A   1      38.154  31.661  30.831  1.00  0.00     0.074 A 
ATOM     40  C   UNL A   1      37.837  33.217  32.721  1.00  0.00     0.049 A 
ATOM     41  N   UNL A   1      39.103  30.888  31.298  1.00  0.00    -0.248 NA
ATOM     42  C   UNL A   1      37.682  31.286  29.489  1.00  0.00     0.031 C 
ATOM     43  C   UNL A   1      37.211  34.293  33.490  1.00  0.00     0.029 A 
ATOM     44  N   UNL A   1      38.809  32.732  33.561  1.00  0.00    -0.354 N 
ATOM     45  C   UNL A   1      39.319  29.925  30.321  1.00  0.00     0.074 A 
ATOM     46  C   UNL A   1      38.371  30.181  29.258  1.00  0.00     0.031 C 
ATOM     47  C   UNL A   1      37.821  34.397  34.681  1.00  0.00     0.029 A 
ATOM     48  C   UNL A   1      38.859  33.374  34.775  1.00  0.00     0.049 A 
ATOM     49  H   UNL A   1      39.413  31.993  33.318  1.00  0.00     0.167 HD
ATOM     50  C   UNL A   1      40.240  28.932  30.304  1.00  0.00     0.037 A 
ATOM     51  C   UNL A   1      39.647  33.158  35.845  1.00  0.00     0.037 A 
ATOM     52  C   UNL A   1      41.207  28.705  31.345  1.00  0.00     0.049 A 
ATOM     53  C   UNL A   1      40.685  32.071  35.787  1.00  0.00     0.074 A 
ATOM     54  C   UNL A   1      42.238  27.783  31.379  1.00  0.00     0.029 A 
ATOM     55  N   UNL A   1      41.259  29.409  32.539  1.00  0.00    -0.354 N 
ATOM     56  N   UNL A   1      40.940  31.222  34.822  1.00  0.00    -0.248 NA
ATOM     57  C   UNL A   1      41.552  31.919  36.964  1.00  0.00     0.031 C 
ATOM     58  C   UNL A   1      42.888  27.900  32.612  1.00  0.00     0.029 A 
ATOM     59  C   UNL A   1      42.291  28.925  33.328  1.00  0.00     0.049 A 
ATOM     60  H   UNL A   1      40.652  30.142  32.790  1.00  0.00     0.167 HD
ATOM     61  C   UNL A   1      42.007  30.452  35.262  1.00  0.00     0.074 A 
ATOM     62  C   UNL A   1      42.363  30.945  36.577  1.00  0.00     0.031 C 
ATOM     63  C   UNL A   1      42.635  29.427  34.634  1.00  0.00     0.037 A 
BRANCH  50  64
ATOM     64  C   UNL A   1      40.246  28.015  29.115  1.00  0.00     0.064 A 
ATOM     65  C   UNL A   1      39.527  26.810  29.109  1.00  0.00     0.173 A 
ATOM     66  C   UNL A   1      40.959  28.359  27.957  1.00  0.00     0.173 A 
ATOM     67  F   UNL A   1      38.837  26.430  30.195  1.00  0.00    -0.203 F 
ATOM     68  C   UNL A   1      39.551  25.965  28.002  1.00  0.00     0.198 A 
ATOM     69  C   UNL A   1      40.956  27.527  26.839  1.00  0.00     0.198 A 
ATOM     70  F   UNL A   1      41.658  29.502  27.906  1.00  0.00    -0.203 F 
ATOM     71  F   UNL A   1      38.901  24.794  28.041  1.00  0.00    -0.200 F 
ATOM     72  C   UNL A   1      40.260  26.328  26.866  1.00  0.00     0.200 A 
ATOM     73  F   UNL A   1      41.631  27.883  25.738  1.00  0.00    -0.200 F 
ATOM     74  F   UNL A   1      40.279  25.516  25.800  1.00  0.00    -0.200 F 
ENDBRANCH  50  64
BRANCH  51  75
ATOM     75  C   UNL A   1      39.500  34.009  37.054  1.00  0.00     0.064 A 
ATOM     76  C   UNL A   1      38.778  33.560  38.168  1.00  0.00     0.173 A 
ATOM     77  C   UNL A   1      40.085  35.282  37.125  1.00  0.00     0.173 A 
ATOM     78  F   UNL A   1      38.183  32.358  38.138  1.00  0.00    -0.203 F 
ATOM     79  C   UNL A   1      38.632  34.358  39.301  1.00  0.00     0.198 A 
ATOM     80  C   UNL A   1      39.961  36.067  38.269  1.00  0.00     0.198 A 
ATOM     81  F   UNL A   1      40.792  35.755  36.088  1.00  0.00    -0.203 F 
ATOM     82  F   UNL A   1      37.904  33.920  40.336  1.00  0.00    -0.200 F 
ATOM     83  C   UNL A   1      39.229  35.608  39.354  1.00  0.00     0.200 A 
ATOM     84  F   UNL A   1      40.551  37.269  38.321  1.00  0.00    -0.200 F 
ATOM     85  F   UNL A   1      39.095  36.371  40.447  1.00  0.00    -0.200 F 
ENDBRANCH  51  75
BRANCH  63  86
ATOM     86  C   UNL A   1      43.788  28.787  35.348  1.00  0.00     0.064 A 
ATOM     87  C   UNL A   1      45.107  29.221  35.150  1.00  0.00     0.173 A 
ATOM     88  C   UNL A   1      43.567  27.756  36.274  1.00  0.00     0.173 A 
ATOM     89  F   UNL A   1      45.372  30.193  34.264  1.00  0.00    -0.203 F 
ATOM     90  C   UNL A   1      46.165  28.631  35.836  1.00  0.00     0.198 A 
ATOM     91  C   UNL A   1      44.623  27.188  36.980  1.00  0.00     0.198 A 
ATOM     92  F   UNL A   1      42.323  27.309  36.503  1.00  0.00    -0.203 F 
ATOM     93  F   UNL A   1      47.422  29.031  35.598  1.00  0.00    -0.200 F 
ATOM     94  C   UNL A   1      45.921  27.621  36.755  1.00  0.00     0.200 A 
ATOM     95  F   UNL A   1      44.385  26.221  37.875  1.00  0.00    -0.200 F 
ATOM     96  F   UNL A   1      46.940  27.059  37.421  1.00  0.00    -0.200 F 
ENDBRANCH  63  86
ENDBRANCH  37  38
ENDBRANCH  29  32
ENDBRANCH  27  28
ENDBRANCH  26  27
ENDBRANCH   1  26
TORSDOF 15
ENDMDL
MODEL 3
REMARK VINA RESULT:     -12.4      6.480     11.291
REMARK SMILES CSc1nc(N)cc(Nc2cccc(C(=O)NCCCCNC(=O)c3ccc(-c4c5nc(c(-c6c(F)c(F)c(F)c(F)c6F)c6ccc([nH]6)c(-c6c(F)c(F)c(F)c(F)c6F)c6nc(c(-c7c(F)c(F)c(F)c(F)c7F)c7ccc4[nH]7)C=C6)C=C5)cc3)c2)n1
REMARK SMILES IDX 19 1 18 2 17 3 15 4 16 5 14 7 10 8 11 9 88 10 12 11 13 12
REMARK SMILES IDX 9 13 8 15 3 16 4 17 89 18 5 19 7 20 2 21 1 22 6 23 20 26
REMARK SMILES IDX 21 27 22 28 23 29 24 31 25 32 26 33 87 34 27 35 86 36 28 37
REMARK SMILES IDX 29 38 30 39 80 40 31 41 85 42 79 43 81 44 32 45 84 46 78 47
REMARK SMILES IDX 77 48 33 50 65 51 45 52 64 53 46 54 49 55 63 56 82 57 47 58
REMARK SMILES IDX 48 59 62 61 83 62 50 63 34 64 35 65 43 66 36 67 37 68 41 69
REMARK SMILES IDX 44 70 38 71 39 72 42 73 40 74 66 75 67 76 75 77 68 78 69 79
REMARK SMILES IDX 73 80 76 81 70 82 71 83 74 84 72 85 51 86 52 87 60 88 53 89
REMARK SMILES IDX 54 90 58 91 61 92 55 93 56 94 59 95 57 96
REMARK H PARENT 17 6 9 14 6 24 6 25 22 30 81 49 49 60
REMARK Flexibility Score: inf
ROOT
ATOM      1  C   UNL A   1      39.300  22.594  26.493  1.00  0.00     0.023 C 
ENDROOT
BRANCH   1   2
ATOM      2  C   UNL A   1      38.119  23.473  26.103  1.00  0.00     0.116 C 
BRANCH   2   3
ATOM      3  N   UNL A   1      37.740  23.395  24.701  1.00  0.00    -0.352 N 
ATOM      4  C   UNL A   1      36.497  23.284  24.111  1.00  0.00     0.251 C 
ATOM      5  O   UNL A   1      36.428  23.210  22.886  1.00  0.00    -0.269 OA
ATOM      6  H   UNL A   1      38.494  23.426  24.068  1.00  0.00     0.163 HD
BRANCH   4   7
ATOM      7  C   UNL A   1      35.253  23.186  24.919  1.00  0.00     0.041 A 
ATOM      8  C   UNL A   1      33.336  21.897  25.700  1.00  0.00     0.040 A 
ATOM      9  C   UNL A   1      32.754  23.090  26.149  1.00  0.00     0.026 A 
ATOM     10  C   UNL A   1      34.627  21.963  25.167  1.00  0.00     0.040 A 
ATOM     11  C   UNL A   1      33.435  24.308  26.042  1.00  0.00     0.003 A 
ATOM     12  C   UNL A   1      34.675  24.359  25.409  1.00  0.00     0.014 A 
BRANCH   8  13
ATOM     13  N   UNL A   1      32.593  20.704  25.712  1.00  0.00    -0.340 N 
ATOM     14  H   UNL A   1      31.888  20.661  26.398  1.00  0.00     0.168 HD
BRANCH  13  15
ATOM     15  C   UNL A   1      32.699  19.559  24.898  1.00  0.00     0.137 A 
ATOM     16  C   UNL A   1      33.315  17.379  24.554  1.00  0.00     0.191 A 
ATOM     17  N   UNL A   1      32.936  17.380  23.272  1.00  0.00    -0.206 NA
ATOM     18  N   UNL A   1      33.232  18.428  25.384  1.00  0.00    -0.205 NA
ATOM     19  C   UNL A   1      32.423  18.517  22.803  1.00  0.00     0.130 A 
ATOM     20  C   UNL A   1      32.292  19.646  23.579  1.00  0.00     0.093 A 
BRANCH  16  21
ATOM     21  S   UNL A   1      33.935  15.851  25.209  1.00  0.00    -0.090 SA
ATOM     22  C   UNL A   1      32.366  15.092  25.682  1.00  0.00     0.094 C 
ENDBRANCH  16  21
BRANCH  19  23
ATOM     23  N   UNL A   1      32.082  18.530  21.464  1.00  0.00    -0.383 N 
ATOM     24  H   UNL A   1      31.414  17.896  21.119  1.00  0.00     0.158 HD
ATOM     25  H   UNL A   1      32.509  19.175  20.854  1.00  0.00     0.158 HD
ENDBRANCH  19  23
ENDBRANCH  13  15
ENDBRANCH   8  13
ENDBRANCH   4   7
ENDBRANCH   2   3
ENDBRANCH   1   2
BRANCH   1  26
ATOM     26  C   UNL A   1      39.462  21.293  25.717  1.00  0.00     0.023 C 
BRANCH  26  27
ATOM     27  C   UNL A   1      39.703  20.039  26.550  1.00  0.00     0.116 C 
BRANCH  27  28
ATOM     28  N   UNL A   1      40.773  19.189  26.050  1.00  0.00    -0.352 N 
ATOM     29  C   UNL A   1      42.116  19.456  25.902  1.00  0.00     0.251 C 
ATOM     30  H   UNL A   1      40.495  18.284  25.777  1.00  0.00     0.163 HD
ATOM     31  O   UNL A   1      42.856  18.626  25.390  1.00  0.00    -0.269 OA
BRANCH  29  32
ATOM     32  C   UNL A   1      42.660  20.769  26.314  1.00  0.00     0.039 A 
ATOM     33  C   UNL A   1      43.134  21.638  25.327  1.00  0.00     0.014 A 
ATOM     34  C   UNL A   1      42.675  21.159  27.654  1.00  0.00     0.014 A 
ATOM     35  C   UNL A   1      43.531  22.932  25.672  1.00  0.00     0.010 A 
ATOM     36  C   UNL A   1      42.989  22.473  27.988  1.00  0.00     0.010 A 
ATOM     37  C   UNL A   1      43.412  23.377  26.999  1.00  0.00    -0.014 A 
BRANCH  37  38
ATOM     38  C   UNL A   1      43.703  24.785  27.372  1.00  0.00     0.031 A 
ATOM     39  C   UNL A   1      45.124  25.260  27.486  1.00  0.00     0.074 A 
ATOM     40  C   UNL A   1      42.689  25.611  27.698  1.00  0.00     0.049 A 
ATOM     41  N   UNL A   1      45.580  26.421  27.885  1.00  0.00    -0.248 NA
ATOM     42  C   UNL A   1      46.173  24.289  27.140  1.00  0.00     0.031 C 
ATOM     43  C   UNL A   1      41.270  25.251  27.696  1.00  0.00     0.029 A 
ATOM     44  N   UNL A   1      42.698  26.919  28.114  1.00  0.00    -0.354 N 
ATOM     45  C   UNL A   1      46.964  26.309  27.861  1.00  0.00     0.074 A 
ATOM     46  C   UNL A   1      47.273  24.954  27.457  1.00  0.00     0.031 C 
ATOM     47  C   UNL A   1      40.545  26.314  28.077  1.00  0.00     0.029 A 
ATOM     48  C   UNL A   1      41.447  27.421  28.383  1.00  0.00     0.049 A 
ATOM     49  H   UNL A   1      43.523  27.449  28.211  1.00  0.00     0.167 HD
ATOM     50  C   UNL A   1      47.893  27.258  28.131  1.00  0.00     0.037 A 
ATOM     51  C   UNL A   1      41.071  28.632  28.833  1.00  0.00     0.037 A 
ATOM     52  C   UNL A   1      47.582  28.614  28.494  1.00  0.00     0.049 A 
ATOM     53  C   UNL A   1      42.119  29.679  29.092  1.00  0.00     0.074 A 
ATOM     54  C   UNL A   1      48.450  29.673  28.699  1.00  0.00     0.029 A 
ATOM     55  N   UNL A   1      46.301  29.100  28.710  1.00  0.00    -0.354 N 
ATOM     56  N   UNL A   1      43.422  29.590  28.982  1.00  0.00    -0.248 NA
ATOM     57  C   UNL A   1      41.644  31.000  29.529  1.00  0.00     0.031 C 
ATOM     58  C   UNL A   1      47.696  30.788  29.081  1.00  0.00     0.029 A 
ATOM     59  C   UNL A   1      46.356  30.438  29.068  1.00  0.00     0.049 A 
ATOM     60  H   UNL A   1      45.474  28.572  28.622  1.00  0.00     0.167 HD
ATOM     61  C   UNL A   1      43.920  30.842  29.311  1.00  0.00     0.074 A 
ATOM     62  C   UNL A   1      42.778  31.681  29.612  1.00  0.00     0.031 C 
ATOM     63  C   UNL A   1      45.209  31.260  29.362  1.00  0.00     0.037 A 
BRANCH  50  64
ATOM     64  C   UNL A   1      49.337  26.858  28.039  1.00  0.00     0.064 A 
ATOM     65  C   UNL A   1      50.080  26.513  29.178  1.00  0.00     0.173 A 
ATOM     66  C   UNL A   1      49.978  26.794  26.793  1.00  0.00     0.173 A 
ATOM     67  F   UNL A   1      49.517  26.568  30.394  1.00  0.00    -0.203 F 
ATOM     68  C   UNL A   1      51.423  26.154  29.076  1.00  0.00     0.198 A 
ATOM     69  C   UNL A   1      51.312  26.405  26.691  1.00  0.00     0.198 A 
ATOM     70  F   UNL A   1      49.312  27.107  25.672  1.00  0.00    -0.203 F 
ATOM     71  F   UNL A   1      52.127  25.883  30.184  1.00  0.00    -0.200 F 
ATOM     72  C   UNL A   1      52.035  26.094  27.833  1.00  0.00     0.200 A 
ATOM     73  F   UNL A   1      51.899  26.335  25.489  1.00  0.00    -0.200 F 
ATOM     74  F   UNL A   1      53.325  25.745  27.737  1.00  0.00    -0.200 F 
ENDBRANCH  50  64
BRANCH  51  75
ATOM     75  C   UNL A   1      39.630  28.927  29.042  1.00  0.00     0.064 A 
ATOM     76  C   UNL A   1      38.824  29.365  27.983  1.00  0.00     0.173 A 
ATOM     77  C   UNL A   1      39.027  28.768  30.299  1.00  0.00     0.173 A 
ATOM     78  F   UNL A   1      39.360  29.551  26.767  1.00  0.00    -0.203 F 
ATOM     79  C   UNL A   1      37.473  29.649  28.175  1.00  0.00     0.198 A 
ATOM     80  C   UNL A   1      37.671  29.027  30.483  1.00  0.00     0.198 A 
ATOM     81  F   UNL A   1      39.754  28.345  31.343  1.00  0.00    -0.203 F 
ATOM     82  F   UNL A   1      36.734  30.103  27.154  1.00  0.00    -0.200 F 
ATOM     83  C   UNL A   1      36.896  29.473  29.423  1.00  0.00     0.200 A 
ATOM     84  F   UNL A   1      37.114  28.842  31.688  1.00  0.00    -0.200 F 
ATOM     85  F   UNL A   1      35.596  29.739  29.606  1.00  0.00    -0.200 F 
ENDBRANCH  51  75
BRANCH  63  86
ATOM     86  C   UNL A   1      45.454  32.693  29.730  1.00  0.00     0.064 A 
ATOM     87  C   UNL A   1      45.712  33.079  31.053  1.00  0.00     0.173 A 
ATOM     88  C   UNL A   1      45.473  33.688  28.740  1.00  0.00     0.173 A 
ATOM     89  F   UNL A   1      45.691  32.167  32.038  1.00  0.00    -0.203 F 
ATOM     90  C   UNL A   1      45.958  34.410  31.376  1.00  0.00     0.198 A 
ATOM     91  C   UNL A   1      45.747  35.014  29.061  1.00  0.00     0.198 A 
ATOM     92  F   UNL A   1      45.237  33.370  27.458  1.00  0.00    -0.203 F 
ATOM     93  F   UNL A   1      46.159  34.762  32.653  1.00  0.00    -0.200 F 
ATOM     94  C   UNL A   1      45.983  35.374  30.379  1.00  0.00     0.200 A 
ATOM     95  F   UNL A   1      45.782  35.942  28.096  1.00  0.00    -0.200 F 
ATOM     96  F   UNL A   1      46.228  36.656  30.690  1.00  0.00    -0.200 F 
ENDBRANCH  63  86
ENDBRANCH  37  38
ENDBRANCH  29  32
ENDBRANCH  27  28
ENDBRANCH  26  27
ENDBRANCH   1  26
TORSDOF 15
ENDMDL
