MODEL 1
REMARK VINA RESULT:     -14.4      0.000      0.000
REMARK SMILES COc1cc(Cl)c(C)cc1N1C(=O)C[C@H](Nc2cc(C(=O)NCCCCNC(=O)c3ccc(-c4c5nc(c(-c6c(F)c(F)c(F)c(F)c6F)c6ccc([nH]6)c(-c6c(F)c(F)c(F)c(F)c6F)c6nc(c(-c7c(F)c(F)c(F)c(F)c7F)c7ccc4[nH]7)C=C6)C=C5)cc3)ccc2C)C1=O
REMARK SMILES IDX 23 1 22 2 20 3 21 4 19 6 17 7 18 8 95 9 94 10 96 11 93 12
REMARK SMILES IDX 16 13 15 15 11 16 12 17 97 18 13 19 14 20 98 21 10 22 3 23
REMARK SMILES IDX 4 24 5 25 9 26 6 27 7 28 8 29 2 30 1 31 24 32 25 33 26 34
REMARK SMILES IDX 27 35 28 36 29 38 30 39 31 40 92 41 32 42 91 43 33 44 34 45
REMARK SMILES IDX 35 46 85 47 36 48 90 49 84 50 86 51 37 52 89 53 83 54 82 55
REMARK SMILES IDX 38 57 70 58 50 59 69 60 51 61 54 62 68 63 87 64 52 65 53 66
REMARK SMILES IDX 67 68 88 69 55 70 39 71 40 72 48 73 41 74 42 75 46 76 49 77
REMARK SMILES IDX 43 78 44 79 47 80 45 81 71 82 72 83 80 84 73 85 74 86 78 87
REMARK SMILES IDX 81 88 75 89 76 90 79 91 77 92 56 93 57 94 65 95 58 96 59 97
REMARK SMILES IDX 63 98 66 99 60 100 61 101 64 102 62 103
REMARK H PARENT 22 5 16 14 27 37 86 56 54 67
REMARK Flexibility Score: inf
ROOT
ATOM      1  C   UNL A   1      30.271  31.128  24.911  1.00  0.00     0.116 C 
ENDROOT
BRANCH   1   2
ATOM      2  N   UNL A   1      30.005  30.429  23.665  1.00  0.00    -0.352 N 
ATOM      3  C   UNL A   1      30.410  29.238  23.120  1.00  0.00     0.251 C 
ATOM      4  O   UNL A   1      29.927  28.968  22.015  1.00  0.00    -0.269 OA
ATOM      5  H   UNL A   1      29.392  30.926  23.076  1.00  0.00     0.163 HD
BRANCH   3   6
ATOM      6  C   UNL A   1      31.344  28.254  23.751  1.00  0.00     0.041 A 
ATOM      7  C   UNL A   1      31.926  26.335  25.168  1.00  0.00     0.038 A 
ATOM      8  C   UNL A   1      30.995  27.269  24.677  1.00  0.00     0.039 A 
ATOM      9  C   UNL A   1      33.279  26.474  24.820  1.00  0.00    -0.028 A 
ATOM     10  C   UNL A   1      33.653  27.486  23.929  1.00  0.00     0.006 A 
ATOM     11  C   UNL A   1      34.353  25.569  25.361  1.00  0.00     0.046 C 
ATOM     12  C   UNL A   1      32.697  28.349  23.388  1.00  0.00     0.014 A 
BRANCH   7  13
ATOM     13  N   UNL A   1      31.537  25.359  26.082  1.00  0.00    -0.373 N 
ATOM     14  H   UNL A   1      31.566  25.547  27.048  1.00  0.00     0.161 HD
BRANCH  13  15
ATOM     15  C   UNL A   1      31.085  24.054  25.602  1.00  0.00     0.179 C 
ATOM     16  N   UNL A   1      32.315  22.226  24.811  1.00  0.00    -0.245 N 
ATOM     17  C   UNL A   1      31.828  22.837  23.686  1.00  0.00     0.236 C 
ATOM     18  C   UNL A   1      32.042  22.932  25.959  1.00  0.00     0.256 C 
ATOM     19  O   UNL A   1      31.940  22.473  22.524  1.00  0.00    -0.274 OA
ATOM     20  C   UNL A   1      31.033  24.042  24.084  1.00  0.00     0.136 C 
ATOM     21  O   UNL A   1      32.501  22.751  27.080  1.00  0.00    -0.272 OA
BRANCH  16  22
ATOM     22  C   UNL A   1      33.003  20.992  24.799  1.00  0.00     0.094 A 
ATOM     23  C   UNL A   1      34.401  20.943  24.676  1.00  0.00     0.144 A 
ATOM     24  C   UNL A   1      35.069  19.718  24.626  1.00  0.00     0.069 A 
ATOM     25  C   UNL A   1      34.352  18.527  24.739  1.00  0.00     0.047 A 
ATOM     26  C   UNL A   1      32.297  19.787  24.939  1.00  0.00     0.035 A 
ATOM     27  Cl  UNL A   1      35.238  17.045  24.722  1.00  0.00    -0.084 Cl
ATOM     28  C   UNL A   1      32.957  18.545  24.888  1.00  0.00    -0.030 A 
ATOM     29  C   UNL A   1      32.154  17.278  25.001  1.00  0.00     0.046 C 
BRANCH  23  30
ATOM     30  O   UNL A   1      35.195  22.065  24.655  1.00  0.00    -0.495 OA
ATOM     31  C   UNL A   1      36.031  22.145  25.810  1.00  0.00     0.278 C 
ENDBRANCH  23  30
ENDBRANCH  16  22
ENDBRANCH  13  15
ENDBRANCH   7  13
ENDBRANCH   3   6
ENDBRANCH   1   2
BRANCH   1  32
ATOM     32  C   UNL A   1      31.436  30.501  25.690  1.00  0.00     0.023 C 
BRANCH  32  33
ATOM     33  C   UNL A   1      32.010  31.389  26.804  1.00  0.00     0.023 C 
BRANCH  33  34
ATOM     34  C   UNL A   1      33.334  30.890  27.375  1.00  0.00     0.116 C 
BRANCH  34  35
ATOM     35  N   UNL A   1      34.151  31.899  28.031  1.00  0.00    -0.352 N 
ATOM     36  C   UNL A   1      35.324  31.775  28.766  1.00  0.00     0.251 C 
ATOM     37  H   UNL A   1      33.818  32.821  27.940  1.00  0.00     0.163 HD
ATOM     38  O   UNL A   1      35.764  32.747  29.353  1.00  0.00    -0.269 OA
BRANCH  36  39
ATOM     39  C   UNL A   1      36.134  30.523  28.712  1.00  0.00     0.039 A 
ATOM     40  C   UNL A   1      36.278  29.789  29.901  1.00  0.00     0.014 A 
ATOM     41  C   UNL A   1      36.916  30.190  27.615  1.00  0.00     0.014 A 
ATOM     42  C   UNL A   1      37.381  28.953  30.072  1.00  0.00     0.010 A 
ATOM     43  C   UNL A   1      38.075  29.468  27.818  1.00  0.00     0.010 A 
ATOM     44  C   UNL A   1      38.346  28.917  29.075  1.00  0.00    -0.014 A 
BRANCH  44  45
ATOM     45  C   UNL A   1      39.720  28.468  29.265  1.00  0.00     0.031 A 
ATOM     46  C   UNL A   1      40.134  27.111  28.844  1.00  0.00     0.074 A 
ATOM     47  C   UNL A   1      40.656  29.389  29.596  1.00  0.00     0.049 A 
ATOM     48  N   UNL A   1      41.315  26.632  29.042  1.00  0.00    -0.248 NA
ATOM     49  C   UNL A   1      39.225  26.147  28.226  1.00  0.00     0.031 C 
ATOM     50  C   UNL A   1      42.092  29.331  29.329  1.00  0.00     0.029 A 
ATOM     51  N   UNL A   1      40.505  30.525  30.415  1.00  0.00    -0.354 N 
ATOM     52  C   UNL A   1      41.409  25.447  28.358  1.00  0.00     0.074 A 
ATOM     53  C   UNL A   1      40.055  25.125  27.984  1.00  0.00     0.031 C 
ATOM     54  C   UNL A   1      42.726  30.183  30.150  1.00  0.00     0.029 A 
ATOM     55  C   UNL A   1      41.739  30.654  31.104  1.00  0.00     0.049 A 
ATOM     56  H   UNL A   1      39.713  31.106  30.493  1.00  0.00     0.167 HD
ATOM     57  C   UNL A   1      42.645  24.939  28.101  1.00  0.00     0.037 A 
ATOM     58  C   UNL A   1      41.829  30.452  32.453  1.00  0.00     0.037 A 
ATOM     59  C   UNL A   1      43.675  25.631  28.871  1.00  0.00     0.049 A 
ATOM     60  C   UNL A   1      42.788  29.374  32.906  1.00  0.00     0.074 A 
ATOM     61  C   UNL A   1      44.681  26.536  28.588  1.00  0.00     0.029 A 
ATOM     62  N   UNL A   1      43.608  25.547  30.249  1.00  0.00    -0.354 N 
ATOM     63  N   UNL A   1      43.398  28.542  32.113  1.00  0.00    -0.248 NA
ATOM     64  C   UNL A   1      43.015  29.072  34.321  1.00  0.00     0.031 C 
ATOM     65  C   UNL A   1      45.199  27.013  29.832  1.00  0.00     0.029 A 
ATOM     66  C   UNL A   1      44.527  26.370  30.858  1.00  0.00     0.049 A 
ATOM     67  H   UNL A   1      42.978  24.968  30.736  1.00  0.00     0.167 HD
ATOM     68  C   UNL A   1      43.972  27.554  32.864  1.00  0.00     0.074 A 
ATOM     69  C   UNL A   1      43.729  27.938  34.241  1.00  0.00     0.031 C 
ATOM     70  C   UNL A   1      44.534  26.445  32.308  1.00  0.00     0.037 A 
BRANCH  57  71
ATOM     71  C   UNL A   1      42.985  23.876  27.085  1.00  0.00     0.064 A 
ATOM     72  C   UNL A   1      42.614  22.533  27.327  1.00  0.00     0.173 A 
ATOM     73  C   UNL A   1      43.775  24.072  25.933  1.00  0.00     0.173 A 
ATOM     74  F   UNL A   1      41.855  22.202  28.382  1.00  0.00    -0.203 F 
ATOM     75  C   UNL A   1      43.026  21.480  26.505  1.00  0.00     0.198 A 
ATOM     76  C   UNL A   1      44.135  23.025  25.081  1.00  0.00     0.198 A 
ATOM     77  F   UNL A   1      44.285  25.266  25.614  1.00  0.00    -0.203 F 
ATOM     78  F   UNL A   1      42.700  20.220  26.827  1.00  0.00    -0.200 F 
ATOM     79  C   UNL A   1      43.779  21.727  25.377  1.00  0.00     0.200 A 
ATOM     80  F   UNL A   1      44.863  23.285  23.984  1.00  0.00    -0.200 F 
ATOM     81  F   UNL A   1      44.177  20.720  24.589  1.00  0.00    -0.200 F 
ENDBRANCH  57  71
BRANCH  58  82
ATOM     82  C   UNL A   1      40.567  30.741  33.177  1.00  0.00     0.064 A 
ATOM     83  C   UNL A   1      40.268  32.061  33.539  1.00  0.00     0.173 A 
ATOM     84  C   UNL A   1      39.525  29.805  33.182  1.00  0.00     0.173 A 
ATOM     85  F   UNL A   1      41.240  32.986  33.554  1.00  0.00    -0.203 F 
ATOM     86  C   UNL A   1      38.955  32.457  33.779  1.00  0.00     0.198 A 
ATOM     87  C   UNL A   1      38.213  30.203  33.428  1.00  0.00     0.198 A 
ATOM     88  F   UNL A   1      39.757  28.531  32.833  1.00  0.00    -0.203 F 
ATOM     89  F   UNL A   1      38.681  33.746  34.021  1.00  0.00    -0.200 F 
ATOM     90  C   UNL A   1      37.924  31.535  33.687  1.00  0.00     0.200 A 
ATOM     91  F   UNL A   1      37.217  29.313  33.318  1.00  0.00    -0.200 F 
ATOM     92  F   UNL A   1      36.651  31.934  33.808  1.00  0.00    -0.200 F 
ENDBRANCH  58  82
BRANCH  70  93
ATOM     93  C   UNL A   1      45.073  25.307  33.123  1.00  0.00     0.064 A 
ATOM     94  C   UNL A   1      44.245  24.491  33.907  1.00  0.00     0.173 A 
ATOM     95  C   UNL A   1      46.459  25.056  33.206  1.00  0.00     0.173 A 
ATOM     96  F   UNL A   1      42.916  24.679  33.922  1.00  0.00    -0.203 F 
ATOM     97  C   UNL A   1      44.768  23.465  34.699  1.00  0.00     0.198 A 
ATOM     98  C   UNL A   1      46.982  24.067  34.038  1.00  0.00     0.198 A 
ATOM     99  F   UNL A   1      47.338  25.735  32.456  1.00  0.00    -0.203 F 
ATOM    100  F   UNL A   1      43.939  22.670  35.389  1.00  0.00    -0.200 F 
ATOM    101  C   UNL A   1      46.136  23.264  34.775  1.00  0.00     0.200 A 
ATOM    102  F   UNL A   1      48.309  23.894  34.109  1.00  0.00    -0.200 F 
ATOM    103  F   UNL A   1      46.636  22.292  35.549  1.00  0.00    -0.200 F 
ENDBRANCH  70  93
ENDBRANCH  44  45
ENDBRANCH  36  39
ENDBRANCH  34  35
ENDBRANCH  33  34
ENDBRANCH  32  33
ENDBRANCH   1  32
TORSDOF 15
ENDMDL
MODEL 2
REMARK VINA RESULT:     -13.6      2.232      3.722
REMARK SMILES COc1cc(Cl)c(C)cc1N1C(=O)C[C@H](Nc2cc(C(=O)NCCCCNC(=O)c3ccc(-c4c5nc(c(-c6c(F)c(F)c(F)c(F)c6F)c6ccc([nH]6)c(-c6c(F)c(F)c(F)c(F)c6F)c6nc(c(-c7c(F)c(F)c(F)c(F)c7F)c7ccc4[nH]7)C=C6)C=C5)cc3)ccc2C)C1=O
REMARK SMILES IDX 23 1 22 2 20 3 21 4 19 6 17 7 18 8 95 9 94 10 96 11 93 12
REMARK SMILES IDX 16 13 15 15 11 16 12 17 97 18 13 19 14 20 98 21 10 22 3 23
REMARK SMILES IDX 4 24 5 25 9 26 6 27 7 28 8 29 2 30 1 31 24 32 25 33 26 34
REMARK SMILES IDX 27 35 28 36 29 38 30 39 31 40 92 41 32 42 91 43 33 44 34 45
REMARK SMILES IDX 35 46 85 47 36 48 90 49 84 50 86 51 37 52 89 53 83 54 82 55
REMARK SMILES IDX 38 57 70 58 50 59 69 60 51 61 54 62 68 63 87 64 52 65 53 66
REMARK SMILES IDX 67 68 88 69 55 70 39 71 40 72 48 73 41 74 42 75 46 76 49 77
REMARK SMILES IDX 43 78 44 79 47 80 45 81 71 82 72 83 80 84 73 85 74 86 78 87
REMARK SMILES IDX 81 88 75 89 76 90 79 91 77 92 56 93 57 94 65 95 58 96 59 97
REMARK SMILES IDX 63 98 66 99 60 100 61 101 64 102 62 103
REMARK H PARENT 22 5 16 14 27 37 86 56 54 67
REMARK Flexibility Score: inf
ROOT
ATOM      1  C   UNL A   1      34.074  28.572  26.654  1.00  0.00     0.116 C 
ENDROOT
BRANCH   1   2
ATOM      2  N   UNL A   1      34.237  28.800  25.228  1.00  0.00    -0.352 N 
ATOM      3  C   UNL A   1      33.462  28.576  24.119  1.00  0.00     0.251 C 
ATOM      4  O   UNL A   1      33.950  28.947  23.047  1.00  0.00    -0.269 OA
ATOM      5  H   UNL A   1      35.104  29.210  25.008  1.00  0.00     0.163 HD
BRANCH   3   6
ATOM      6  C   UNL A   1      32.098  27.961  24.109  1.00  0.00     0.041 A 
ATOM      7  C   UNL A   1      30.428  26.246  24.655  1.00  0.00     0.038 A 
ATOM      8  C   UNL A   1      31.754  26.719  24.644  1.00  0.00     0.039 A 
ATOM      9  C   UNL A   1      29.435  26.985  23.993  1.00  0.00    -0.028 A 
ATOM     10  C   UNL A   1      29.773  28.212  23.411  1.00  0.00     0.006 A 
ATOM     11  C   UNL A   1      28.009  26.516  23.887  1.00  0.00     0.046 C 
ATOM     12  C   UNL A   1      31.080  28.700  23.486  1.00  0.00     0.014 A 
BRANCH   7  13
ATOM     13  N   UNL A   1      30.122  25.006  25.209  1.00  0.00    -0.373 N 
ATOM     14  H   UNL A   1      29.475  24.939  25.948  1.00  0.00     0.161 HD
BRANCH  13  15
ATOM     15  C   UNL A   1      30.765  23.800  24.687  1.00  0.00     0.179 C 
ATOM     16  N   UNL A   1      33.035  23.278  24.456  1.00  0.00    -0.245 N 
ATOM     17  C   UNL A   1      32.625  23.633  23.198  1.00  0.00     0.236 C 
ATOM     18  C   UNL A   1      32.059  23.466  25.405  1.00  0.00     0.256 C 
ATOM     19  O   UNL A   1      33.273  23.612  22.161  1.00  0.00    -0.274 OA
ATOM     20  C   UNL A   1      31.175  24.008  23.240  1.00  0.00     0.136 C 
ATOM     21  O   UNL A   1      32.178  23.425  26.624  1.00  0.00    -0.272 OA
BRANCH  16  22
ATOM     22  C   UNL A   1      34.315  22.753  24.745  1.00  0.00     0.094 A 
ATOM     23  C   UNL A   1      34.563  21.372  24.678  1.00  0.00     0.144 A 
ATOM     24  C   UNL A   1      35.819  20.858  25.002  1.00  0.00     0.069 A 
ATOM     25  C   UNL A   1      36.855  21.721  25.360  1.00  0.00     0.047 A 
ATOM     26  C   UNL A   1      35.373  23.612  25.080  1.00  0.00     0.035 A 
ATOM     27  Cl  UNL A   1      38.401  21.030  25.701  1.00  0.00    -0.084 Cl
ATOM     28  C   UNL A   1      36.644  23.107  25.411  1.00  0.00    -0.030 A 
ATOM     29  C   UNL A   1      37.738  24.063  25.804  1.00  0.00     0.046 C 
BRANCH  23  30
ATOM     30  O   UNL A   1      33.630  20.460  24.245  1.00  0.00    -0.495 OA
ATOM     31  C   UNL A   1      33.974  19.127  24.628  1.00  0.00     0.278 C 
ENDBRANCH  23  30
ENDBRANCH  16  22
ENDBRANCH  13  15
ENDBRANCH   7  13
ENDBRANCH   3   6
ENDBRANCH   1   2
BRANCH   1  32
ATOM     32  C   UNL A   1      33.859  29.879  27.430  1.00  0.00     0.023 C 
BRANCH  32  33
ATOM     33  C   UNL A   1      35.141  30.501  28.001  1.00  0.00     0.023 C 
BRANCH  33  34
ATOM     34  C   UNL A   1      35.318  31.978  27.663  1.00  0.00     0.116 C 
BRANCH  34  35
ATOM     35  N   UNL A   1      34.462  32.895  28.399  1.00  0.00    -0.352 N 
ATOM     36  C   UNL A   1      34.632  33.489  29.644  1.00  0.00     0.251 C 
ATOM     37  H   UNL A   1      33.624  33.133  27.941  1.00  0.00     0.163 HD
ATOM     38  O   UNL A   1      33.710  34.115  30.136  1.00  0.00    -0.269 OA
BRANCH  36  39
ATOM     39  C   UNL A   1      35.969  33.511  30.307  1.00  0.00     0.039 A 
ATOM     40  C   UNL A   1      37.052  34.020  29.572  1.00  0.00     0.014 A 
ATOM     41  C   UNL A   1      36.215  32.856  31.506  1.00  0.00     0.014 A 
ATOM     42  C   UNL A   1      38.351  33.616  29.880  1.00  0.00     0.010 A 
ATOM     43  C   UNL A   1      37.477  32.349  31.740  1.00  0.00     0.010 A 
ATOM     44  C   UNL A   1      38.531  32.666  30.877  1.00  0.00    -0.014 A 
BRANCH  44  45
ATOM     45  C   UNL A   1      39.718  31.832  31.024  1.00  0.00     0.031 A 
ATOM     46  C   UNL A   1      39.816  30.533  30.323  1.00  0.00     0.074 A 
ATOM     47  C   UNL A   1      40.816  32.375  31.601  1.00  0.00     0.049 A 
ATOM     48  N   UNL A   1      40.808  29.721  30.462  1.00  0.00    -0.248 NA
ATOM     49  C   UNL A   1      38.763  30.002  29.460  1.00  0.00     0.031 C 
ATOM     50  C   UNL A   1      42.211  31.986  31.395  1.00  0.00     0.029 A 
ATOM     51  N   UNL A   1      40.873  33.313  32.650  1.00  0.00    -0.354 N 
ATOM     52  C   UNL A   1      40.670  28.724  29.530  1.00  0.00     0.074 A 
ATOM     53  C   UNL A   1      39.326  28.866  29.029  1.00  0.00     0.031 C 
ATOM     54  C   UNL A   1      42.949  32.444  32.418  1.00  0.00     0.029 A 
ATOM     55  C   UNL A   1      42.019  32.956  33.407  1.00  0.00     0.049 A 
ATOM     56  H   UNL A   1      40.251  34.057  32.822  1.00  0.00     0.167 HD
ATOM     57  C   UNL A   1      41.757  27.965  29.222  1.00  0.00     0.037 A 
ATOM     58  C   UNL A   1      41.911  32.461  34.677  1.00  0.00     0.037 A 
ATOM     59  C   UNL A   1      42.841  28.175  30.177  1.00  0.00     0.049 A 
ATOM     60  C   UNL A   1      42.511  31.093  34.915  1.00  0.00     0.074 A 
ATOM     61  C   UNL A   1      44.068  28.812  30.157  1.00  0.00     0.029 A 
ATOM     62  N   UNL A   1      42.609  27.828  31.495  1.00  0.00    -0.354 N 
ATOM     63  N   UNL A   1      42.970  30.312  33.982  1.00  0.00    -0.248 NA
ATOM     64  C   UNL A   1      42.502  30.454  36.233  1.00  0.00     0.031 C 
ATOM     65  C   UNL A   1      44.555  28.860  31.499  1.00  0.00     0.029 A 
ATOM     66  C   UNL A   1      43.637  28.225  32.318  1.00  0.00     0.049 A 
ATOM     67  H   UNL A   1      41.804  27.353  31.806  1.00  0.00     0.167 HD
ATOM     68  C   UNL A   1      43.191  29.070  34.514  1.00  0.00     0.074 A 
ATOM     69  C   UNL A   1      42.909  29.211  35.930  1.00  0.00     0.031 C 
ATOM     70  C   UNL A   1      43.509  27.991  33.745  1.00  0.00     0.037 A 
BRANCH  57  71
ATOM     71  C   UNL A   1      41.922  27.085  28.006  1.00  0.00     0.064 A 
ATOM     72  C   UNL A   1      41.223  25.858  27.932  1.00  0.00     0.173 A 
ATOM     73  C   UNL A   1      42.832  27.312  26.953  1.00  0.00     0.173 A 
ATOM     74  F   UNL A   1      40.319  25.516  28.862  1.00  0.00    -0.203 F 
ATOM     75  C   UNL A   1      41.443  24.929  26.910  1.00  0.00     0.198 A 
ATOM     76  C   UNL A   1      43.005  26.408  25.901  1.00  0.00     0.198 A 
ATOM     77  F   UNL A   1      43.636  28.379  26.924  1.00  0.00    -0.203 F 
ATOM     78  F   UNL A   1      40.802  23.753  26.933  1.00  0.00    -0.200 F 
ATOM     79  C   UNL A   1      42.328  25.208  25.890  1.00  0.00     0.200 A 
ATOM     80  F   UNL A   1      43.866  26.700  24.914  1.00  0.00    -0.200 F 
ATOM     81  F   UNL A   1      42.542  24.319  24.911  1.00  0.00    -0.200 F 
ENDBRANCH  57  71
BRANCH  58  82
ATOM     82  C   UNL A   1      40.694  32.924  35.388  1.00  0.00     0.064 A 
ATOM     83  C   UNL A   1      39.564  32.097  35.429  1.00  0.00     0.173 A 
ATOM     84  C   UNL A   1      40.771  33.979  36.307  1.00  0.00     0.173 A 
ATOM     85  F   UNL A   1      39.449  31.079  34.562  1.00  0.00    -0.203 F 
ATOM     86  C   UNL A   1      38.606  32.244  36.429  1.00  0.00     0.198 A 
ATOM     87  C   UNL A   1      39.808  34.127  37.301  1.00  0.00     0.198 A 
ATOM     88  F   UNL A   1      41.837  34.792  36.315  1.00  0.00    -0.203 F 
ATOM     89  F   UNL A   1      37.588  31.376  36.510  1.00  0.00    -0.200 F 
ATOM     90  C   UNL A   1      38.748  33.236  37.386  1.00  0.00     0.200 A 
ATOM     91  F   UNL A   1      39.960  35.074  38.237  1.00  0.00    -0.200 F 
ATOM     92  F   UNL A   1      37.888  33.311  38.411  1.00  0.00    -0.200 F 
ENDBRANCH  58  82
BRANCH  70  93
ATOM     93  C   UNL A   1      43.652  26.606  34.303  1.00  0.00     0.064 A 
ATOM     94  C   UNL A   1      44.890  25.952  34.368  1.00  0.00     0.173 A 
ATOM     95  C   UNL A   1      42.527  25.860  34.712  1.00  0.00     0.173 A 
ATOM     96  F   UNL A   1      46.012  26.568  33.965  1.00  0.00    -0.203 F 
ATOM     97  C   UNL A   1      45.001  24.643  34.845  1.00  0.00     0.198 A 
ATOM     98  C   UNL A   1      42.633  24.537  35.136  1.00  0.00     0.198 A 
ATOM     99  F   UNL A   1      41.302  26.404  34.747  1.00  0.00    -0.203 F 
ATOM    100  F   UNL A   1      46.209  24.072  34.946  1.00  0.00    -0.200 F 
ATOM    101  C   UNL A   1      43.871  23.932  35.214  1.00  0.00     0.200 A 
ATOM    102  F   UNL A   1      41.528  23.859  35.479  1.00  0.00    -0.200 F 
ATOM    103  F   UNL A   1      43.977  22.671  35.653  1.00  0.00    -0.200 F 
ENDBRANCH  70  93
ENDBRANCH  44  45
ENDBRANCH  36  39
ENDBRANCH  34  35
ENDBRANCH  33  34
ENDBRANCH  32  33
ENDBRANCH   1  32
TORSDOF 15
ENDMDL
MODEL 3
REMARK VINA RESULT:     -13.5      3.786     10.029
REMARK SMILES COc1cc(Cl)c(C)cc1N1C(=O)C[C@H](Nc2cc(C(=O)NCCCCNC(=O)c3ccc(-c4c5nc(c(-c6c(F)c(F)c(F)c(F)c6F)c6ccc([nH]6)c(-c6c(F)c(F)c(F)c(F)c6F)c6nc(c(-c7c(F)c(F)c(F)c(F)c7F)c7ccc4[nH]7)C=C6)C=C5)cc3)ccc2C)C1=O
REMARK SMILES IDX 23 1 22 2 20 3 21 4 19 6 17 7 18 8 95 9 94 10 96 11 93 12
REMARK SMILES IDX 16 13 15 15 11 16 12 17 97 18 13 19 14 20 98 21 10 22 3 23
REMARK SMILES IDX 4 24 5 25 9 26 6 27 7 28 8 29 2 30 1 31 24 32 25 33 26 34
REMARK SMILES IDX 27 35 28 36 29 38 30 39 31 40 92 41 32 42 91 43 33 44 34 45
REMARK SMILES IDX 35 46 85 47 36 48 90 49 84 50 86 51 37 52 89 53 83 54 82 55
REMARK SMILES IDX 38 57 70 58 50 59 69 60 51 61 54 62 68 63 87 64 52 65 53 66
REMARK SMILES IDX 67 68 88 69 55 70 39 71 40 72 48 73 41 74 42 75 46 76 49 77
REMARK SMILES IDX 43 78 44 79 47 80 45 81 71 82 72 83 80 84 73 85 74 86 78 87
REMARK SMILES IDX 81 88 75 89 76 90 79 91 77 92 56 93 57 94 65 95 58 96 59 97
REMARK SMILES IDX 63 98 66 99 60 100 61 101 64 102 62 103
REMARK H PARENT 22 5 16 14 27 37 86 56 54 67
REMARK Flexibility Score: inf
ROOT
ATOM      1  C   UNL A   1      39.201  20.668  25.797  1.00  0.00     0.116 C 
ENDROOT
BRANCH   1   2
ATOM      2  N   UNL A   1      38.910  22.088  25.899  1.00  0.00    -0.352 N 
ATOM      3  C   UNL A   1      37.786  22.857  25.738  1.00  0.00     0.251 C 
ATOM      4  O   UNL A   1      37.936  24.066  25.948  1.00  0.00    -0.269 OA
ATOM      5  H   UNL A   1      39.702  22.620  26.139  1.00  0.00     0.163 HD
BRANCH   3   6
ATOM      6  C   UNL A   1      36.425  22.359  25.367  1.00  0.00     0.041 A 
ATOM      7  C   UNL A   1      34.077  22.601  24.688  1.00  0.00     0.038 A 
ATOM      8  C   UNL A   1      35.306  23.151  25.103  1.00  0.00     0.039 A 
ATOM      9  C   UNL A   1      33.929  21.206  24.663  1.00  0.00    -0.028 A 
ATOM     10  C   UNL A   1      35.029  20.398  24.970  1.00  0.00     0.006 A 
ATOM     11  C   UNL A   1      32.630  20.534  24.309  1.00  0.00     0.046 C 
ATOM     12  C   UNL A   1      36.263  20.967  25.297  1.00  0.00     0.014 A 
BRANCH   7  13
ATOM     13  N   UNL A   1      32.986  23.424  24.423  1.00  0.00    -0.373 N 
ATOM     14  H   UNL A   1      32.073  23.115  24.622  1.00  0.00     0.161 HD
BRANCH  13  15
ATOM     15  C   UNL A   1      33.201  24.752  23.848  1.00  0.00     0.179 C 
ATOM     16  N   UNL A   1      31.657  26.401  23.236  1.00  0.00    -0.245 N 
ATOM     17  C   UNL A   1      32.022  25.804  22.058  1.00  0.00     0.236 C 
ATOM     18  C   UNL A   1      32.193  25.775  24.337  1.00  0.00     0.256 C 
ATOM     19  O   UNL A   1      31.681  26.108  20.924  1.00  0.00    -0.274 OA
ATOM     20  C   UNL A   1      33.004  24.710  22.343  1.00  0.00     0.136 C 
ATOM     21  O   UNL A   1      31.905  25.948  25.515  1.00  0.00    -0.272 OA
BRANCH  16  22
ATOM     22  C   UNL A   1      30.839  27.551  23.314  1.00  0.00     0.094 A 
ATOM     23  C   UNL A   1      31.396  28.825  23.512  1.00  0.00     0.144 A 
ATOM     24  C   UNL A   1      30.578  29.950  23.625  1.00  0.00     0.069 A 
ATOM     25  C   UNL A   1      29.194  29.822  23.503  1.00  0.00     0.047 A 
ATOM     26  C   UNL A   1      29.448  27.440  23.166  1.00  0.00     0.035 A 
ATOM     27  Cl  UNL A   1      28.238  31.256  23.602  1.00  0.00    -0.084 Cl
ATOM     28  C   UNL A   1      28.610  28.565  23.280  1.00  0.00    -0.030 A 
ATOM     29  C   UNL A   1      27.121  28.393  23.155  1.00  0.00     0.046 C 
BRANCH  23  30
ATOM     30  O   UNL A   1      32.750  29.056  23.548  1.00  0.00    -0.495 OA
ATOM     31  C   UNL A   1      33.215  29.279  24.881  1.00  0.00     0.278 C 
ENDBRANCH  23  30
ENDBRANCH  16  22
ENDBRANCH  13  15
ENDBRANCH   7  13
ENDBRANCH   3   6
ENDBRANCH   1   2
BRANCH   1  32
ATOM     32  C   UNL A   1      40.656  20.346  26.166  1.00  0.00     0.023 C 
BRANCH  32  33
ATOM     33  C   UNL A   1      41.013  20.597  27.638  1.00  0.00     0.023 C 
BRANCH  33  34
ATOM     34  C   UNL A   1      42.193  21.543  27.840  1.00  0.00     0.116 C 
BRANCH  34  35
ATOM     35  N   UNL A   1      42.786  22.069  26.621  1.00  0.00    -0.352 N 
ATOM     36  C   UNL A   1      42.500  23.223  25.901  1.00  0.00     0.251 C 
ATOM     37  H   UNL A   1      43.508  21.518  26.243  1.00  0.00     0.163 HD
ATOM     38  O   UNL A   1      43.028  23.395  24.817  1.00  0.00    -0.269 OA
BRANCH  36  39
ATOM     39  C   UNL A   1      41.690  24.323  26.504  1.00  0.00     0.039 A 
ATOM     40  C   UNL A   1      41.472  25.471  25.725  1.00  0.00     0.014 A 
ATOM     41  C   UNL A   1      41.349  24.344  27.849  1.00  0.00     0.014 A 
ATOM     42  C   UNL A   1      41.204  26.691  26.347  1.00  0.00     0.010 A 
ATOM     43  C   UNL A   1      41.214  25.563  28.482  1.00  0.00     0.010 A 
ATOM     44  C   UNL A   1      41.223  26.745  27.735  1.00  0.00    -0.014 A 
BRANCH  44  45
ATOM     45  C   UNL A   1      41.401  27.964  28.516  1.00  0.00     0.031 A 
ATOM     46  C   UNL A   1      40.317  28.966  28.605  1.00  0.00     0.074 A 
ATOM     47  C   UNL A   1      42.464  28.041  29.350  1.00  0.00     0.049 A 
ATOM     48  N   UNL A   1      40.435  30.091  29.224  1.00  0.00    -0.248 NA
ATOM     49  C   UNL A   1      39.025  28.818  27.936  1.00  0.00     0.031 C 
ATOM     50  C   UNL A   1      42.582  28.844  30.567  1.00  0.00     0.029 A 
ATOM     51  N   UNL A   1      43.756  27.511  29.163  1.00  0.00    -0.354 N 
ATOM     52  C   UNL A   1      39.195  30.675  29.276  1.00  0.00     0.074 A 
ATOM     53  C   UNL A   1      38.388  29.918  28.352  1.00  0.00     0.031 C 
ATOM     54  C   UNL A   1      43.881  28.985  30.875  1.00  0.00     0.029 A 
ATOM     55  C   UNL A   1      44.635  28.455  29.754  1.00  0.00     0.049 A 
ATOM     56  H   UNL A   1      43.998  26.666  28.717  1.00  0.00     0.167 HD
ATOM     57  C   UNL A   1      38.979  31.667  30.183  1.00  0.00     0.037 A 
ATOM     58  C   UNL A   1      45.498  29.198  28.999  1.00  0.00     0.037 A 
ATOM     59  C   UNL A   1      40.233  32.137  30.766  1.00  0.00     0.049 A 
ATOM     60  C   UNL A   1      45.357  30.700  29.106  1.00  0.00     0.074 A 
ATOM     61  C   UNL A   1      40.860  32.016  31.992  1.00  0.00     0.029 A 
ATOM     62  N   UNL A   1      41.156  32.716  29.916  1.00  0.00    -0.354 N 
ATOM     63  N   UNL A   1      44.393  31.313  29.730  1.00  0.00    -0.248 NA
ATOM     64  C   UNL A   1      46.236  31.623  28.384  1.00  0.00     0.031 C 
ATOM     65  C   UNL A   1      42.192  32.515  31.849  1.00  0.00     0.029 A 
ATOM     66  C   UNL A   1      42.352  32.964  30.549  1.00  0.00     0.049 A 
ATOM     67  H   UNL A   1      40.977  32.927  28.970  1.00  0.00     0.167 HD
ATOM     68  C   UNL A   1      44.432  32.642  29.408  1.00  0.00     0.074 A 
ATOM     69  C   UNL A   1      45.615  32.796  28.584  1.00  0.00     0.031 C 
ATOM     70  C   UNL A   1      43.447  33.511  29.769  1.00  0.00     0.037 A 
BRANCH  57  71
ATOM     71  C   UNL A   1      37.638  32.182  30.649  1.00  0.00     0.064 A 
ATOM     72  C   UNL A   1      36.885  33.031  29.806  1.00  0.00     0.173 A 
ATOM     73  C   UNL A   1      37.096  31.995  31.937  1.00  0.00     0.173 A 
ATOM     74  F   UNL A   1      37.278  33.290  28.550  1.00  0.00    -0.203 F 
ATOM     75  C   UNL A   1      35.712  33.662  30.230  1.00  0.00     0.198 A 
ATOM     76  C   UNL A   1      35.892  32.579  32.338  1.00  0.00     0.198 A 
ATOM     77  F   UNL A   1      37.731  31.296  32.883  1.00  0.00    -0.203 F 
ATOM     78  F   UNL A   1      35.080  34.511  29.409  1.00  0.00    -0.200 F 
ATOM     79  C   UNL A   1      35.210  33.428  31.493  1.00  0.00     0.200 A 
ATOM     80  F   UNL A   1      35.416  32.335  33.569  1.00  0.00    -0.200 F 
ATOM     81  F   UNL A   1      34.087  34.033  31.903  1.00  0.00    -0.200 F 
ENDBRANCH  57  71
BRANCH  58  82
ATOM     82  C   UNL A   1      45.903  28.532  27.738  1.00  0.00     0.064 A 
ATOM     83  C   UNL A   1      46.996  27.656  27.742  1.00  0.00     0.173 A 
ATOM     84  C   UNL A   1      45.017  28.473  26.654  1.00  0.00     0.173 A 
ATOM     85  F   UNL A   1      47.872  27.686  28.758  1.00  0.00    -0.203 F 
ATOM     86  C   UNL A   1      47.132  26.676  26.762  1.00  0.00     0.198 A 
ATOM     87  C   UNL A   1      45.159  27.496  25.672  1.00  0.00     0.198 A 
ATOM     88  F   UNL A   1      43.949  29.282  26.608  1.00  0.00    -0.203 F 
ATOM     89  F   UNL A   1      48.129  25.784  26.844  1.00  0.00    -0.200 F 
ATOM     90  C   UNL A   1      46.193  26.574  25.748  1.00  0.00     0.200 A 
ATOM     91  F   UNL A   1      44.237  27.386  24.706  1.00  0.00    -0.200 F 
ATOM     92  F   UNL A   1      46.259  25.566  24.868  1.00  0.00    -0.200 F 
ENDBRANCH  58  82
BRANCH  70  93
ATOM     93  C   UNL A   1      43.426  34.946  29.335  1.00  0.00     0.064 A 
ATOM     94  C   UNL A   1      43.577  36.003  30.244  1.00  0.00     0.173 A 
ATOM     95  C   UNL A   1      43.166  35.305  27.996  1.00  0.00     0.173 A 
ATOM     96  F   UNL A   1      43.790  35.760  31.547  1.00  0.00    -0.203 F 
ATOM     97  C   UNL A   1      43.508  37.337  29.832  1.00  0.00     0.198 A 
ATOM     98  C   UNL A   1      43.044  36.635  27.597  1.00  0.00     0.198 A 
ATOM     99  F   UNL A   1      43.063  34.379  27.032  1.00  0.00    -0.203 F 
ATOM    100  F   UNL A   1      43.715  38.319  30.720  1.00  0.00    -0.200 F 
ATOM    101  C   UNL A   1      43.226  37.651  28.513  1.00  0.00     0.200 A 
ATOM    102  F   UNL A   1      42.759  36.922  26.319  1.00  0.00    -0.200 F 
ATOM    103  F   UNL A   1      43.141  38.930  28.124  1.00  0.00    -0.200 F 
ENDBRANCH  70  93
ENDBRANCH  44  45
ENDBRANCH  36  39
ENDBRANCH  34  35
ENDBRANCH  33  34
ENDBRANCH  32  33
ENDBRANCH   1  32
TORSDOF 15
ENDMDL
