MODEL 1
REMARK VINA RESULT:     -13.1      0.000      0.000
REMARK SMILES O=C(NCCCCNC(=O)[C@@H]1CN(c2nc(-c3ccccc3)no2)CC[NH2+]1)c1ccc(-c2c3nc(c(-c4c(F)c(F)c(F)c(F)c4F)c4ccc([nH]4)c(-c4c(F)c(F)c(F)c(F)c4F)c4nc(c(-c5c(F)c(F)c(F)c(F)c5F)c5ccc2[nH]5)C=C4)C=C3)cc1
REMARK SMILES IDX 5 1 4 2 3 3 1 4 2 5 28 7 29 8 90 9 30 10 89 11 31 12 32 13
REMARK SMILES IDX 33 14 83 15 34 16 88 17 82 18 84 19 35 20 87 21 81 22 80 23
REMARK SMILES IDX 36 25 68 26 48 27 67 28 49 29 52 30 66 31 85 32 50 33 51 34
REMARK SMILES IDX 65 36 86 37 53 38 37 39 38 40 46 41 39 42 40 43 44 44 47 45
REMARK SMILES IDX 41 46 42 47 45 48 43 49 69 50 70 51 78 52 71 53 72 54 76 55
REMARK SMILES IDX 79 56 73 57 74 58 77 59 75 60 54 61 55 62 63 63 56 64 57 65
REMARK SMILES IDX 61 66 64 67 58 68 59 69 62 70 60 71 6 72 7 73 8 74 9 75
REMARK SMILES IDX 10 77 11 78 12 79 27 80 13 81 26 82 25 85 14 86 15 87 24 88
REMARK SMILES IDX 16 89 23 90 17 91 18 92 22 93 19 94 21 95 20 96
REMARK H PARENT 3 6 84 24 52 35 8 76 27 83 27 84
REMARK Flexibility Score: inf
ROOT
ATOM      1  C   UNL A   1      31.377  32.086  26.462  1.00  0.00     0.023 C 
ENDROOT
BRANCH   1   2
ATOM      2  C   UNL A   1      32.530  32.697  27.252  1.00  0.00     0.116 C 
BRANCH   2   3
ATOM      3  N   UNL A   1      32.314  34.087  27.618  1.00  0.00    -0.352 N 
ATOM      4  O   UNL A   1      32.668  35.967  28.826  1.00  0.00    -0.269 OA
ATOM      5  C   UNL A   1      33.015  34.831  28.536  1.00  0.00     0.251 C 
ATOM      6  H   UNL A   1      31.579  34.549  27.153  1.00  0.00     0.163 HD
BRANCH   5   7
ATOM      7  C   UNL A   1      34.185  34.217  29.195  1.00  0.00     0.039 A 
ATOM      8  C   UNL A   1      34.015  33.412  30.324  1.00  0.00     0.014 A 
ATOM      9  C   UNL A   1      35.459  34.472  28.683  1.00  0.00     0.014 A 
ATOM     10  C   UNL A   1      35.131  32.932  30.999  1.00  0.00     0.010 A 
ATOM     11  C   UNL A   1      36.576  33.939  29.328  1.00  0.00     0.010 A 
ATOM     12  C   UNL A   1      36.417  33.175  30.494  1.00  0.00    -0.014 A 
BRANCH  12  13
ATOM     13  C   UNL A   1      37.586  32.526  31.132  1.00  0.00     0.031 A 
ATOM     14  C   UNL A   1      38.308  31.393  30.464  1.00  0.00     0.074 A 
ATOM     15  C   UNL A   1      37.967  32.966  32.346  1.00  0.00     0.049 A 
ATOM     16  N   UNL A   1      39.310  30.682  30.913  1.00  0.00    -0.248 NA
ATOM     17  C   UNL A   1      37.845  31.000  29.125  1.00  0.00     0.031 C 
ATOM     18  C   UNL A   1      37.316  34.049  33.088  1.00  0.00     0.029 A 
ATOM     19  N   UNL A   1      38.979  32.557  33.174  1.00  0.00    -0.354 N 
ATOM     20  C   UNL A   1      39.584  29.745  29.927  1.00  0.00     0.074 A 
ATOM     21  C   UNL A   1      38.637  29.970  28.855  1.00  0.00     0.031 C 
ATOM     22  C   UNL A   1      37.950  34.226  34.255  1.00  0.00     0.029 A 
ATOM     23  C   UNL A   1      39.011  33.233  34.369  1.00  0.00     0.049 A 
ATOM     24  H   UNL A   1      39.622  31.850  32.935  1.00  0.00     0.167 HD
ATOM     25  C   UNL A   1      40.542  28.788  29.926  1.00  0.00     0.037 A 
ATOM     26  C   UNL A   1      39.783  33.046  35.454  1.00  0.00     0.037 A 
ATOM     27  C   UNL A   1      41.496  28.598  30.989  1.00  0.00     0.049 A 
ATOM     28  C   UNL A   1      40.815  31.959  35.431  1.00  0.00     0.074 A 
ATOM     29  C   UNL A   1      42.570  27.727  31.037  1.00  0.00     0.029 A 
ATOM     30  N   UNL A   1      41.483  29.284  32.195  1.00  0.00    -0.354 N 
ATOM     31  N   UNL A   1      41.112  31.125  34.463  1.00  0.00    -0.248 NA
ATOM     32  C   UNL A   1      41.614  31.776  36.649  1.00  0.00     0.031 C 
ATOM     33  C   UNL A   1      43.174  27.845  32.293  1.00  0.00     0.029 A 
ATOM     34  C   UNL A   1      42.503  28.821  33.012  1.00  0.00     0.049 A 
ATOM     35  H   UNL A   1      40.845  29.994  32.435  1.00  0.00     0.167 HD
ATOM     36  C   UNL A   1      42.129  30.321  34.953  1.00  0.00     0.074 A 
ATOM     37  C   UNL A   1      42.419  30.784  36.295  1.00  0.00     0.031 C 
ATOM     38  C   UNL A   1      42.760  29.286  34.350  1.00  0.00     0.037 A 
BRANCH  25  39
ATOM     39  C   UNL A   1      40.613  27.854  28.756  1.00  0.00     0.064 A 
ATOM     40  C   UNL A   1      39.868  26.668  28.712  1.00  0.00     0.173 A 
ATOM     41  C   UNL A   1      41.365  28.202  27.623  1.00  0.00     0.173 A 
ATOM     42  F   UNL A   1      39.138  26.289  29.771  1.00  0.00    -0.203 F 
ATOM     43  C   UNL A   1      39.875  25.862  27.575  1.00  0.00     0.198 A 
ATOM     44  C   UNL A   1      41.354  27.405  26.482  1.00  0.00     0.198 A 
ATOM     45  F   UNL A   1      42.091  29.330  27.615  1.00  0.00    -0.203 F 
ATOM     46  F   UNL A   1      39.167  24.724  27.558  1.00  0.00    -0.200 F 
ATOM     47  C   UNL A   1      40.610  26.234  26.459  1.00  0.00     0.200 A 
ATOM     48  F   UNL A   1      42.056  27.773  25.401  1.00  0.00    -0.200 F 
ATOM     49  F   UNL A   1      40.600  25.467  25.360  1.00  0.00    -0.200 F 
ENDBRANCH  25  39
BRANCH  26  50
ATOM     50  C   UNL A   1      39.569  33.884  36.662  1.00  0.00     0.064 A 
ATOM     51  C   UNL A   1      38.763  33.441  37.717  1.00  0.00     0.173 A 
ATOM     52  C   UNL A   1      40.181  35.141  36.787  1.00  0.00     0.173 A 
ATOM     53  F   UNL A   1      38.143  32.254  37.634  1.00  0.00    -0.203 F 
ATOM     54  C   UNL A   1      38.566  34.230  38.848  1.00  0.00     0.198 A 
ATOM     55  C   UNL A   1      40.006  35.915  37.930  1.00  0.00     0.198 A 
ATOM     56  F   UNL A   1      40.967  35.606  35.805  1.00  0.00    -0.203 F 
ATOM     57  F   UNL A   1      37.758  33.801  39.827  1.00  0.00    -0.200 F 
ATOM     58  C   UNL A   1      39.193  35.463  38.957  1.00  0.00     0.200 A 
ATOM     59  F   UNL A   1      40.628  37.098  38.038  1.00  0.00    -0.200 F 
ATOM     60  F   UNL A   1      39.007  36.217  40.048  1.00  0.00    -0.200 F 
ENDBRANCH  26  50
BRANCH  38  61
ATOM     61  C   UNL A   1      43.819  28.584  35.143  1.00  0.00     0.064 A 
ATOM     62  C   UNL A   1      43.506  27.486  35.958  1.00  0.00     0.173 A 
ATOM     63  C   UNL A   1      45.160  28.987  35.062  1.00  0.00     0.173 A 
ATOM     64  F   UNL A   1      42.235  27.078  36.081  1.00  0.00    -0.203 F 
ATOM     65  C   UNL A   1      44.498  26.827  36.678  1.00  0.00     0.198 A 
ATOM     66  C   UNL A   1      46.152  28.309  35.764  1.00  0.00     0.198 A 
ATOM     67  F   UNL A   1      45.508  30.030  34.293  1.00  0.00    -0.203 F 
ATOM     68  F   UNL A   1      44.171  25.806  37.482  1.00  0.00    -0.200 F 
ATOM     69  C   UNL A   1      45.819  27.234  36.575  1.00  0.00     0.200 A 
ATOM     70  F   UNL A   1      47.430  28.697  35.656  1.00  0.00    -0.200 F 
ATOM     71  F   UNL A   1      46.774  26.594  37.265  1.00  0.00    -0.200 F 
ENDBRANCH  38  61
ENDBRANCH  12  13
ENDBRANCH   5   7
ENDBRANCH   2   3
ENDBRANCH   1   2
BRANCH   1  72
ATOM     72  C   UNL A   1      31.555  30.609  26.091  1.00  0.00     0.023 C 
BRANCH  72  73
ATOM     73  C   UNL A   1      32.985  30.105  26.256  1.00  0.00     0.116 C 
BRANCH  73  74
ATOM     74  N   UNL A   1      33.551  29.661  24.999  1.00  0.00    -0.351 N 
ATOM     75  C   UNL A   1      33.403  28.550  24.231  1.00  0.00     0.280 C 
ATOM     76  H   UNL A   1      34.185  30.308  24.615  1.00  0.00     0.163 HD
ATOM     77  O   UNL A   1      34.067  28.553  23.184  1.00  0.00    -0.268 OA
BRANCH  75  78
ATOM     78  C   UNL A   1      32.545  27.316  24.590  1.00  0.00     0.292 C 
ATOM     79  C   UNL A   1      32.969  25.982  23.969  1.00  0.00     0.197 C 
ATOM     80  N   UNL A   1      31.094  27.599  24.345  1.00  0.00    -0.333 N 
ATOM     81  N   UNL A   1      32.136  24.888  24.460  1.00  0.00    -0.312 N 
ATOM     82  C   UNL A   1      30.299  26.472  24.890  1.00  0.00     0.283 C 
ATOM     83  H   UNL A   1      30.924  27.689  23.344  1.00  0.00     0.347 HD
ATOM     84  H   UNL A   1      30.825  28.470  24.803  1.00  0.00     0.347 HD
ATOM     85  C   UNL A   1      30.695  25.072  24.343  1.00  0.00     0.183 C 
BRANCH  81  86
ATOM     86  C   UNL A   1      32.705  23.681  24.622  1.00  0.00     0.324 A 
ATOM     87  N   UNL A   1      32.223  22.515  24.276  1.00  0.00    -0.171 NA
ATOM     88  O   UNL A   1      33.919  23.594  25.246  1.00  0.00    -0.315 OA
ATOM     89  C   UNL A   1      33.228  21.656  24.640  1.00  0.00     0.204 A 
ATOM     90  N   UNL A   1      34.249  22.234  25.289  1.00  0.00    -0.055 NA
BRANCH  89  91
ATOM     91  C   UNL A   1      33.236  20.279  24.195  1.00  0.00     0.023 A 
ATOM     92  C   UNL A   1      32.320  19.807  23.252  1.00  0.00     0.012 A 
ATOM     93  C   UNL A   1      34.190  19.405  24.737  1.00  0.00     0.012 A 
ATOM     94  C   UNL A   1      32.358  18.466  22.859  1.00  0.00     0.001 A 
ATOM     95  C   UNL A   1      34.217  18.064  24.351  1.00  0.00     0.001 A 
ATOM     96  C   UNL A   1      33.300  17.597  23.413  1.00  0.00     0.000 A 
ENDBRANCH  89  91
ENDBRANCH  81  86
ENDBRANCH  75  78
ENDBRANCH  73  74
ENDBRANCH  72  73
ENDBRANCH   1  72
TORSDOF 13
ENDMDL
MODEL 2
REMARK VINA RESULT:     -13.1      0.196      1.596
REMARK SMILES O=C(NCCCCNC(=O)[C@@H]1CN(c2nc(-c3ccccc3)no2)CC[NH2+]1)c1ccc(-c2c3nc(c(-c4c(F)c(F)c(F)c(F)c4F)c4ccc([nH]4)c(-c4c(F)c(F)c(F)c(F)c4F)c4nc(c(-c5c(F)c(F)c(F)c(F)c5F)c5ccc2[nH]5)C=C4)C=C3)cc1
REMARK SMILES IDX 5 1 4 2 3 3 1 4 2 5 28 7 29 8 90 9 30 10 89 11 31 12 32 13
REMARK SMILES IDX 33 14 83 15 34 16 88 17 82 18 84 19 35 20 87 21 81 22 80 23
REMARK SMILES IDX 36 25 68 26 48 27 67 28 49 29 52 30 66 31 85 32 50 33 51 34
REMARK SMILES IDX 65 36 86 37 53 38 37 39 38 40 46 41 39 42 40 43 44 44 47 45
REMARK SMILES IDX 41 46 42 47 45 48 43 49 69 50 70 51 78 52 71 53 72 54 76 55
REMARK SMILES IDX 79 56 73 57 74 58 77 59 75 60 54 61 55 62 63 63 56 64 57 65
REMARK SMILES IDX 61 66 64 67 58 68 59 69 62 70 60 71 6 72 7 73 8 74 9 75
REMARK SMILES IDX 10 77 11 78 12 79 27 80 13 81 26 82 25 85 14 86 15 87 24 88
REMARK SMILES IDX 16 89 23 90 17 91 18 92 22 93 19 94 21 95 20 96
REMARK H PARENT 3 6 84 24 52 35 8 76 27 83 27 84
REMARK Flexibility Score: inf
ROOT
ATOM      1  C   UNL A   1      31.382  32.016  26.564  1.00  0.00     0.023 C 
ENDROOT
BRANCH   1   2
ATOM      2  C   UNL A   1      32.589  32.676  27.223  1.00  0.00     0.116 C 
BRANCH   2   3
ATOM      3  N   UNL A   1      32.357  34.057  27.614  1.00  0.00    -0.352 N 
ATOM      4  O   UNL A   1      32.685  35.918  28.858  1.00  0.00    -0.269 OA
ATOM      5  C   UNL A   1      33.046  34.791  28.550  1.00  0.00     0.251 C 
ATOM      6  H   UNL A   1      31.620  34.520  27.153  1.00  0.00     0.163 HD
BRANCH   5   7
ATOM      7  C   UNL A   1      34.217  34.177  29.204  1.00  0.00     0.039 A 
ATOM      8  C   UNL A   1      34.046  33.326  30.299  1.00  0.00     0.014 A 
ATOM      9  C   UNL A   1      35.493  34.476  28.722  1.00  0.00     0.014 A 
ATOM     10  C   UNL A   1      35.161  32.844  30.975  1.00  0.00     0.010 A 
ATOM     11  C   UNL A   1      36.611  33.941  29.365  1.00  0.00     0.010 A 
ATOM     12  C   UNL A   1      36.450  33.131  30.500  1.00  0.00    -0.014 A 
BRANCH  12  13
ATOM     13  C   UNL A   1      37.622  32.482  31.132  1.00  0.00     0.031 A 
ATOM     14  C   UNL A   1      38.340  31.349  30.462  1.00  0.00     0.074 A 
ATOM     15  C   UNL A   1      38.009  32.923  32.344  1.00  0.00     0.049 A 
ATOM     16  N   UNL A   1      39.344  30.638  30.906  1.00  0.00    -0.248 NA
ATOM     17  C   UNL A   1      37.869  30.955  29.125  1.00  0.00     0.031 C 
ATOM     18  C   UNL A   1      37.362  34.007  33.088  1.00  0.00     0.029 A 
ATOM     19  N   UNL A   1      39.026  32.515  33.167  1.00  0.00    -0.354 N 
ATOM     20  C   UNL A   1      39.612  29.700  29.919  1.00  0.00     0.074 A 
ATOM     21  C   UNL A   1      38.660  29.924  28.852  1.00  0.00     0.031 C 
ATOM     22  C   UNL A   1      38.003  34.185  34.252  1.00  0.00     0.029 A 
ATOM     23  C   UNL A   1      39.064  33.191  34.361  1.00  0.00     0.049 A 
ATOM     24  H   UNL A   1      39.667  31.808  32.925  1.00  0.00     0.167 HD
ATOM     25  C   UNL A   1      40.570  28.742  29.914  1.00  0.00     0.037 A 
ATOM     26  C   UNL A   1      39.842  33.006  35.442  1.00  0.00     0.037 A 
ATOM     27  C   UNL A   1      41.530  28.553  30.972  1.00  0.00     0.049 A 
ATOM     28  C   UNL A   1      40.874  31.918  35.414  1.00  0.00     0.074 A 
ATOM     29  C   UNL A   1      42.603  27.681  31.015  1.00  0.00     0.029 A 
ATOM     30  N   UNL A   1      41.523  29.240  32.177  1.00  0.00    -0.354 N 
ATOM     31  N   UNL A   1      41.165  31.083  34.446  1.00  0.00    -0.248 NA
ATOM     32  C   UNL A   1      41.678  31.736  36.629  1.00  0.00     0.031 C 
ATOM     33  C   UNL A   1      43.214  27.800  32.268  1.00  0.00     0.029 A 
ATOM     34  C   UNL A   1      42.547  28.777  32.989  1.00  0.00     0.049 A 
ATOM     35  H   UNL A   1      40.887  29.951  32.420  1.00  0.00     0.167 HD
ATOM     36  C   UNL A   1      42.184  30.279  34.931  1.00  0.00     0.074 A 
ATOM     37  C   UNL A   1      42.481  30.743  36.271  1.00  0.00     0.031 C 
ATOM     38  C   UNL A   1      42.812  29.243  34.326  1.00  0.00     0.037 A 
BRANCH  25  39
ATOM     39  C   UNL A   1      40.635  27.807  28.745  1.00  0.00     0.064 A 
ATOM     40  C   UNL A   1      39.859  26.641  28.687  1.00  0.00     0.173 A 
ATOM     41  C   UNL A   1      41.413  28.135  27.624  1.00  0.00     0.173 A 
ATOM     42  F   UNL A   1      39.102  26.282  29.735  1.00  0.00    -0.203 F 
ATOM     43  C   UNL A   1      39.862  25.836  27.550  1.00  0.00     0.198 A 
ATOM     44  C   UNL A   1      41.400  27.339  26.483  1.00  0.00     0.198 A 
ATOM     45  F   UNL A   1      42.170  29.243  27.628  1.00  0.00    -0.203 F 
ATOM     46  F   UNL A   1      39.124  24.717  27.521  1.00  0.00    -0.200 F 
ATOM     47  C   UNL A   1      40.625  26.189  26.447  1.00  0.00     0.200 A 
ATOM     48  F   UNL A   1      42.128  27.688  25.413  1.00  0.00    -0.200 F 
ATOM     49  F   UNL A   1      40.612  25.422  25.347  1.00  0.00    -0.200 F 
ENDBRANCH  25  39
BRANCH  26  50
ATOM     50  C   UNL A   1      39.635  33.844  36.650  1.00  0.00     0.064 A 
ATOM     51  C   UNL A   1      40.242  35.100  36.773  1.00  0.00     0.173 A 
ATOM     52  C   UNL A   1      38.812  33.409  37.701  1.00  0.00     0.173 A 
ATOM     53  F   UNL A   1      41.051  35.550  35.803  1.00  0.00    -0.203 F 
ATOM     54  C   UNL A   1      40.045  35.883  37.908  1.00  0.00     0.198 A 
ATOM     55  C   UNL A   1      38.593  34.205  38.821  1.00  0.00     0.198 A 
ATOM     56  F   UNL A   1      38.204  32.215  37.627  1.00  0.00    -0.203 F 
ATOM     57  F   UNL A   1      40.669  37.063  38.020  1.00  0.00    -0.200 F 
ATOM     58  C   UNL A   1      39.216  35.438  38.928  1.00  0.00     0.200 A 
ATOM     59  F   UNL A   1      37.777  33.778  39.795  1.00  0.00    -0.200 F 
ATOM     60  F   UNL A   1      39.022  36.196  40.015  1.00  0.00    -0.200 F 
ENDBRANCH  26  50
BRANCH  38  61
ATOM     61  C   UNL A   1      43.875  28.541  35.114  1.00  0.00     0.064 A 
ATOM     62  C   UNL A   1      45.208  28.976  35.080  1.00  0.00     0.173 A 
ATOM     63  C   UNL A   1      43.554  27.450  35.935  1.00  0.00     0.173 A 
ATOM     64  F   UNL A   1      45.563  30.002  34.293  1.00  0.00    -0.203 F 
ATOM     65  C   UNL A   1      46.187  28.330  35.828  1.00  0.00     0.198 A 
ATOM     66  C   UNL A   1      44.532  26.824  36.701  1.00  0.00     0.198 A 
ATOM     67  F   UNL A   1      42.292  27.001  36.003  1.00  0.00    -0.203 F 
ATOM     68  F   UNL A   1      47.462  28.734  35.749  1.00  0.00    -0.200 F 
ATOM     69  C   UNL A   1      45.848  27.260  36.643  1.00  0.00     0.200 A 
ATOM     70  F   UNL A   1      44.202  25.797  37.496  1.00  0.00    -0.200 F 
ATOM     71  F   UNL A   1      46.792  26.643  37.368  1.00  0.00    -0.200 F 
ENDBRANCH  38  61
ENDBRANCH  12  13
ENDBRANCH   5   7
ENDBRANCH   2   3
ENDBRANCH   1   2
BRANCH   1  72
ATOM     72  C   UNL A   1      31.598  30.564  26.122  1.00  0.00     0.023 C 
BRANCH  72  73
ATOM     73  C   UNL A   1      33.036  30.082  26.285  1.00  0.00     0.116 C 
BRANCH  73  74
ATOM     74  N   UNL A   1      33.580  29.570  25.046  1.00  0.00    -0.351 N 
ATOM     75  C   UNL A   1      33.472  28.393  24.375  1.00  0.00     0.280 C 
ATOM     76  H   UNL A   1      34.158  30.220  24.584  1.00  0.00     0.163 HD
ATOM     77  O   UNL A   1      34.095  28.349  23.304  1.00  0.00    -0.268 OA
BRANCH  75  78
ATOM     78  C   UNL A   1      32.707  27.144  24.867  1.00  0.00     0.292 C 
ATOM     79  C   UNL A   1      33.049  25.817  24.184  1.00  0.00     0.197 C 
ATOM     80  N   UNL A   1      31.231  27.401  24.863  1.00  0.00    -0.333 N 
ATOM     81  N   UNL A   1      32.326  24.709  24.803  1.00  0.00    -0.312 N 
ATOM     82  C   UNL A   1      30.556  26.260  25.528  1.00  0.00     0.283 C 
ATOM     83  H   UNL A   1      30.898  27.486  23.903  1.00  0.00     0.347 HD
ATOM     84  H   UNL A   1      31.024  28.268  25.360  1.00  0.00     0.347 HD
ATOM     85  C   UNL A   1      30.883  24.867  24.923  1.00  0.00     0.183 C 
BRANCH  81  86
ATOM     86  C   UNL A   1      32.936  23.513  24.868  1.00  0.00     0.324 A 
ATOM     87  N   UNL A   1      32.429  22.339  24.589  1.00  0.00    -0.171 NA
ATOM     88  O   UNL A   1      34.231  23.447  25.302  1.00  0.00    -0.315 OA
ATOM     89  C   UNL A   1      33.493  21.499  24.792  1.00  0.00     0.204 A 
ATOM     90  N   UNL A   1      34.589  22.093  25.284  1.00  0.00    -0.055 NA
BRANCH  89  91
ATOM     91  C   UNL A   1      33.461  20.124  24.340  1.00  0.00     0.023 A 
ATOM     92  C   UNL A   1      32.406  19.630  23.568  1.00  0.00     0.012 A 
ATOM     93  C   UNL A   1      34.518  19.274  24.699  1.00  0.00     0.012 A 
ATOM     94  C   UNL A   1      32.410  18.292  23.163  1.00  0.00     0.001 A 
ATOM     95  C   UNL A   1      34.512  17.937  24.304  1.00  0.00     0.001 A 
ATOM     96  C   UNL A   1      33.458  17.448  23.536  1.00  0.00     0.000 A 
ENDBRANCH  89  91
ENDBRANCH  81  86
ENDBRANCH  75  78
ENDBRANCH  73  74
ENDBRANCH  72  73
ENDBRANCH   1  72
TORSDOF 13
ENDMDL
MODEL 3
REMARK VINA RESULT:     -13.1      0.602      1.694
REMARK SMILES O=C(NCCCCNC(=O)[C@@H]1CN(c2nc(-c3ccccc3)no2)CC[NH2+]1)c1ccc(-c2c3nc(c(-c4c(F)c(F)c(F)c(F)c4F)c4ccc([nH]4)c(-c4c(F)c(F)c(F)c(F)c4F)c4nc(c(-c5c(F)c(F)c(F)c(F)c5F)c5ccc2[nH]5)C=C4)C=C3)cc1
REMARK SMILES IDX 5 1 4 2 3 3 1 4 2 5 28 7 29 8 90 9 30 10 89 11 31 12 32 13
REMARK SMILES IDX 33 14 83 15 34 16 88 17 82 18 84 19 35 20 87 21 81 22 80 23
REMARK SMILES IDX 36 25 68 26 48 27 67 28 49 29 52 30 66 31 85 32 50 33 51 34
REMARK SMILES IDX 65 36 86 37 53 38 37 39 38 40 46 41 39 42 40 43 44 44 47 45
REMARK SMILES IDX 41 46 42 47 45 48 43 49 69 50 70 51 78 52 71 53 72 54 76 55
REMARK SMILES IDX 79 56 73 57 74 58 77 59 75 60 54 61 55 62 63 63 56 64 57 65
REMARK SMILES IDX 61 66 64 67 58 68 59 69 62 70 60 71 6 72 7 73 8 74 9 75
REMARK SMILES IDX 10 77 11 78 12 79 27 80 13 81 26 82 25 85 14 86 15 87 24 88
REMARK SMILES IDX 16 89 23 90 17 91 18 92 22 93 19 94 21 95 20 96
REMARK H PARENT 3 6 84 24 52 35 8 76 27 83 27 84
REMARK Flexibility Score: inf
ROOT
ATOM      1  C   UNL A   1      31.222  31.921  26.669  1.00  0.00     0.023 C 
ENDROOT
BRANCH   1   2
ATOM      2  C   UNL A   1      32.518  32.616  27.073  1.00  0.00     0.116 C 
BRANCH   2   3
ATOM      3  N   UNL A   1      32.334  33.998  27.485  1.00  0.00    -0.352 N 
ATOM      4  O   UNL A   1      32.731  35.829  28.753  1.00  0.00    -0.269 OA
ATOM      5  C   UNL A   1      33.053  34.696  28.426  1.00  0.00     0.251 C 
ATOM      6  H   UNL A   1      31.610  34.491  27.037  1.00  0.00     0.163 HD
BRANCH   5   7
ATOM      7  C   UNL A   1      34.208  34.034  29.063  1.00  0.00     0.039 A 
ATOM      8  C   UNL A   1      34.011  33.104  30.087  1.00  0.00     0.014 A 
ATOM      9  C   UNL A   1      35.496  34.369  28.639  1.00  0.00     0.014 A 
ATOM     10  C   UNL A   1      35.108  32.573  30.753  1.00  0.00     0.010 A 
ATOM     11  C   UNL A   1      36.597  33.788  29.269  1.00  0.00     0.010 A 
ATOM     12  C   UNL A   1      36.409  32.895  30.335  1.00  0.00    -0.014 A 
BRANCH  12  13
ATOM     13  C   UNL A   1      37.565  32.201  30.947  1.00  0.00     0.031 A 
ATOM     14  C   UNL A   1      38.310  31.129  30.208  1.00  0.00     0.074 A 
ATOM     15  C   UNL A   1      37.914  32.542  32.202  1.00  0.00     0.049 A 
ATOM     16  N   UNL A   1      39.305  30.388  30.623  1.00  0.00    -0.248 NA
ATOM     17  C   UNL A   1      37.882  30.844  28.831  1.00  0.00     0.031 C 
ATOM     18  C   UNL A   1      37.238  33.560  33.013  1.00  0.00     0.029 A 
ATOM     19  N   UNL A   1      38.907  32.072  33.019  1.00  0.00    -0.354 N 
ATOM     20  C   UNL A   1      39.608  29.535  29.571  1.00  0.00     0.074 A 
ATOM     21  C   UNL A   1      38.687  29.842  28.498  1.00  0.00     0.031 C 
ATOM     22  C   UNL A   1      37.843  33.644  34.206  1.00  0.00     0.029 A 
ATOM     23  C   UNL A   1      38.906  32.648  34.265  1.00  0.00     0.049 A 
ATOM     24  H   UNL A   1      39.560  31.389  32.740  1.00  0.00     0.167 HD
ATOM     25  C   UNL A   1      40.572  28.585  29.517  1.00  0.00     0.037 A 
ATOM     26  C   UNL A   1      39.652  32.377  35.351  1.00  0.00     0.037 A 
ATOM     27  C   UNL A   1      41.501  28.313  30.584  1.00  0.00     0.049 A 
ATOM     28  C   UNL A   1      40.691  31.300  35.265  1.00  0.00     0.074 A 
ATOM     29  C   UNL A   1      42.578  27.444  30.588  1.00  0.00     0.029 A 
ATOM     30  N   UNL A   1      41.454  28.898  31.841  1.00  0.00    -0.354 N 
ATOM     31  N   UNL A   1      41.016  30.548  34.241  1.00  0.00    -0.248 NA
ATOM     32  C   UNL A   1      41.461  31.022  36.484  1.00  0.00     0.031 C 
ATOM     33  C   UNL A   1      43.150  27.463  31.864  1.00  0.00     0.029 A 
ATOM     34  C   UNL A   1      42.456  28.375  32.643  1.00  0.00     0.049 A 
ATOM     35  H   UNL A   1      40.806  29.585  32.121  1.00  0.00     0.167 HD
ATOM     36  C   UNL A   1      42.025  29.711  34.689  1.00  0.00     0.074 A 
ATOM     37  C   UNL A   1      42.280  30.065  36.071  1.00  0.00     0.031 C 
ATOM     38  C   UNL A   1      42.678  28.731  34.021  1.00  0.00     0.037 A 
BRANCH  25  39
ATOM     39  C   UNL A   1      40.677  27.749  28.278  1.00  0.00     0.064 A 
ATOM     40  C   UNL A   1      41.466  28.141  27.187  1.00  0.00     0.173 A 
ATOM     41  C   UNL A   1      40.057  26.491  28.222  1.00  0.00     0.173 A 
ATOM     42  F   UNL A   1      42.075  29.336  27.189  1.00  0.00    -0.203 F 
ATOM     43  C   UNL A   1      41.627  27.304  26.084  1.00  0.00     0.198 A 
ATOM     44  C   UNL A   1      40.235  25.650  27.128  1.00  0.00     0.198 A 
ATOM     45  F   UNL A   1      39.296  26.067  29.243  1.00  0.00    -0.203 F 
ATOM     46  F   UNL A   1      42.372  27.705  25.045  1.00  0.00    -0.200 F 
ATOM     47  C   UNL A   1      41.019  26.058  26.059  1.00  0.00     0.200 A 
ATOM     48  F   UNL A   1      39.658  24.440  27.110  1.00  0.00    -0.200 F 
ATOM     49  F   UNL A   1      41.191  25.247  25.004  1.00  0.00    -0.200 F 
ENDBRANCH  25  39
BRANCH  26  50
ATOM     50  C   UNL A   1      39.404  33.113  36.616  1.00  0.00     0.064 A 
ATOM     51  C   UNL A   1      40.047  34.327  36.887  1.00  0.00     0.173 A 
ATOM     52  C   UNL A   1      38.505  32.620  37.576  1.00  0.00     0.173 A 
ATOM     53  F   UNL A   1      40.928  34.828  36.008  1.00  0.00    -0.203 F 
ATOM     54  C   UNL A   1      39.812  35.014  38.076  1.00  0.00     0.198 A 
ATOM     55  C   UNL A   1      38.249  33.322  38.750  1.00  0.00     0.198 A 
ATOM     56  F   UNL A   1      37.861  31.464  37.360  1.00  0.00    -0.203 F 
ATOM     57  F   UNL A   1      40.469  36.153  38.329  1.00  0.00    -0.200 F 
ATOM     58  C   UNL A   1      38.908  34.515  39.003  1.00  0.00     0.200 A 
ATOM     59  F   UNL A   1      37.362  32.845  39.633  1.00  0.00    -0.200 F 
ATOM     60  F   UNL A   1      38.677  35.180  40.142  1.00  0.00    -0.200 F 
ENDBRANCH  26  50
BRANCH  38  61
ATOM     61  C   UNL A   1      43.721  27.970  34.780  1.00  0.00     0.064 A 
ATOM     62  C   UNL A   1      43.414  26.759  35.418  1.00  0.00     0.173 A 
ATOM     63  C   UNL A   1      45.042  28.436  34.842  1.00  0.00     0.173 A 
ATOM     64  F   UNL A   1      42.160  26.287  35.401  1.00  0.00    -0.203 F 
ATOM     65  C   UNL A   1      44.393  26.049  36.107  1.00  0.00     0.198 A 
ATOM     66  C   UNL A   1      46.023  27.709  35.512  1.00  0.00     0.198 A 
ATOM     67  F   UNL A   1      45.384  29.587  34.246  1.00  0.00    -0.203 F 
ATOM     68  F   UNL A   1      44.070  24.915  36.744  1.00  0.00    -0.200 F 
ATOM     69  C   UNL A   1      45.696  26.520  36.147  1.00  0.00     0.200 A 
ATOM     70  F   UNL A   1      47.284  28.161  35.541  1.00  0.00    -0.200 F 
ATOM     71  F   UNL A   1      46.639  25.832  36.806  1.00  0.00    -0.200 F 
ENDBRANCH  38  61
ENDBRANCH  12  13
ENDBRANCH   5   7
ENDBRANCH   2   3
ENDBRANCH   1   2
BRANCH   1  72
ATOM     72  C   UNL A   1      31.394  30.734  25.713  1.00  0.00     0.023 C 
BRANCH  72  73
ATOM     73  C   UNL A   1      32.706  29.980  25.903  1.00  0.00     0.116 C 
BRANCH  73  74
ATOM     74  N   UNL A   1      33.289  29.579  24.640  1.00  0.00    -0.351 N 
ATOM     75  C   UNL A   1      33.132  28.508  23.818  1.00  0.00     0.280 C 
ATOM     76  H   UNL A   1      33.946  30.228  24.299  1.00  0.00     0.163 HD
ATOM     77  O   UNL A   1      33.820  28.543  22.787  1.00  0.00    -0.268 OA
BRANCH  75  78
ATOM     78  C   UNL A   1      32.238  27.280  24.102  1.00  0.00     0.292 C 
ATOM     79  C   UNL A   1      32.755  25.927  23.605  1.00  0.00     0.197 C 
ATOM     80  N   UNL A   1      30.836  27.537  23.641  1.00  0.00    -0.333 N 
ATOM     81  N   UNL A   1      31.866  24.845  24.017  1.00  0.00    -0.312 N 
ATOM     82  C   UNL A   1      29.978  26.424  24.113  1.00  0.00     0.283 C 
ATOM     83  H   UNL A   1      30.811  27.584  22.623  1.00  0.00     0.347 HD
ATOM     84  H   UNL A   1      30.500  28.423  24.019  1.00  0.00     0.347 HD
ATOM     85  C   UNL A   1      30.456  25.007  23.688  1.00  0.00     0.183 C 
BRANCH  81  86
ATOM     86  C   UNL A   1      32.412  23.652  24.309  1.00  0.00     0.324 A 
ATOM     87  N   UNL A   1      32.012  22.469  23.916  1.00  0.00    -0.171 NA
ATOM     88  O   UNL A   1      33.499  23.600  25.138  1.00  0.00    -0.315 OA
ATOM     89  C   UNL A   1      32.948  21.637  24.474  1.00  0.00     0.204 A 
ATOM     90  N   UNL A   1      33.832  22.248  25.275  1.00  0.00    -0.055 NA
BRANCH  89  91
ATOM     91  C   UNL A   1      33.051  20.249  24.075  1.00  0.00     0.023 A 
ATOM     92  C   UNL A   1      32.155  19.678  23.168  1.00  0.00     0.012 A 
ATOM     93  C   UNL A   1      34.078  19.468  24.625  1.00  0.00     0.012 A 
ATOM     94  C   UNL A   1      32.286  18.330  22.819  1.00  0.00     0.001 A 
ATOM     95  C   UNL A   1      34.197  18.120  24.285  1.00  0.00     0.001 A 
ATOM     96  C   UNL A   1      33.300  17.554  23.382  1.00  0.00     0.000 A 
ENDBRANCH  89  91
ENDBRANCH  81  86
ENDBRANCH  75  78
ENDBRANCH  73  74
ENDBRANCH  72  73
ENDBRANCH   1  72
TORSDOF 13
ENDMDL
