MODEL 1
REMARK VINA RESULT:     -14.1      0.000      0.000
REMARK SMILES O=C(NCCCCNC(=O)c1nn(Cc2ccc(F)cc2)c2c1CN(C(=O)[C@H]1CC1(F)F)CC2)c1ccc(-c2c3nc(c(-c4c(F)c(F)c(F)c(F)c4F)c4ccc([nH]4)c(-c4c(F)c(F)c(F)c(F)c4F)c4nc(c(-c5c(F)c(F)c(F)c(F)c5F)c5ccc2[nH]5)C=C4)C=C3)cc1
REMARK SMILES IDX 5 1 4 2 3 3 1 4 2 5 35 7 36 8 97 9 37 10 96 11 38 12 39 13
REMARK SMILES IDX 40 14 90 15 41 16 95 17 89 18 91 19 42 20 94 21 88 22 87 23
REMARK SMILES IDX 43 25 75 26 55 27 74 28 56 29 59 30 73 31 92 32 57 33 58 34
REMARK SMILES IDX 72 36 93 37 60 38 44 39 45 40 53 41 46 42 47 43 51 44 54 45
REMARK SMILES IDX 48 46 49 47 52 48 50 49 76 50 77 51 85 52 78 53 79 54 83 55
REMARK SMILES IDX 86 56 80 57 81 58 84 59 82 60 61 61 62 62 70 63 63 64 64 65
REMARK SMILES IDX 68 66 71 67 65 68 66 69 69 70 67 71 6 72 7 73 8 74 9 75
REMARK SMILES IDX 10 77 11 78 12 79 23 80 13 81 22 82 24 83 34 84 25 85 33 86
REMARK SMILES IDX 14 87 15 88 16 89 21 90 17 91 20 92 18 93 19 94 26 95 27 96
REMARK SMILES IDX 28 97 29 98 30 99 31 100 32 101
REMARK H PARENT 3 6 91 24 59 35 8 76
REMARK Flexibility Score: inf
ROOT
ATOM      1  C   UNL A   1      39.104  22.059  26.156  1.00  0.00     0.023 C 
ENDROOT
BRANCH   1   2
ATOM      2  C   UNL A   1      40.510  21.836  26.711  1.00  0.00     0.116 C 
BRANCH   2   3
ATOM      3  N   UNL A   1      41.579  22.255  25.827  1.00  0.00    -0.352 N 
ATOM      4  O   UNL A   1      43.345  23.222  24.933  1.00  0.00    -0.269 OA
ATOM      5  C   UNL A   1      42.423  23.328  25.748  1.00  0.00     0.251 C 
ATOM      6  H   UNL A   1      41.736  21.607  25.103  1.00  0.00     0.163 HD
BRANCH   5   7
ATOM      7  C   UNL A   1      42.291  24.610  26.495  1.00  0.00     0.039 A 
ATOM      8  C   UNL A   1      42.844  24.906  27.742  1.00  0.00     0.014 A 
ATOM      9  C   UNL A   1      41.504  25.598  25.866  1.00  0.00     0.014 A 
ATOM     10  C   UNL A   1      42.556  26.122  28.370  1.00  0.00     0.010 A 
ATOM     11  C   UNL A   1      41.216  26.809  26.485  1.00  0.00     0.010 A 
ATOM     12  C   UNL A   1      41.714  27.060  27.759  1.00  0.00    -0.014 A 
BRANCH  12  13
ATOM     13  C   UNL A   1      41.481  28.345  28.422  1.00  0.00     0.031 A 
ATOM     14  C   UNL A   1      42.507  29.400  28.145  1.00  0.00     0.074 A 
ATOM     15  C   UNL A   1      40.358  28.643  29.109  1.00  0.00     0.049 A 
ATOM     16  N   UNL A   1      43.223  30.076  28.988  1.00  0.00    -0.248 NA
ATOM     17  C   UNL A   1      42.815  29.695  26.735  1.00  0.00     0.031 C 
ATOM     18  C   UNL A   1      39.125  27.859  29.231  1.00  0.00     0.029 A 
ATOM     19  N   UNL A   1      40.057  29.785  29.794  1.00  0.00    -0.354 N 
ATOM     20  C   UNL A   1      43.988  30.965  28.231  1.00  0.00     0.074 A 
ATOM     21  C   UNL A   1      43.761  30.628  26.848  1.00  0.00     0.031 C 
ATOM     22  C   UNL A   1      38.150  28.633  29.765  1.00  0.00     0.029 A 
ATOM     23  C   UNL A   1      38.719  29.911  30.151  1.00  0.00     0.049 A 
ATOM     24  H   UNL A   1      40.733  30.465  30.017  1.00  0.00     0.167 HD
ATOM     25  C   UNL A   1      44.658  32.015  28.783  1.00  0.00     0.037 A 
ATOM     26  C   UNL A   1      38.123  31.012  30.680  1.00  0.00     0.037 A 
ATOM     27  C   UNL A   1      44.850  31.843  30.195  1.00  0.00     0.049 A 
ATOM     28  C   UNL A   1      39.192  31.863  31.256  1.00  0.00     0.074 A 
ATOM     29  C   UNL A   1      45.565  30.949  30.966  1.00  0.00     0.029 A 
ATOM     30  N   UNL A   1      43.979  32.456  31.057  1.00  0.00    -0.354 N 
ATOM     31  N   UNL A   1      39.905  31.539  32.298  1.00  0.00    -0.248 NA
ATOM     32  C   UNL A   1      39.756  32.896  30.403  1.00  0.00     0.031 C 
ATOM     33  C   UNL A   1      44.742  30.707  32.105  1.00  0.00     0.029 A 
ATOM     34  C   UNL A   1      43.610  31.513  31.984  1.00  0.00     0.049 A 
ATOM     35  H   UNL A   1      43.676  33.392  31.019  1.00  0.00     0.167 HD
ATOM     36  C   UNL A   1      41.177  32.004  32.007  1.00  0.00     0.074 A 
ATOM     37  C   UNL A   1      41.008  32.897  30.864  1.00  0.00     0.031 C 
ATOM     38  C   UNL A   1      42.283  31.413  32.543  1.00  0.00     0.037 A 
BRANCH  25  39
ATOM     39  C   UNL A   1      44.936  33.316  28.080  1.00  0.00     0.064 A 
ATOM     40  C   UNL A   1      43.982  34.353  27.992  1.00  0.00     0.173 A 
ATOM     41  C   UNL A   1      46.251  33.665  27.715  1.00  0.00     0.173 A 
ATOM     42  F   UNL A   1      42.725  34.187  28.425  1.00  0.00    -0.203 F 
ATOM     43  C   UNL A   1      44.311  35.634  27.555  1.00  0.00     0.198 A 
ATOM     44  C   UNL A   1      46.588  34.965  27.323  1.00  0.00     0.198 A 
ATOM     45  F   UNL A   1      47.245  32.768  27.799  1.00  0.00    -0.203 F 
ATOM     46  F   UNL A   1      43.362  36.581  27.508  1.00  0.00    -0.200 F 
ATOM     47  C   UNL A   1      45.618  35.948  27.242  1.00  0.00     0.200 A 
ATOM     48  F   UNL A   1      47.868  35.278  27.078  1.00  0.00    -0.200 F 
ATOM     49  F   UNL A   1      45.946  37.204  26.912  1.00  0.00    -0.200 F 
ENDBRANCH  25  39
BRANCH  26  50
ATOM     50  C   UNL A   1      36.770  31.557  30.403  1.00  0.00     0.064 A 
ATOM     51  C   UNL A   1      36.425  32.027  29.122  1.00  0.00     0.173 A 
ATOM     52  C   UNL A   1      35.908  31.924  31.453  1.00  0.00     0.173 A 
ATOM     53  F   UNL A   1      37.222  31.794  28.069  1.00  0.00    -0.203 F 
ATOM     54  C   UNL A   1      35.311  32.841  28.909  1.00  0.00     0.198 A 
ATOM     55  C   UNL A   1      34.794  32.744  31.239  1.00  0.00     0.198 A 
ATOM     56  F   UNL A   1      36.185  31.556  32.713  1.00  0.00    -0.203 F 
ATOM     57  F   UNL A   1      35.064  33.322  27.682  1.00  0.00    -0.200 F 
ATOM     58  C   UNL A   1      34.505  33.213  29.969  1.00  0.00     0.200 A 
ATOM     59  F   UNL A   1      34.037  33.131  32.276  1.00  0.00    -0.200 F 
ATOM     60  F   UNL A   1      33.482  34.056  29.773  1.00  0.00    -0.200 F 
ENDBRANCH  26  50
BRANCH  38  61
ATOM     61  C   UNL A   1      42.082  30.391  33.630  1.00  0.00     0.064 A 
ATOM     62  C   UNL A   1      42.286  30.785  34.959  1.00  0.00     0.173 A 
ATOM     63  C   UNL A   1      41.868  29.023  33.389  1.00  0.00     0.173 A 
ATOM     64  F   UNL A   1      42.547  32.070  35.246  1.00  0.00    -0.203 F 
ATOM     65  C   UNL A   1      42.286  29.856  35.996  1.00  0.00     0.198 A 
ATOM     66  C   UNL A   1      41.830  28.099  34.434  1.00  0.00     0.198 A 
ATOM     67  F   UNL A   1      41.759  28.549  32.143  1.00  0.00    -0.203 F 
ATOM     68  F   UNL A   1      42.551  30.257  37.247  1.00  0.00    -0.200 F 
ATOM     69  C   UNL A   1      42.052  28.516  35.736  1.00  0.00     0.200 A 
ATOM     70  F   UNL A   1      41.625  26.799  34.177  1.00  0.00    -0.200 F 
ATOM     71  F   UNL A   1      42.072  27.622  36.734  1.00  0.00    -0.200 F 
ENDBRANCH  38  61
ENDBRANCH  12  13
ENDBRANCH   5   7
ENDBRANCH   2   3
ENDBRANCH   1   2
BRANCH   1  72
ATOM     72  C   UNL A   1      38.441  23.393  26.540  1.00  0.00     0.023 C 
BRANCH  72  73
ATOM     73  C   UNL A   1      37.165  23.774  25.777  1.00  0.00     0.116 C 
BRANCH  73  74
ATOM     74  N   UNL A   1      37.277  23.518  24.351  1.00  0.00    -0.351 N 
ATOM     75  C   UNL A   1      36.305  23.232  23.414  1.00  0.00     0.272 C 
ATOM     76  H   UNL A   1      38.195  23.555  23.995  1.00  0.00     0.163 HD
ATOM     77  O   UNL A   1      36.687  22.868  22.298  1.00  0.00    -0.267 OA
BRANCH  75  78
ATOM     78  C   UNL A   1      34.868  23.318  23.738  1.00  0.00     0.155 A 
ATOM     79  N   UNL A   1      34.099  24.390  23.447  1.00  0.00    -0.167 NA
ATOM     80  C   UNL A   1      34.073  22.286  24.318  1.00  0.00     0.026 A 
ATOM     81  N   UNL A   1      32.866  24.081  23.915  1.00  0.00    -0.264 N 
ATOM     82  C   UNL A   1      32.826  22.850  24.493  1.00  0.00     0.046 A 
ATOM     83  C   UNL A   1      34.426  20.894  24.742  1.00  0.00     0.159 C 
ATOM     84  C   UNL A   1      31.683  22.180  25.164  1.00  0.00     0.078 C 
ATOM     85  N   UNL A   1      33.200  20.213  25.225  1.00  0.00    -0.337 N 
ATOM     86  C   UNL A   1      32.257  21.029  26.016  1.00  0.00     0.126 C 
BRANCH  81  87
ATOM     87  C   UNL A   1      31.742  24.973  23.654  1.00  0.00     0.180 C 
BRANCH  87  88
ATOM     88  C   UNL A   1      31.722  26.163  24.581  1.00  0.00    -0.026 A 
ATOM     89  C   UNL A   1      31.550  27.457  24.057  1.00  0.00     0.008 A 
ATOM     90  C   UNL A   1      31.860  26.002  25.969  1.00  0.00     0.008 A 
ATOM     91  C   UNL A   1      31.508  28.565  24.903  1.00  0.00     0.039 A 
ATOM     92  C   UNL A   1      31.815  27.114  26.813  1.00  0.00     0.039 A 
ATOM     93  C   UNL A   1      31.637  28.382  26.273  1.00  0.00     0.123 A 
ATOM     94  F   UNL A   1      31.590  29.445  27.087  1.00  0.00    -0.207 F 
ENDBRANCH  87  88
ENDBRANCH  81  87
BRANCH  85  95
ATOM     95  C   UNL A   1      33.014  18.870  24.917  1.00  0.00     0.232 C 
ATOM     96  O   UNL A   1      32.043  18.221  25.273  1.00  0.00    -0.274 OA
BRANCH  95  97
ATOM     97  C   UNL A   1      34.042  18.233  24.065  1.00  0.00     0.154 C 
ATOM     98  C   UNL A   1      35.030  17.242  24.661  1.00  0.00     0.097 C 
ATOM     99  C   UNL A   1      33.968  16.791  23.730  1.00  0.00     0.260 C 
ATOM    100  F   UNL A   1      32.997  15.943  24.201  1.00  0.00    -0.206 F 
ATOM    101  F   UNL A   1      34.338  16.339  22.482  1.00  0.00    -0.206 F 
ENDBRANCH  95  97
ENDBRANCH  85  95
ENDBRANCH  75  78
ENDBRANCH  73  74
ENDBRANCH  72  73
ENDBRANCH   1  72
TORSDOF 15
ENDMDL
MODEL 2
REMARK VINA RESULT:     -14.1      3.794      9.562
REMARK SMILES O=C(NCCCCNC(=O)c1nn(Cc2ccc(F)cc2)c2c1CN(C(=O)[C@H]1CC1(F)F)CC2)c1ccc(-c2c3nc(c(-c4c(F)c(F)c(F)c(F)c4F)c4ccc([nH]4)c(-c4c(F)c(F)c(F)c(F)c4F)c4nc(c(-c5c(F)c(F)c(F)c(F)c5F)c5ccc2[nH]5)C=C4)C=C3)cc1
REMARK SMILES IDX 5 1 4 2 3 3 1 4 2 5 35 7 36 8 97 9 37 10 96 11 38 12 39 13
REMARK SMILES IDX 40 14 90 15 41 16 95 17 89 18 91 19 42 20 94 21 88 22 87 23
REMARK SMILES IDX 43 25 75 26 55 27 74 28 56 29 59 30 73 31 92 32 57 33 58 34
REMARK SMILES IDX 72 36 93 37 60 38 44 39 45 40 53 41 46 42 47 43 51 44 54 45
REMARK SMILES IDX 48 46 49 47 52 48 50 49 76 50 77 51 85 52 78 53 79 54 83 55
REMARK SMILES IDX 86 56 80 57 81 58 84 59 82 60 61 61 62 62 70 63 63 64 64 65
REMARK SMILES IDX 68 66 71 67 65 68 66 69 69 70 67 71 6 72 7 73 8 74 9 75
REMARK SMILES IDX 10 77 11 78 12 79 23 80 13 81 22 82 24 83 34 84 25 85 33 86
REMARK SMILES IDX 14 87 15 88 16 89 21 90 17 91 20 92 18 93 19 94 26 95 27 96
REMARK SMILES IDX 28 97 29 98 30 99 31 100 32 101
REMARK H PARENT 3 6 91 24 59 35 8 76
REMARK Flexibility Score: inf
ROOT
ATOM      1  C   UNL A   1      34.048  31.268  27.529  1.00  0.00     0.023 C 
ENDROOT
BRANCH   1   2
ATOM      2  C   UNL A   1      34.664  32.428  28.309  1.00  0.00     0.116 C 
BRANCH   2   3
ATOM      3  N   UNL A   1      34.508  32.337  29.747  1.00  0.00    -0.352 N 
ATOM      4  O   UNL A   1      34.846  32.224  31.920  1.00  0.00    -0.269 OA
ATOM      5  C   UNL A   1      35.306  31.986  30.800  1.00  0.00     0.251 C 
ATOM      6  H   UNL A   1      33.602  32.589  30.037  1.00  0.00     0.163 HD
BRANCH   5   7
ATOM      7  C   UNL A   1      36.625  31.297  30.715  1.00  0.00     0.039 A 
ATOM      8  C   UNL A   1      37.875  31.907  30.604  1.00  0.00     0.014 A 
ATOM      9  C   UNL A   1      36.572  29.887  30.728  1.00  0.00     0.014 A 
ATOM     10  C   UNL A   1      39.026  31.129  30.436  1.00  0.00     0.010 A 
ATOM     11  C   UNL A   1      37.713  29.110  30.563  1.00  0.00     0.010 A 
ATOM     12  C   UNL A   1      38.942  29.733  30.380  1.00  0.00    -0.014 A 
BRANCH  12  13
ATOM     13  C   UNL A   1      40.176  28.951  30.259  1.00  0.00     0.031 A 
ATOM     14  C   UNL A   1      40.906  28.710  31.544  1.00  0.00     0.074 A 
ATOM     15  C   UNL A   1      40.571  28.343  29.121  1.00  0.00     0.049 A 
ATOM     16  N   UNL A   1      42.135  28.991  31.843  1.00  0.00    -0.248 NA
ATOM     17  C   UNL A   1      40.141  28.135  32.664  1.00  0.00     0.031 C 
ATOM     18  C   UNL A   1      39.844  28.210  27.855  1.00  0.00     0.029 A 
ATOM     19  N   UNL A   1      41.712  27.630  28.889  1.00  0.00    -0.354 N 
ATOM     20  C   UNL A   1      42.342  28.525  33.142  1.00  0.00     0.074 A 
ATOM     21  C   UNL A   1      41.059  28.085  33.629  1.00  0.00     0.031 C 
ATOM     22  C   UNL A   1      40.465  27.295  27.072  1.00  0.00     0.029 A 
ATOM     23  C   UNL A   1      41.702  26.887  27.714  1.00  0.00     0.049 A 
ATOM     24  H   UNL A   1      42.480  27.641  29.504  1.00  0.00     0.167 HD
ATOM     25  C   UNL A   1      43.582  28.402  33.692  1.00  0.00     0.037 A 
ATOM     26  C   UNL A   1      42.625  25.966  27.331  1.00  0.00     0.037 A 
ATOM     27  C   UNL A   1      44.557  29.189  32.993  1.00  0.00     0.049 A 
ATOM     28  C   UNL A   1      43.863  26.229  28.105  1.00  0.00     0.074 A 
ATOM     29  C   UNL A   1      44.746  30.544  32.809  1.00  0.00     0.029 A 
ATOM     30  N   UNL A   1      45.345  28.579  32.053  1.00  0.00    -0.354 N 
ATOM     31  N   UNL A   1      44.608  27.287  27.958  1.00  0.00    -0.248 NA
ATOM     32  C   UNL A   1      44.036  25.504  29.353  1.00  0.00     0.031 C 
ATOM     33  C   UNL A   1      45.211  30.671  31.468  1.00  0.00     0.029 A 
ATOM     34  C   UNL A   1      45.333  29.384  30.942  1.00  0.00     0.049 A 
ATOM     35  H   UNL A   1      45.827  27.726  32.154  1.00  0.00     0.167 HD
ATOM     36  C   UNL A   1      45.021  27.604  29.242  1.00  0.00     0.074 A 
ATOM     37  C   UNL A   1      44.702  26.428  30.048  1.00  0.00     0.031 C 
ATOM     38  C   UNL A   1      45.332  28.886  29.587  1.00  0.00     0.037 A 
BRANCH  25  39
ATOM     39  C   UNL A   1      43.960  27.377  34.728  1.00  0.00     0.064 A 
ATOM     40  C   UNL A   1      44.085  27.690  36.098  1.00  0.00     0.173 A 
ATOM     41  C   UNL A   1      43.940  26.004  34.415  1.00  0.00     0.173 A 
ATOM     42  F   UNL A   1      43.994  28.952  36.540  1.00  0.00    -0.203 F 
ATOM     43  C   UNL A   1      44.200  26.709  37.080  1.00  0.00     0.198 A 
ATOM     44  C   UNL A   1      44.007  25.020  35.408  1.00  0.00     0.198 A 
ATOM     45  F   UNL A   1      43.785  25.592  33.148  1.00  0.00    -0.203 F 
ATOM     46  F   UNL A   1      44.300  27.070  38.367  1.00  0.00    -0.200 F 
ATOM     47  C   UNL A   1      44.138  25.373  36.738  1.00  0.00     0.200 A 
ATOM     48  F   UNL A   1      43.887  23.727  35.075  1.00  0.00    -0.200 F 
ATOM     49  F   UNL A   1      44.156  24.434  37.694  1.00  0.00    -0.200 F 
ENDBRANCH  25  39
BRANCH  26  50
ATOM     50  C   UNL A   1      42.411  24.670  26.638  1.00  0.00     0.064 A 
ATOM     51  C   UNL A   1      41.735  23.611  27.272  1.00  0.00     0.173 A 
ATOM     52  C   UNL A   1      43.139  24.339  25.480  1.00  0.00     0.173 A 
ATOM     53  F   UNL A   1      41.075  23.810  28.422  1.00  0.00    -0.203 F 
ATOM     54  C   UNL A   1      41.810  22.299  26.800  1.00  0.00     0.198 A 
ATOM     55  C   UNL A   1      43.218  23.023  25.011  1.00  0.00     0.198 A 
ATOM     56  F   UNL A   1      43.849  25.279  24.838  1.00  0.00    -0.203 F 
ATOM     57  F   UNL A   1      41.207  21.313  27.480  1.00  0.00    -0.200 F 
ATOM     58  C   UNL A   1      42.565  22.002  25.681  1.00  0.00     0.200 A 
ATOM     59  F   UNL A   1      43.980  22.735  23.946  1.00  0.00    -0.200 F 
ATOM     60  F   UNL A   1      42.697  20.731  25.276  1.00  0.00    -0.200 F 
ENDBRANCH  26  50
BRANCH  38  61
ATOM     61  C   UNL A   1      45.430  29.909  28.489  1.00  0.00     0.064 A 
ATOM     62  C   UNL A   1      46.703  30.254  28.014  1.00  0.00     0.173 A 
ATOM     63  C   UNL A   1      44.342  30.668  28.024  1.00  0.00     0.173 A 
ATOM     64  F   UNL A   1      47.787  29.600  28.462  1.00  0.00    -0.203 F 
ATOM     65  C   UNL A   1      46.881  31.311  27.126  1.00  0.00     0.198 A 
ATOM     66  C   UNL A   1      44.518  31.702  27.104  1.00  0.00     0.198 A 
ATOM     67  F   UNL A   1      43.107  30.467  28.498  1.00  0.00    -0.203 F 
ATOM     68  F   UNL A   1      48.118  31.657  26.743  1.00  0.00    -0.200 F 
ATOM     69  C   UNL A   1      45.790  32.030  26.665  1.00  0.00     0.200 A 
ATOM     70  F   UNL A   1      43.463  32.411  26.676  1.00  0.00    -0.200 F 
ATOM     71  F   UNL A   1      45.967  33.059  25.825  1.00  0.00    -0.200 F 
ENDBRANCH  38  61
ENDBRANCH  12  13
ENDBRANCH   5   7
ENDBRANCH   2   3
ENDBRANCH   1   2
BRANCH   1  72
ATOM     72  C   UNL A   1      34.950  30.036  27.344  1.00  0.00     0.023 C 
BRANCH  72  73
ATOM     73  C   UNL A   1      34.259  28.731  26.928  1.00  0.00     0.116 C 
BRANCH  73  74
ATOM     74  N   UNL A   1      33.049  28.478  27.694  1.00  0.00    -0.351 N 
ATOM     75  C   UNL A   1      31.894  27.807  27.347  1.00  0.00     0.272 C 
ATOM     76  H   UNL A   1      33.055  28.844  28.608  1.00  0.00     0.163 HD
ATOM     77  O   UNL A   1      30.936  27.898  28.119  1.00  0.00    -0.267 OA
BRANCH  75  78
ATOM     78  C   UNL A   1      31.790  27.044  26.088  1.00  0.00     0.155 A 
ATOM     79  N   UNL A   1      31.951  25.706  26.009  1.00  0.00    -0.167 NA
ATOM     80  C   UNL A   1      31.437  27.572  24.811  1.00  0.00     0.026 A 
ATOM     81  N   UNL A   1      31.794  25.405  24.698  1.00  0.00    -0.264 N 
ATOM     82  C   UNL A   1      31.539  26.506  23.941  1.00  0.00     0.046 A 
ATOM     83  C   UNL A   1      31.083  28.964  24.386  1.00  0.00     0.159 C 
ATOM     84  C   UNL A   1      31.362  26.596  22.470  1.00  0.00     0.078 C 
ATOM     85  N   UNL A   1      30.730  28.951  22.945  1.00  0.00    -0.337 N 
ATOM     86  C   UNL A   1      31.539  28.077  22.072  1.00  0.00     0.126 C 
BRANCH  81  87
ATOM     87  C   UNL A   1      31.776  24.011  24.268  1.00  0.00     0.180 C 
BRANCH  87  88
ATOM     88  C   UNL A   1      33.155  23.399  24.236  1.00  0.00    -0.026 A 
ATOM     89  C   UNL A   1      33.442  22.277  25.034  1.00  0.00     0.008 A 
ATOM     90  C   UNL A   1      34.162  23.924  23.410  1.00  0.00     0.008 A 
ATOM     91  C   UNL A   1      34.706  21.687  25.000  1.00  0.00     0.039 A 
ATOM     92  C   UNL A   1      35.425  23.329  23.376  1.00  0.00     0.039 A 
ATOM     93  C   UNL A   1      35.684  22.217  24.169  1.00  0.00     0.123 A 
ATOM     94  F   UNL A   1      36.895  21.647  24.131  1.00  0.00    -0.207 F 
ENDBRANCH  87  88
ENDBRANCH  81  87
BRANCH  85  95
ATOM     95  C   UNL A   1      29.682  29.753  22.505  1.00  0.00     0.232 C 
ATOM     96  O   UNL A   1      29.341  29.841  21.336  1.00  0.00    -0.274 OA
BRANCH  95  97
ATOM     97  C   UNL A   1      28.924  30.488  23.541  1.00  0.00     0.154 C 
ATOM     98  C   UNL A   1      29.215  31.956  23.812  1.00  0.00     0.097 C 
ATOM     99  C   UNL A   1      27.946  31.537  23.170  1.00  0.00     0.260 C 
ATOM    100  F   UNL A   1      27.700  31.934  21.879  1.00  0.00    -0.206 F 
ATOM    101  F   UNL A   1      26.773  31.687  23.876  1.00  0.00    -0.206 F 
ENDBRANCH  95  97
ENDBRANCH  85  95
ENDBRANCH  75  78
ENDBRANCH  73  74
ENDBRANCH  72  73
ENDBRANCH   1  72
TORSDOF 15
ENDMDL
MODEL 3
REMARK VINA RESULT:     -14.0      1.173      4.482
REMARK SMILES O=C(NCCCCNC(=O)c1nn(Cc2ccc(F)cc2)c2c1CN(C(=O)[C@H]1CC1(F)F)CC2)c1ccc(-c2c3nc(c(-c4c(F)c(F)c(F)c(F)c4F)c4ccc([nH]4)c(-c4c(F)c(F)c(F)c(F)c4F)c4nc(c(-c5c(F)c(F)c(F)c(F)c5F)c5ccc2[nH]5)C=C4)C=C3)cc1
REMARK SMILES IDX 5 1 4 2 3 3 1 4 2 5 35 7 36 8 97 9 37 10 96 11 38 12 39 13
REMARK SMILES IDX 40 14 90 15 41 16 95 17 89 18 91 19 42 20 94 21 88 22 87 23
REMARK SMILES IDX 43 25 75 26 55 27 74 28 56 29 59 30 73 31 92 32 57 33 58 34
REMARK SMILES IDX 72 36 93 37 60 38 44 39 45 40 53 41 46 42 47 43 51 44 54 45
REMARK SMILES IDX 48 46 49 47 52 48 50 49 76 50 77 51 85 52 78 53 79 54 83 55
REMARK SMILES IDX 86 56 80 57 81 58 84 59 82 60 61 61 62 62 70 63 63 64 64 65
REMARK SMILES IDX 68 66 71 67 65 68 66 69 69 70 67 71 6 72 7 73 8 74 9 75
REMARK SMILES IDX 10 77 11 78 12 79 23 80 13 81 22 82 24 83 34 84 25 85 33 86
REMARK SMILES IDX 14 87 15 88 16 89 21 90 17 91 20 92 18 93 19 94 26 95 27 96
REMARK SMILES IDX 28 97 29 98 30 99 31 100 32 101
REMARK H PARENT 3 6 91 24 59 35 8 76
REMARK Flexibility Score: inf
ROOT
ATOM      1  C   UNL A   1      38.947  22.093  26.159  1.00  0.00     0.023 C 
ENDROOT
BRANCH   1   2
ATOM      2  C   UNL A   1      40.337  21.768  26.702  1.00  0.00     0.116 C 
BRANCH   2   3
ATOM      3  N   UNL A   1      41.430  22.168  25.837  1.00  0.00    -0.352 N 
ATOM      4  O   UNL A   1      43.233  23.096  24.979  1.00  0.00    -0.269 OA
ATOM      5  C   UNL A   1      42.304  23.218  25.783  1.00  0.00     0.251 C 
ATOM      6  H   UNL A   1      41.579  21.524  25.108  1.00  0.00     0.163 HD
BRANCH   5   7
ATOM      7  C   UNL A   1      42.196  24.494  26.544  1.00  0.00     0.039 A 
ATOM      8  C   UNL A   1      42.796  24.784  27.770  1.00  0.00     0.014 A 
ATOM      9  C   UNL A   1      41.382  25.483  25.952  1.00  0.00     0.014 A 
ATOM     10  C   UNL A   1      42.529  25.995  28.416  1.00  0.00     0.010 A 
ATOM     11  C   UNL A   1      41.114  26.690  26.590  1.00  0.00     0.010 A 
ATOM     12  C   UNL A   1      41.660  26.933  27.845  1.00  0.00    -0.014 A 
BRANCH  12  13
ATOM     13  C   UNL A   1      41.449  28.213  28.526  1.00  0.00     0.031 A 
ATOM     14  C   UNL A   1      42.502  29.248  28.278  1.00  0.00     0.074 A 
ATOM     15  C   UNL A   1      40.324  28.527  29.203  1.00  0.00     0.049 A 
ATOM     16  N   UNL A   1      43.223  29.893  29.141  1.00  0.00    -0.248 NA
ATOM     17  C   UNL A   1      42.836  29.557  26.878  1.00  0.00     0.031 C 
ATOM     18  C   UNL A   1      39.072  27.770  29.298  1.00  0.00     0.029 A 
ATOM     19  N   UNL A   1      40.041  29.664  29.902  1.00  0.00    -0.354 N 
ATOM     20  C   UNL A   1      44.019  30.776  28.408  1.00  0.00     0.074 A 
ATOM     21  C   UNL A   1      43.802  30.466  27.017  1.00  0.00     0.031 C 
ATOM     22  C   UNL A   1      38.108  28.558  29.831  1.00  0.00     0.029 A 
ATOM     23  C   UNL A   1      38.702  29.817  30.245  1.00  0.00     0.049 A 
ATOM     24  H   UNL A   1      40.730  30.325  30.144  1.00  0.00     0.167 HD
ATOM     25  C   UNL A   1      44.706  31.801  28.985  1.00  0.00     0.037 A 
ATOM     26  C   UNL A   1      38.125  30.923  30.783  1.00  0.00     0.037 A 
ATOM     27  C   UNL A   1      44.875  31.602  30.396  1.00  0.00     0.049 A 
ATOM     28  C   UNL A   1      39.206  31.739  31.387  1.00  0.00     0.074 A 
ATOM     29  C   UNL A   1      45.559  30.680  31.162  1.00  0.00     0.029 A 
ATOM     30  N   UNL A   1      44.008  32.222  31.257  1.00  0.00    -0.354 N 
ATOM     31  N   UNL A   1      39.897  31.383  32.432  1.00  0.00    -0.248 NA
ATOM     32  C   UNL A   1      39.805  32.772  30.557  1.00  0.00     0.031 C 
ATOM     33  C   UNL A   1      44.716  30.440  32.286  1.00  0.00     0.029 A 
ATOM     34  C   UNL A   1      43.605  31.275  32.164  1.00  0.00     0.049 A 
ATOM     35  H   UNL A   1      43.727  33.166  31.230  1.00  0.00     0.167 HD
ATOM     36  C   UNL A   1      41.184  31.821  32.165  1.00  0.00     0.074 A 
ATOM     37  C   UNL A   1      41.050  32.736  31.033  1.00  0.00     0.031 C 
ATOM     38  C   UNL A   1      42.269  31.197  32.705  1.00  0.00     0.037 A 
BRANCH  25  39
ATOM     39  C   UNL A   1      45.023  33.106  28.307  1.00  0.00     0.064 A 
ATOM     40  C   UNL A   1      46.256  33.351  27.665  1.00  0.00     0.173 A 
ATOM     41  C   UNL A   1      44.004  34.043  28.047  1.00  0.00     0.173 A 
ATOM     42  F   UNL A   1      47.266  32.474  27.731  1.00  0.00    -0.203 F 
ATOM     43  C   UNL A   1      46.462  34.456  26.841  1.00  0.00     0.198 A 
ATOM     44  C   UNL A   1      44.199  35.125  27.181  1.00  0.00     0.198 A 
ATOM     45  F   UNL A   1      42.779  33.886  28.573  1.00  0.00    -0.203 F 
ATOM     46  F   UNL A   1      47.652  34.625  26.247  1.00  0.00    -0.200 F 
ATOM     47  C   UNL A   1      45.427  35.331  26.580  1.00  0.00     0.200 A 
ATOM     48  F   UNL A   1      43.173  35.937  26.886  1.00  0.00    -0.200 F 
ATOM     49  F   UNL A   1      45.603  36.339  25.716  1.00  0.00    -0.200 F 
ENDBRANCH  25  39
BRANCH  26  50
ATOM     50  C   UNL A   1      36.788  31.504  30.498  1.00  0.00     0.064 A 
ATOM     51  C   UNL A   1      36.472  32.002  29.220  1.00  0.00     0.173 A 
ATOM     52  C   UNL A   1      35.922  31.875  31.543  1.00  0.00     0.173 A 
ATOM     53  F   UNL A   1      37.276  31.767  28.174  1.00  0.00    -0.203 F 
ATOM     54  C   UNL A   1      35.380  32.845  29.006  1.00  0.00     0.198 A 
ATOM     55  C   UNL A   1      34.830  32.724  31.327  1.00  0.00     0.198 A 
ATOM     56  F   UNL A   1      36.175  31.481  32.800  1.00  0.00    -0.203 F 
ATOM     57  F   UNL A   1      35.160  33.351  27.784  1.00  0.00    -0.200 F 
ATOM     58  C   UNL A   1      34.569  33.220  30.062  1.00  0.00     0.200 A 
ATOM     59  F   UNL A   1      34.070  33.113  32.361  1.00  0.00    -0.200 F 
ATOM     60  F   UNL A   1      33.568  34.090  29.866  1.00  0.00    -0.200 F 
ENDBRANCH  26  50
BRANCH  38  61
ATOM     61  C   UNL A   1      42.030  30.163  33.772  1.00  0.00     0.064 A 
ATOM     62  C   UNL A   1      42.323  30.499  35.101  1.00  0.00     0.173 A 
ATOM     63  C   UNL A   1      41.692  28.824  33.506  1.00  0.00     0.173 A 
ATOM     64  F   UNL A   1      42.703  31.749  35.409  1.00  0.00    -0.203 F 
ATOM     65  C   UNL A   1      42.290  29.543  36.113  1.00  0.00     0.198 A 
ATOM     66  C   UNL A   1      41.622  27.877  34.527  1.00  0.00     0.198 A 
ATOM     67  F   UNL A   1      41.490  28.399  32.254  1.00  0.00    -0.203 F 
ATOM     68  F   UNL A   1      42.641  29.883  37.361  1.00  0.00    -0.200 F 
ATOM     69  C   UNL A   1      41.934  28.235  35.828  1.00  0.00     0.200 A 
ATOM     70  F   UNL A   1      41.298  26.606  34.246  1.00  0.00    -0.200 F 
ATOM     71  F   UNL A   1      41.921  27.313  36.801  1.00  0.00    -0.200 F 
ENDBRANCH  38  61
ENDBRANCH  12  13
ENDBRANCH   5   7
ENDBRANCH   2   3
ENDBRANCH   1   2
BRANCH   1  72
ATOM     72  C   UNL A   1      38.382  23.468  26.556  1.00  0.00     0.023 C 
BRANCH  72  73
ATOM     73  C   UNL A   1      37.028  23.859  25.950  1.00  0.00     0.116 C 
BRANCH  73  74
ATOM     74  N   UNL A   1      37.020  23.751  24.500  1.00  0.00    -0.351 N 
ATOM     75  C   UNL A   1      36.040  23.295  23.642  1.00  0.00     0.272 C 
ATOM     76  H   UNL A   1      37.847  24.053  24.059  1.00  0.00     0.163 HD
ATOM     77  O   UNL A   1      36.356  23.130  22.461  1.00  0.00    -0.267 OA
BRANCH  75  78
ATOM     78  C   UNL A   1      34.679  22.979  24.118  1.00  0.00     0.155 A 
ATOM     79  N   UNL A   1      34.199  21.722  24.230  1.00  0.00    -0.167 NA
ATOM     80  C   UNL A   1      33.716  23.917  24.595  1.00  0.00     0.026 A 
ATOM     81  N   UNL A   1      32.930  21.864  24.680  1.00  0.00    -0.264 N 
ATOM     82  C   UNL A   1      32.587  23.168  24.858  1.00  0.00     0.046 A 
ATOM     83  C   UNL A   1      33.786  25.404  24.753  1.00  0.00     0.159 C 
ATOM     84  C   UNL A   1      31.280  23.731  25.284  1.00  0.00     0.078 C 
ATOM     85  N   UNL A   1      32.521  25.883  25.362  1.00  0.00    -0.337 N 
ATOM     86  C   UNL A   1      31.277  25.228  24.908  1.00  0.00     0.126 C 
BRANCH  81  87
ATOM     87  C   UNL A   1      32.147  20.686  25.039  1.00  0.00     0.180 C 
BRANCH  87  88
ATOM     88  C   UNL A   1      32.707  19.417  24.443  1.00  0.00    -0.026 A 
ATOM     89  C   UNL A   1      32.328  19.025  23.147  1.00  0.00     0.008 A 
ATOM     90  C   UNL A   1      33.615  18.621  25.160  1.00  0.00     0.008 A 
ATOM     91  C   UNL A   1      32.853  17.866  22.575  1.00  0.00     0.039 A 
ATOM     92  C   UNL A   1      34.140  17.462  24.583  1.00  0.00     0.039 A 
ATOM     93  C   UNL A   1      33.756  17.098  23.297  1.00  0.00     0.123 A 
ATOM     94  F   UNL A   1      34.266  15.989  22.746  1.00  0.00    -0.207 F 
ENDBRANCH  87  88
ENDBRANCH  81  87
BRANCH  85  95
ATOM     95  C   UNL A   1      32.575  26.906  26.303  1.00  0.00     0.232 C 
ATOM     96  O   UNL A   1      31.830  26.979  27.267  1.00  0.00    -0.274 OA
BRANCH  95  97
ATOM     97  C   UNL A   1      33.640  27.917  26.128  1.00  0.00     0.154 C 
ATOM     98  C   UNL A   1      33.445  29.082  25.169  1.00  0.00     0.097 C 
ATOM     99  C   UNL A   1      33.470  29.299  26.635  1.00  0.00     0.260 C 
ATOM    100  F   UNL A   1      32.332  29.755  27.252  1.00  0.00    -0.206 F 
ATOM    101  F   UNL A   1      34.534  29.984  27.178  1.00  0.00    -0.206 F 
ENDBRANCH  95  97
ENDBRANCH  85  95
ENDBRANCH  75  78
ENDBRANCH  73  74
ENDBRANCH  72  73
ENDBRANCH   1  72
TORSDOF 15
ENDMDL
