MODEL 1
REMARK VINA RESULT:     -11.8      0.000      0.000
REMARK SMILES COCC[N@@H+](CC(=O)NCCCCNC(=O)c1ccc(-c2c3nc(c(-c4c(F)c(F)c(F)c(F)c4F)c4ccc([nH]4)c(-c4c(F)c(F)c(F)c(F)c4F)c4nc(c(-c5c(F)c(F)c(F)c(F)c5F)c5ccc2[nH]5)C=C4)C=C3)cc1)Cc1cc(F)cc(Br)c1
REMARK SMILES IDX 10 1 9 2 7 3 8 4 6 6 5 7 4 9 3 10 2 11 1 12 80 13 81 14
REMARK SMILES IDX 82 15 88 16 83 17 86 18 84 19 85 20 87 21 11 22 12 23 13 24
REMARK SMILES IDX 14 25 15 26 16 28 17 29 18 30 79 31 19 32 78 33 20 34 21 35
REMARK SMILES IDX 22 36 72 37 23 38 77 39 71 40 73 41 24 42 76 43 70 44 69 45
REMARK SMILES IDX 25 47 57 48 37 49 56 50 38 51 41 52 55 53 74 54 39 55 40 56
REMARK SMILES IDX 54 58 75 59 42 60 26 61 27 62 35 63 28 64 29 65 33 66 36 67
REMARK SMILES IDX 30 68 31 69 34 70 32 71 58 72 59 73 67 74 60 75 61 76 65 77
REMARK SMILES IDX 68 78 62 79 63 80 66 81 64 82 43 83 44 84 52 85 45 86 46 87
REMARK SMILES IDX 50 88 53 89 47 90 48 91 51 92 49 93
REMARK H PARENT 9 5 5 8 14 27 73 46 41 57
REMARK Flexibility Score: inf
ROOT
ATOM      1  C   UNL A   1      33.042  30.053  26.540  1.00  0.00     0.116 C 
ENDROOT
BRANCH   1   2
ATOM      2  N   UNL A   1      33.714  29.494  25.380  1.00  0.00    -0.351 N 
ATOM      3  C   UNL A   1      33.430  28.445  24.543  1.00  0.00     0.275 C 
ATOM      4  O   UNL A   1      34.205  28.283  23.592  1.00  0.00    -0.269 OA
ATOM      5  H   UNL A   1      34.547  29.964  25.146  1.00  0.00     0.163 HD
BRANCH   3   6
ATOM      6  C   UNL A   1      32.235  27.502  24.713  1.00  0.00     0.363 C 
BRANCH   6   7
ATOM      7  N   UNL A   1      31.581  26.998  23.489  1.00  0.00    -0.322 N 
ATOM      8  H   UNL A   1      30.586  26.881  23.681  1.00  0.00     0.348 HD
BRANCH   7   9
ATOM      9  C   UNL A   1      31.911  25.619  23.190  1.00  0.00     0.291 C 
BRANCH   9  10
ATOM     10  C   UNL A   1      33.180  25.076  22.532  1.00  0.00     0.221 C 
BRANCH  10  11
ATOM     11  O   UNL A   1      33.511  25.764  21.332  1.00  0.00    -0.379 OA
ATOM     12  C   UNL A   1      32.633  25.489  20.258  1.00  0.00     0.195 C 
ENDBRANCH  10  11
ENDBRANCH   9  10
ENDBRANCH   7   9
BRANCH   7  13
ATOM     13  C   UNL A   1      31.149  27.955  22.470  1.00  0.00     0.299 C 
BRANCH  13  14
ATOM     14  C   UNL A   1      29.875  28.799  22.555  1.00  0.00     0.010 A 
ATOM     15  C   UNL A   1      28.691  28.182  23.003  1.00  0.00     0.048 A 
ATOM     16  C   UNL A   1      29.807  30.186  22.413  1.00  0.00     0.025 A 
ATOM     17  C   UNL A   1      27.539  28.928  23.290  1.00  0.00     0.124 A 
ATOM     18  C   UNL A   1      28.681  30.938  22.777  1.00  0.00     0.021 A 
ATOM     19  F   UNL A   1      26.434  28.296  23.707  1.00  0.00    -0.207 F 
ATOM     20  C   UNL A   1      27.527  30.309  23.201  1.00  0.00     0.055 A 
ATOM     21  Br  UNL A   1      28.763  32.831  22.797  1.00  0.00    -0.051 Br
ENDBRANCH  13  14
ENDBRANCH   7  13
ENDBRANCH   6   7
ENDBRANCH   3   6
ENDBRANCH   1   2
BRANCH   1  22
ATOM     22  C   UNL A   1      31.681  30.747  26.286  1.00  0.00     0.023 C 
BRANCH  22  23
ATOM     23  C   UNL A   1      31.500  32.206  26.638  1.00  0.00     0.023 C 
BRANCH  23  24
ATOM     24  C   UNL A   1      32.613  32.817  27.435  1.00  0.00     0.116 C 
BRANCH  24  25
ATOM     25  N   UNL A   1      32.404  34.238  27.652  1.00  0.00    -0.352 N 
ATOM     26  C   UNL A   1      32.997  35.052  28.588  1.00  0.00     0.251 C 
ATOM     27  H   UNL A   1      31.757  34.673  27.052  1.00  0.00     0.163 HD
ATOM     28  O   UNL A   1      32.576  36.177  28.794  1.00  0.00    -0.269 OA
BRANCH  26  29
ATOM     29  C   UNL A   1      34.139  34.518  29.360  1.00  0.00     0.039 A 
ATOM     30  C   UNL A   1      33.900  33.886  30.580  1.00  0.00     0.014 A 
ATOM     31  C   UNL A   1      35.434  34.595  28.841  1.00  0.00     0.014 A 
ATOM     32  C   UNL A   1      34.961  33.282  31.254  1.00  0.00     0.010 A 
ATOM     33  C   UNL A   1      36.459  33.888  29.447  1.00  0.00     0.010 A 
ATOM     34  C   UNL A   1      36.241  33.251  30.676  1.00  0.00    -0.014 A 
BRANCH  34  35
ATOM     35  C   UNL A   1      37.385  32.603  31.357  1.00  0.00     0.031 A 
ATOM     36  C   UNL A   1      38.094  31.460  30.685  1.00  0.00     0.074 A 
ATOM     37  C   UNL A   1      37.740  32.997  32.595  1.00  0.00     0.049 A 
ATOM     38  N   UNL A   1      39.072  30.713  31.130  1.00  0.00    -0.248 NA
ATOM     39  C   UNL A   1      37.617  31.080  29.343  1.00  0.00     0.031 C 
ATOM     40  C   UNL A   1      37.088  34.057  33.367  1.00  0.00     0.029 A 
ATOM     41  N   UNL A   1      38.735  32.546  33.424  1.00  0.00    -0.354 N 
ATOM     42  C   UNL A   1      39.307  29.771  30.136  1.00  0.00     0.074 A 
ATOM     43  C   UNL A   1      38.329  29.992  29.097  1.00  0.00     0.031 C 
ATOM     44  C   UNL A   1      37.723  34.198  34.541  1.00  0.00     0.029 A 
ATOM     45  C   UNL A   1      38.795  33.211  34.623  1.00  0.00     0.049 A 
ATOM     46  H   UNL A   1      39.348  31.814  33.182  1.00  0.00     0.167 HD
ATOM     47  C   UNL A   1      40.275  28.827  30.083  1.00  0.00     0.037 A 
ATOM     48  C   UNL A   1      39.623  33.037  35.671  1.00  0.00     0.037 A 
ATOM     49  C   UNL A   1      41.264  28.636  31.109  1.00  0.00     0.049 A 
ATOM     50  C   UNL A   1      40.687  31.975  35.588  1.00  0.00     0.074 A 
ATOM     51  C   UNL A   1      42.332  27.757  31.126  1.00  0.00     0.029 A 
ATOM     52  N   UNL A   1      41.304  29.340  32.305  1.00  0.00    -0.354 N 
ATOM     53  N   UNL A   1      40.955  31.143  34.610  1.00  0.00    -0.248 NA
ATOM     54  C   UNL A   1      41.569  31.831  36.754  1.00  0.00     0.031 C 
ATOM     55  C   UNL A   1      42.981  27.886  32.356  1.00  0.00     0.029 A 
ATOM     56  C   UNL A   1      42.360  28.892  33.081  1.00  0.00     0.049 A 
ATOM     57  H   UNL A   1      40.673  30.051  32.564  1.00  0.00     0.167 HD
ATOM     58  C   UNL A   1      42.053  30.403  35.027  1.00  0.00     0.074 A 
ATOM     59  C   UNL A   1      42.411  30.896  36.340  1.00  0.00     0.031 C 
ATOM     60  C   UNL A   1      42.706  29.404  34.382  1.00  0.00     0.037 A 
BRANCH  47  61
ATOM     61  C   UNL A   1      40.311  27.933  28.877  1.00  0.00     0.064 A 
ATOM     62  C   UNL A   1      41.033  28.275  27.724  1.00  0.00     0.173 A 
ATOM     63  C   UNL A   1      39.636  26.703  28.886  1.00  0.00     0.173 A 
ATOM     64  F   UNL A   1      41.685  29.446  27.656  1.00  0.00    -0.203 F 
ATOM     65  C   UNL A   1      41.054  27.435  26.613  1.00  0.00     0.198 A 
ATOM     66  C   UNL A   1      39.688  25.848  27.787  1.00  0.00     0.198 A 
ATOM     67  F   UNL A   1      38.930  26.324  29.962  1.00  0.00    -0.203 F 
ATOM     68  F   UNL A   1      41.705  27.809  25.503  1.00  0.00    -0.200 F 
ATOM     69  C   UNL A   1      40.389  26.218  26.649  1.00  0.00     0.200 A 
ATOM     70  F   UNL A   1      39.056  24.668  27.828  1.00  0.00    -0.200 F 
ATOM     71  F   UNL A   1      40.417  25.406  25.584  1.00  0.00    -0.200 F 
ENDBRANCH  47  61
BRANCH  48  72
ATOM     72  C   UNL A   1      39.501  33.904  36.872  1.00  0.00     0.064 A 
ATOM     73  C   UNL A   1      38.764  33.485  37.990  1.00  0.00     0.173 A 
ATOM     74  C   UNL A   1      40.102  35.170  36.928  1.00  0.00     0.173 A 
ATOM     75  F   UNL A   1      38.154  32.290  37.980  1.00  0.00    -0.203 F 
ATOM     76  C   UNL A   1      38.611  34.308  39.104  1.00  0.00     0.198 A 
ATOM     77  C   UNL A   1      39.976  35.980  38.055  1.00  0.00     0.198 A 
ATOM     78  F   UNL A   1      40.823  35.617  35.890  1.00  0.00    -0.203 F 
ATOM     79  F   UNL A   1      37.856  33.904  40.134  1.00  0.00    -0.200 F 
ATOM     80  C   UNL A   1      39.221  35.553  39.138  1.00  0.00     0.200 A 
ATOM     81  F   UNL A   1      40.581  37.175  38.090  1.00  0.00    -0.200 F 
ATOM     82  F   UNL A   1      39.075  36.345  40.208  1.00  0.00    -0.200 F 
ENDBRANCH  48  72
BRANCH  60  83
ATOM     83  C   UNL A   1      43.901  28.809  35.067  1.00  0.00     0.064 A 
ATOM     84  C   UNL A   1      43.791  27.692  35.907  1.00  0.00     0.173 A 
ATOM     85  C   UNL A   1      45.182  29.339  34.843  1.00  0.00     0.173 A 
ATOM     86  F   UNL A   1      42.589  27.156  36.166  1.00  0.00    -0.203 F 
ATOM     87  C   UNL A   1      44.915  27.146  36.522  1.00  0.00     0.198 A 
ATOM     88  C   UNL A   1      46.307  28.768  35.429  1.00  0.00     0.198 A 
ATOM     89  F   UNL A   1      45.344  30.401  34.040  1.00  0.00    -0.203 F 
ATOM     90  F   UNL A   1      44.780  26.111  37.364  1.00  0.00    -0.200 F 
ATOM     91  C   UNL A   1      46.172  27.679  36.275  1.00  0.00     0.200 A 
ATOM     92  F   UNL A   1      47.522  29.273  35.175  1.00  0.00    -0.200 F 
ATOM     93  F   UNL A   1      47.253  27.144  36.859  1.00  0.00    -0.200 F 
ENDBRANCH  60  83
ENDBRANCH  34  35
ENDBRANCH  26  29
ENDBRANCH  24  25
ENDBRANCH  23  24
ENDBRANCH  22  23
ENDBRANCH   1  22
TORSDOF 17
ENDMDL
MODEL 2
REMARK VINA RESULT:     -11.1      6.404     11.535
REMARK SMILES COCC[N@@H+](CC(=O)NCCCCNC(=O)c1ccc(-c2c3nc(c(-c4c(F)c(F)c(F)c(F)c4F)c4ccc([nH]4)c(-c4c(F)c(F)c(F)c(F)c4F)c4nc(c(-c5c(F)c(F)c(F)c(F)c5F)c5ccc2[nH]5)C=C4)C=C3)cc1)Cc1cc(F)cc(Br)c1
REMARK SMILES IDX 10 1 9 2 7 3 8 4 6 6 5 7 4 9 3 10 2 11 1 12 80 13 81 14
REMARK SMILES IDX 82 15 88 16 83 17 86 18 84 19 85 20 87 21 11 22 12 23 13 24
REMARK SMILES IDX 14 25 15 26 16 28 17 29 18 30 79 31 19 32 78 33 20 34 21 35
REMARK SMILES IDX 22 36 72 37 23 38 77 39 71 40 73 41 24 42 76 43 70 44 69 45
REMARK SMILES IDX 25 47 57 48 37 49 56 50 38 51 41 52 55 53 74 54 39 55 40 56
REMARK SMILES IDX 54 58 75 59 42 60 26 61 27 62 35 63 28 64 29 65 33 66 36 67
REMARK SMILES IDX 30 68 31 69 34 70 32 71 58 72 59 73 67 74 60 75 61 76 65 77
REMARK SMILES IDX 68 78 62 79 63 80 66 81 64 82 43 83 44 84 52 85 45 86 46 87
REMARK SMILES IDX 50 88 53 89 47 90 48 91 51 92 49 93
REMARK H PARENT 9 5 5 8 14 27 73 46 41 57
REMARK Flexibility Score: inf
ROOT
ATOM      1  C   UNL A   1      36.299  21.471  25.751  1.00  0.00     0.116 C 
ENDROOT
BRANCH   1   2
ATOM      2  N   UNL A   1      36.060  22.667  24.961  1.00  0.00    -0.351 N 
ATOM      3  C   UNL A   1      35.024  23.074  24.160  1.00  0.00     0.275 C 
ATOM      4  O   UNL A   1      35.124  24.209  23.678  1.00  0.00    -0.269 OA
ATOM      5  H   UNL A   1      36.795  23.320  25.010  1.00  0.00     0.163 HD
BRANCH   3   6
ATOM      6  C   UNL A   1      33.786  22.228  23.852  1.00  0.00     0.363 C 
BRANCH   6   7
ATOM      7  N   UNL A   1      32.718  22.181  24.872  1.00  0.00    -0.322 N 
ATOM      8  H   UNL A   1      31.818  22.257  24.397  1.00  0.00     0.348 HD
BRANCH   7   9
ATOM      9  C   UNL A   1      32.644  23.381  25.679  1.00  0.00     0.291 C 
BRANCH   9  10
ATOM     10  C   UNL A   1      31.547  23.787  26.664  1.00  0.00     0.221 C 
BRANCH  10  11
ATOM     11  O   UNL A   1      31.428  25.198  26.799  1.00  0.00    -0.379 OA
ATOM     12  C   UNL A   1      30.458  25.771  25.942  1.00  0.00     0.195 C 
ENDBRANCH  10  11
ENDBRANCH   9  10
ENDBRANCH   7   9
BRANCH   7  13
ATOM     13  C   UNL A   1      32.231  20.879  25.328  1.00  0.00     0.299 C 
BRANCH  13  14
ATOM     14  C   UNL A   1      32.510  19.550  24.621  1.00  0.00     0.010 A 
ATOM     15  C   UNL A   1      32.197  19.440  23.253  1.00  0.00     0.048 A 
ATOM     16  C   UNL A   1      33.227  18.478  25.156  1.00  0.00     0.025 A 
ATOM     17  C   UNL A   1      32.598  18.330  22.496  1.00  0.00     0.124 A 
ATOM     18  C   UNL A   1      33.696  17.408  24.381  1.00  0.00     0.021 A 
ATOM     19  F   UNL A   1      32.272  18.267  21.198  1.00  0.00    -0.207 F 
ATOM     20  C   UNL A   1      33.366  17.317  23.043  1.00  0.00     0.055 A 
ATOM     21  Br  UNL A   1      34.879  16.132  25.131  1.00  0.00    -0.051 Br
ENDBRANCH  13  14
ENDBRANCH   7  13
ENDBRANCH   6   7
ENDBRANCH   3   6
ENDBRANCH   1   2
BRANCH   1  22
ATOM     22  C   UNL A   1      36.522  20.155  24.966  1.00  0.00     0.023 C 
BRANCH  22  23
ATOM     23  C   UNL A   1      37.923  19.619  24.773  1.00  0.00     0.023 C 
BRANCH  23  24
ATOM     24  C   UNL A   1      38.926  20.062  25.795  1.00  0.00     0.116 C 
BRANCH  24  25
ATOM     25  N   UNL A   1      40.026  19.121  25.914  1.00  0.00    -0.352 N 
ATOM     26  C   UNL A   1      41.358  19.390  26.123  1.00  0.00     0.251 C 
ATOM     27  H   UNL A   1      39.787  18.169  25.836  1.00  0.00     0.163 HD
ATOM     28  O   UNL A   1      42.200  18.518  25.995  1.00  0.00    -0.269 OA
BRANCH  26  29
ATOM     29  C   UNL A   1      41.747  20.771  26.477  1.00  0.00     0.039 A 
ATOM     30  C   UNL A   1      42.126  21.057  27.789  1.00  0.00     0.014 A 
ATOM     31  C   UNL A   1      41.788  21.763  25.494  1.00  0.00     0.014 A 
ATOM     32  C   UNL A   1      42.601  22.331  28.099  1.00  0.00     0.010 A 
ATOM     33  C   UNL A   1      42.378  22.985  25.775  1.00  0.00     0.010 A 
ATOM     34  C   UNL A   1      42.760  23.293  27.087  1.00  0.00    -0.014 A 
BRANCH  34  35
ATOM     35  C   UNL A   1      43.277  24.649  27.380  1.00  0.00     0.031 A 
ATOM     36  C   UNL A   1      42.354  25.681  27.967  1.00  0.00     0.074 A 
ATOM     37  C   UNL A   1      44.546  24.968  27.061  1.00  0.00     0.049 A 
ATOM     38  N   UNL A   1      42.583  26.940  28.239  1.00  0.00    -0.248 NA
ATOM     39  C   UNL A   1      40.974  25.250  28.257  1.00  0.00     0.031 C 
ATOM     40  C   UNL A   1      45.515  24.065  26.435  1.00  0.00     0.029 A 
ATOM     41  N   UNL A   1      45.238  26.142  27.214  1.00  0.00    -0.354 N 
ATOM     42  C   UNL A   1      41.378  27.448  28.708  1.00  0.00     0.074 A 
ATOM     43  C   UNL A   1      40.403  26.387  28.619  1.00  0.00     0.031 C 
ATOM     44  C   UNL A   1      46.684  24.707  26.291  1.00  0.00     0.029 A 
ATOM     45  C   UNL A   1      46.536  26.077  26.772  1.00  0.00     0.049 A 
ATOM     46  H   UNL A   1      44.840  26.954  27.604  1.00  0.00     0.167 HD
ATOM     47  C   UNL A   1      41.118  28.682  29.198  1.00  0.00     0.037 A 
ATOM     48  C   UNL A   1      47.494  27.023  26.755  1.00  0.00     0.037 A 
ATOM     49  C   UNL A   1      42.104  29.722  29.312  1.00  0.00     0.049 A 
ATOM     50  C   UNL A   1      47.175  28.390  27.301  1.00  0.00     0.074 A 
ATOM     51  C   UNL A   1      41.967  30.986  29.858  1.00  0.00     0.029 A 
ATOM     52  N   UNL A   1      43.415  29.616  28.867  1.00  0.00    -0.354 N 
ATOM     53  N   UNL A   1      46.056  28.837  27.818  1.00  0.00    -0.248 NA
ATOM     54  C   UNL A   1      48.257  29.383  27.266  1.00  0.00     0.031 C 
ATOM     55  C   UNL A   1      43.177  31.666  29.690  1.00  0.00     0.029 A 
ATOM     56  C   UNL A   1      44.089  30.804  29.099  1.00  0.00     0.049 A 
ATOM     57  H   UNL A   1      43.807  28.816  28.448  1.00  0.00     0.167 HD
ATOM     58  C   UNL A   1      46.308  30.148  28.200  1.00  0.00     0.074 A 
ATOM     59  C   UNL A   1      47.692  30.418  27.870  1.00  0.00     0.031 C 
ATOM     60  C   UNL A   1      45.471  31.048  28.772  1.00  0.00     0.037 A 
BRANCH  47  61
ATOM     61  C   UNL A   1      39.715  28.972  29.650  1.00  0.00     0.064 A 
ATOM     62  C   UNL A   1      38.745  29.479  28.772  1.00  0.00     0.173 A 
ATOM     63  C   UNL A   1      39.328  28.711  30.973  1.00  0.00     0.173 A 
ATOM     64  F   UNL A   1      39.064  29.760  27.499  1.00  0.00    -0.203 F 
ATOM     65  C   UNL A   1      37.449  29.743  29.208  1.00  0.00     0.198 A 
ATOM     66  C   UNL A   1      38.022  28.942  31.397  1.00  0.00     0.198 A 
ATOM     67  F   UNL A   1      40.213  28.224  31.855  1.00  0.00    -0.203 F 
ATOM     68  F   UNL A   1      36.556  30.280  28.366  1.00  0.00    -0.200 F 
ATOM     69  C   UNL A   1      37.086  29.467  30.518  1.00  0.00     0.200 A 
ATOM     70  F   UNL A   1      37.669  28.662  32.659  1.00  0.00    -0.200 F 
ATOM     71  F   UNL A   1      35.837  29.712  30.935  1.00  0.00    -0.200 F 
ENDBRANCH  47  61
BRANCH  48  72
ATOM     72  C   UNL A   1      48.849  26.705  26.232  1.00  0.00     0.064 A 
ATOM     73  C   UNL A   1      49.820  26.122  27.059  1.00  0.00     0.173 A 
ATOM     74  C   UNL A   1      49.207  26.986  24.905  1.00  0.00     0.173 A 
ATOM     75  F   UNL A   1      49.534  25.850  28.340  1.00  0.00    -0.203 F 
ATOM     76  C   UNL A   1      51.105  25.858  26.587  1.00  0.00     0.198 A 
ATOM     77  C   UNL A   1      50.481  26.692  24.425  1.00  0.00     0.198 A 
ATOM     78  F   UNL A   1      48.314  27.537  24.070  1.00  0.00    -0.203 F 
ATOM     79  F   UNL A   1      52.029  25.352  27.414  1.00  0.00    -0.200 F 
ATOM     80  C   UNL A   1      51.433  26.138  25.269  1.00  0.00     0.200 A 
ATOM     81  F   UNL A   1      50.789  26.949  23.147  1.00  0.00    -0.200 F 
ATOM     82  F   UNL A   1      52.667  25.884  24.814  1.00  0.00    -0.200 F 
ENDBRANCH  48  72
BRANCH  60  83
ATOM     83  C   UNL A   1      46.038  32.394  29.118  1.00  0.00     0.064 A 
ATOM     84  C   UNL A   1      45.969  33.476  28.229  1.00  0.00     0.173 A 
ATOM     85  C   UNL A   1      46.621  32.614  30.376  1.00  0.00     0.173 A 
ATOM     86  F   UNL A   1      45.435  33.315  27.009  1.00  0.00    -0.203 F 
ATOM     87  C   UNL A   1      46.489  34.721  28.575  1.00  0.00     0.198 A 
ATOM     88  C   UNL A   1      47.106  33.868  30.733  1.00  0.00     0.198 A 
ATOM     89  F   UNL A   1      46.702  31.614  31.268  1.00  0.00    -0.203 F 
ATOM     90  F   UNL A   1      46.461  35.727  27.690  1.00  0.00    -0.200 F 
ATOM     91  C   UNL A   1      47.049  34.917  29.830  1.00  0.00     0.200 A 
ATOM     92  F   UNL A   1      47.629  34.060  31.952  1.00  0.00    -0.200 F 
ATOM     93  F   UNL A   1      47.538  36.118  30.165  1.00  0.00    -0.200 F 
ENDBRANCH  60  83
ENDBRANCH  34  35
ENDBRANCH  26  29
ENDBRANCH  24  25
ENDBRANCH  23  24
ENDBRANCH  22  23
ENDBRANCH   1  22
TORSDOF 17
ENDMDL
MODEL 3
REMARK VINA RESULT:     -11.0      6.373     10.423
REMARK SMILES COCC[N@@H+](CC(=O)NCCCCNC(=O)c1ccc(-c2c3nc(c(-c4c(F)c(F)c(F)c(F)c4F)c4ccc([nH]4)c(-c4c(F)c(F)c(F)c(F)c4F)c4nc(c(-c5c(F)c(F)c(F)c(F)c5F)c5ccc2[nH]5)C=C4)C=C3)cc1)Cc1cc(F)cc(Br)c1
REMARK SMILES IDX 10 1 9 2 7 3 8 4 6 6 5 7 4 9 3 10 2 11 1 12 80 13 81 14
REMARK SMILES IDX 82 15 88 16 83 17 86 18 84 19 85 20 87 21 11 22 12 23 13 24
REMARK SMILES IDX 14 25 15 26 16 28 17 29 18 30 79 31 19 32 78 33 20 34 21 35
REMARK SMILES IDX 22 36 72 37 23 38 77 39 71 40 73 41 24 42 76 43 70 44 69 45
REMARK SMILES IDX 25 47 57 48 37 49 56 50 38 51 41 52 55 53 74 54 39 55 40 56
REMARK SMILES IDX 54 58 75 59 42 60 26 61 27 62 35 63 28 64 29 65 33 66 36 67
REMARK SMILES IDX 30 68 31 69 34 70 32 71 58 72 59 73 67 74 60 75 61 76 65 77
REMARK SMILES IDX 68 78 62 79 63 80 66 81 64 82 43 83 44 84 52 85 45 86 46 87
REMARK SMILES IDX 50 88 53 89 47 90 48 91 51 92 49 93
REMARK H PARENT 9 5 5 8 14 27 73 46 41 57
REMARK Flexibility Score: inf
ROOT
ATOM      1  C   UNL A   1      37.458  22.305  25.214  1.00  0.00     0.116 C 
ENDROOT
BRANCH   1   2
ATOM      2  N   UNL A   1      36.392  22.612  26.153  1.00  0.00    -0.351 N 
ATOM      3  C   UNL A   1      35.042  22.807  26.011  1.00  0.00     0.275 C 
ATOM      4  O   UNL A   1      34.407  22.992  27.058  1.00  0.00    -0.269 OA
ATOM      5  H   UNL A   1      36.704  22.700  27.082  1.00  0.00     0.163 HD
BRANCH   3   6
ATOM      6  C   UNL A   1      34.303  22.795  24.671  1.00  0.00     0.363 C 
BRANCH   6   7
ATOM      7  N   UNL A   1      32.897  22.340  24.668  1.00  0.00    -0.322 N 
ATOM      8  H   UNL A   1      32.726  21.832  23.799  1.00  0.00     0.348 HD
BRANCH   7   9
ATOM      9  C   UNL A   1      31.947  23.418  24.484  1.00  0.00     0.291 C 
BRANCH   9  10
ATOM     10  C   UNL A   1      32.088  24.879  24.911  1.00  0.00     0.221 C 
BRANCH  10  11
ATOM     11  O   UNL A   1      32.214  25.763  23.804  1.00  0.00    -0.379 OA
ATOM     12  C   UNL A   1      33.438  26.473  23.781  1.00  0.00     0.195 C 
ENDBRANCH  10  11
ENDBRANCH   9  10
ENDBRANCH   7   9
BRANCH   7  13
ATOM     13  C   UNL A   1      32.559  21.080  25.330  1.00  0.00     0.299 C 
BRANCH  13  14
ATOM     14  C   UNL A   1      32.532  19.714  24.638  1.00  0.00     0.010 A 
ATOM     15  C   UNL A   1      32.376  19.674  23.239  1.00  0.00     0.048 A 
ATOM     16  C   UNL A   1      32.839  18.492  25.238  1.00  0.00     0.025 A 
ATOM     17  C   UNL A   1      32.533  18.483  22.518  1.00  0.00     0.124 A 
ATOM     18  C   UNL A   1      33.075  17.318  24.507  1.00  0.00     0.021 A 
ATOM     19  F   UNL A   1      32.369  18.493  21.188  1.00  0.00    -0.207 F 
ATOM     20  C   UNL A   1      32.903  17.302  23.137  1.00  0.00     0.055 A 
ATOM     21  Br  UNL A   1      33.739  15.771  25.375  1.00  0.00    -0.051 Br
ENDBRANCH  13  14
ENDBRANCH   7  13
ENDBRANCH   6   7
ENDBRANCH   3   6
ENDBRANCH   1   2
BRANCH   1  22
ATOM     22  C   UNL A   1      37.392  20.924  24.517  1.00  0.00     0.023 C 
BRANCH  22  23
ATOM     23  C   UNL A   1      38.193  19.763  25.063  1.00  0.00     0.023 C 
BRANCH  23  24
ATOM     24  C   UNL A   1      39.268  20.129  26.042  1.00  0.00     0.116 C 
BRANCH  24  25
ATOM     25  N   UNL A   1      40.329  19.138  26.072  1.00  0.00    -0.352 N 
ATOM     26  C   UNL A   1      41.688  19.347  26.125  1.00  0.00     0.251 C 
ATOM     27  H   UNL A   1      40.039  18.198  26.053  1.00  0.00     0.163 HD
ATOM     28  O   UNL A   1      42.469  18.431  25.936  1.00  0.00    -0.269 OA
BRANCH  26  29
ATOM     29  C   UNL A   1      42.177  20.717  26.388  1.00  0.00     0.039 A 
ATOM     30  C   UNL A   1      42.357  21.592  25.317  1.00  0.00     0.014 A 
ATOM     31  C   UNL A   1      42.398  21.143  27.700  1.00  0.00     0.014 A 
ATOM     32  C   UNL A   1      42.709  22.918  25.573  1.00  0.00     0.010 A 
ATOM     33  C   UNL A   1      42.621  22.486  27.957  1.00  0.00     0.010 A 
ATOM     34  C   UNL A   1      42.812  23.380  26.896  1.00  0.00    -0.014 A 
BRANCH  34  35
ATOM     35  C   UNL A   1      43.166  24.785  27.201  1.00  0.00     0.031 A 
ATOM     36  C   UNL A   1      44.563  25.271  26.924  1.00  0.00     0.074 A 
ATOM     37  C   UNL A   1      42.261  25.596  27.780  1.00  0.00     0.049 A 
ATOM     38  N   UNL A   1      45.099  26.438  27.174  1.00  0.00    -0.248 NA
ATOM     39  C   UNL A   1      45.494  24.305  26.315  1.00  0.00     0.031 C 
ATOM     40  C   UNL A   1      40.895  25.216  28.147  1.00  0.00     0.029 A 
ATOM     41  N   UNL A   1      42.356  26.908  28.169  1.00  0.00    -0.354 N 
ATOM     42  C   UNL A   1      46.425  26.334  26.774  1.00  0.00     0.074 A 
ATOM     43  C   UNL A   1      46.634  24.976  26.330  1.00  0.00     0.031 C 
ATOM     44  C   UNL A   1      40.270  26.281  28.673  1.00  0.00     0.029 A 
ATOM     45  C   UNL A   1      41.202  27.403  28.723  1.00  0.00     0.049 A 
ATOM     46  H   UNL A   1      43.175  27.443  28.061  1.00  0.00     0.167 HD
ATOM     47  C   UNL A   1      47.376  27.297  26.749  1.00  0.00     0.037 A 
ATOM     48  C   UNL A   1      40.933  28.625  29.218  1.00  0.00     0.037 A 
ATOM     49  C   UNL A   1      47.149  28.656  27.163  1.00  0.00     0.049 A 
ATOM     50  C   UNL A   1      42.010  29.676  29.184  1.00  0.00     0.074 A 
ATOM     51  C   UNL A   1      48.020  29.729  27.114  1.00  0.00     0.029 A 
ATOM     52  N   UNL A   1      45.961  29.126  27.706  1.00  0.00    -0.354 N 
ATOM     53  N   UNL A   1      43.237  29.593  28.728  1.00  0.00    -0.248 NA
ATOM     54  C   UNL A   1      41.663  30.996  29.730  1.00  0.00     0.031 C 
ATOM     55  C   UNL A   1      47.380  30.834  27.683  1.00  0.00     0.029 A 
ATOM     56  C   UNL A   1      46.087  30.468  28.025  1.00  0.00     0.049 A 
ATOM     57  H   UNL A   1      45.149  28.585  27.844  1.00  0.00     0.167 HD
ATOM     58  C   UNL A   1      43.795  30.853  28.899  1.00  0.00     0.074 A 
ATOM     59  C   UNL A   1      42.767  31.686  29.487  1.00  0.00     0.031 C 
ATOM     60  C   UNL A   1      45.046  31.282  28.599  1.00  0.00     0.037 A 
BRANCH  47  61
ATOM     61  C   UNL A   1      48.742  26.916  26.257  1.00  0.00     0.064 A 
ATOM     62  C   UNL A   1      49.111  27.061  24.910  1.00  0.00     0.173 A 
ATOM     63  C   UNL A   1      49.707  26.425  27.150  1.00  0.00     0.173 A 
ATOM     64  F   UNL A   1      48.223  27.512  24.011  1.00  0.00    -0.203 F 
ATOM     65  C   UNL A   1      50.382  26.700  24.470  1.00  0.00     0.198 A 
ATOM     66  C   UNL A   1      50.988  26.099  26.713  1.00  0.00     0.198 A 
ATOM     67  F   UNL A   1      49.410  26.267  28.448  1.00  0.00    -0.203 F 
ATOM     68  F   UNL A   1      50.691  26.795  23.170  1.00  0.00    -0.200 F 
ATOM     69  C   UNL A   1      51.322  26.228  25.373  1.00  0.00     0.200 A 
ATOM     70  F   UNL A   1      51.900  25.656  27.589  1.00  0.00    -0.200 F 
ATOM     71  F   UNL A   1      52.548  25.891  24.951  1.00  0.00    -0.200 F 
ENDBRANCH  47  61
BRANCH  48  72
ATOM     72  C   UNL A   1      39.582  28.932  29.760  1.00  0.00     0.064 A 
ATOM     73  C   UNL A   1      38.587  29.485  28.940  1.00  0.00     0.173 A 
ATOM     74  C   UNL A   1      39.259  28.693  31.104  1.00  0.00     0.173 A 
ATOM     75  F   UNL A   1      38.851  29.749  27.652  1.00  0.00    -0.203 F 
ATOM     76  C   UNL A   1      37.332  29.812  29.450  1.00  0.00     0.198 A 
ATOM     77  C   UNL A   1      37.994  28.989  31.604  1.00  0.00     0.198 A 
ATOM     78  F   UNL A   1      40.171  28.159  31.929  1.00  0.00    -0.203 F 
ATOM     79  F   UNL A   1      36.420  30.390  28.657  1.00  0.00    -0.200 F 
ATOM     80  C   UNL A   1      37.034  29.559  30.780  1.00  0.00     0.200 A 
ATOM     81  F   UNL A   1      37.705  28.729  32.886  1.00  0.00    -0.200 F 
ATOM     82  F   UNL A   1      35.828  29.873  31.271  1.00  0.00    -0.200 F 
ENDBRANCH  48  72
BRANCH  60  83
ATOM     83  C   UNL A   1      45.360  32.727  28.858  1.00  0.00     0.064 A 
ATOM     84  C   UNL A   1      45.084  33.724  27.913  1.00  0.00     0.173 A 
ATOM     85  C   UNL A   1      45.905  33.123  30.090  1.00  0.00     0.173 A 
ATOM     86  F   UNL A   1      44.576  33.397  26.714  1.00  0.00    -0.203 F 
ATOM     87  C   UNL A   1      45.369  35.061  28.178  1.00  0.00     0.198 A 
ATOM     88  C   UNL A   1      46.154  34.463  30.367  1.00  0.00     0.198 A 
ATOM     89  F   UNL A   1      46.178  32.209  31.034  1.00  0.00    -0.203 F 
ATOM     90  F   UNL A   1      45.147  35.991  27.239  1.00  0.00    -0.200 F 
ATOM     91  C   UNL A   1      45.895  35.429  29.408  1.00  0.00     0.200 A 
ATOM     92  F   UNL A   1      46.645  34.818  31.562  1.00  0.00    -0.200 F 
ATOM     93  F   UNL A   1      46.158  36.718  29.666  1.00  0.00    -0.200 F 
ENDBRANCH  60  83
ENDBRANCH  34  35
ENDBRANCH  26  29
ENDBRANCH  24  25
ENDBRANCH  23  24
ENDBRANCH  22  23
ENDBRANCH   1  22
TORSDOF 17
ENDMDL
