MODEL 1
REMARK VINA RESULT:     -12.9      0.000      0.000
REMARK SMILES O=C(NCCCCNC(=O)c1ccc(S(=O)(=O)Nc2ccccc2I)cc1)c1ccc(-c2c3nc(c(-c4c(F)c(F)c(F)c(F)c4F)c4ccc([nH]4)c(-c4c(F)c(F)c(F)c(F)c4F)c4nc(c(-c5c(F)c(F)c(F)c(F)c5F)c5ccc2[nH]5)C=C4)C=C3)cc1
REMARK SMILES IDX 6 1 5 2 4 3 3 4 1 5 2 6 28 8 29 9 90 10 30 11 89 12 31 13
REMARK SMILES IDX 32 14 33 15 83 16 34 17 88 18 82 19 84 20 35 21 87 22 81 23
REMARK SMILES IDX 80 24 36 26 68 27 48 28 67 29 49 30 52 31 66 32 85 33 50 34
REMARK SMILES IDX 51 35 65 37 86 38 53 39 37 40 38 41 46 42 39 43 40 44 44 45
REMARK SMILES IDX 47 46 41 47 42 48 45 49 43 50 69 51 70 52 78 53 71 54 72 55
REMARK SMILES IDX 76 56 79 57 73 58 74 59 77 60 75 61 54 62 55 63 63 64 56 65
REMARK SMILES IDX 57 66 61 67 64 68 58 69 59 70 62 71 60 72 7 73 8 74 9 75
REMARK SMILES IDX 10 77 11 78 12 79 27 80 13 81 26 82 14 83 15 84 16 85 17 86
REMARK SMILES IDX 18 87 19 89 20 90 24 91 21 92 23 93 25 94 22 95
REMARK H PARENT 3 7 84 25 52 36 8 76 18 88
REMARK Flexibility Score: inf
ROOT
ATOM      1  C   UNL A   1      31.583  31.024  26.166  1.00  0.00     0.023 C 
ENDROOT
BRANCH   1   2
ATOM      2  C   UNL A   1      31.363  32.412  26.747  1.00  0.00     0.023 C 
BRANCH   2   3
ATOM      3  C   UNL A   1      32.597  33.057  27.362  1.00  0.00     0.116 C 
BRANCH   3   4
ATOM      4  N   UNL A   1      32.383  34.439  27.770  1.00  0.00    -0.352 N 
ATOM      5  O   UNL A   1      32.615  36.288  29.050  1.00  0.00    -0.269 OA
ATOM      6  C   UNL A   1      33.011  35.165  28.754  1.00  0.00     0.251 C 
ATOM      7  H   UNL A   1      31.686  34.923  27.269  1.00  0.00     0.163 HD
BRANCH   6   8
ATOM      8  C   UNL A   1      34.154  34.570  29.477  1.00  0.00     0.039 A 
ATOM      9  C   UNL A   1      35.439  34.635  28.937  1.00  0.00     0.014 A 
ATOM     10  C   UNL A   1      33.931  33.913  30.690  1.00  0.00     0.014 A 
ATOM     11  C   UNL A   1      36.464  33.897  29.512  1.00  0.00     0.010 A 
ATOM     12  C   UNL A   1      34.989  33.257  31.325  1.00  0.00     0.010 A 
ATOM     13  C   UNL A   1      36.255  33.212  30.721  1.00  0.00    -0.014 A 
BRANCH  13  14
ATOM     14  C   UNL A   1      37.398  32.512  31.358  1.00  0.00     0.031 A 
ATOM     15  C   UNL A   1      38.148  31.425  30.642  1.00  0.00     0.074 A 
ATOM     16  C   UNL A   1      37.776  32.899  32.592  1.00  0.00     0.049 A 
ATOM     17  N   UNL A   1      39.177  30.726  31.054  1.00  0.00    -0.248 NA
ATOM     18  C   UNL A   1      37.686  31.068  29.292  1.00  0.00     0.031 C 
ATOM     19  C   UNL A   1      37.114  33.939  33.384  1.00  0.00     0.029 A 
ATOM     20  N   UNL A   1      38.812  32.484  33.387  1.00  0.00    -0.354 N 
ATOM     21  C   UNL A   1      39.471  29.837  30.028  1.00  0.00     0.074 A 
ATOM     22  C   UNL A   1      38.498  30.068  28.981  1.00  0.00     0.031 C 
ATOM     23  C   UNL A   1      37.787  34.115  34.528  1.00  0.00     0.029 A 
ATOM     24  C   UNL A   1      38.884  33.156  34.582  1.00  0.00     0.049 A 
ATOM     25  H   UNL A   1      39.443  31.775  33.127  1.00  0.00     0.167 HD
ATOM     26  C   UNL A   1      40.467  28.921  29.967  1.00  0.00     0.037 A 
ATOM     27  C   UNL A   1      39.727  33.003  35.620  1.00  0.00     0.037 A 
ATOM     28  C   UNL A   1      41.443  28.711  31.008  1.00  0.00     0.049 A 
ATOM     29  C   UNL A   1      40.804  31.963  35.532  1.00  0.00     0.074 A 
ATOM     30  C   UNL A   1      42.511  27.831  31.027  1.00  0.00     0.029 A 
ATOM     31  N   UNL A   1      41.464  29.388  32.220  1.00  0.00    -0.354 N 
ATOM     32  N   UNL A   1      41.088  31.149  34.545  1.00  0.00    -0.248 NA
ATOM     33  C   UNL A   1      41.675  31.817  36.705  1.00  0.00     0.031 C 
ATOM     34  C   UNL A   1      43.150  27.942  32.266  1.00  0.00     0.029 A 
ATOM     35  C   UNL A   1      42.512  28.927  33.002  1.00  0.00     0.049 A 
ATOM     36  H   UNL A   1      40.828  30.091  32.485  1.00  0.00     0.167 HD
ATOM     37  C   UNL A   1      42.177  30.404  34.969  1.00  0.00     0.074 A 
ATOM     38  C   UNL A   1      42.517  30.879  36.296  1.00  0.00     0.031 C 
ATOM     39  C   UNL A   1      42.834  29.411  34.321  1.00  0.00     0.037 A 
BRANCH  26  40
ATOM     40  C   UNL A   1      40.550  28.057  28.741  1.00  0.00     0.064 A 
ATOM     41  C   UNL A   1      41.341  28.413  27.638  1.00  0.00     0.173 A 
ATOM     42  C   UNL A   1      39.874  26.827  28.691  1.00  0.00     0.173 A 
ATOM     43  F   UNL A   1      42.001  29.580  27.630  1.00  0.00    -0.203 F 
ATOM     44  C   UNL A   1      41.434  27.582  26.524  1.00  0.00     0.198 A 
ATOM     45  C   UNL A   1      39.991  25.987  27.587  1.00  0.00     0.198 A 
ATOM     46  F   UNL A   1      39.110  26.435  29.723  1.00  0.00    -0.203 F 
ATOM     47  F   UNL A   1      42.165  27.961  25.466  1.00  0.00    -0.200 F 
ATOM     48  C   UNL A   1      40.766  26.367  26.502  1.00  0.00     0.200 A 
ATOM     49  F   UNL A   1      39.354  24.808  27.575  1.00  0.00    -0.200 F 
ATOM     50  F   UNL A   1      40.864  25.564  25.434  1.00  0.00    -0.200 F 
ENDBRANCH  26  40
BRANCH  27  51
ATOM     51  C   UNL A   1      39.569  33.857  36.824  1.00  0.00     0.064 A 
ATOM     52  C   UNL A   1      40.147  35.131  36.886  1.00  0.00     0.173 A 
ATOM     53  C   UNL A   1      38.820  33.423  37.929  1.00  0.00     0.173 A 
ATOM     54  F   UNL A   1      40.885  35.583  35.861  1.00  0.00    -0.203 F 
ATOM     55  C   UNL A   1      39.992  35.936  38.013  1.00  0.00     0.198 A 
ATOM     56  C   UNL A   1      38.641  34.239  39.041  1.00  0.00     0.198 A 
ATOM     57  F   UNL A   1      38.242  32.213  37.914  1.00  0.00    -0.203 F 
ATOM     58  F   UNL A   1      40.585  37.135  38.064  1.00  0.00    -0.200 F 
ATOM     59  C   UNL A   1      39.232  35.493  39.086  1.00  0.00     0.200 A 
ATOM     60  F   UNL A   1      37.889  33.815  40.066  1.00  0.00    -0.200 F 
ATOM     61  F   UNL A   1      39.074  36.271  40.164  1.00  0.00    -0.200 F 
ENDBRANCH  27  51
BRANCH  39  62
ATOM     62  C   UNL A   1      44.001  28.793  35.031  1.00  0.00     0.064 A 
ATOM     63  C   UNL A   1      43.842  27.691  35.885  1.00  0.00     0.173 A 
ATOM     64  C   UNL A   1      45.297  29.295  34.840  1.00  0.00     0.173 A 
ATOM     65  F   UNL A   1      42.620  27.187  36.114  1.00  0.00    -0.203 F 
ATOM     66  C   UNL A   1      44.934  27.133  36.541  1.00  0.00     0.198 A 
ATOM     67  C   UNL A   1      46.390  28.716  35.476  1.00  0.00     0.198 A 
ATOM     68  F   UNL A   1      45.503  30.346  34.030  1.00  0.00    -0.203 F 
ATOM     69  F   UNL A   1      44.752  26.113  37.393  1.00  0.00    -0.200 F 
ATOM     70  C   UNL A   1      46.208  27.641  36.332  1.00  0.00     0.200 A 
ATOM     71  F   UNL A   1      47.622  29.201  35.264  1.00  0.00    -0.200 F 
ATOM     72  F   UNL A   1      47.258  27.099  36.964  1.00  0.00    -0.200 F 
ENDBRANCH  39  62
ENDBRANCH  13  14
ENDBRANCH   6   8
ENDBRANCH   3   4
ENDBRANCH   2   3
ENDBRANCH   1   2
BRANCH   1  73
ATOM     73  C   UNL A   1      31.982  29.955  27.171  1.00  0.00     0.116 C 
BRANCH  73  74
ATOM     74  N   UNL A   1      33.413  29.896  27.442  1.00  0.00    -0.352 N 
ATOM     75  C   UNL A   1      34.371  29.072  26.889  1.00  0.00     0.251 C 
ATOM     76  H   UNL A   1      33.742  30.534  28.115  1.00  0.00     0.163 HD
ATOM     77  O   UNL A   1      35.521  29.095  27.313  1.00  0.00    -0.269 OA
BRANCH  75  78
ATOM     78  C   UNL A   1      34.002  28.137  25.799  1.00  0.00     0.039 A 
ATOM     79  C   UNL A   1      33.820  28.614  24.495  1.00  0.00     0.015 A 
ATOM     80  C   UNL A   1      33.893  26.773  26.055  1.00  0.00     0.015 A 
ATOM     81  C   UNL A   1      33.586  27.711  23.447  1.00  0.00     0.023 A 
ATOM     82  C   UNL A   1      33.814  25.878  24.998  1.00  0.00     0.023 A 
ATOM     83  C   UNL A   1      33.594  26.332  23.701  1.00  0.00     0.087 A 
BRANCH  83  84
ATOM     84  S   UNL A   1      33.454  25.178  22.355  1.00  0.00     0.261 S 
ATOM     85  O   UNL A   1      33.407  25.942  21.127  1.00  0.00    -0.201 OA
ATOM     86  O   UNL A   1      34.490  24.186  22.558  1.00  0.00    -0.201 OA
BRANCH  84  87
ATOM     87  N   UNL A   1      31.971  24.330  22.420  1.00  0.00    -0.279 N 
ATOM     88  H   UNL A   1      31.404  24.273  21.617  1.00  0.00     0.180 HD
BRANCH  87  89
ATOM     89  C   UNL A   1      31.547  23.698  23.641  1.00  0.00     0.062 A 
ATOM     90  C   UNL A   1      32.065  22.440  23.988  1.00  0.00     0.028 A 
ATOM     91  C   UNL A   1      30.700  24.366  24.543  1.00  0.00     0.037 A 
ATOM     92  C   UNL A   1      31.764  21.874  25.233  1.00  0.00     0.002 A 
ATOM     93  C   UNL A   1      30.411  23.798  25.790  1.00  0.00     0.017 A 
ATOM     94  I   UNL A   1      29.842  26.230  24.106  1.00  0.00    -0.042 I 
ATOM     95  C   UNL A   1      30.948  22.557  26.135  1.00  0.00     0.001 A 
ENDBRANCH  87  89
ENDBRANCH  84  87
ENDBRANCH  83  84
ENDBRANCH  75  78
ENDBRANCH  73  74
ENDBRANCH   1  73
TORSDOF 14
ENDMDL
MODEL 2
REMARK VINA RESULT:     -12.7      5.793      9.920
REMARK SMILES O=C(NCCCCNC(=O)c1ccc(S(=O)(=O)Nc2ccccc2I)cc1)c1ccc(-c2c3nc(c(-c4c(F)c(F)c(F)c(F)c4F)c4ccc([nH]4)c(-c4c(F)c(F)c(F)c(F)c4F)c4nc(c(-c5c(F)c(F)c(F)c(F)c5F)c5ccc2[nH]5)C=C4)C=C3)cc1
REMARK SMILES IDX 6 1 5 2 4 3 3 4 1 5 2 6 28 8 29 9 90 10 30 11 89 12 31 13
REMARK SMILES IDX 32 14 33 15 83 16 34 17 88 18 82 19 84 20 35 21 87 22 81 23
REMARK SMILES IDX 80 24 36 26 68 27 48 28 67 29 49 30 52 31 66 32 85 33 50 34
REMARK SMILES IDX 51 35 65 37 86 38 53 39 37 40 38 41 46 42 39 43 40 44 44 45
REMARK SMILES IDX 47 46 41 47 42 48 45 49 43 50 69 51 70 52 78 53 71 54 72 55
REMARK SMILES IDX 76 56 79 57 73 58 74 59 77 60 75 61 54 62 55 63 63 64 56 65
REMARK SMILES IDX 57 66 61 67 64 68 58 69 59 70 62 71 60 72 7 73 8 74 9 75
REMARK SMILES IDX 10 77 11 78 12 79 27 80 13 81 26 82 14 83 15 84 16 85 17 86
REMARK SMILES IDX 18 87 19 89 20 90 24 91 21 92 23 93 25 94 22 95
REMARK H PARENT 3 7 84 25 52 36 8 76 18 88
REMARK Flexibility Score: inf
ROOT
ATOM      1  C   UNL A   1      36.979  20.241  25.001  1.00  0.00     0.023 C 
ENDROOT
BRANCH   1   2
ATOM      2  C   UNL A   1      38.257  19.428  24.861  1.00  0.00     0.023 C 
BRANCH   2   3
ATOM      3  C   UNL A   1      39.388  19.837  25.794  1.00  0.00     0.116 C 
BRANCH   3   4
ATOM      4  N   UNL A   1      40.446  18.840  25.889  1.00  0.00    -0.352 N 
ATOM      5  O   UNL A   1      42.565  18.065  26.015  1.00  0.00    -0.269 OA
ATOM      6  C   UNL A   1      41.795  19.017  26.087  1.00  0.00     0.251 C 
ATOM      7  H   UNL A   1      40.152  17.904  25.798  1.00  0.00     0.163 HD
BRANCH   6   8
ATOM      8  C   UNL A   1      42.317  20.372  26.360  1.00  0.00     0.039 A 
ATOM      9  C   UNL A   1      42.331  20.871  27.663  1.00  0.00     0.014 A 
ATOM     10  C   UNL A   1      42.764  21.161  25.298  1.00  0.00     0.014 A 
ATOM     11  C   UNL A   1      42.623  22.209  27.883  1.00  0.00     0.010 A 
ATOM     12  C   UNL A   1      43.159  22.481  25.536  1.00  0.00     0.010 A 
ATOM     13  C   UNL A   1      43.054  23.026  26.824  1.00  0.00    -0.014 A 
BRANCH  13  14
ATOM     14  C   UNL A   1      43.450  24.427  27.112  1.00  0.00     0.031 A 
ATOM     15  C   UNL A   1      44.834  24.929  26.808  1.00  0.00     0.074 A 
ATOM     16  C   UNL A   1      42.523  25.260  27.624  1.00  0.00     0.049 A 
ATOM     17  N   UNL A   1      45.332  26.127  26.986  1.00  0.00    -0.248 NA
ATOM     18  C   UNL A   1      45.785  23.964  26.236  1.00  0.00     0.031 C 
ATOM     19  C   UNL A   1      41.150  24.878  27.966  1.00  0.00     0.029 A 
ATOM     20  N   UNL A   1      42.582  26.594  27.928  1.00  0.00    -0.354 N 
ATOM     21  C   UNL A   1      46.655  26.057  26.570  1.00  0.00     0.074 A 
ATOM     22  C   UNL A   1      46.891  24.691  26.150  1.00  0.00     0.031 C 
ATOM     23  C   UNL A   1      40.484  25.961  28.385  1.00  0.00     0.029 A 
ATOM     24  C   UNL A   1      41.398  27.097  28.409  1.00  0.00     0.049 A 
ATOM     25  H   UNL A   1      43.393  27.140  27.813  1.00  0.00     0.167 HD
ATOM     26  C   UNL A   1      47.581  27.045  26.535  1.00  0.00     0.037 A 
ATOM     27  C   UNL A   1      41.085  28.332  28.842  1.00  0.00     0.037 A 
ATOM     28  C   UNL A   1      47.331  28.407  26.939  1.00  0.00     0.049 A 
ATOM     29  C   UNL A   1      42.140  29.399  28.813  1.00  0.00     0.074 A 
ATOM     30  C   UNL A   1      48.194  29.489  26.909  1.00  0.00     0.029 A 
ATOM     31  N   UNL A   1      46.128  28.872  27.452  1.00  0.00    -0.354 N 
ATOM     32  N   UNL A   1      43.378  29.325  28.391  1.00  0.00    -0.248 NA
ATOM     33  C   UNL A   1      41.755  30.718  29.328  1.00  0.00     0.031 C 
ATOM     34  C   UNL A   1      47.528  30.596  27.446  1.00  0.00     0.029 A 
ATOM     35  C   UNL A   1      46.234  30.218  27.764  1.00  0.00     0.049 A 
ATOM     36  H   UNL A   1      45.318  28.325  27.575  1.00  0.00     0.167 HD
ATOM     37  C   UNL A   1      43.917  30.589  28.574  1.00  0.00     0.074 A 
ATOM     38  C   UNL A   1      42.863  31.417  29.125  1.00  0.00     0.031 C 
ATOM     39  C   UNL A   1      45.174  31.025  28.313  1.00  0.00     0.037 A 
BRANCH  26  40
ATOM     40  C   UNL A   1      48.963  26.695  26.059  1.00  0.00     0.064 A 
ATOM     41  C   UNL A   1      49.904  26.093  26.907  1.00  0.00     0.173 A 
ATOM     42  C   UNL A   1      49.330  26.912  24.722  1.00  0.00     0.173 A 
ATOM     43  F   UNL A   1      49.609  25.870  28.196  1.00  0.00    -0.203 F 
ATOM     44  C   UNL A   1      51.169  25.742  26.438  1.00  0.00     0.198 A 
ATOM     45  C   UNL A   1      50.585  26.536  24.251  1.00  0.00     0.198 A 
ATOM     46  F   UNL A   1      48.464  27.479  23.867  1.00  0.00    -0.203 F 
ATOM     47  F   UNL A   1      52.067  25.204  27.276  1.00  0.00    -0.200 F 
ATOM     48  C   UNL A   1      51.506  25.957  25.110  1.00  0.00     0.200 A 
ATOM     49  F   UNL A   1      50.903  26.734  22.964  1.00  0.00    -0.200 F 
ATOM     50  F   UNL A   1      52.719  25.610  24.659  1.00  0.00    -0.200 F 
ENDBRANCH  26  40
BRANCH  27  51
ATOM     51  C   UNL A   1      39.715  28.609  29.342  1.00  0.00     0.064 A 
ATOM     52  C   UNL A   1      39.374  28.373  30.679  1.00  0.00     0.173 A 
ATOM     53  C   UNL A   1      38.727  29.136  28.497  1.00  0.00     0.173 A 
ATOM     54  F   UNL A   1      40.281  27.854  31.521  1.00  0.00    -0.203 F 
ATOM     55  C   UNL A   1      38.091  28.641  31.151  1.00  0.00     0.198 A 
ATOM     56  C   UNL A   1      37.454  29.433  28.976  1.00  0.00     0.198 A 
ATOM     57  F   UNL A   1      39.008  29.386  27.209  1.00  0.00    -0.203 F 
ATOM     58  F   UNL A   1      37.778  28.371  32.425  1.00  0.00    -0.200 F 
ATOM     59  C   UNL A   1      37.135  29.179  30.301  1.00  0.00     0.200 A 
ATOM     60  F   UNL A   1      36.542  29.970  28.157  1.00  0.00    -0.200 F 
ATOM     61  F   UNL A   1      35.905  29.448  30.758  1.00  0.00    -0.200 F 
ENDBRANCH  27  51
BRANCH  39  62
ATOM     62  C   UNL A   1      45.465  32.468  28.600  1.00  0.00     0.064 A 
ATOM     63  C   UNL A   1      46.015  32.877  29.824  1.00  0.00     0.173 A 
ATOM     64  C   UNL A   1      45.211  33.451  27.632  1.00  0.00     0.173 A 
ATOM     65  F   UNL A   1      46.259  31.977  30.789  1.00  0.00    -0.203 F 
ATOM     66  C   UNL A   1      46.274  34.220  30.078  1.00  0.00     0.198 A 
ATOM     67  C   UNL A   1      45.498  34.790  27.878  1.00  0.00     0.198 A 
ATOM     68  F   UNL A   1      44.688  33.110  26.443  1.00  0.00    -0.203 F 
ATOM     69  F   UNL A   1      46.750  34.595  31.274  1.00  0.00    -0.200 F 
ATOM     70  C   UNL A   1      46.021  35.175  29.103  1.00  0.00     0.200 A 
ATOM     71  F   UNL A   1      45.264  35.709  26.932  1.00  0.00    -0.200 F 
ATOM     72  F   UNL A   1      46.273  36.467  29.349  1.00  0.00    -0.200 F 
ENDBRANCH  39  62
ENDBRANCH  13  14
ENDBRANCH   6   8
ENDBRANCH   3   4
ENDBRANCH   2   3
ENDBRANCH   1   2
BRANCH   1  73
ATOM     73  C   UNL A   1      37.009  21.615  24.352  1.00  0.00     0.116 C 
BRANCH  73  74
ATOM     74  N   UNL A   1      37.784  22.605  25.087  1.00  0.00    -0.352 N 
ATOM     75  C   UNL A   1      37.340  23.653  25.869  1.00  0.00     0.251 C 
ATOM     76  H   UNL A   1      38.761  22.514  25.018  1.00  0.00     0.163 HD
ATOM     77  O   UNL A   1      38.144  24.453  26.337  1.00  0.00    -0.269 OA
BRANCH  75  78
ATOM     78  C   UNL A   1      35.890  23.826  26.118  1.00  0.00     0.039 A 
ATOM     79  C   UNL A   1      35.182  24.848  25.474  1.00  0.00     0.015 A 
ATOM     80  C   UNL A   1      35.212  22.937  26.948  1.00  0.00     0.015 A 
ATOM     81  C   UNL A   1      33.790  24.935  25.622  1.00  0.00     0.023 A 
ATOM     82  C   UNL A   1      33.825  22.935  26.969  1.00  0.00     0.023 A 
ATOM     83  C   UNL A   1      33.106  23.964  26.367  1.00  0.00     0.087 A 
BRANCH  83  84
ATOM     84  S   UNL A   1      31.330  23.978  26.432  1.00  0.00     0.261 S 
ATOM     85  O   UNL A   1      30.917  22.953  27.367  1.00  0.00    -0.201 OA
ATOM     86  O   UNL A   1      30.940  25.358  26.644  1.00  0.00    -0.201 OA
BRANCH  84  87
ATOM     87  N   UNL A   1      30.652  23.523  24.930  1.00  0.00    -0.279 N 
ATOM     88  H   UNL A   1      29.794  23.042  24.906  1.00  0.00     0.180 HD
BRANCH  87  89
ATOM     89  C   UNL A   1      31.328  23.842  23.700  1.00  0.00     0.062 A 
ATOM     90  C   UNL A   1      31.163  25.111  23.125  1.00  0.00     0.028 A 
ATOM     91  C   UNL A   1      32.234  22.936  23.120  1.00  0.00     0.037 A 
ATOM     92  C   UNL A   1      31.915  25.479  22.003  1.00  0.00     0.002 A 
ATOM     93  C   UNL A   1      32.990  23.314  22.004  1.00  0.00     0.017 A 
ATOM     94  I   UNL A   1      32.528  21.001  23.877  1.00  0.00    -0.042 I 
ATOM     95  C   UNL A   1      32.834  24.587  21.452  1.00  0.00     0.001 A 
ENDBRANCH  87  89
ENDBRANCH  84  87
ENDBRANCH  83  84
ENDBRANCH  75  78
ENDBRANCH  73  74
ENDBRANCH   1  73
TORSDOF 14
ENDMDL
MODEL 3
REMARK VINA RESULT:     -12.7      5.775      9.858
REMARK SMILES O=C(NCCCCNC(=O)c1ccc(S(=O)(=O)Nc2ccccc2I)cc1)c1ccc(-c2c3nc(c(-c4c(F)c(F)c(F)c(F)c4F)c4ccc([nH]4)c(-c4c(F)c(F)c(F)c(F)c4F)c4nc(c(-c5c(F)c(F)c(F)c(F)c5F)c5ccc2[nH]5)C=C4)C=C3)cc1
REMARK SMILES IDX 6 1 5 2 4 3 3 4 1 5 2 6 28 8 29 9 90 10 30 11 89 12 31 13
REMARK SMILES IDX 32 14 33 15 83 16 34 17 88 18 82 19 84 20 35 21 87 22 81 23
REMARK SMILES IDX 80 24 36 26 68 27 48 28 67 29 49 30 52 31 66 32 85 33 50 34
REMARK SMILES IDX 51 35 65 37 86 38 53 39 37 40 38 41 46 42 39 43 40 44 44 45
REMARK SMILES IDX 47 46 41 47 42 48 45 49 43 50 69 51 70 52 78 53 71 54 72 55
REMARK SMILES IDX 76 56 79 57 73 58 74 59 77 60 75 61 54 62 55 63 63 64 56 65
REMARK SMILES IDX 57 66 61 67 64 68 58 69 59 70 62 71 60 72 7 73 8 74 9 75
REMARK SMILES IDX 10 77 11 78 12 79 27 80 13 81 26 82 14 83 15 84 16 85 17 86
REMARK SMILES IDX 18 87 19 89 20 90 24 91 21 92 23 93 25 94 22 95
REMARK H PARENT 3 7 84 25 52 36 8 76 18 88
REMARK Flexibility Score: inf
ROOT
ATOM      1  C   UNL A   1      36.918  20.303  24.995  1.00  0.00     0.023 C 
ENDROOT
BRANCH   1   2
ATOM      2  C   UNL A   1      38.176  19.459  24.856  1.00  0.00     0.023 C 
BRANCH   2   3
ATOM      3  C   UNL A   1      39.344  19.894  25.730  1.00  0.00     0.116 C 
BRANCH   3   4
ATOM      4  N   UNL A   1      40.380  18.877  25.855  1.00  0.00    -0.352 N 
ATOM      5  O   UNL A   1      42.480  18.061  26.036  1.00  0.00    -0.269 OA
ATOM      6  C   UNL A   1      41.727  19.028  26.086  1.00  0.00     0.251 C 
ATOM      7  H   UNL A   1      40.071  17.946  25.761  1.00  0.00     0.163 HD
BRANCH   6   8
ATOM      8  C   UNL A   1      42.269  20.374  26.366  1.00  0.00     0.039 A 
ATOM      9  C   UNL A   1      42.334  20.846  27.677  1.00  0.00     0.014 A 
ATOM     10  C   UNL A   1      42.684  21.181  25.304  1.00  0.00     0.014 A 
ATOM     11  C   UNL A   1      42.644  22.178  27.912  1.00  0.00     0.010 A 
ATOM     12  C   UNL A   1      43.096  22.493  25.553  1.00  0.00     0.010 A 
ATOM     13  C   UNL A   1      43.043  23.013  26.855  1.00  0.00    -0.014 A 
BRANCH  13  14
ATOM     14  C   UNL A   1      43.459  24.405  27.155  1.00  0.00     0.031 A 
ATOM     15  C   UNL A   1      44.853  24.887  26.864  1.00  0.00     0.074 A 
ATOM     16  C   UNL A   1      42.542  25.249  27.667  1.00  0.00     0.049 A 
ATOM     17  N   UNL A   1      45.369  26.075  27.054  1.00  0.00    -0.248 NA
ATOM     18  C   UNL A   1      45.792  23.911  26.292  1.00  0.00     0.031 C 
ATOM     19  C   UNL A   1      41.161  24.888  27.996  1.00  0.00     0.029 A 
ATOM     20  N   UNL A   1      42.621  26.581  27.981  1.00  0.00    -0.354 N 
ATOM     21  C   UNL A   1      46.694  25.986  26.646  1.00  0.00     0.074 A 
ATOM     22  C   UNL A   1      46.910  24.620  26.219  1.00  0.00     0.031 C 
ATOM     23  C   UNL A   1      40.510  25.979  28.419  1.00  0.00     0.029 A 
ATOM     24  C   UNL A   1      41.442  27.099  28.457  1.00  0.00     0.049 A 
ATOM     25  H   UNL A   1      43.442  27.114  27.875  1.00  0.00     0.167 HD
ATOM     26  C   UNL A   1      47.636  26.959  26.624  1.00  0.00     0.037 A 
ATOM     27  C   UNL A   1      41.146  28.336  28.896  1.00  0.00     0.037 A 
ATOM     28  C   UNL A   1      47.406  28.322  27.036  1.00  0.00     0.049 A 
ATOM     29  C   UNL A   1      42.219  29.386  28.883  1.00  0.00     0.074 A 
ATOM     30  C   UNL A   1      48.286  29.390  27.020  1.00  0.00     0.029 A 
ATOM     31  N   UNL A   1      46.206  28.803  27.545  1.00  0.00    -0.354 N 
ATOM     32  N   UNL A   1      43.459  29.294  28.468  1.00  0.00    -0.248 NA
ATOM     33  C   UNL A   1      41.851  30.708  29.404  1.00  0.00     0.031 C 
ATOM     34  C   UNL A   1      47.635  30.504  27.561  1.00  0.00     0.029 A 
ATOM     35  C   UNL A   1      46.333  30.145  27.867  1.00  0.00     0.049 A 
ATOM     36  H   UNL A   1      45.387  28.269  27.658  1.00  0.00     0.167 HD
ATOM     37  C   UNL A   1      44.017  30.549  28.664  1.00  0.00     0.074 A 
ATOM     38  C   UNL A   1      42.972  31.390  29.214  1.00  0.00     0.031 C 
ATOM     39  C   UNL A   1      45.282  30.966  28.415  1.00  0.00     0.037 A 
BRANCH  26  40
ATOM     40  C   UNL A   1      49.015  26.590  26.156  1.00  0.00     0.064 A 
ATOM     41  C   UNL A   1      49.446  26.854  24.848  1.00  0.00     0.173 A 
ATOM     42  C   UNL A   1      49.936  26.015  27.045  1.00  0.00     0.173 A 
ATOM     43  F   UNL A   1      48.603  27.394  23.955  1.00  0.00    -0.203 F 
ATOM     44  C   UNL A   1      50.741  26.536  24.441  1.00  0.00     0.198 A 
ATOM     45  C   UNL A   1      51.238  25.723  26.643  1.00  0.00     0.198 A 
ATOM     46  F   UNL A   1      49.578  25.748  28.311  1.00  0.00    -0.203 F 
ATOM     47  F   UNL A   1      51.119  26.762  23.175  1.00  0.00    -0.200 F 
ATOM     48  C   UNL A   1      51.637  25.979  25.341  1.00  0.00     0.200 A 
ATOM     49  F   UNL A   1      52.105  25.196  27.518  1.00  0.00    -0.200 F 
ATOM     50  F   UNL A   1      52.885  25.683  24.951  1.00  0.00    -0.200 F 
ENDBRANCH  26  40
BRANCH  27  51
ATOM     51  C   UNL A   1      39.778  28.632  29.389  1.00  0.00     0.064 A 
ATOM     52  C   UNL A   1      38.800  29.153  28.532  1.00  0.00     0.173 A 
ATOM     53  C   UNL A   1      39.415  28.379  30.720  1.00  0.00     0.173 A 
ATOM     54  F   UNL A   1      39.104  29.427  27.255  1.00  0.00    -0.203 F 
ATOM     55  C   UNL A   1      37.513  29.423  28.992  1.00  0.00     0.198 A 
ATOM     56  C   UNL A   1      38.120  28.620  31.171  1.00  0.00     0.198 A 
ATOM     57  F   UNL A   1      40.314  27.873  31.577  1.00  0.00    -0.203 F 
ATOM     58  F   UNL A   1      36.606  29.957  28.164  1.00  0.00    -0.200 F 
ATOM     59  C   UNL A   1      37.172  29.148  30.309  1.00  0.00     0.200 A 
ATOM     60  F   UNL A   1      37.791  28.334  32.437  1.00  0.00    -0.200 F 
ATOM     61  F   UNL A   1      35.931  29.397  30.747  1.00  0.00    -0.200 F 
ENDBRANCH  27  51
BRANCH  39  62
ATOM     62  C   UNL A   1      45.595  32.401  28.714  1.00  0.00     0.064 A 
ATOM     63  C   UNL A   1      45.375  33.413  27.767  1.00  0.00     0.173 A 
ATOM     64  C   UNL A   1      46.101  32.773  29.968  1.00  0.00     0.173 A 
ATOM     65  F   UNL A   1      44.909  33.105  26.547  1.00  0.00    -0.203 F 
ATOM     66  C   UNL A   1      45.676  34.740  28.056  1.00  0.00     0.198 A 
ATOM     67  C   UNL A   1      46.374  34.105  30.264  1.00  0.00     0.198 A 
ATOM     68  F   UNL A   1      46.326  31.843  30.909  1.00  0.00    -0.203 F 
ATOM     69  F   UNL A   1      45.507  35.684  27.119  1.00  0.00    -0.200 F 
ATOM     70  C   UNL A   1      46.169  35.086  29.306  1.00  0.00     0.200 A 
ATOM     71  F   UNL A   1      46.840  34.439  31.475  1.00  0.00    -0.200 F 
ATOM     72  F   UNL A   1      46.456  36.366  29.583  1.00  0.00    -0.200 F 
ENDBRANCH  39  62
ENDBRANCH  13  14
ENDBRANCH   6   8
ENDBRANCH   3   4
ENDBRANCH   2   3
ENDBRANCH   1   2
BRANCH   1  73
ATOM     73  C   UNL A   1      36.985  21.679  24.352  1.00  0.00     0.116 C 
BRANCH  73  74
ATOM     74  N   UNL A   1      37.738  22.661  25.122  1.00  0.00    -0.352 N 
ATOM     75  C   UNL A   1      37.272  23.687  25.918  1.00  0.00     0.251 C 
ATOM     76  H   UNL A   1      38.717  22.580  25.067  1.00  0.00     0.163 HD
ATOM     77  O   UNL A   1      38.060  24.485  26.416  1.00  0.00    -0.269 OA
BRANCH  75  78
ATOM     78  C   UNL A   1      35.816  23.842  26.146  1.00  0.00     0.039 A 
ATOM     79  C   UNL A   1      35.113  24.880  25.523  1.00  0.00     0.015 A 
ATOM     80  C   UNL A   1      35.130  22.921  26.934  1.00  0.00     0.015 A 
ATOM     81  C   UNL A   1      33.717  24.952  25.648  1.00  0.00     0.023 A 
ATOM     82  C   UNL A   1      33.743  22.909  26.929  1.00  0.00     0.023 A 
ATOM     83  C   UNL A   1      33.028  23.952  26.348  1.00  0.00     0.087 A 
BRANCH  83  84
ATOM     84  S   UNL A   1      31.250  23.951  26.381  1.00  0.00     0.261 S 
ATOM     85  O   UNL A   1      30.829  22.903  27.285  1.00  0.00    -0.201 OA
ATOM     86  O   UNL A   1      30.845  25.323  26.616  1.00  0.00    -0.201 OA
BRANCH  84  87
ATOM     87  N   UNL A   1      30.603  23.525  24.857  1.00  0.00    -0.279 N 
ATOM     88  H   UNL A   1      29.769  23.006  24.808  1.00  0.00     0.180 HD
BRANCH  87  89
ATOM     89  C   UNL A   1      31.271  23.923  23.646  1.00  0.00     0.062 A 
ATOM     90  C   UNL A   1      31.072  25.216  23.135  1.00  0.00     0.028 A 
ATOM     91  C   UNL A   1      32.201  23.073  23.023  1.00  0.00     0.037 A 
ATOM     92  C   UNL A   1      31.814  25.660  22.035  1.00  0.00     0.002 A 
ATOM     93  C   UNL A   1      32.947  23.527  21.928  1.00  0.00     0.017 A 
ATOM     94  I   UNL A   1      32.546  21.111  23.681  1.00  0.00    -0.042 I 
ATOM     95  C   UNL A   1      32.757  24.821  21.440  1.00  0.00     0.001 A 
ENDBRANCH  87  89
ENDBRANCH  84  87
ENDBRANCH  83  84
ENDBRANCH  75  78
ENDBRANCH  73  74
ENDBRANCH   1  73
TORSDOF 14
ENDMDL
