MODEL 1
REMARK VINA RESULT:     -12.3      0.000      0.000
REMARK SMILES CC(=O)Cn1c(C(=O)NCCCCNC(=O)c2ccc(-c3c4nc(c(-c5c(F)c(F)c(F)c(F)c5F)c5ccc([nH]5)c(-c5c(F)c(F)c(F)c(F)c5F)c5nc(c(-c6c(F)c(F)c(F)c(F)c6F)c6ccc3[nH]6)C=C5)C=C4)cc2)nc2cccnc21
REMARK SMILES IDX 11 1 10 2 9 3 7 4 8 5 6 7 5 8 86 9 80 10 81 11 85 12 82 13
REMARK SMILES IDX 84 14 83 15 4 16 2 17 1 18 3 19 12 20 13 21 14 22 15 23
REMARK SMILES IDX 16 25 17 26 18 27 79 28 19 29 78 30 20 31 21 32 22 33 72 34
REMARK SMILES IDX 23 35 77 36 71 37 73 38 24 39 76 40 70 41 69 42 25 44 57 45
REMARK SMILES IDX 37 46 56 47 38 48 41 49 55 50 74 51 39 52 40 53 54 55 75 56
REMARK SMILES IDX 42 57 26 58 27 59 35 60 28 61 29 62 33 63 36 64 30 65 31 66
REMARK SMILES IDX 34 67 32 68 58 69 59 70 67 71 60 72 61 73 65 74 68 75 62 76
REMARK SMILES IDX 63 77 66 78 64 79 43 80 44 81 52 82 45 83 46 84 50 85 53 86
REMARK SMILES IDX 47 87 48 88 51 89 49 90
REMARK H PARENT 9 6 14 24 73 43 41 54
REMARK Flexibility Score: inf
ROOT
ATOM      1  C   UNL A   1      36.363  21.654  25.629  1.00  0.00     0.023 C 
ENDROOT
BRANCH   1   2
ATOM      2  C   UNL A   1      34.873  21.971  25.595  1.00  0.00     0.116 C 
BRANCH   2   3
ATOM      3  N   UNL A   1      34.389  22.580  24.393  1.00  0.00    -0.349 N 
ATOM      4  C   UNL A   1      33.827  23.795  24.076  1.00  0.00     0.287 C 
ATOM      5  O   UNL A   1      33.766  23.945  22.846  1.00  0.00    -0.266 OA
ATOM      6  H   UNL A   1      34.480  21.992  23.608  1.00  0.00     0.163 HD
BRANCH   4   7
ATOM      7  C   UNL A   1      33.289  24.828  24.992  1.00  0.00     0.201 A 
ATOM      8  N   UNL A   1      32.090  25.069  25.676  1.00  0.00    -0.297 N 
ATOM      9  C   UNL A   1      32.174  26.312  26.252  1.00  0.00     0.160 A 
ATOM     10  N   UNL A   1      34.136  25.821  25.286  1.00  0.00    -0.222 NA
ATOM     11  C   UNL A   1      33.466  26.739  26.029  1.00  0.00     0.109 A 
ATOM     12  N   UNL A   1      31.208  26.961  26.925  1.00  0.00    -0.237 NA
ATOM     13  C   UNL A   1      33.857  27.969  26.562  1.00  0.00     0.034 A 
ATOM     14  C   UNL A   1      31.617  28.152  27.415  1.00  0.00     0.113 A 
ATOM     15  C   UNL A   1      32.894  28.685  27.277  1.00  0.00     0.022 A 
BRANCH   8  16
ATOM     16  C   UNL A   1      30.904  24.242  25.789  1.00  0.00     0.201 C 
BRANCH  16  17
ATOM     17  C   UNL A   1      30.803  23.170  26.846  1.00  0.00     0.149 C 
ATOM     18  C   UNL A   1      29.433  22.679  27.232  1.00  0.00     0.089 C 
ATOM     19  O   UNL A   1      31.796  22.853  27.509  1.00  0.00    -0.298 OA
ENDBRANCH  16  17
ENDBRANCH   8  16
ENDBRANCH   4   7
ENDBRANCH   2   3
ENDBRANCH   1   2
BRANCH   1  20
ATOM     20  C   UNL A   1      37.274  22.784  25.148  1.00  0.00     0.023 C 
BRANCH  20  21
ATOM     21  C   UNL A   1      38.233  23.306  26.208  1.00  0.00     0.116 C 
BRANCH  21  22
ATOM     22  N   UNL A   1      39.480  22.551  26.309  1.00  0.00    -0.352 N 
ATOM     23  C   UNL A   1      40.753  23.089  26.414  1.00  0.00     0.251 C 
ATOM     24  H   UNL A   1      39.409  21.569  26.303  1.00  0.00     0.163 HD
ATOM     25  O   UNL A   1      41.756  22.451  26.161  1.00  0.00    -0.269 OA
BRANCH  23  26
ATOM     26  C   UNL A   1      40.848  24.475  26.902  1.00  0.00     0.039 A 
ATOM     27  C   UNL A   1      40.436  25.568  26.135  1.00  0.00     0.014 A 
ATOM     28  C   UNL A   1      41.331  24.632  28.201  1.00  0.00     0.014 A 
ATOM     29  C   UNL A   1      40.486  26.834  26.709  1.00  0.00     0.010 A 
ATOM     30  C   UNL A   1      41.220  25.843  28.817  1.00  0.00     0.010 A 
ATOM     31  C   UNL A   1      40.887  26.950  28.046  1.00  0.00    -0.014 A 
BRANCH  31  32
ATOM     32  C   UNL A   1      40.989  28.233  28.713  1.00  0.00     0.031 A 
ATOM     33  C   UNL A   1      42.136  29.085  28.300  1.00  0.00     0.074 A 
ATOM     34  C   UNL A   1      39.944  28.687  29.435  1.00  0.00     0.049 A 
ATOM     35  N   UNL A   1      43.095  29.528  29.042  1.00  0.00    -0.248 NA
ATOM     36  C   UNL A   1      42.303  29.394  26.870  1.00  0.00     0.031 C 
ATOM     37  C   UNL A   1      38.625  28.069  29.643  1.00  0.00     0.029 A 
ATOM     38  N   UNL A   1      39.813  29.880  30.064  1.00  0.00    -0.354 N 
ATOM     39  C   UNL A   1      43.911  30.299  28.215  1.00  0.00     0.074 A 
ATOM     40  C   UNL A   1      43.462  30.056  26.869  1.00  0.00     0.031 C 
ATOM     41  C   UNL A   1      37.771  28.985  30.152  1.00  0.00     0.029 A 
ATOM     42  C   UNL A   1      38.515  30.192  30.452  1.00  0.00     0.049 A 
ATOM     43  H   UNL A   1      40.576  30.479  30.232  1.00  0.00     0.167 HD
ATOM     44  C   UNL A   1      44.772  31.221  28.728  1.00  0.00     0.037 A 
ATOM     45  C   UNL A   1      38.108  31.395  30.925  1.00  0.00     0.037 A 
ATOM     46  C   UNL A   1      44.957  31.020  30.142  1.00  0.00     0.049 A 
ATOM     47  C   UNL A   1      39.331  32.097  31.412  1.00  0.00     0.074 A 
ATOM     48  C   UNL A   1      45.495  29.997  30.898  1.00  0.00     0.029 A 
ATOM     49  N   UNL A   1      44.185  31.760  31.008  1.00  0.00    -0.354 N 
ATOM     50  N   UNL A   1      40.038  31.675  32.427  1.00  0.00    -0.248 NA
ATOM     51  C   UNL A   1      40.048  32.928  30.452  1.00  0.00     0.031 C 
ATOM     52  C   UNL A   1      44.619  29.875  32.017  1.00  0.00     0.029 A 
ATOM     53  C   UNL A   1      43.660  30.885  31.927  1.00  0.00     0.049 A 
ATOM     54  H   UNL A   1      44.039  32.733  30.976  1.00  0.00     0.167 HD
ATOM     55  C   UNL A   1      41.362  31.837  32.037  1.00  0.00     0.074 A 
ATOM     56  C   UNL A   1      41.304  32.657  30.826  1.00  0.00     0.031 C 
ATOM     57  C   UNL A   1      42.359  31.048  32.538  1.00  0.00     0.037 A 
BRANCH  44  58
ATOM     58  C   UNL A   1      45.230  32.478  28.034  1.00  0.00     0.064 A 
ATOM     59  C   UNL A   1      44.298  33.505  27.776  1.00  0.00     0.173 A 
ATOM     60  C   UNL A   1      46.467  32.600  27.369  1.00  0.00     0.173 A 
ATOM     61  F   UNL A   1      43.082  33.486  28.344  1.00  0.00    -0.203 F 
ATOM     62  C   UNL A   1      44.564  34.534  26.869  1.00  0.00     0.198 A 
ATOM     63  C   UNL A   1      46.749  33.658  26.506  1.00  0.00     0.198 A 
ATOM     64  F   UNL A   1      47.409  31.652  27.441  1.00  0.00    -0.203 F 
ATOM     65  F   UNL A   1      43.605  35.422  26.569  1.00  0.00    -0.200 F 
ATOM     66  C   UNL A   1      45.788  34.607  26.230  1.00  0.00     0.200 A 
ATOM     67  F   UNL A   1      47.937  33.702  25.885  1.00  0.00    -0.200 F 
ATOM     68  F   UNL A   1      46.026  35.559  25.319  1.00  0.00    -0.200 F 
ENDBRANCH  44  58
BRANCH  45  69
ATOM     69  C   UNL A   1      36.827  32.085  30.629  1.00  0.00     0.064 A 
ATOM     70  C   UNL A   1      35.912  32.406  31.643  1.00  0.00     0.173 A 
ATOM     71  C   UNL A   1      36.592  32.676  29.369  1.00  0.00     0.173 A 
ATOM     72  F   UNL A   1      36.089  31.929  32.884  1.00  0.00    -0.203 F 
ATOM     73  C   UNL A   1      34.834  33.273  31.415  1.00  0.00     0.198 A 
ATOM     74  C   UNL A   1      35.517  33.536  29.141  1.00  0.00     0.198 A 
ATOM     75  F   UNL A   1      37.453  32.504  28.356  1.00  0.00    -0.203 F 
ATOM     76  F   UNL A   1      34.009  33.595  32.421  1.00  0.00    -0.200 F 
ATOM     77  C   UNL A   1      34.643  33.843  30.166  1.00  0.00     0.200 A 
ATOM     78  F   UNL A   1      35.367  34.109  27.938  1.00  0.00    -0.200 F 
ATOM     79  F   UNL A   1      33.645  34.714  29.961  1.00  0.00    -0.200 F 
ENDBRANCH  45  69
BRANCH  57  80
ATOM     80  C   UNL A   1      42.027  30.090  33.656  1.00  0.00     0.064 A 
ATOM     81  C   UNL A   1      41.652  28.750  33.451  1.00  0.00     0.173 A 
ATOM     82  C   UNL A   1      42.309  30.476  34.972  1.00  0.00     0.173 A 
ATOM     83  F   UNL A   1      41.463  28.268  32.220  1.00  0.00    -0.203 F 
ATOM     84  C   UNL A   1      41.542  27.850  34.511  1.00  0.00     0.198 A 
ATOM     85  C   UNL A   1      42.234  29.568  36.026  1.00  0.00     0.198 A 
ATOM     86  F   UNL A   1      42.732  31.724  35.228  1.00  0.00    -0.203 F 
ATOM     87  F   UNL A   1      41.191  26.576  34.278  1.00  0.00    -0.200 F 
ATOM     88  C   UNL A   1      41.846  28.258  35.798  1.00  0.00     0.200 A 
ATOM     89  F   UNL A   1      42.583  29.954  37.261  1.00  0.00    -0.200 F 
ATOM     90  F   UNL A   1      41.796  27.382  36.811  1.00  0.00    -0.200 F 
ENDBRANCH  57  80
ENDBRANCH  31  32
ENDBRANCH  23  26
ENDBRANCH  21  22
ENDBRANCH  20  21
ENDBRANCH   1  20
TORSDOF 13
ENDMDL
MODEL 2
REMARK VINA RESULT:     -12.2      3.741      7.059
REMARK SMILES CC(=O)Cn1c(C(=O)NCCCCNC(=O)c2ccc(-c3c4nc(c(-c5c(F)c(F)c(F)c(F)c5F)c5ccc([nH]5)c(-c5c(F)c(F)c(F)c(F)c5F)c5nc(c(-c6c(F)c(F)c(F)c(F)c6F)c6ccc3[nH]6)C=C5)C=C4)cc2)nc2cccnc21
REMARK SMILES IDX 11 1 10 2 9 3 7 4 8 5 6 7 5 8 86 9 80 10 81 11 85 12 82 13
REMARK SMILES IDX 84 14 83 15 4 16 2 17 1 18 3 19 12 20 13 21 14 22 15 23
REMARK SMILES IDX 16 25 17 26 18 27 79 28 19 29 78 30 20 31 21 32 22 33 72 34
REMARK SMILES IDX 23 35 77 36 71 37 73 38 24 39 76 40 70 41 69 42 25 44 57 45
REMARK SMILES IDX 37 46 56 47 38 48 41 49 55 50 74 51 39 52 40 53 54 55 75 56
REMARK SMILES IDX 42 57 26 58 27 59 35 60 28 61 29 62 33 63 36 64 30 65 31 66
REMARK SMILES IDX 34 67 32 68 58 69 59 70 67 71 60 72 61 73 65 74 68 75 62 76
REMARK SMILES IDX 63 77 66 78 64 79 43 80 44 81 52 82 45 83 46 84 50 85 53 86
REMARK SMILES IDX 47 87 48 88 51 89 49 90
REMARK H PARENT 9 6 14 24 73 43 41 54
REMARK Flexibility Score: inf
ROOT
ATOM      1  C   UNL A   1      45.622  23.328  25.071  1.00  0.00     0.023 C 
ENDROOT
BRANCH   1   2
ATOM      2  C   UNL A   1      45.795  23.648  26.551  1.00  0.00     0.116 C 
BRANCH   2   3
ATOM      3  N   UNL A   1      47.114  24.027  26.960  1.00  0.00    -0.349 N 
ATOM      4  C   UNL A   1      47.982  25.042  26.629  1.00  0.00     0.287 C 
ATOM      5  O   UNL A   1      48.941  25.076  27.415  1.00  0.00    -0.266 OA
ATOM      6  H   UNL A   1      47.489  23.418  27.638  1.00  0.00     0.163 HD
BRANCH   4   7
ATOM      7  C   UNL A   1      47.905  25.983  25.487  1.00  0.00     0.201 A 
ATOM      8  N   UNL A   1      47.159  27.118  25.142  1.00  0.00    -0.297 N 
ATOM      9  C   UNL A   1      47.465  27.448  23.845  1.00  0.00     0.160 A 
ATOM     10  N   UNL A   1      48.760  25.735  24.489  1.00  0.00    -0.222 NA
ATOM     11  C   UNL A   1      48.488  26.600  23.478  1.00  0.00     0.109 A 
ATOM     12  N   UNL A   1      46.907  28.419  23.101  1.00  0.00    -0.237 NA
ATOM     13  C   UNL A   1      49.047  26.749  22.207  1.00  0.00     0.034 A 
ATOM     14  C   UNL A   1      47.462  28.526  21.874  1.00  0.00     0.113 A 
ATOM     15  C   UNL A   1      48.509  27.748  21.392  1.00  0.00     0.022 A 
BRANCH   8  16
ATOM     16  C   UNL A   1      46.189  27.864  25.922  1.00  0.00     0.201 C 
BRANCH  16  17
ATOM     17  C   UNL A   1      45.105  27.155  26.694  1.00  0.00     0.149 C 
ATOM     18  C   UNL A   1      45.297  26.962  28.176  1.00  0.00     0.089 C 
ATOM     19  O   UNL A   1      44.189  26.581  26.098  1.00  0.00    -0.298 OA
ENDBRANCH  16  17
ENDBRANCH   8  16
ENDBRANCH   4   7
ENDBRANCH   2   3
ENDBRANCH   1   2
BRANCH   1  20
ATOM     20  C   UNL A   1      44.302  22.645  24.709  1.00  0.00     0.023 C 
BRANCH  20  21
ATOM     21  C   UNL A   1      43.064  23.462  25.047  1.00  0.00     0.116 C 
BRANCH  21  22
ATOM     22  N   UNL A   1      41.946  22.669  25.554  1.00  0.00    -0.352 N 
ATOM     23  C   UNL A   1      41.155  22.982  26.649  1.00  0.00     0.251 C 
ATOM     24  H   UNL A   1      41.734  21.837  25.073  1.00  0.00     0.163 HD
ATOM     25  O   UNL A   1      40.477  22.153  27.224  1.00  0.00    -0.269 OA
BRANCH  23  26
ATOM     26  C   UNL A   1      41.130  24.393  27.066  1.00  0.00     0.039 A 
ATOM     27  C   UNL A   1      40.287  25.335  26.470  1.00  0.00     0.014 A 
ATOM     28  C   UNL A   1      41.966  24.730  28.130  1.00  0.00     0.014 A 
ATOM     29  C   UNL A   1      40.271  26.627  26.983  1.00  0.00     0.010 A 
ATOM     30  C   UNL A   1      41.825  25.942  28.739  1.00  0.00     0.010 A 
ATOM     31  C   UNL A   1      41.051  26.911  28.112  1.00  0.00    -0.014 A 
BRANCH  31  32
ATOM     32  C   UNL A   1      41.111  28.236  28.697  1.00  0.00     0.031 A 
ATOM     33  C   UNL A   1      42.145  29.143  28.133  1.00  0.00     0.074 A 
ATOM     34  C   UNL A   1      40.101  28.653  29.488  1.00  0.00     0.049 A 
ATOM     35  N   UNL A   1      43.128  29.701  28.757  1.00  0.00    -0.248 NA
ATOM     36  C   UNL A   1      42.158  29.377  26.680  1.00  0.00     0.031 C 
ATOM     37  C   UNL A   1      38.860  27.954  29.852  1.00  0.00     0.029 A 
ATOM     38  N   UNL A   1      39.933  29.870  30.062  1.00  0.00    -0.354 N 
ATOM     39  C   UNL A   1      43.803  30.478  27.818  1.00  0.00     0.074 A 
ATOM     40  C   UNL A   1      43.256  30.122  26.534  1.00  0.00     0.031 C 
ATOM     41  C   UNL A   1      37.984  28.833  30.389  1.00  0.00     0.029 A 
ATOM     42  C   UNL A   1      38.654  30.108  30.552  1.00  0.00     0.049 A 
ATOM     43  H   UNL A   1      40.658  30.533  30.126  1.00  0.00     0.167 HD
ATOM     44  C   UNL A   1      44.631  31.492  28.198  1.00  0.00     0.037 A 
ATOM     45  C   UNL A   1      38.196  31.304  30.997  1.00  0.00     0.037 A 
ATOM     46  C   UNL A   1      44.957  31.391  29.597  1.00  0.00     0.049 A 
ATOM     47  C   UNL A   1      39.399  32.122  31.329  1.00  0.00     0.074 A 
ATOM     48  C   UNL A   1      45.639  30.458  30.353  1.00  0.00     0.029 A 
ATOM     49  N   UNL A   1      44.209  32.122  30.490  1.00  0.00    -0.354 N 
ATOM     50  N   UNL A   1      40.225  31.816  32.294  1.00  0.00    -0.248 NA
ATOM     51  C   UNL A   1      39.959  32.944  30.263  1.00  0.00     0.031 C 
ATOM     52  C   UNL A   1      44.879  30.340  31.554  1.00  0.00     0.029 A 
ATOM     53  C   UNL A   1      43.838  31.269  31.500  1.00  0.00     0.049 A 
ATOM     54  H   UNL A   1      43.983  33.078  30.420  1.00  0.00     0.167 HD
ATOM     55  C   UNL A   1      41.491  32.052  31.773  1.00  0.00     0.074 A 
ATOM     56  C   UNL A   1      41.260  32.791  30.531  1.00  0.00     0.031 C 
ATOM     57  C   UNL A   1      42.588  31.371  32.221  1.00  0.00     0.037 A 
BRANCH  44  58
ATOM     58  C   UNL A   1      44.923  32.734  27.397  1.00  0.00     0.064 A 
ATOM     59  C   UNL A   1      46.144  32.838  26.700  1.00  0.00     0.173 A 
ATOM     60  C   UNL A   1      44.184  33.930  27.509  1.00  0.00     0.173 A 
ATOM     61  F   UNL A   1      46.937  31.767  26.543  1.00  0.00    -0.203 F 
ATOM     62  C   UNL A   1      46.618  34.060  26.216  1.00  0.00     0.198 A 
ATOM     63  C   UNL A   1      44.635  35.138  26.977  1.00  0.00     0.198 A 
ATOM     64  F   UNL A   1      43.057  34.004  28.226  1.00  0.00    -0.203 F 
ATOM     65  F   UNL A   1      47.837  34.130  25.662  1.00  0.00    -0.200 F 
ATOM     66  C   UNL A   1      45.865  35.211  26.359  1.00  0.00     0.200 A 
ATOM     67  F   UNL A   1      43.897  36.246  27.140  1.00  0.00    -0.200 F 
ATOM     68  F   UNL A   1      46.341  36.393  25.946  1.00  0.00    -0.200 F 
ENDBRANCH  44  58
BRANCH  45  69
ATOM     69  C   UNL A   1      36.844  31.878  30.785  1.00  0.00     0.064 A 
ATOM     70  C   UNL A   1      35.987  32.160  31.860  1.00  0.00     0.173 A 
ATOM     71  C   UNL A   1      36.462  32.403  29.532  1.00  0.00     0.173 A 
ATOM     72  F   UNL A   1      36.300  31.742  33.096  1.00  0.00    -0.203 F 
ATOM     73  C   UNL A   1      34.827  32.928  31.695  1.00  0.00     0.198 A 
ATOM     74  C   UNL A   1      35.305  33.165  29.367  1.00  0.00     0.198 A 
ATOM     75  F   UNL A   1      37.253  32.264  28.458  1.00  0.00    -0.203 F 
ATOM     76  F   UNL A   1      34.059  33.218  32.755  1.00  0.00    -0.200 F 
ATOM     77  C   UNL A   1      34.491  33.437  30.450  1.00  0.00     0.200 A 
ATOM     78  F   UNL A   1      35.015  33.680  28.164  1.00  0.00    -0.200 F 
ATOM     79  F   UNL A   1      33.412  34.217  30.301  1.00  0.00    -0.200 F 
ENDBRANCH  45  69
BRANCH  57  80
ATOM     80  C   UNL A   1      42.435  30.461  33.414  1.00  0.00     0.064 A 
ATOM     81  C   UNL A   1      42.455  30.911  34.747  1.00  0.00     0.173 A 
ATOM     82  C   UNL A   1      42.039  29.136  33.197  1.00  0.00     0.173 A 
ATOM     83  F   UNL A   1      42.721  32.186  35.040  1.00  0.00    -0.203 F 
ATOM     84  C   UNL A   1      42.119  30.070  35.808  1.00  0.00     0.198 A 
ATOM     85  C   UNL A   1      41.670  28.307  34.254  1.00  0.00     0.198 A 
ATOM     86  F   UNL A   1      41.940  28.663  31.944  1.00  0.00    -0.203 F 
ATOM     87  F   UNL A   1      42.139  30.534  37.066  1.00  0.00    -0.200 F 
ATOM     88  C   UNL A   1      41.714  28.771  35.559  1.00  0.00     0.200 A 
ATOM     89  F   UNL A   1      41.226  27.068  34.002  1.00  0.00    -0.200 F 
ATOM     90  F   UNL A   1      41.337  27.977  36.571  1.00  0.00    -0.200 F 
ENDBRANCH  57  80
ENDBRANCH  31  32
ENDBRANCH  23  26
ENDBRANCH  21  22
ENDBRANCH  20  21
ENDBRANCH   1  20
TORSDOF 13
ENDMDL
MODEL 3
REMARK VINA RESULT:     -12.2      3.705      6.970
REMARK SMILES CC(=O)Cn1c(C(=O)NCCCCNC(=O)c2ccc(-c3c4nc(c(-c5c(F)c(F)c(F)c(F)c5F)c5ccc([nH]5)c(-c5c(F)c(F)c(F)c(F)c5F)c5nc(c(-c6c(F)c(F)c(F)c(F)c6F)c6ccc3[nH]6)C=C5)C=C4)cc2)nc2cccnc21
REMARK SMILES IDX 11 1 10 2 9 3 7 4 8 5 6 7 5 8 86 9 80 10 81 11 85 12 82 13
REMARK SMILES IDX 84 14 83 15 4 16 2 17 1 18 3 19 12 20 13 21 14 22 15 23
REMARK SMILES IDX 16 25 17 26 18 27 79 28 19 29 78 30 20 31 21 32 22 33 72 34
REMARK SMILES IDX 23 35 77 36 71 37 73 38 24 39 76 40 70 41 69 42 25 44 57 45
REMARK SMILES IDX 37 46 56 47 38 48 41 49 55 50 74 51 39 52 40 53 54 55 75 56
REMARK SMILES IDX 42 57 26 58 27 59 35 60 28 61 29 62 33 63 36 64 30 65 31 66
REMARK SMILES IDX 34 67 32 68 58 69 59 70 67 71 60 72 61 73 65 74 68 75 62 76
REMARK SMILES IDX 63 77 66 78 64 79 43 80 44 81 52 82 45 83 46 84 50 85 53 86
REMARK SMILES IDX 47 87 48 88 51 89 49 90
REMARK H PARENT 9 6 14 24 73 43 41 54
REMARK Flexibility Score: inf
ROOT
ATOM      1  C   UNL A   1      44.585  21.526  24.887  1.00  0.00     0.023 C 
ENDROOT
BRANCH   1   2
ATOM      2  C   UNL A   1      45.794  21.704  25.797  1.00  0.00     0.116 C 
BRANCH   2   3
ATOM      3  N   UNL A   1      45.585  22.499  26.969  1.00  0.00    -0.349 N 
ATOM      4  C   UNL A   1      46.040  23.720  27.411  1.00  0.00     0.287 C 
ATOM      5  O   UNL A   1      45.404  24.093  28.409  1.00  0.00    -0.266 OA
ATOM      6  H   UNL A   1      44.970  22.073  27.610  1.00  0.00     0.163 HD
BRANCH   4   7
ATOM      7  C   UNL A   1      47.156  24.535  26.877  1.00  0.00     0.201 A 
ATOM      8  N   UNL A   1      47.373  25.391  25.790  1.00  0.00    -0.297 N 
ATOM      9  C   UNL A   1      48.706  25.719  25.768  1.00  0.00     0.160 A 
ATOM     10  N   UNL A   1      48.287  24.482  27.589  1.00  0.00    -0.222 NA
ATOM     11  C   UNL A   1      49.241  25.175  26.916  1.00  0.00     0.109 A 
ATOM     12  N   UNL A   1      49.347  26.449  24.838  1.00  0.00    -0.237 NA
ATOM     13  C   UNL A   1      50.592  25.402  27.188  1.00  0.00     0.034 A 
ATOM     14  C   UNL A   1      50.654  26.638  25.127  1.00  0.00     0.113 A 
ATOM     15  C   UNL A   1      51.307  26.160  26.258  1.00  0.00     0.022 A 
BRANCH   8  16
ATOM     16  C   UNL A   1      46.440  25.876  24.790  1.00  0.00     0.201 C 
BRANCH  16  17
ATOM     17  C   UNL A   1      45.501  27.017  25.094  1.00  0.00     0.149 C 
ATOM     18  C   UNL A   1      44.140  26.688  25.651  1.00  0.00     0.089 C 
ATOM     19  O   UNL A   1      45.766  28.162  24.715  1.00  0.00    -0.298 OA
ENDBRANCH  16  17
ENDBRANCH   8  16
ENDBRANCH   4   7
ENDBRANCH   2   3
ENDBRANCH   1   2
BRANCH   1  20
ATOM     20  C   UNL A   1      44.143  22.789  24.147  1.00  0.00     0.023 C 
BRANCH  20  21
ATOM     21  C   UNL A   1      43.032  23.564  24.842  1.00  0.00     0.116 C 
BRANCH  21  22
ATOM     22  N   UNL A   1      41.963  22.723  25.377  1.00  0.00    -0.352 N 
ATOM     23  C   UNL A   1      41.232  22.970  26.528  1.00  0.00     0.251 C 
ATOM     24  H   UNL A   1      41.742  21.907  24.873  1.00  0.00     0.163 HD
ATOM     25  O   UNL A   1      40.606  22.101  27.104  1.00  0.00    -0.269 OA
BRANCH  23  26
ATOM     26  C   UNL A   1      41.200  24.361  27.008  1.00  0.00     0.039 A 
ATOM     27  C   UNL A   1      40.404  25.341  26.409  1.00  0.00     0.014 A 
ATOM     28  C   UNL A   1      41.980  24.637  28.131  1.00  0.00     0.014 A 
ATOM     29  C   UNL A   1      40.375  26.609  26.980  1.00  0.00     0.010 A 
ATOM     30  C   UNL A   1      41.820  25.822  28.785  1.00  0.00     0.010 A 
ATOM     31  C   UNL A   1      41.094  26.830  28.162  1.00  0.00    -0.014 A 
BRANCH  31  32
ATOM     32  C   UNL A   1      41.136  28.126  28.809  1.00  0.00     0.031 A 
ATOM     33  C   UNL A   1      42.244  29.023  28.384  1.00  0.00     0.074 A 
ATOM     34  C   UNL A   1      40.070  28.543  29.522  1.00  0.00     0.049 A 
ATOM     35  N   UNL A   1      43.181  29.520  29.120  1.00  0.00    -0.248 NA
ATOM     36  C   UNL A   1      42.400  29.318  26.950  1.00  0.00     0.031 C 
ATOM     37  C   UNL A   1      38.781  27.869  29.738  1.00  0.00     0.029 A 
ATOM     38  N   UNL A   1      39.884  29.739  30.133  1.00  0.00    -0.354 N 
ATOM     39  C   UNL A   1      43.962  30.315  28.283  1.00  0.00     0.074 A 
ATOM     40  C   UNL A   1      43.528  30.031  26.940  1.00  0.00     0.031 C 
ATOM     41  C   UNL A   1      37.884  28.753  30.232  1.00  0.00     0.029 A 
ATOM     42  C   UNL A   1      38.572  29.997  30.514  1.00  0.00     0.049 A 
ATOM     43  H   UNL A   1      40.619  30.374  30.293  1.00  0.00     0.167 HD
ATOM     44  C   UNL A   1      44.780  31.283  28.783  1.00  0.00     0.037 A 
ATOM     45  C   UNL A   1      38.110  31.188  30.968  1.00  0.00     0.037 A 
ATOM     46  C   UNL A   1      44.971  31.112  30.200  1.00  0.00     0.049 A 
ATOM     47  C   UNL A   1      39.299  31.952  31.446  1.00  0.00     0.074 A 
ATOM     48  C   UNL A   1      45.553  30.127  30.972  1.00  0.00     0.029 A 
ATOM     49  N   UNL A   1      44.165  31.830  31.053  1.00  0.00    -0.354 N 
ATOM     50  N   UNL A   1      40.023  31.578  32.468  1.00  0.00    -0.248 NA
ATOM     51  C   UNL A   1      39.980  32.799  30.474  1.00  0.00     0.031 C 
ATOM     52  C   UNL A   1      44.681  29.982  32.092  1.00  0.00     0.029 A 
ATOM     53  C   UNL A   1      43.677  30.946  31.985  1.00  0.00     0.049 A 
ATOM     54  H   UNL A   1      43.974  32.794  31.006  1.00  0.00     0.167 HD
ATOM     55  C   UNL A   1      41.338  31.794  32.077  1.00  0.00     0.074 A 
ATOM     56  C   UNL A   1      41.245  32.592  30.854  1.00  0.00     0.031 C 
ATOM     57  C   UNL A   1      42.369  31.059  32.592  1.00  0.00     0.037 A 
BRANCH  44  58
ATOM     58  C   UNL A   1      45.181  32.549  28.070  1.00  0.00     0.064 A 
ATOM     59  C   UNL A   1      44.215  33.551  27.841  1.00  0.00     0.173 A 
ATOM     60  C   UNL A   1      46.392  32.699  27.363  1.00  0.00     0.173 A 
ATOM     61  F   UNL A   1      43.020  33.503  28.450  1.00  0.00    -0.203 F 
ATOM     62  C   UNL A   1      44.424  34.583  26.922  1.00  0.00     0.198 A 
ATOM     63  C   UNL A   1      46.617  33.761  26.487  1.00  0.00     0.198 A 
ATOM     64  F   UNL A   1      47.359  31.776  27.406  1.00  0.00    -0.203 F 
ATOM     65  F   UNL A   1      43.433  35.445  26.653  1.00  0.00    -0.200 F 
ATOM     66  C   UNL A   1      45.623  34.685  26.242  1.00  0.00     0.200 A 
ATOM     67  F   UNL A   1      47.781  33.834  25.826  1.00  0.00    -0.200 F 
ATOM     68  F   UNL A   1      45.805  35.639  25.320  1.00  0.00    -0.200 F 
ENDBRANCH  44  58
BRANCH  45  69
ATOM     69  C   UNL A   1      36.800  31.814  30.660  1.00  0.00     0.064 A 
ATOM     70  C   UNL A   1      35.891  32.156  31.672  1.00  0.00     0.173 A 
ATOM     71  C   UNL A   1      36.522  32.328  29.375  1.00  0.00     0.173 A 
ATOM     72  F   UNL A   1      36.105  31.751  32.933  1.00  0.00    -0.203 F 
ATOM     73  C   UNL A   1      34.778  32.969  31.419  1.00  0.00     0.198 A 
ATOM     74  C   UNL A   1      35.412  33.135  29.122  1.00  0.00     0.198 A 
ATOM     75  F   UNL A   1      37.372  32.133  28.357  1.00  0.00    -0.203 F 
ATOM     76  F   UNL A   1      33.958  33.314  32.421  1.00  0.00    -0.200 F 
ATOM     77  C   UNL A   1      34.544  33.465  30.145  1.00  0.00     0.200 A 
ATOM     78  F   UNL A   1      35.222  33.637  27.893  1.00  0.00    -0.200 F 
ATOM     79  F   UNL A   1      33.512  34.287  29.913  1.00  0.00    -0.200 F 
ENDBRANCH  45  69
BRANCH  57  80
ATOM     80  C   UNL A   1      42.079  30.105  33.724  1.00  0.00     0.064 A 
ATOM     81  C   UNL A   1      41.734  28.753  33.537  1.00  0.00     0.173 A 
ATOM     82  C   UNL A   1      42.373  30.510  35.031  1.00  0.00     0.173 A 
ATOM     83  F   UNL A   1      41.537  28.255  32.314  1.00  0.00    -0.203 F 
ATOM     84  C   UNL A   1      41.663  27.862  34.608  1.00  0.00     0.198 A 
ATOM     85  C   UNL A   1      42.337  29.611  36.094  1.00  0.00     0.198 A 
ATOM     86  F   UNL A   1      42.769  31.770  35.268  1.00  0.00    -0.203 F 
ATOM     87  F   UNL A   1      41.340  26.578  34.393  1.00  0.00    -0.200 F 
ATOM     88  C   UNL A   1      41.977  28.289  35.885  1.00  0.00     0.200 A 
ATOM     89  F   UNL A   1      42.696  30.018  37.320  1.00  0.00    -0.200 F 
ATOM     90  F   UNL A   1      41.965  27.423  36.907  1.00  0.00    -0.200 F 
ENDBRANCH  57  80
ENDBRANCH  31  32
ENDBRANCH  23  26
ENDBRANCH  21  22
ENDBRANCH  20  21
ENDBRANCH   1  20
TORSDOF 13
ENDMDL
