MODEL 1
REMARK VINA RESULT:     -12.8      0.000      0.000
REMARK SMILES CC(C)(C)Nc1ncnc(N2CCC(C(=O)NCCCCNC(=O)c3ccc(-c4c5nc(c(-c6c(F)c(F)c(F)c(F)c6F)c6ccc([nH]6)c(-c6c(F)c(F)c(F)c(F)c6F)c6nc(c(-c7c(F)c(F)c(F)c(F)c7F)c7ccc4[nH]7)C=C6)C=C5)cc3)CC2)c1N
REMARK SMILES IDX 19 1 18 2 17 3 15 4 16 5 14 7 11 8 12 9 89 10 13 11 88 12
REMARK SMILES IDX 10 13 6 14 7 15 90 16 8 17 9 18 5 19 2 21 1 22 3 23 4 24
REMARK SMILES IDX 91 25 20 28 21 29 22 30 23 31 24 33 25 34 26 35 87 36 27 37
REMARK SMILES IDX 86 38 28 39 29 40 30 41 80 42 31 43 85 44 79 45 81 46 32 47
REMARK SMILES IDX 84 48 78 49 77 50 33 52 65 53 45 54 64 55 46 56 49 57 63 58
REMARK SMILES IDX 82 59 47 60 48 61 62 63 83 64 50 65 34 66 35 67 43 68 36 69
REMARK SMILES IDX 37 70 41 71 44 72 38 73 39 74 42 75 40 76 66 77 67 78 75 79
REMARK SMILES IDX 68 80 69 81 73 82 76 83 70 84 71 85 74 86 72 87 51 88 52 89
REMARK SMILES IDX 60 90 53 91 54 92 58 93 61 94 55 95 56 96 59 97 57 98
REMARK H PARENT 17 6 5 20 91 26 91 27 22 32 81 51 49 62
REMARK Flexibility Score: inf
ROOT
ATOM      1  C   UNL A   1      31.829  30.450  26.614  1.00  0.00     0.023 C 
ENDROOT
BRANCH   1   2
ATOM      2  C   UNL A   1      31.511  29.922  25.218  1.00  0.00     0.116 C 
BRANCH   2   3
ATOM      3  N   UNL A   1      32.712  29.535  24.489  1.00  0.00    -0.356 N 
ATOM      4  C   UNL A   1      33.183  28.299  24.157  1.00  0.00     0.223 C 
ATOM      5  O   UNL A   1      34.236  28.233  23.519  1.00  0.00    -0.275 OA
ATOM      6  H   UNL A   1      33.273  30.286  24.189  1.00  0.00     0.163 HD
BRANCH   4   7
ATOM      7  C   UNL A   1      32.430  27.033  24.544  1.00  0.00     0.082 C 
ATOM      8  N   UNL A   1      32.962  24.305  25.034  1.00  0.00    -0.355 N 
ATOM      9  C   UNL A   1      32.209  24.586  23.827  1.00  0.00     0.119 C 
ATOM     10  C   UNL A   1      32.639  25.081  26.212  1.00  0.00     0.119 C 
ATOM     11  C   UNL A   1      32.472  26.016  23.392  1.00  0.00     0.035 C 
ATOM     12  C   UNL A   1      32.893  26.556  25.933  1.00  0.00     0.035 C 
BRANCH   8  13
ATOM     13  C   UNL A   1      33.696  23.134  25.062  1.00  0.00     0.157 A 
ATOM     14  C   UNL A   1      34.028  20.811  25.456  1.00  0.00     0.155 A 
ATOM     15  N   UNL A   1      35.282  20.883  24.988  1.00  0.00    -0.217 NA
ATOM     16  C   UNL A   1      33.193  21.932  25.579  1.00  0.00     0.118 A 
ATOM     17  C   UNL A   1      35.669  22.086  24.553  1.00  0.00     0.226 A 
ATOM     18  N   UNL A   1      34.932  23.204  24.525  1.00  0.00    -0.217 NA
BRANCH  14  19
ATOM     19  N   UNL A   1      33.605  19.524  25.783  1.00  0.00    -0.364 N 
ATOM     20  H   UNL A   1      33.445  19.314  26.731  1.00  0.00     0.162 HD
BRANCH  19  21
ATOM     21  C   UNL A   1      33.383  18.457  24.781  1.00  0.00     0.030 C 
ATOM     22  C   UNL A   1      34.650  17.782  24.232  1.00  0.00     0.034 C 
ATOM     23  C   UNL A   1      32.573  19.064  23.624  1.00  0.00     0.034 C 
ATOM     24  C   UNL A   1      32.527  17.356  25.441  1.00  0.00     0.034 C 
ENDBRANCH  19  21
ENDBRANCH  14  19
BRANCH  16  25
ATOM     25  N   UNL A   1      31.960  21.835  26.244  1.00  0.00    -0.393 N 
ATOM     26  H   UNL A   1      31.643  22.581  26.802  1.00  0.00     0.156 HD
ATOM     27  H   UNL A   1      31.415  21.022  26.152  1.00  0.00     0.156 HD
ENDBRANCH  16  25
ENDBRANCH   8  13
ENDBRANCH   4   7
ENDBRANCH   2   3
ENDBRANCH   1   2
BRANCH   1  28
ATOM     28  C   UNL A   1      31.577  31.944  26.806  1.00  0.00     0.023 C 
BRANCH  28  29
ATOM     29  C   UNL A   1      32.785  32.749  27.272  1.00  0.00     0.116 C 
BRANCH  29  30
ATOM     30  N   UNL A   1      32.456  34.121  27.623  1.00  0.00    -0.352 N 
ATOM     31  C   UNL A   1      33.007  34.919  28.595  1.00  0.00     0.251 C 
ATOM     32  H   UNL A   1      31.738  34.535  27.091  1.00  0.00     0.163 HD
ATOM     33  O   UNL A   1      32.528  36.021  28.846  1.00  0.00    -0.269 OA
BRANCH  31  34
ATOM     34  C   UNL A   1      34.165  34.427  29.366  1.00  0.00     0.039 A 
ATOM     35  C   UNL A   1      33.939  33.786  30.587  1.00  0.00     0.014 A 
ATOM     36  C   UNL A   1      35.466  34.573  28.874  1.00  0.00     0.014 A 
ATOM     37  C   UNL A   1      35.011  33.225  31.280  1.00  0.00     0.010 A 
ATOM     38  C   UNL A   1      36.525  33.958  29.534  1.00  0.00     0.010 A 
ATOM     39  C   UNL A   1      36.307  33.276  30.740  1.00  0.00    -0.014 A 
BRANCH  39  40
ATOM     40  C   UNL A   1      37.449  32.620  31.423  1.00  0.00     0.031 A 
ATOM     41  C   UNL A   1      38.154  31.469  30.765  1.00  0.00     0.074 A 
ATOM     42  C   UNL A   1      37.808  33.021  32.658  1.00  0.00     0.049 A 
ATOM     43  N   UNL A   1      39.111  30.708  31.234  1.00  0.00    -0.248 NA
ATOM     44  C   UNL A   1      37.710  31.107  29.408  1.00  0.00     0.031 C 
ATOM     45  C   UNL A   1      37.173  34.101  33.415  1.00  0.00     0.029 A 
ATOM     46  N   UNL A   1      38.787  32.558  33.500  1.00  0.00    -0.354 N 
ATOM     47  C   UNL A   1      39.371  29.776  30.241  1.00  0.00     0.074 A 
ATOM     48  C   UNL A   1      38.447  30.035  29.159  1.00  0.00     0.031 C 
ATOM     49  C   UNL A   1      37.788  34.227  34.602  1.00  0.00     0.029 A 
ATOM     50  C   UNL A   1      38.838  33.217  34.704  1.00  0.00     0.049 A 
ATOM     51  H   UNL A   1      39.396  31.820  33.264  1.00  0.00     0.167 HD
ATOM     52  C   UNL A   1      40.314  28.806  30.225  1.00  0.00     0.037 A 
ATOM     53  C   UNL A   1      39.634  33.023  35.772  1.00  0.00     0.037 A 
ATOM     54  C   UNL A   1      41.257  28.574  31.286  1.00  0.00     0.049 A 
ATOM     55  C   UNL A   1      40.678  31.940  35.723  1.00  0.00     0.074 A 
ATOM     56  C   UNL A   1      42.285  27.649  31.337  1.00  0.00     0.029 A 
ATOM     57  N   UNL A   1      41.291  29.279  32.480  1.00  0.00    -0.354 N 
ATOM     58  N   UNL A   1      40.948  31.096  34.758  1.00  0.00    -0.248 NA
ATOM     59  C   UNL A   1      41.530  31.782  36.911  1.00  0.00     0.031 C 
ATOM     60  C   UNL A   1      42.922  27.772  32.576  1.00  0.00     0.029 A 
ATOM     61  C   UNL A   1      42.317  28.800  33.279  1.00  0.00     0.049 A 
ATOM     62  H   UNL A   1      40.679  30.011  32.723  1.00  0.00     0.167 HD
ATOM     63  C   UNL A   1      42.011  30.326  35.209  1.00  0.00     0.074 A 
ATOM     64  C   UNL A   1      42.349  30.812  36.531  1.00  0.00     0.031 C 
ATOM     65  C   UNL A   1      42.647  29.305  34.585  1.00  0.00     0.037 A 
BRANCH  52  66
ATOM     66  C   UNL A   1      40.398  27.927  29.015  1.00  0.00     0.064 A 
ATOM     67  C   UNL A   1      39.652  26.744  28.920  1.00  0.00     0.173 A 
ATOM     68  C   UNL A   1      41.162  28.315  27.903  1.00  0.00     0.173 A 
ATOM     69  F   UNL A   1      38.916  26.326  29.962  1.00  0.00    -0.203 F 
ATOM     70  C   UNL A   1      39.670  25.978  27.759  1.00  0.00     0.198 A 
ATOM     71  C   UNL A   1      41.159  27.559  26.735  1.00  0.00     0.198 A 
ATOM     72  F   UNL A   1      41.890  29.442  27.943  1.00  0.00    -0.203 F 
ATOM     73  F   UNL A   1      38.965  24.839  27.698  1.00  0.00    -0.200 F 
ATOM     74  C   UNL A   1      40.414  26.390  26.664  1.00  0.00     0.200 A 
ATOM     75  F   UNL A   1      41.868  27.965  25.673  1.00  0.00    -0.200 F 
ATOM     76  F   UNL A   1      40.413  25.663  25.539  1.00  0.00    -0.200 F 
ENDBRANCH  52  66
BRANCH  53  77
ATOM     77  C   UNL A   1      39.494  33.887  36.972  1.00  0.00     0.064 A 
ATOM     78  C   UNL A   1      38.719  33.479  38.066  1.00  0.00     0.173 A 
ATOM     79  C   UNL A   1      40.126  35.137  37.050  1.00  0.00     0.173 A 
ATOM     80  F   UNL A   1      38.078  32.301  38.029  1.00  0.00    -0.203 F 
ATOM     81  C   UNL A   1      38.565  34.295  39.184  1.00  0.00     0.198 A 
ATOM     82  C   UNL A   1      39.992  35.942  38.180  1.00  0.00     0.198 A 
ATOM     83  F   UNL A   1      40.882  35.573  36.032  1.00  0.00    -0.203 F 
ATOM     84  F   UNL A   1      37.782  33.898  40.197  1.00  0.00    -0.200 F 
ATOM     85  C   UNL A   1      39.205  35.523  39.243  1.00  0.00     0.200 A 
ATOM     86  F   UNL A   1      40.622  37.123  38.238  1.00  0.00    -0.200 F 
ATOM     87  F   UNL A   1      39.058  36.307  40.319  1.00  0.00    -0.200 F 
ENDBRANCH  53  77
BRANCH  65  88
ATOM     88  C   UNL A   1      43.790  28.657  35.306  1.00  0.00     0.064 A 
ATOM     89  C   UNL A   1      45.098  29.150  35.196  1.00  0.00     0.173 A 
ATOM     90  C   UNL A   1      43.563  27.578  36.173  1.00  0.00     0.173 A 
ATOM     91  F   UNL A   1      45.366  30.173  34.370  1.00  0.00    -0.203 F 
ATOM     92  C   UNL A   1      46.140  28.578  35.919  1.00  0.00     0.198 A 
ATOM     93  C   UNL A   1      44.602  27.025  36.914  1.00  0.00     0.198 A 
ATOM     94  F   UNL A   1      42.327  27.076  36.318  1.00  0.00    -0.203 F 
ATOM     95  F   UNL A   1      47.387  29.046  35.777  1.00  0.00    -0.200 F 
ATOM     96  C   UNL A   1      45.890  27.522  36.784  1.00  0.00     0.200 A 
ATOM     97  F   UNL A   1      44.357  26.014  37.760  1.00  0.00    -0.200 F 
ATOM     98  F   UNL A   1      46.891  26.983  37.492  1.00  0.00    -0.200 F 
ENDBRANCH  65  88
ENDBRANCH  39  40
ENDBRANCH  31  34
ENDBRANCH  29  30
ENDBRANCH  28  29
ENDBRANCH   1  28
TORSDOF 15
ENDMDL
MODEL 2
REMARK VINA RESULT:     -12.7      0.120      1.579
REMARK SMILES CC(C)(C)Nc1ncnc(N2CCC(C(=O)NCCCCNC(=O)c3ccc(-c4c5nc(c(-c6c(F)c(F)c(F)c(F)c6F)c6ccc([nH]6)c(-c6c(F)c(F)c(F)c(F)c6F)c6nc(c(-c7c(F)c(F)c(F)c(F)c7F)c7ccc4[nH]7)C=C6)C=C5)cc3)CC2)c1N
REMARK SMILES IDX 19 1 18 2 17 3 15 4 16 5 14 7 11 8 12 9 89 10 13 11 88 12
REMARK SMILES IDX 10 13 6 14 7 15 90 16 8 17 9 18 5 19 2 21 1 22 3 23 4 24
REMARK SMILES IDX 91 25 20 28 21 29 22 30 23 31 24 33 25 34 26 35 87 36 27 37
REMARK SMILES IDX 86 38 28 39 29 40 30 41 80 42 31 43 85 44 79 45 81 46 32 47
REMARK SMILES IDX 84 48 78 49 77 50 33 52 65 53 45 54 64 55 46 56 49 57 63 58
REMARK SMILES IDX 82 59 47 60 48 61 62 63 83 64 50 65 34 66 35 67 43 68 36 69
REMARK SMILES IDX 37 70 41 71 44 72 38 73 39 74 42 75 40 76 66 77 67 78 75 79
REMARK SMILES IDX 68 80 69 81 73 82 76 83 70 84 71 85 74 86 72 87 51 88 52 89
REMARK SMILES IDX 60 90 53 91 54 92 58 93 61 94 55 95 56 96 59 97 57 98
REMARK H PARENT 17 6 5 20 91 26 91 27 22 32 81 51 49 62
REMARK Flexibility Score: inf
ROOT
ATOM      1  C   UNL A   1      31.790  30.473  26.518  1.00  0.00     0.023 C 
ENDROOT
BRANCH   1   2
ATOM      2  C   UNL A   1      31.402  29.890  25.162  1.00  0.00     0.116 C 
BRANCH   2   3
ATOM      3  N   UNL A   1      32.566  29.496  24.379  1.00  0.00    -0.356 N 
ATOM      4  C   UNL A   1      33.014  28.258  24.024  1.00  0.00     0.223 C 
ATOM      5  O   UNL A   1      34.036  28.185  23.339  1.00  0.00    -0.275 OA
ATOM      6  H   UNL A   1      33.118  30.244  24.054  1.00  0.00     0.163 HD
BRANCH   4   7
ATOM      7  C   UNL A   1      32.271  26.997  24.444  1.00  0.00     0.082 C 
ATOM      8  N   UNL A   1      32.822  24.282  24.990  1.00  0.00    -0.355 N 
ATOM      9  C   UNL A   1      32.060  24.533  23.783  1.00  0.00     0.119 C 
ATOM     10  C   UNL A   1      32.503  25.083  26.153  1.00  0.00     0.119 C 
ATOM     11  C   UNL A   1      32.311  25.954  23.314  1.00  0.00     0.035 C 
ATOM     12  C   UNL A   1      32.746  26.552  25.840  1.00  0.00     0.035 C 
BRANCH   8  13
ATOM     13  C   UNL A   1      33.564  23.117  25.040  1.00  0.00     0.157 A 
ATOM     14  C   UNL A   1      33.901  20.796  25.442  1.00  0.00     0.155 A 
ATOM     15  N   UNL A   1      35.167  20.877  25.011  1.00  0.00    -0.217 NA
ATOM     16  C   UNL A   1      33.055  21.911  25.541  1.00  0.00     0.118 A 
ATOM     17  C   UNL A   1      35.559  22.084  24.587  1.00  0.00     0.226 A 
ATOM     18  N   UNL A   1      34.815  23.196  24.539  1.00  0.00    -0.217 NA
BRANCH  14  19
ATOM     19  N   UNL A   1      33.478  19.506  25.756  1.00  0.00    -0.364 N 
ATOM     20  H   UNL A   1      33.254  19.305  26.693  1.00  0.00     0.162 HD
BRANCH  19  21
ATOM     21  C   UNL A   1      33.347  18.422  24.756  1.00  0.00     0.030 C 
ATOM     22  C   UNL A   1      34.666  17.815  24.252  1.00  0.00     0.034 C 
ATOM     23  C   UNL A   1      32.542  18.977  23.569  1.00  0.00     0.034 C 
ATOM     24  C   UNL A   1      32.532  17.279  25.397  1.00  0.00     0.034 C 
ENDBRANCH  19  21
ENDBRANCH  14  19
BRANCH  16  25
ATOM     25  N   UNL A   1      31.804  21.805  26.170  1.00  0.00    -0.393 N 
ATOM     26  H   UNL A   1      31.690  22.122  27.095  1.00  0.00     0.156 HD
ATOM     27  H   UNL A   1      31.042  21.414  25.686  1.00  0.00     0.156 HD
ENDBRANCH  16  25
ENDBRANCH   8  13
ENDBRANCH   4   7
ENDBRANCH   2   3
ENDBRANCH   1   2
BRANCH   1  28
ATOM     28  C   UNL A   1      31.601  31.983  26.644  1.00  0.00     0.023 C 
BRANCH  28  29
ATOM     29  C   UNL A   1      32.763  32.730  27.285  1.00  0.00     0.116 C 
BRANCH  29  30
ATOM     30  N   UNL A   1      32.443  34.109  27.619  1.00  0.00    -0.352 N 
ATOM     31  C   UNL A   1      33.004  34.919  28.574  1.00  0.00     0.251 C 
ATOM     32  H   UNL A   1      31.722  34.518  27.087  1.00  0.00     0.163 HD
ATOM     33  O   UNL A   1      32.532  36.026  28.813  1.00  0.00    -0.269 OA
BRANCH  31  34
ATOM     34  C   UNL A   1      34.167  34.433  29.344  1.00  0.00     0.039 A 
ATOM     35  C   UNL A   1      33.949  33.829  30.584  1.00  0.00     0.014 A 
ATOM     36  C   UNL A   1      35.462  34.550  28.830  1.00  0.00     0.014 A 
ATOM     37  C   UNL A   1      35.024  33.274  31.279  1.00  0.00     0.010 A 
ATOM     38  C   UNL A   1      36.523  33.940  29.493  1.00  0.00     0.010 A 
ATOM     39  C   UNL A   1      36.313  33.294  30.721  1.00  0.00    -0.014 A 
BRANCH  39  40
ATOM     40  C   UNL A   1      37.456  32.643  31.406  1.00  0.00     0.031 A 
ATOM     41  C   UNL A   1      38.160  31.487  30.755  1.00  0.00     0.074 A 
ATOM     42  C   UNL A   1      37.817  33.053  32.638  1.00  0.00     0.049 A 
ATOM     43  N   UNL A   1      39.117  30.730  31.228  1.00  0.00    -0.248 NA
ATOM     44  C   UNL A   1      37.714  31.116  29.402  1.00  0.00     0.031 C 
ATOM     45  C   UNL A   1      37.183  34.138  33.388  1.00  0.00     0.029 A 
ATOM     46  N   UNL A   1      38.797  32.595  33.482  1.00  0.00    -0.354 N 
ATOM     47  C   UNL A   1      39.376  29.791  30.241  1.00  0.00     0.074 A 
ATOM     48  C   UNL A   1      38.451  30.043  29.158  1.00  0.00     0.031 C 
ATOM     49  C   UNL A   1      37.800  34.272  34.573  1.00  0.00     0.029 A 
ATOM     50  C   UNL A   1      38.850  33.263  34.681  1.00  0.00     0.049 A 
ATOM     51  H   UNL A   1      39.406  31.856  33.250  1.00  0.00     0.167 HD
ATOM     52  C   UNL A   1      40.319  28.821  30.231  1.00  0.00     0.037 A 
ATOM     53  C   UNL A   1      39.648  33.076  35.749  1.00  0.00     0.037 A 
ATOM     54  C   UNL A   1      41.264  28.596  31.292  1.00  0.00     0.049 A 
ATOM     55  C   UNL A   1      40.691  31.993  35.706  1.00  0.00     0.074 A 
ATOM     56  C   UNL A   1      42.292  27.672  31.348  1.00  0.00     0.029 A 
ATOM     57  N   UNL A   1      41.300  29.310  32.480  1.00  0.00    -0.354 N 
ATOM     58  N   UNL A   1      40.960  31.142  34.747  1.00  0.00    -0.248 NA
ATOM     59  C   UNL A   1      41.545  31.843  36.894  1.00  0.00     0.031 C 
ATOM     60  C   UNL A   1      42.931  27.803  32.584  1.00  0.00     0.029 A 
ATOM     61  C   UNL A   1      42.326  28.836  33.281  1.00  0.00     0.049 A 
ATOM     62  H   UNL A   1      40.688  30.043  32.719  1.00  0.00     0.167 HD
ATOM     63  C   UNL A   1      42.024  30.375  35.201  1.00  0.00     0.074 A 
ATOM     64  C   UNL A   1      42.364  30.870  36.519  1.00  0.00     0.031 C 
ATOM     65  C   UNL A   1      42.659  29.351  34.583  1.00  0.00     0.037 A 
BRANCH  52  66
ATOM     66  C   UNL A   1      40.401  27.933  29.026  1.00  0.00     0.064 A 
ATOM     67  C   UNL A   1      39.647  26.755  28.937  1.00  0.00     0.173 A 
ATOM     68  C   UNL A   1      41.172  28.309  27.915  1.00  0.00     0.173 A 
ATOM     69  F   UNL A   1      38.904  26.350  29.978  1.00  0.00    -0.203 F 
ATOM     70  C   UNL A   1      39.664  25.981  27.781  1.00  0.00     0.198 A 
ATOM     71  C   UNL A   1      41.169  27.545  26.752  1.00  0.00     0.198 A 
ATOM     72  F   UNL A   1      41.908  29.430  27.951  1.00  0.00    -0.203 F 
ATOM     73  F   UNL A   1      38.951  24.847  27.724  1.00  0.00    -0.200 F 
ATOM     74  C   UNL A   1      40.415  26.382  26.685  1.00  0.00     0.200 A 
ATOM     75  F   UNL A   1      41.885  27.939  25.690  1.00  0.00    -0.200 F 
ATOM     76  F   UNL A   1      40.413  25.647  25.565  1.00  0.00    -0.200 F 
ENDBRANCH  52  66
BRANCH  53  77
ATOM     77  C   UNL A   1      39.510  33.949  36.943  1.00  0.00     0.064 A 
ATOM     78  C   UNL A   1      40.136  35.202  36.994  1.00  0.00     0.173 A 
ATOM     79  C   UNL A   1      38.756  33.550  38.056  1.00  0.00     0.173 A 
ATOM     80  F   UNL A   1      40.885  35.618  35.963  1.00  0.00    -0.203 F 
ATOM     81  C   UNL A   1      40.030  36.015  38.121  1.00  0.00     0.198 A 
ATOM     82  C   UNL A   1      38.629  34.375  39.173  1.00  0.00     0.198 A 
ATOM     83  F   UNL A   1      38.135  32.362  38.056  1.00  0.00    -0.203 F 
ATOM     84  F   UNL A   1      40.675  37.188  38.160  1.00  0.00    -0.200 F 
ATOM     85  C   UNL A   1      39.273  35.603  39.207  1.00  0.00     0.200 A 
ATOM     86  F   UNL A   1      37.887  33.979  40.215  1.00  0.00    -0.200 F 
ATOM     87  F   UNL A   1      39.169  36.386  40.290  1.00  0.00    -0.200 F 
ENDBRANCH  53  77
BRANCH  65  88
ATOM     88  C   UNL A   1      43.803  28.707  35.307  1.00  0.00     0.064 A 
ATOM     89  C   UNL A   1      43.606  27.610  36.156  1.00  0.00     0.173 A 
ATOM     90  C   UNL A   1      45.117  29.145  35.090  1.00  0.00     0.173 A 
ATOM     91  F   UNL A   1      42.365  27.162  36.404  1.00  0.00    -0.203 F 
ATOM     92  C   UNL A   1      44.684  26.982  36.773  1.00  0.00     0.198 A 
ATOM     93  C   UNL A   1      46.195  28.499  35.687  1.00  0.00     0.198 A 
ATOM     94  F   UNL A   1      45.357  30.187  34.278  1.00  0.00    -0.203 F 
ATOM     95  F   UNL A   1      44.471  25.953  37.605  1.00  0.00    -0.200 F 
ATOM     96  C   UNL A   1      45.978  27.421  36.531  1.00  0.00     0.200 A 
ATOM     97  F   UNL A   1      47.445  28.916  35.442  1.00  0.00    -0.200 F 
ATOM     98  F   UNL A   1      47.015  26.805  37.113  1.00  0.00    -0.200 F 
ENDBRANCH  65  88
ENDBRANCH  39  40
ENDBRANCH  31  34
ENDBRANCH  29  30
ENDBRANCH  28  29
ENDBRANCH   1  28
TORSDOF 15
ENDMDL
MODEL 3
REMARK VINA RESULT:     -12.6      5.637     11.556
REMARK SMILES CC(C)(C)Nc1ncnc(N2CCC(C(=O)NCCCCNC(=O)c3ccc(-c4c5nc(c(-c6c(F)c(F)c(F)c(F)c6F)c6ccc([nH]6)c(-c6c(F)c(F)c(F)c(F)c6F)c6nc(c(-c7c(F)c(F)c(F)c(F)c7F)c7ccc4[nH]7)C=C6)C=C5)cc3)CC2)c1N
REMARK SMILES IDX 19 1 18 2 17 3 15 4 16 5 14 7 11 8 12 9 89 10 13 11 88 12
REMARK SMILES IDX 10 13 6 14 7 15 90 16 8 17 9 18 5 19 2 21 1 22 3 23 4 24
REMARK SMILES IDX 91 25 20 28 21 29 22 30 23 31 24 33 25 34 26 35 87 36 27 37
REMARK SMILES IDX 86 38 28 39 29 40 30 41 80 42 31 43 85 44 79 45 81 46 32 47
REMARK SMILES IDX 84 48 78 49 77 50 33 52 65 53 45 54 64 55 46 56 49 57 63 58
REMARK SMILES IDX 82 59 47 60 48 61 62 63 83 64 50 65 34 66 35 67 43 68 36 69
REMARK SMILES IDX 37 70 41 71 44 72 38 73 39 74 42 75 40 76 66 77 67 78 75 79
REMARK SMILES IDX 68 80 69 81 73 82 76 83 70 84 71 85 74 86 72 87 51 88 52 89
REMARK SMILES IDX 60 90 53 91 54 92 58 93 61 94 55 95 56 96 59 97 57 98
REMARK H PARENT 17 6 5 20 91 26 91 27 22 32 81 51 49 62
REMARK Flexibility Score: inf
ROOT
ATOM      1  C   UNL A   1      37.010  21.064  24.854  1.00  0.00     0.023 C 
ENDROOT
BRANCH   1   2
ATOM      2  C   UNL A   1      35.585  20.692  25.252  1.00  0.00     0.116 C 
BRANCH   2   3
ATOM      3  N   UNL A   1      35.114  21.462  26.396  1.00  0.00    -0.356 N 
ATOM      4  C   UNL A   1      34.305  22.557  26.451  1.00  0.00     0.223 C 
ATOM      5  O   UNL A   1      34.041  23.029  27.559  1.00  0.00    -0.275 OA
ATOM      6  H   UNL A   1      35.432  21.138  27.270  1.00  0.00     0.163 HD
BRANCH   4   7
ATOM      7  C   UNL A   1      33.725  23.179  25.187  1.00  0.00     0.082 C 
ATOM      8  N   UNL A   1      32.693  25.656  24.312  1.00  0.00    -0.355 N 
ATOM      9  C   UNL A   1      31.724  24.585  24.433  1.00  0.00     0.119 C 
ATOM     10  C   UNL A   1      33.993  25.316  23.774  1.00  0.00     0.119 C 
ATOM     11  C   UNL A   1      32.246  23.540  25.401  1.00  0.00     0.035 C 
ATOM     12  C   UNL A   1      34.662  24.288  24.675  1.00  0.00     0.035 C 
BRANCH   8  13
ATOM     13  C   UNL A   1      32.221  26.951  24.421  1.00  0.00     0.157 A 
ATOM     14  C   UNL A   1      31.210  28.948  23.614  1.00  0.00     0.155 A 
ATOM     15  N   UNL A   1      31.269  29.503  24.832  1.00  0.00    -0.217 NA
ATOM     16  C   UNL A   1      31.734  27.679  23.326  1.00  0.00     0.118 A 
ATOM     17  C   UNL A   1      31.783  28.731  25.796  1.00  0.00     0.226 A 
ATOM     18  N   UNL A   1      32.223  27.473  25.666  1.00  0.00    -0.217 NA
BRANCH  14  19
ATOM     19  N   UNL A   1      30.554  29.721  22.658  1.00  0.00    -0.364 N 
ATOM     20  H   UNL A   1      31.078  30.064  21.899  1.00  0.00     0.162 HD
BRANCH  19  21
ATOM     21  C   UNL A   1      29.113  30.052  22.722  1.00  0.00     0.030 C 
ATOM     22  C   UNL A   1      28.732  31.202  23.667  1.00  0.00     0.034 C 
ATOM     23  C   UNL A   1      28.357  28.774  23.126  1.00  0.00     0.034 C 
ATOM     24  C   UNL A   1      28.653  30.452  21.304  1.00  0.00     0.034 C 
ENDBRANCH  19  21
ENDBRANCH  14  19
BRANCH  16  25
ATOM     25  N   UNL A   1      31.813  27.222  22.001  1.00  0.00    -0.393 N 
ATOM     26  H   UNL A   1      31.632  27.840  21.256  1.00  0.00     0.156 HD
ATOM     27  H   UNL A   1      32.049  26.285  21.818  1.00  0.00     0.156 HD
ENDBRANCH  16  25
ENDBRANCH   8  13
ENDBRANCH   4   7
ENDBRANCH   2   3
ENDBRANCH   1   2
BRANCH   1  28
ATOM     28  C   UNL A   1      38.030  19.936  25.001  1.00  0.00     0.023 C 
BRANCH  28  29
ATOM     29  C   UNL A   1      39.259  20.281  25.833  1.00  0.00     0.116 C 
BRANCH  29  30
ATOM     30  N   UNL A   1      40.216  19.188  25.918  1.00  0.00    -0.352 N 
ATOM     31  C   UNL A   1      41.572  19.242  26.126  1.00  0.00     0.251 C 
ATOM     32  H   UNL A   1      39.839  18.285  25.811  1.00  0.00     0.163 HD
ATOM     33  O   UNL A   1      42.258  18.228  26.047  1.00  0.00    -0.269 OA
BRANCH  31  34
ATOM     34  C   UNL A   1      42.210  20.543  26.411  1.00  0.00     0.039 A 
ATOM     35  C   UNL A   1      42.711  21.296  25.347  1.00  0.00     0.014 A 
ATOM     36  C   UNL A   1      42.288  21.027  27.721  1.00  0.00     0.014 A 
ATOM     37  C   UNL A   1      43.226  22.570  25.586  1.00  0.00     0.010 A 
ATOM     38  C   UNL A   1      42.743  22.323  27.949  1.00  0.00     0.010 A 
ATOM     39  C   UNL A   1      43.211  23.106  26.884  1.00  0.00    -0.014 A 
BRANCH  39  40
ATOM     40  C   UNL A   1      43.683  24.488  27.149  1.00  0.00     0.031 A 
ATOM     41  C   UNL A   1      42.721  25.521  27.661  1.00  0.00     0.074 A 
ATOM     42  C   UNL A   1      44.957  24.823  26.868  1.00  0.00     0.049 A 
ATOM     43  N   UNL A   1      42.916  26.800  27.869  1.00  0.00    -0.248 NA
ATOM     44  C   UNL A   1      41.354  25.066  27.959  1.00  0.00     0.031 C 
ATOM     45  C   UNL A   1      45.971  23.917  26.328  1.00  0.00     0.029 A 
ATOM     46  N   UNL A   1      45.613  26.023  26.985  1.00  0.00    -0.354 N 
ATOM     47  C   UNL A   1      41.697  27.299  28.305  1.00  0.00     0.074 A 
ATOM     48  C   UNL A   1      40.757  26.200  28.295  1.00  0.00     0.031 C 
ATOM     49  C   UNL A   1      47.125  24.588  26.177  1.00  0.00     0.029 A 
ATOM     50  C   UNL A   1      46.923  25.978  26.575  1.00  0.00     0.049 A 
ATOM     51  H   UNL A   1      45.184  26.840  27.329  1.00  0.00     0.167 HD
ATOM     52  C   UNL A   1      41.398  28.557  28.702  1.00  0.00     0.037 A 
ATOM     53  C   UNL A   1      47.853  26.950  26.519  1.00  0.00     0.037 A 
ATOM     54  C   UNL A   1      42.344  29.640  28.747  1.00  0.00     0.049 A 
ATOM     55  C   UNL A   1      47.492  28.339  26.971  1.00  0.00     0.074 A 
ATOM     56  C   UNL A   1      42.148  30.937  29.187  1.00  0.00     0.029 A 
ATOM     57  N   UNL A   1      43.669  29.548  28.346  1.00  0.00    -0.354 N 
ATOM     58  N   UNL A   1      46.350  28.788  27.429  1.00  0.00    -0.248 NA
ATOM     59  C   UNL A   1      48.551  29.358  26.903  1.00  0.00     0.031 C 
ATOM     60  C   UNL A   1      43.344  31.641  29.021  1.00  0.00     0.029 A 
ATOM     61  C   UNL A   1      44.297  30.771  28.517  1.00  0.00     0.049 A 
ATOM     62  H   UNL A   1      44.098  28.736  27.994  1.00  0.00     0.167 HD
ATOM     63  C   UNL A   1      46.556  30.129  27.724  1.00  0.00     0.074 A 
ATOM     64  C   UNL A   1      47.939  30.419  27.408  1.00  0.00     0.031 C 
ATOM     65  C   UNL A   1      45.677  31.038  28.210  1.00  0.00     0.037 A 
BRANCH  52  66
ATOM     66  C   UNL A   1      39.995  28.840  29.143  1.00  0.00     0.064 A 
ATOM     67  C   UNL A   1      39.009  29.237  28.229  1.00  0.00     0.173 A 
ATOM     68  C   UNL A   1      39.610  28.627  30.476  1.00  0.00     0.173 A 
ATOM     69  F   UNL A   1      39.332  29.464  26.946  1.00  0.00    -0.203 F 
ATOM     70  C   UNL A   1      37.690  29.415  28.632  1.00  0.00     0.198 A 
ATOM     71  C   UNL A   1      38.285  28.784  30.871  1.00  0.00     0.198 A 
ATOM     72  F   UNL A   1      40.516  28.243  31.388  1.00  0.00    -0.203 F 
ATOM     73  F   UNL A   1      36.767  29.814  27.744  1.00  0.00    -0.200 F 
ATOM     74  C   UNL A   1      37.326  29.178  29.949  1.00  0.00     0.200 A 
ATOM     75  F   UNL A   1      37.932  28.542  32.141  1.00  0.00    -0.200 F 
ATOM     76  F   UNL A   1      36.051  29.328  30.331  1.00  0.00    -0.200 F 
ENDBRANCH  52  66
BRANCH  53  77
ATOM     77  C   UNL A   1      49.224  26.642  26.035  1.00  0.00     0.064 A 
ATOM     78  C   UNL A   1      49.599  26.919  24.714  1.00  0.00     0.173 A 
ATOM     79  C   UNL A   1      50.182  26.063  26.878  1.00  0.00     0.173 A 
ATOM     80  F   UNL A   1      48.710  27.453  23.864  1.00  0.00    -0.203 F 
ATOM     81  C   UNL A   1      50.875  26.610  24.248  1.00  0.00     0.198 A 
ATOM     82  C   UNL A   1      51.467  25.778  26.419  1.00  0.00     0.198 A 
ATOM     83  F   UNL A   1      49.875  25.781  28.153  1.00  0.00    -0.203 F 
ATOM     84  F   UNL A   1      51.193  26.845  22.967  1.00  0.00    -0.200 F 
ATOM     85  C   UNL A   1      51.810  26.045  25.102  1.00  0.00     0.200 A 
ATOM     86  F   UNL A   1      52.371  25.243  27.251  1.00  0.00    -0.200 F 
ATOM     87  F   UNL A   1      53.038  25.750  24.654  1.00  0.00    -0.200 F 
ENDBRANCH  53  77
BRANCH  65  88
ATOM     88  C   UNL A   1      46.182  32.428  28.457  1.00  0.00     0.064 A 
ATOM     89  C   UNL A   1      46.772  32.784  29.677  1.00  0.00     0.173 A 
ATOM     90  C   UNL A   1      46.143  33.388  27.437  1.00  0.00     0.173 A 
ATOM     91  F   UNL A   1      46.821  31.902  30.687  1.00  0.00    -0.203 F 
ATOM     92  C   UNL A   1      47.293  34.060  29.871  1.00  0.00     0.198 A 
ATOM     93  C   UNL A   1      46.688  34.654  27.625  1.00  0.00     0.198 A 
ATOM     94  F   UNL A   1      45.596  33.091  26.248  1.00  0.00    -0.203 F 
ATOM     95  F   UNL A   1      47.826  34.391  31.056  1.00  0.00    -0.200 F 
ATOM     96  C   UNL A   1      47.259  34.991  28.843  1.00  0.00     0.200 A 
ATOM     97  F   UNL A   1      46.667  35.548  26.626  1.00  0.00    -0.200 F 
ATOM     98  F   UNL A   1      47.776  36.213  29.026  1.00  0.00    -0.200 F 
ENDBRANCH  65  88
ENDBRANCH  39  40
ENDBRANCH  31  34
ENDBRANCH  29  30
ENDBRANCH  28  29
ENDBRANCH   1  28
TORSDOF 15
ENDMDL
