MODEL 1
REMARK VINA RESULT:     -13.1      0.000      0.000
REMARK SMILES CCOC(=O)c1c(-c2cccc3ccccc23)csc1NC(=O)[C@H]1CC=CC[C@H]1C(=O)NCCCCNC(=O)c1ccc(-c2c3nc(c(-c4c(F)c(F)c(F)c(F)c4F)c4ccc([nH]4)c(-c4c(F)c(F)c(F)c(F)c4F)c4nc(c(-c5c(F)c(F)c(F)c(F)c5F)c5ccc2[nH]5)C=C4)C=C3)cc1
REMARK SMILES IDX 33 1 32 2 30 3 31 4 29 6 24 7 25 8 26 9 28 10 27 11 22 12
REMARK SMILES IDX 21 13 23 15 20 16 6 17 7 18 18 19 19 20 4 21 5 22 3 23 2 24
REMARK SMILES IDX 1 25 8 26 9 27 17 28 10 29 12 30 16 31 11 32 13 33 15 34
REMARK SMILES IDX 14 35 34 36 35 37 36 38 37 39 38 40 39 42 40 43 41 44 102 45
REMARK SMILES IDX 42 46 101 47 43 48 44 49 45 50 95 51 46 52 100 53 94 54
REMARK SMILES IDX 96 55 47 56 99 57 93 58 92 59 48 61 80 62 60 63 79 64 61 65
REMARK SMILES IDX 64 66 78 67 97 68 62 69 63 70 77 72 98 73 65 74 49 75 50 76
REMARK SMILES IDX 58 77 51 78 52 79 56 80 59 81 53 82 54 83 57 84 55 85 81 86
REMARK SMILES IDX 82 87 90 88 83 89 84 90 88 91 91 92 85 93 86 94 89 95 87 96
REMARK SMILES IDX 66 97 67 98 75 99 68 100 69 101 73 102 76 103 70 104 71 105
REMARK SMILES IDX 74 106 72 107
REMARK H PARENT 32 5 21 14 37 41 96 60 64 71
REMARK Flexibility Score: inf
ROOT
ATOM      1  C   UNL A   1      35.920  21.824  24.204  1.00  0.00     0.116 C 
ENDROOT
BRANCH   1   2
ATOM      2  N   UNL A   1      35.132  20.708  24.708  1.00  0.00    -0.356 N 
ATOM      3  C   UNL A   1      33.770  20.575  24.734  1.00  0.00     0.224 C 
ATOM      4  O   UNL A   1      33.313  19.513  24.299  1.00  0.00    -0.275 OA
ATOM      5  H   UNL A   1      35.645  19.952  25.075  1.00  0.00     0.163 HD
BRANCH   3   6
ATOM      6  C   UNL A   1      32.873  21.532  25.527  1.00  0.00     0.095 C 
ATOM      7  C   UNL A   1      33.461  22.585  26.460  1.00  0.00     0.095 C 
ATOM      8  C   UNL A   1      32.344  22.869  27.524  1.00  0.00     0.041 C 
ATOM      9  C   UNL A   1      31.061  23.305  26.876  1.00  0.00    -0.030 C 
ATOM     10  C   UNL A   1      31.568  21.976  24.822  1.00  0.00     0.041 C 
ATOM     11  C   UNL A   1      30.724  22.913  25.640  1.00  0.00    -0.030 C 
BRANCH   7  12
ATOM     12  C   UNL A   1      34.060  23.955  26.081  1.00  0.00     0.229 C 
ATOM     13  N   UNL A   1      33.773  24.840  25.110  1.00  0.00    -0.317 N 
ATOM     14  H   UNL A   1      34.577  25.372  24.910  1.00  0.00     0.170 HD
ATOM     15  O   UNL A   1      35.163  24.237  26.600  1.00  0.00    -0.274 OA
BRANCH  13  16
ATOM     16  C   UNL A   1      32.741  25.258  24.299  1.00  0.00     0.110 A 
ATOM     17  C   UNL A   1      31.717  26.123  24.683  1.00  0.00     0.102 A 
ATOM     18  C   UNL A   1      30.677  26.171  23.681  1.00  0.00     0.010 A 
ATOM     19  C   UNL A   1      31.026  25.457  22.554  1.00  0.00     0.076 A 
ATOM     20  S   UNL A   1      32.518  24.689  22.743  1.00  0.00    -0.125 S 
BRANCH  17  21
ATOM     21  C   UNL A   1      31.802  26.907  25.914  1.00  0.00     0.341 C 
ATOM     22  O   UNL A   1      31.014  26.727  26.833  1.00  0.00    -0.246 OA
BRANCH  21  23
ATOM     23  O   UNL A   1      32.845  27.775  25.951  1.00  0.00    -0.462 OA
BRANCH  23  24
ATOM     24  C   UNL A   1      32.747  28.942  25.117  1.00  0.00     0.230 C 
ATOM     25  C   UNL A   1      32.018  30.115  25.750  1.00  0.00     0.049 C 
ENDBRANCH  23  24
ENDBRANCH  21  23
ENDBRANCH  17  21
BRANCH  18  26
ATOM     26  C   UNL A   1      29.433  26.929  23.654  1.00  0.00    -0.009 A 
ATOM     27  C   UNL A   1      28.298  26.328  24.224  1.00  0.00     0.009 A 
ATOM     28  C   UNL A   1      29.341  28.186  23.000  1.00  0.00    -0.010 A 
ATOM     29  C   UNL A   1      27.060  26.954  24.145  1.00  0.00     0.001 A 
ATOM     30  C   UNL A   1      28.072  28.812  22.935  1.00  0.00    -0.018 A 
ATOM     31  C   UNL A   1      30.437  28.842  22.386  1.00  0.00     0.009 A 
ATOM     32  C   UNL A   1      26.950  28.185  23.503  1.00  0.00     0.009 A 
ATOM     33  C   UNL A   1      27.941  30.049  22.284  1.00  0.00     0.009 A 
ATOM     34  C   UNL A   1      30.289  30.073  21.748  1.00  0.00     0.001 A 
ATOM     35  C   UNL A   1      29.040  30.676  21.697  1.00  0.00     0.001 A 
ENDBRANCH  18  26
ENDBRANCH  13  16
ENDBRANCH   7  12
ENDBRANCH   3   6
ENDBRANCH   1   2
BRANCH   1  36
ATOM     36  C   UNL A   1      37.405  21.772  24.564  1.00  0.00     0.023 C 
BRANCH  36  37
ATOM     37  C   UNL A   1      37.889  20.383  25.001  1.00  0.00     0.023 C 
BRANCH  37  38
ATOM     38  C   UNL A   1      38.967  20.329  26.087  1.00  0.00     0.116 C 
BRANCH  38  39
ATOM     39  N   UNL A   1      39.923  19.248  25.929  1.00  0.00    -0.352 N 
ATOM     40  C   UNL A   1      41.299  19.277  26.010  1.00  0.00     0.251 C 
ATOM     41  H   UNL A   1      39.531  18.366  25.737  1.00  0.00     0.163 HD
ATOM     42  O   UNL A   1      41.956  18.265  25.787  1.00  0.00    -0.269 OA
BRANCH  40  43
ATOM     43  C   UNL A   1      42.013  20.541  26.316  1.00  0.00     0.039 A 
ATOM     44  C   UNL A   1      42.423  21.350  25.251  1.00  0.00     0.014 A 
ATOM     45  C   UNL A   1      42.278  20.939  27.630  1.00  0.00     0.014 A 
ATOM     46  C   UNL A   1      42.997  22.600  25.501  1.00  0.00     0.010 A 
ATOM     47  C   UNL A   1      42.798  22.211  27.880  1.00  0.00     0.010 A 
ATOM     48  C   UNL A   1      43.138  23.065  26.819  1.00  0.00    -0.014 A 
BRANCH  48  49
ATOM     49  C   UNL A   1      43.564  24.464  27.092  1.00  0.00     0.031 A 
ATOM     50  C   UNL A   1      42.591  25.489  27.599  1.00  0.00     0.074 A 
ATOM     51  C   UNL A   1      44.831  24.831  26.811  1.00  0.00     0.049 A 
ATOM     52  N   UNL A   1      42.784  26.762  27.849  1.00  0.00    -0.248 NA
ATOM     53  C   UNL A   1      41.214  25.033  27.834  1.00  0.00     0.031 C 
ATOM     54  C   UNL A   1      45.861  23.950  26.258  1.00  0.00     0.029 A 
ATOM     55  N   UNL A   1      45.467  26.041  26.942  1.00  0.00    -0.354 N 
ATOM     56  C   UNL A   1      41.555  27.258  28.262  1.00  0.00     0.074 A 
ATOM     57  C   UNL A   1      40.612  26.162  28.186  1.00  0.00     0.031 C 
ATOM     58  C   UNL A   1      47.003  24.642  26.117  1.00  0.00     0.029 A 
ATOM     59  C   UNL A   1      46.781  26.020  26.541  1.00  0.00     0.049 A 
ATOM     60  H   UNL A   1      45.023  26.849  27.290  1.00  0.00     0.167 HD
ATOM     61  C   UNL A   1      41.246  28.508  28.684  1.00  0.00     0.037 A 
ATOM     62  C   UNL A   1      47.705  27.000  26.516  1.00  0.00     0.037 A 
ATOM     63  C   UNL A   1      42.187  29.596  28.782  1.00  0.00     0.049 A 
ATOM     64  C   UNL A   1      47.338  28.375  27.001  1.00  0.00     0.074 A 
ATOM     65  C   UNL A   1      41.979  30.878  29.263  1.00  0.00     0.029 A 
ATOM     66  N   UNL A   1      43.516  29.529  28.389  1.00  0.00    -0.354 N 
ATOM     67  N   UNL A   1      46.192  28.811  27.462  1.00  0.00    -0.248 NA
ATOM     68  C   UNL A   1      48.399  29.393  26.970  1.00  0.00     0.031 C 
ATOM     69  C   UNL A   1      43.171  31.598  29.126  1.00  0.00     0.029 A 
ATOM     70  C   UNL A   1      44.134  30.753  28.597  1.00  0.00     0.049 A 
ATOM     71  H   UNL A   1      43.956  28.730  28.017  1.00  0.00     0.167 HD
ATOM     72  C   UNL A   1      46.397  30.142  27.796  1.00  0.00     0.074 A 
ATOM     73  C   UNL A   1      47.783  30.439  27.500  1.00  0.00     0.031 C 
ATOM     74  C   UNL A   1      45.514  31.037  28.301  1.00  0.00     0.037 A 
BRANCH  61  75
ATOM     75  C   UNL A   1      39.824  28.771  29.083  1.00  0.00     0.064 A 
ATOM     76  C   UNL A   1      39.387  28.584  30.402  1.00  0.00     0.173 A 
ATOM     77  C   UNL A   1      38.898  29.255  28.146  1.00  0.00     0.173 A 
ATOM     78  F   UNL A   1      40.232  28.114  31.332  1.00  0.00    -0.203 F 
ATOM     79  C   UNL A   1      38.068  28.844  30.764  1.00  0.00     0.198 A 
ATOM     80  C   UNL A   1      37.585  29.538  28.518  1.00  0.00     0.198 A 
ATOM     81  F   UNL A   1      39.266  29.458  26.873  1.00  0.00    -0.203 F 
ATOM     82  F   UNL A   1      37.661  28.613  32.020  1.00  0.00    -0.200 F 
ATOM     83  C   UNL A   1      37.169  29.326  29.823  1.00  0.00     0.200 A 
ATOM     84  F   UNL A   1      36.722  30.014  27.610  1.00  0.00    -0.200 F 
ATOM     85  F   UNL A   1      35.901  29.578  30.174  1.00  0.00    -0.200 F 
ENDBRANCH  61  75
BRANCH  62  86
ATOM     86  C   UNL A   1      49.081  26.706  26.042  1.00  0.00     0.064 A 
ATOM     87  C   UNL A   1      49.460  26.988  24.721  1.00  0.00     0.173 A 
ATOM     88  C   UNL A   1      50.041  26.138  26.892  1.00  0.00     0.173 A 
ATOM     89  F   UNL A   1      48.568  27.510  23.867  1.00  0.00    -0.203 F 
ATOM     90  C   UNL A   1      50.742  26.695  24.264  1.00  0.00     0.198 A 
ATOM     91  C   UNL A   1      51.330  25.869  26.439  1.00  0.00     0.198 A 
ATOM     92  F   UNL A   1      49.728  25.855  28.164  1.00  0.00    -0.203 F 
ATOM     93  F   UNL A   1      51.066  26.934  22.985  1.00  0.00    -0.200 F 
ATOM     94  C   UNL A   1      51.679  26.141  25.124  1.00  0.00     0.200 A 
ATOM     95  F   UNL A   1      52.236  25.344  27.275  1.00  0.00    -0.200 F 
ATOM     96  F   UNL A   1      52.912  25.861  24.683  1.00  0.00    -0.200 F 
ENDBRANCH  62  86
BRANCH  74  97
ATOM     97  C   UNL A   1      46.026  32.417  28.587  1.00  0.00     0.064 A 
ATOM     98  C   UNL A   1      45.958  33.438  27.627  1.00  0.00     0.173 A 
ATOM     99  C   UNL A   1      46.564  32.731  29.844  1.00  0.00     0.173 A 
ATOM    100  F   UNL A   1      45.468  33.183  26.404  1.00  0.00    -0.203 F 
ATOM    101  C   UNL A   1      46.432  34.717  27.908  1.00  0.00     0.198 A 
ATOM    102  C   UNL A   1      47.014  34.017  30.130  1.00  0.00     0.198 A 
ATOM    103  F   UNL A   1      46.648  31.791  30.798  1.00  0.00    -0.203 F 
ATOM    104  F   UNL A   1      46.398  35.665  26.962  1.00  0.00    -0.200 F 
ATOM    105  C   UNL A   1      46.953  35.006  29.161  1.00  0.00     0.200 A 
ATOM    106  F   UNL A   1      47.509  34.299  31.344  1.00  0.00    -0.200 F 
ATOM    107  F   UNL A   1      47.406  36.239  29.430  1.00  0.00    -0.200 F 
ENDBRANCH  74  97
ENDBRANCH  48  49
ENDBRANCH  40  43
ENDBRANCH  38  39
ENDBRANCH  37  38
ENDBRANCH  36  37
ENDBRANCH   1  36
TORSDOF 17
ENDMDL
MODEL 2
REMARK VINA RESULT:     -12.9      0.960      6.833
REMARK SMILES CCOC(=O)c1c(-c2cccc3ccccc23)csc1NC(=O)[C@H]1CC=CC[C@H]1C(=O)NCCCCNC(=O)c1ccc(-c2c3nc(c(-c4c(F)c(F)c(F)c(F)c4F)c4ccc([nH]4)c(-c4c(F)c(F)c(F)c(F)c4F)c4nc(c(-c5c(F)c(F)c(F)c(F)c5F)c5ccc2[nH]5)C=C4)C=C3)cc1
REMARK SMILES IDX 33 1 32 2 30 3 31 4 29 6 24 7 25 8 26 9 28 10 27 11 22 12
REMARK SMILES IDX 21 13 23 15 20 16 6 17 7 18 18 19 19 20 4 21 5 22 3 23 2 24
REMARK SMILES IDX 1 25 8 26 9 27 17 28 10 29 12 30 16 31 11 32 13 33 15 34
REMARK SMILES IDX 14 35 34 36 35 37 36 38 37 39 38 40 39 42 40 43 41 44 102 45
REMARK SMILES IDX 42 46 101 47 43 48 44 49 45 50 95 51 46 52 100 53 94 54
REMARK SMILES IDX 96 55 47 56 99 57 93 58 92 59 48 61 80 62 60 63 79 64 61 65
REMARK SMILES IDX 64 66 78 67 97 68 62 69 63 70 77 72 98 73 65 74 49 75 50 76
REMARK SMILES IDX 58 77 51 78 52 79 56 80 59 81 53 82 54 83 57 84 55 85 81 86
REMARK SMILES IDX 82 87 90 88 83 89 84 90 88 91 91 92 85 93 86 94 89 95 87 96
REMARK SMILES IDX 66 97 67 98 75 99 68 100 69 101 73 102 76 103 70 104 71 105
REMARK SMILES IDX 74 106 72 107
REMARK H PARENT 32 5 21 14 37 41 96 60 64 71
REMARK Flexibility Score: inf
ROOT
ATOM      1  C   UNL A   1      35.922  21.748  24.208  1.00  0.00     0.116 C 
ENDROOT
BRANCH   1   2
ATOM      2  N   UNL A   1      35.168  20.635  24.767  1.00  0.00    -0.356 N 
ATOM      3  C   UNL A   1      33.810  20.478  24.831  1.00  0.00     0.224 C 
ATOM      4  O   UNL A   1      33.364  19.392  24.443  1.00  0.00    -0.275 OA
ATOM      5  H   UNL A   1      35.704  19.902  25.149  1.00  0.00     0.163 HD
BRANCH   3   6
ATOM      6  C   UNL A   1      32.913  21.445  25.612  1.00  0.00     0.095 C 
ATOM      7  C   UNL A   1      33.500  22.505  26.537  1.00  0.00     0.095 C 
ATOM      8  C   UNL A   1      32.381  22.802  27.595  1.00  0.00     0.041 C 
ATOM      9  C   UNL A   1      31.101  23.234  26.938  1.00  0.00    -0.030 C 
ATOM     10  C   UNL A   1      31.611  21.885  24.898  1.00  0.00     0.041 C 
ATOM     11  C   UNL A   1      30.767  22.831  25.705  1.00  0.00    -0.030 C 
BRANCH   7  12
ATOM     12  C   UNL A   1      34.104  23.869  26.147  1.00  0.00     0.229 C 
ATOM     13  N   UNL A   1      33.823  24.745  25.166  1.00  0.00    -0.317 N 
ATOM     14  H   UNL A   1      34.630  25.274  24.964  1.00  0.00     0.170 HD
ATOM     15  O   UNL A   1      35.205  24.154  26.668  1.00  0.00    -0.274 OA
BRANCH  13  16
ATOM     16  C   UNL A   1      32.797  25.157  24.346  1.00  0.00     0.110 A 
ATOM     17  C   UNL A   1      31.769  26.023  24.718  1.00  0.00     0.102 A 
ATOM     18  C   UNL A   1      30.736  26.064  23.709  1.00  0.00     0.010 A 
ATOM     19  C   UNL A   1      31.093  25.344  22.589  1.00  0.00     0.076 A 
ATOM     20  S   UNL A   1      32.584  24.579  22.792  1.00  0.00    -0.125 S 
BRANCH  17  21
ATOM     21  C   UNL A   1      31.845  26.814  25.945  1.00  0.00     0.341 C 
ATOM     22  O   UNL A   1      31.084  26.604  26.881  1.00  0.00    -0.246 OA
BRANCH  21  23
ATOM     23  O   UNL A   1      32.850  27.727  25.958  1.00  0.00    -0.462 OA
BRANCH  23  24
ATOM     24  C   UNL A   1      32.500  29.081  25.629  1.00  0.00     0.230 C 
ATOM     25  C   UNL A   1      32.707  30.082  26.754  1.00  0.00     0.049 C 
ENDBRANCH  23  24
ENDBRANCH  21  23
ENDBRANCH  17  21
BRANCH  18  26
ATOM     26  C   UNL A   1      29.491  26.820  23.670  1.00  0.00    -0.009 A 
ATOM     27  C   UNL A   1      28.345  26.206  24.201  1.00  0.00     0.009 A 
ATOM     28  C   UNL A   1      29.411  28.091  23.041  1.00  0.00    -0.010 A 
ATOM     29  C   UNL A   1      27.108  26.831  24.106  1.00  0.00     0.001 A 
ATOM     30  C   UNL A   1      28.143  28.716  22.960  1.00  0.00    -0.018 A 
ATOM     31  C   UNL A   1      30.519  28.762  22.465  1.00  0.00     0.009 A 
ATOM     32  C   UNL A   1      27.010  28.075  23.488  1.00  0.00     0.009 A 
ATOM     33  C   UNL A   1      28.023  29.966  22.332  1.00  0.00     0.009 A 
ATOM     34  C   UNL A   1      30.383  30.005  21.851  1.00  0.00     0.001 A 
ATOM     35  C   UNL A   1      29.134  30.607  21.784  1.00  0.00     0.001 A 
ENDBRANCH  18  26
ENDBRANCH  13  16
ENDBRANCH   7  12
ENDBRANCH   3   6
ENDBRANCH   1   2
BRANCH   1  36
ATOM     36  C   UNL A   1      37.373  21.840  24.681  1.00  0.00     0.023 C 
BRANCH  36  37
ATOM     37  C   UNL A   1      38.028  20.476  24.941  1.00  0.00     0.023 C 
BRANCH  37  38
ATOM     38  C   UNL A   1      39.061  20.403  26.069  1.00  0.00     0.116 C 
BRANCH  38  39
ATOM     39  N   UNL A   1      40.073  19.378  25.887  1.00  0.00    -0.352 N 
ATOM     40  C   UNL A   1      41.441  19.463  26.031  1.00  0.00     0.251 C 
ATOM     41  H   UNL A   1      39.732  18.493  25.624  1.00  0.00     0.163 HD
ATOM     42  O   UNL A   1      42.155  18.497  25.775  1.00  0.00    -0.269 OA
BRANCH  40  43
ATOM     43  C   UNL A   1      42.082  20.736  26.446  1.00  0.00     0.039 A 
ATOM     44  C   UNL A   1      42.528  21.613  25.452  1.00  0.00     0.014 A 
ATOM     45  C   UNL A   1      42.243  21.076  27.792  1.00  0.00     0.014 A 
ATOM     46  C   UNL A   1      43.033  22.869  25.801  1.00  0.00     0.010 A 
ATOM     47  C   UNL A   1      42.692  22.352  28.139  1.00  0.00     0.010 A 
ATOM     48  C   UNL A   1      43.067  23.271  27.146  1.00  0.00    -0.014 A 
BRANCH  48  49
ATOM     49  C   UNL A   1      43.416  24.669  27.515  1.00  0.00     0.031 A 
ATOM     50  C   UNL A   1      44.847  25.116  27.608  1.00  0.00     0.074 A 
ATOM     51  C   UNL A   1      42.428  25.529  27.839  1.00  0.00     0.049 A 
ATOM     52  N   UNL A   1      45.328  26.284  27.956  1.00  0.00    -0.248 NA
ATOM     53  C   UNL A   1      45.873  24.113  27.292  1.00  0.00     0.031 C 
ATOM     54  C   UNL A   1      41.000  25.207  27.848  1.00  0.00     0.029 A 
ATOM     55  N   UNL A   1      42.473  26.844  28.231  1.00  0.00    -0.354 N 
ATOM     56  C   UNL A   1      46.709  26.156  27.908  1.00  0.00     0.074 A 
ATOM     57  C   UNL A   1      46.990  24.783  27.542  1.00  0.00     0.031 C 
ATOM     58  C   UNL A   1      40.305  26.298  28.206  1.00  0.00     0.029 A 
ATOM     59  C   UNL A   1      41.236  27.388  28.479  1.00  0.00     0.049 A 
ATOM     60  H   UNL A   1      43.313  27.351  28.325  1.00  0.00     0.167 HD
ATOM     61  C   UNL A   1      47.656  27.100  28.130  1.00  0.00     0.037 A 
ATOM     62  C   UNL A   1      40.888  28.626  28.883  1.00  0.00     0.037 A 
ATOM     63  C   UNL A   1      47.379  28.472  28.473  1.00  0.00     0.049 A 
ATOM     64  C   UNL A   1      41.958  29.657  29.110  1.00  0.00     0.074 A 
ATOM     65  C   UNL A   1      48.272  29.516  28.650  1.00  0.00     0.029 A 
ATOM     66  N   UNL A   1      46.112  28.992  28.692  1.00  0.00    -0.354 N 
ATOM     67  N   UNL A   1      43.257  29.542  28.986  1.00  0.00    -0.248 NA
ATOM     68  C   UNL A   1      41.510  30.994  29.526  1.00  0.00     0.031 C 
ATOM     69  C   UNL A   1      47.549  30.657  29.013  1.00  0.00     0.029 A 
ATOM     70  C   UNL A   1      46.201  30.336  29.023  1.00  0.00     0.049 A 
ATOM     71  H   UNL A   1      45.272  28.482  28.622  1.00  0.00     0.167 HD
ATOM     72  C   UNL A   1      43.780  30.792  29.285  1.00  0.00     0.074 A 
ATOM     73  C   UNL A   1      42.657  31.657  29.581  1.00  0.00     0.031 C 
ATOM     74  C   UNL A   1      45.076  31.187  29.314  1.00  0.00     0.037 A 
BRANCH  61  75
ATOM     75  C   UNL A   1      49.092  26.683  28.002  1.00  0.00     0.064 A 
ATOM     76  C   UNL A   1      49.742  26.670  26.760  1.00  0.00     0.173 A 
ATOM     77  C   UNL A   1      49.836  26.332  29.138  1.00  0.00     0.173 A 
ATOM     78  F   UNL A   1      49.070  26.988  25.643  1.00  0.00    -0.203 F 
ATOM     79  C   UNL A   1      51.079  26.294  26.655  1.00  0.00     0.198 A 
ATOM     80  C   UNL A   1      51.181  25.981  29.033  1.00  0.00     0.198 A 
ATOM     81  F   UNL A   1      49.264  26.335  30.350  1.00  0.00    -0.203 F 
ATOM     82  F   UNL A   1      51.667  26.244  25.452  1.00  0.00    -0.200 F 
ATOM     83  C   UNL A   1      51.798  25.955  27.792  1.00  0.00     0.200 A 
ATOM     84  F   UNL A   1      51.877  25.665  30.133  1.00  0.00    -0.200 F 
ATOM     85  F   UNL A   1      53.085  25.597  27.689  1.00  0.00    -0.200 F 
ENDBRANCH  61  75
BRANCH  62  86
ATOM     86  C   UNL A   1      39.455  28.968  29.066  1.00  0.00     0.064 A 
ATOM     87  C   UNL A   1      38.683  29.422  27.987  1.00  0.00     0.173 A 
ATOM     88  C   UNL A   1      38.831  28.853  30.316  1.00  0.00     0.173 A 
ATOM     89  F   UNL A   1      39.244  29.570  26.779  1.00  0.00    -0.203 F 
ATOM     90  C   UNL A   1      37.344  29.766  28.157  1.00  0.00     0.198 A 
ATOM     91  C   UNL A   1      37.485  29.174  30.479  1.00  0.00     0.198 A 
ATOM     92  F   UNL A   1      39.527  28.419  31.378  1.00  0.00    -0.203 F 
ATOM     93  F   UNL A   1      36.640  30.238  27.119  1.00  0.00    -0.200 F 
ATOM     94  C   UNL A   1      36.744  29.636  29.401  1.00  0.00     0.200 A 
ATOM     95  F   UNL A   1      36.905  29.037  31.679  1.00  0.00    -0.200 F 
ATOM     96  F   UNL A   1      35.455  29.965  29.562  1.00  0.00    -0.200 F 
ENDBRANCH  62  86
BRANCH  74  97
ATOM     97  C   UNL A   1      45.348  32.621  29.655  1.00  0.00     0.064 A 
ATOM     98  C   UNL A   1      45.357  33.620  28.670  1.00  0.00     0.173 A 
ATOM     99  C   UNL A   1      45.575  33.007  30.985  1.00  0.00     0.173 A 
ATOM    100  F   UNL A   1      45.163  33.299  27.382  1.00  0.00    -0.203 F 
ATOM    101  C   UNL A   1      45.606  34.950  29.002  1.00  0.00     0.198 A 
ATOM    102  C   UNL A   1      45.798  34.341  31.316  1.00  0.00     0.198 A 
ATOM    103  F   UNL A   1      45.573  32.090  31.964  1.00  0.00    -0.203 F 
ATOM    104  F   UNL A   1      45.653  35.881  28.039  1.00  0.00    -0.200 F 
ATOM    105  C   UNL A   1      45.820  35.309  30.324  1.00  0.00     0.200 A 
ATOM    106  F   UNL A   1      45.996  34.688  32.596  1.00  0.00    -0.200 F 
ATOM    107  F   UNL A   1      46.056  36.590  30.642  1.00  0.00    -0.200 F 
ENDBRANCH  74  97
ENDBRANCH  48  49
ENDBRANCH  40  43
ENDBRANCH  38  39
ENDBRANCH  37  38
ENDBRANCH  36  37
ENDBRANCH   1  36
TORSDOF 17
ENDMDL
MODEL 3
REMARK VINA RESULT:     -12.7      4.529      8.878
REMARK SMILES CCOC(=O)c1c(-c2cccc3ccccc23)csc1NC(=O)[C@H]1CC=CC[C@H]1C(=O)NCCCCNC(=O)c1ccc(-c2c3nc(c(-c4c(F)c(F)c(F)c(F)c4F)c4ccc([nH]4)c(-c4c(F)c(F)c(F)c(F)c4F)c4nc(c(-c5c(F)c(F)c(F)c(F)c5F)c5ccc2[nH]5)C=C4)C=C3)cc1
REMARK SMILES IDX 33 1 32 2 30 3 31 4 29 6 24 7 25 8 26 9 28 10 27 11 22 12
REMARK SMILES IDX 21 13 23 15 20 16 6 17 7 18 18 19 19 20 4 21 5 22 3 23 2 24
REMARK SMILES IDX 1 25 8 26 9 27 17 28 10 29 12 30 16 31 11 32 13 33 15 34
REMARK SMILES IDX 14 35 34 36 35 37 36 38 37 39 38 40 39 42 40 43 41 44 102 45
REMARK SMILES IDX 42 46 101 47 43 48 44 49 45 50 95 51 46 52 100 53 94 54
REMARK SMILES IDX 96 55 47 56 99 57 93 58 92 59 48 61 80 62 60 63 79 64 61 65
REMARK SMILES IDX 64 66 78 67 97 68 62 69 63 70 77 72 98 73 65 74 49 75 50 76
REMARK SMILES IDX 58 77 51 78 52 79 56 80 59 81 53 82 54 83 57 84 55 85 81 86
REMARK SMILES IDX 82 87 90 88 83 89 84 90 88 91 91 92 85 93 86 94 89 95 87 96
REMARK SMILES IDX 66 97 67 98 75 99 68 100 69 101 73 102 76 103 70 104 71 105
REMARK SMILES IDX 74 106 72 107
REMARK H PARENT 32 5 21 14 37 41 96 60 64 71
REMARK Flexibility Score: inf
ROOT
ATOM      1  C   UNL A   1      40.334  21.496  26.925  1.00  0.00     0.116 C 
ENDROOT
BRANCH   1   2
ATOM      2  N   UNL A   1      39.805  22.587  26.119  1.00  0.00    -0.356 N 
ATOM      3  C   UNL A   1      38.546  23.124  26.140  1.00  0.00     0.224 C 
ATOM      4  O   UNL A   1      38.475  24.356  26.208  1.00  0.00    -0.275 OA
ATOM      5  H   UNL A   1      40.433  22.990  25.477  1.00  0.00     0.163 HD
BRANCH   3   6
ATOM      6  C   UNL A   1      37.302  22.298  25.793  1.00  0.00     0.095 C 
ATOM      7  C   UNL A   1      35.959  22.962  25.510  1.00  0.00     0.095 C 
ATOM      8  C   UNL A   1      34.877  21.881  25.859  1.00  0.00     0.041 C 
ATOM      9  C   UNL A   1      35.088  20.617  25.075  1.00  0.00    -0.030 C 
ATOM     10  C   UNL A   1      37.553  21.012  24.969  1.00  0.00     0.041 C 
ATOM     11  C   UNL A   1      36.303  20.238  24.656  1.00  0.00    -0.030 C 
BRANCH   7  12
ATOM     12  C   UNL A   1      35.495  23.637  24.204  1.00  0.00     0.229 C 
ATOM     13  N   UNL A   1      34.417  24.378  23.891  1.00  0.00    -0.317 N 
ATOM     14  H   UNL A   1      34.234  24.293  22.927  1.00  0.00     0.170 HD
ATOM     15  O   UNL A   1      36.077  23.272  23.158  1.00  0.00    -0.274 OA
BRANCH  13  16
ATOM     16  C   UNL A   1      33.481  25.216  24.455  1.00  0.00     0.110 A 
ATOM     17  C   UNL A   1      33.171  26.498  24.002  1.00  0.00     0.102 A 
ATOM     18  C   UNL A   1      32.326  27.191  24.947  1.00  0.00     0.010 A 
ATOM     19  C   UNL A   1      31.939  26.366  25.981  1.00  0.00     0.076 A 
ATOM     20  S   UNL A   1      32.645  24.837  25.853  1.00  0.00    -0.125 S 
BRANCH  17  21
ATOM     21  C   UNL A   1      33.614  26.970  22.691  1.00  0.00     0.341 C 
ATOM     22  O   UNL A   1      33.925  28.140  22.513  1.00  0.00    -0.246 OA
BRANCH  21  23
ATOM     23  O   UNL A   1      33.700  25.997  21.748  1.00  0.00    -0.462 OA
BRANCH  23  24
ATOM     24  C   UNL A   1      32.474  25.604  21.109  1.00  0.00     0.230 C 
ATOM     25  C   UNL A   1      32.527  25.580  19.591  1.00  0.00     0.049 C 
ENDBRANCH  23  24
ENDBRANCH  21  23
ENDBRANCH  17  21
BRANCH  18  26
ATOM     26  C   UNL A   1      31.762  28.533  24.892  1.00  0.00    -0.009 A 
ATOM     27  C   UNL A   1      32.314  29.502  25.746  1.00  0.00     0.009 A 
ATOM     28  C   UNL A   1      30.639  28.837  24.077  1.00  0.00    -0.010 A 
ATOM     29  C   UNL A   1      31.759  30.773  25.816  1.00  0.00     0.001 A 
ATOM     30  C   UNL A   1      30.091  30.140  24.156  1.00  0.00    -0.018 A 
ATOM     31  C   UNL A   1      30.016  27.906  23.207  1.00  0.00     0.009 A 
ATOM     32  C   UNL A   1      30.654  31.087  25.027  1.00  0.00     0.009 A 
ATOM     33  C   UNL A   1      28.972  30.471  23.375  1.00  0.00     0.009 A 
ATOM     34  C   UNL A   1      28.909  28.254  22.435  1.00  0.00     0.001 A 
ATOM     35  C   UNL A   1      28.387  29.537  22.519  1.00  0.00     0.001 A 
ENDBRANCH  18  26
ENDBRANCH  13  16
ENDBRANCH   7  12
ENDBRANCH   3   6
ENDBRANCH   1   2
BRANCH   1  36
ATOM     36  C   UNL A   1      41.063  20.410  26.132  1.00  0.00     0.023 C 
BRANCH  36  37
ATOM     37  C   UNL A   1      42.587  20.590  26.090  1.00  0.00     0.023 C 
BRANCH  37  38
ATOM     38  C   UNL A   1      43.142  21.943  26.540  1.00  0.00     0.116 C 
BRANCH  38  39
ATOM     39  N   UNL A   1      43.892  22.652  25.518  1.00  0.00    -0.352 N 
ATOM     40  C   UNL A   1      44.063  24.008  25.339  1.00  0.00     0.251 C 
ATOM     41  H   UNL A   1      44.346  22.080  24.858  1.00  0.00     0.163 HD
ATOM     42  O   UNL A   1      44.689  24.433  24.373  1.00  0.00    -0.269 OA
BRANCH  40  43
ATOM     43  C   UNL A   1      43.449  24.979  26.278  1.00  0.00     0.039 A 
ATOM     44  C   UNL A   1      42.326  24.580  27.011  1.00  0.00     0.014 A 
ATOM     45  C   UNL A   1      43.966  26.266  26.450  1.00  0.00     0.014 A 
ATOM     46  C   UNL A   1      41.789  25.426  27.986  1.00  0.00     0.010 A 
ATOM     47  C   UNL A   1      43.466  27.088  27.464  1.00  0.00     0.010 A 
ATOM     48  C   UNL A   1      42.390  26.666  28.260  1.00  0.00    -0.014 A 
BRANCH  48  49
ATOM     49  C   UNL A   1      41.952  27.485  29.421  1.00  0.00     0.031 A 
ATOM     50  C   UNL A   1      42.650  27.394  30.747  1.00  0.00     0.074 A 
ATOM     51  C   UNL A   1      40.862  28.272  29.295  1.00  0.00     0.049 A 
ATOM     52  N   UNL A   1      42.373  28.004  31.873  1.00  0.00    -0.248 NA
ATOM     53  C   UNL A   1      43.797  26.478  30.827  1.00  0.00     0.031 C 
ATOM     54  C   UNL A   1      40.056  28.407  28.081  1.00  0.00     0.029 A 
ATOM     55  N   UNL A   1      40.240  29.097  30.199  1.00  0.00    -0.354 N 
ATOM     56  C   UNL A   1      43.302  27.543  32.795  1.00  0.00     0.074 A 
ATOM     57  C   UNL A   1      44.124  26.567  32.109  1.00  0.00     0.031 C 
ATOM     58  C   UNL A   1      39.060  29.278  28.309  1.00  0.00     0.029 A 
ATOM     59  C   UNL A   1      39.138  29.741  29.690  1.00  0.00     0.049 A 
ATOM     60  H   UNL A   1      40.554  29.216  31.125  1.00  0.00     0.167 HD
ATOM     61  C   UNL A   1      43.468  27.914  34.088  1.00  0.00     0.037 A 
ATOM     62  C   UNL A   1      38.285  30.608  30.270  1.00  0.00     0.037 A 
ATOM     63  C   UNL A   1      42.666  28.901  34.766  1.00  0.00     0.049 A 
ATOM     64  C   UNL A   1      38.500  31.010  31.702  1.00  0.00     0.074 A 
ATOM     65  C   UNL A   1      42.804  29.389  36.055  1.00  0.00     0.029 A 
ATOM     66  N   UNL A   1      41.574  29.549  34.209  1.00  0.00    -0.354 N 
ATOM     67  N   UNL A   1      39.430  30.624  32.539  1.00  0.00    -0.248 NA
ATOM     68  C   UNL A   1      37.547  31.977  32.268  1.00  0.00     0.031 C 
ATOM     69  C   UNL A   1      41.773  30.305  36.291  1.00  0.00     0.029 A 
ATOM     70  C   UNL A   1      41.016  30.418  35.136  1.00  0.00     0.049 A 
ATOM     71  H   UNL A   1      41.243  29.414  33.292  1.00  0.00     0.167 HD
ATOM     72  C   UNL A   1      39.192  31.314  33.719  1.00  0.00     0.074 A 
ATOM     73  C   UNL A   1      38.037  32.157  33.486  1.00  0.00     0.031 C 
ATOM     74  C   UNL A   1      39.868  31.253  34.892  1.00  0.00     0.037 A 
BRANCH  61  75
ATOM     75  C   UNL A   1      44.570  27.250  34.861  1.00  0.00     0.064 A 
ATOM     76  C   UNL A   1      45.839  27.836  34.975  1.00  0.00     0.173 A 
ATOM     77  C   UNL A   1      44.343  26.038  35.528  1.00  0.00     0.173 A 
ATOM     78  F   UNL A   1      46.108  28.991  34.347  1.00  0.00    -0.203 F 
ATOM     79  C   UNL A   1      46.850  27.218  35.706  1.00  0.00     0.198 A 
ATOM     80  C   UNL A   1      45.350  25.435  36.280  1.00  0.00     0.198 A 
ATOM     81  F   UNL A   1      43.145  25.439  35.457  1.00  0.00    -0.203 F 
ATOM     82  F   UNL A   1      48.069  27.773  35.763  1.00  0.00    -0.200 F 
ATOM     83  C   UNL A   1      46.603  26.022  36.363  1.00  0.00     0.200 A 
ATOM     84  F   UNL A   1      45.106  24.285  36.923  1.00  0.00    -0.200 F 
ATOM     85  F   UNL A   1      47.576  25.430  37.069  1.00  0.00    -0.200 F 
ENDBRANCH  61  75
BRANCH  62  86
ATOM     86  C   UNL A   1      37.165  31.180  29.482  1.00  0.00     0.064 A 
ATOM     87  C   UNL A   1      37.214  32.505  29.025  1.00  0.00     0.173 A 
ATOM     88  C   UNL A   1      36.026  30.423  29.174  1.00  0.00     0.173 A 
ATOM     89  F   UNL A   1      38.273  33.274  29.316  1.00  0.00    -0.203 F 
ATOM     90  C   UNL A   1      36.157  33.056  28.304  1.00  0.00     0.198 A 
ATOM     91  C   UNL A   1      34.981  30.968  28.431  1.00  0.00     0.198 A 
ATOM     92  F   UNL A   1      35.934  29.150  29.585  1.00  0.00    -0.203 F 
ATOM     93  F   UNL A   1      36.211  34.337  27.915  1.00  0.00    -0.200 F 
ATOM     94  C   UNL A   1      35.044  32.285  28.002  1.00  0.00     0.200 A 
ATOM     95  F   UNL A   1      33.912  30.218  28.132  1.00  0.00    -0.200 F 
ATOM     96  F   UNL A   1      34.029  32.815  27.307  1.00  0.00    -0.200 F 
ENDBRANCH  62  86
BRANCH  74  97
ATOM     97  C   UNL A   1      39.392  32.138  36.005  1.00  0.00     0.064 A 
ATOM     98  C   UNL A   1      38.377  31.728  36.884  1.00  0.00     0.173 A 
ATOM     99  C   UNL A   1      39.974  33.396  36.214  1.00  0.00     0.173 A 
ATOM    100  F   UNL A   1      37.777  30.540  36.714  1.00  0.00    -0.203 F 
ATOM    101  C   UNL A   1      37.948  32.558  37.917  1.00  0.00     0.198 A 
ATOM    102  C   UNL A   1      39.560  34.212  37.263  1.00  0.00     0.198 A 
ATOM    103  F   UNL A   1      40.950  33.833  35.403  1.00  0.00    -0.203 F 
ATOM    104  F   UNL A   1      36.947  32.165  38.717  1.00  0.00    -0.200 F 
ATOM    105  C   UNL A   1      38.544  33.795  38.109  1.00  0.00     0.200 A 
ATOM    106  F   UNL A   1      40.143  35.404  37.454  1.00  0.00    -0.200 F 
ATOM    107  F   UNL A   1      38.131  34.590  39.106  1.00  0.00    -0.200 F 
ENDBRANCH  74  97
ENDBRANCH  48  49
ENDBRANCH  40  43
ENDBRANCH  38  39
ENDBRANCH  37  38
ENDBRANCH  36  37
ENDBRANCH   1  36
TORSDOF 17
ENDMDL
