MODEL 1
REMARK VINA RESULT:     -12.4      0.000      0.000
REMARK SMILES CCOc1cc(/C=C(/F)C(=O)NCCCCNC(=O)c2ccc(-c3c4nc(c(-c5c(F)c(F)c(F)c(F)c5F)c5ccc([nH]5)c(-c5c(F)c(F)c(F)c(F)c5F)c5nc(c(-c6c(F)c(F)c(F)c(F)c6F)c6ccc3[nH]6)C=C5)C=C4)cc2)ccc1O
REMARK SMILES IDX 14 1 13 2 12 3 10 4 11 5 8 7 7 8 9 9 6 10 4 11 5 12 85 13
REMARK SMILES IDX 84 14 83 15 3 16 2 17 1 18 86 19 15 21 16 22 17 23 18 24
REMARK SMILES IDX 19 26 20 27 21 28 82 29 22 30 81 31 23 32 24 33 25 34 75 35
REMARK SMILES IDX 26 36 80 37 74 38 76 39 27 40 79 41 73 42 72 43 28 45 60 46
REMARK SMILES IDX 40 47 59 48 41 49 44 50 58 51 77 52 42 53 43 54 57 56 78 57
REMARK SMILES IDX 45 58 29 59 30 60 38 61 31 62 32 63 36 64 39 65 33 66 34 67
REMARK SMILES IDX 37 68 35 69 61 70 62 71 70 72 63 73 64 74 68 75 71 76 65 77
REMARK SMILES IDX 66 78 69 79 67 80 46 81 47 82 55 83 48 84 49 85 53 86 56 87
REMARK SMILES IDX 50 88 51 89 54 90 52 91
REMARK H PARENT 12 6 86 20 17 25 76 44 44 55
REMARK Flexibility Score: inf
ROOT
ATOM      1  C   UNL A   1      31.670  30.680  26.154  1.00  0.00     0.023 C 
ENDROOT
BRANCH   1   2
ATOM      2  C   UNL A   1      32.478  29.855  27.153  1.00  0.00     0.116 C 
BRANCH   2   3
ATOM      3  N   UNL A   1      31.938  28.524  27.374  1.00  0.00    -0.350 N 
ATOM      4  C   UNL A   1      31.970  27.375  26.639  1.00  0.00     0.280 C 
ATOM      5  O   UNL A   1      31.544  26.361  27.191  1.00  0.00    -0.267 OA
ATOM      6  H   UNL A   1      31.452  28.434  28.225  1.00  0.00     0.163 HD
BRANCH   4   7
ATOM      7  C   UNL A   1      32.504  27.361  25.246  1.00  0.00     0.188 C 
ATOM      8  C   UNL A   1      31.855  27.596  24.094  1.00  0.00     0.053 C 
ATOM      9  F   UNL A   1      33.803  27.005  25.128  1.00  0.00    -0.201 F 
BRANCH   8  10
ATOM     10  C   UNL A   1      30.463  27.968  23.784  1.00  0.00    -0.019 A 
ATOM     11  C   UNL A   1      28.730  29.490  22.963  1.00  0.00     0.161 A 
ATOM     12  C   UNL A   1      30.075  29.203  23.248  1.00  0.00     0.058 A 
ATOM     13  C   UNL A   1      27.774  28.491  23.143  1.00  0.00     0.157 A 
ATOM     14  C   UNL A   1      28.140  27.246  23.645  1.00  0.00     0.051 A 
ATOM     15  C   UNL A   1      29.476  26.986  23.959  1.00  0.00     0.012 A 
BRANCH  11  16
ATOM     16  O   UNL A   1      28.507  30.738  22.445  1.00  0.00    -0.490 OA
BRANCH  16  17
ATOM     17  C   UNL A   1      28.082  31.753  23.358  1.00  0.00     0.226 C 
ATOM     18  C   UNL A   1      28.846  33.032  23.051  1.00  0.00     0.049 C 
ENDBRANCH  16  17
ENDBRANCH  11  16
BRANCH  13  19
ATOM     19  O   UNL A   1      26.464  28.628  22.782  1.00  0.00    -0.504 OA
ATOM     20  H   UNL A   1      26.204  29.336  22.225  1.00  0.00     0.293 HD
ENDBRANCH  13  19
ENDBRANCH   8  10
ENDBRANCH   4   7
ENDBRANCH   2   3
ENDBRANCH   1   2
BRANCH   1  21
ATOM     21  C   UNL A   1      31.462  32.155  26.513  1.00  0.00     0.023 C 
BRANCH  21  22
ATOM     22  C   UNL A   1      32.581  32.822  27.308  1.00  0.00     0.116 C 
BRANCH  22  23
ATOM     23  N   UNL A   1      32.301  34.206  27.651  1.00  0.00    -0.352 N 
ATOM     24  C   UNL A   1      32.928  35.038  28.549  1.00  0.00     0.251 C 
ATOM     25  H   UNL A   1      31.546  34.611  27.166  1.00  0.00     0.163 HD
ATOM     26  O   UNL A   1      32.472  36.152  28.771  1.00  0.00    -0.269 OA
BRANCH  24  27
ATOM     27  C   UNL A   1      34.128  34.577  29.286  1.00  0.00     0.039 A 
ATOM     28  C   UNL A   1      33.958  34.060  30.574  1.00  0.00     0.014 A 
ATOM     29  C   UNL A   1      35.404  34.644  28.724  1.00  0.00     0.014 A 
ATOM     30  C   UNL A   1      35.053  33.531  31.260  1.00  0.00     0.010 A 
ATOM     31  C   UNL A   1      36.484  34.054  29.381  1.00  0.00     0.010 A 
ATOM     32  C   UNL A   1      36.316  33.478  30.649  1.00  0.00    -0.014 A 
BRANCH  32  33
ATOM     33  C   UNL A   1      37.453  32.777  31.303  1.00  0.00     0.031 A 
ATOM     34  C   UNL A   1      38.125  31.612  30.633  1.00  0.00     0.074 A 
ATOM     35  C   UNL A   1      37.836  33.155  32.538  1.00  0.00     0.049 A 
ATOM     36  N   UNL A   1      39.091  30.847  31.076  1.00  0.00    -0.248 NA
ATOM     37  C   UNL A   1      37.634  31.245  29.296  1.00  0.00     0.031 C 
ATOM     38  C   UNL A   1      37.234  34.241  33.313  1.00  0.00     0.029 A 
ATOM     39  N   UNL A   1      38.817  32.663  33.364  1.00  0.00    -0.354 N 
ATOM     40  C   UNL A   1      39.318  29.907  30.081  1.00  0.00     0.074 A 
ATOM     41  C   UNL A   1      38.356  30.164  29.030  1.00  0.00     0.031 C 
ATOM     42  C   UNL A   1      37.869  34.345  34.491  1.00  0.00     0.029 A 
ATOM     43  C   UNL A   1      38.894  33.310  34.574  1.00  0.00     0.049 A 
ATOM     44  H   UNL A   1      39.409  31.918  33.114  1.00  0.00     0.167 HD
ATOM     45  C   UNL A   1      40.256  28.930  30.039  1.00  0.00     0.037 A 
ATOM     46  C   UNL A   1      39.689  33.085  35.638  1.00  0.00     0.037 A 
ATOM     47  C   UNL A   1      41.220  28.682  31.082  1.00  0.00     0.049 A 
ATOM     48  C   UNL A   1      40.704  31.977  35.574  1.00  0.00     0.074 A 
ATOM     49  C   UNL A   1      42.248  27.756  31.104  1.00  0.00     0.029 A 
ATOM     50  N   UNL A   1      41.266  29.359  32.292  1.00  0.00    -0.354 N 
ATOM     51  N   UNL A   1      40.960  31.143  34.596  1.00  0.00    -0.248 NA
ATOM     52  C   UNL A   1      41.545  31.780  36.763  1.00  0.00     0.031 C 
ATOM     53  C   UNL A   1      42.879  27.832  32.351  1.00  0.00     0.029 A 
ATOM     54  C   UNL A   1      42.286  28.848  33.082  1.00  0.00     0.049 A 
ATOM     55  H   UNL A   1      40.665  30.094  32.553  1.00  0.00     0.167 HD
ATOM     56  C   UNL A   1      42.004  30.342  35.039  1.00  0.00     0.074 A 
ATOM     57  C   UNL A   1      42.348  30.803  36.368  1.00  0.00     0.031 C 
ATOM     58  C   UNL A   1      42.619  29.315  34.404  1.00  0.00     0.037 A 
BRANCH  45  59
ATOM     59  C   UNL A   1      40.291  28.048  28.823  1.00  0.00     0.064 A 
ATOM     60  C   UNL A   1      41.016  28.403  27.676  1.00  0.00     0.173 A 
ATOM     61  C   UNL A   1      39.634  26.808  28.825  1.00  0.00     0.173 A 
ATOM     62  F   UNL A   1      41.656  29.580  27.619  1.00  0.00    -0.203 F 
ATOM     63  C   UNL A   1      41.059  27.563  26.565  1.00  0.00     0.198 A 
ATOM     64  C   UNL A   1      39.705  25.957  27.724  1.00  0.00     0.198 A 
ATOM     65  F   UNL A   1      38.933  26.414  29.898  1.00  0.00    -0.203 F 
ATOM     66  F   UNL A   1      41.719  27.945  25.463  1.00  0.00    -0.200 F 
ATOM     67  C   UNL A   1      40.410  26.338  26.593  1.00  0.00     0.200 A 
ATOM     68  F   UNL A   1      39.091  24.766  27.759  1.00  0.00    -0.200 F 
ATOM     69  F   UNL A   1      40.462  25.527  25.528  1.00  0.00    -0.200 F 
ENDBRANCH  45  59
BRANCH  46  70
ATOM     70  C   UNL A   1      39.565  33.935  36.851  1.00  0.00     0.064 A 
ATOM     71  C   UNL A   1      38.785  33.524  37.942  1.00  0.00     0.173 A 
ATOM     72  C   UNL A   1      40.210  35.177  36.943  1.00  0.00     0.173 A 
ATOM     73  F   UNL A   1      38.130  32.355  37.894  1.00  0.00    -0.203 F 
ATOM     74  C   UNL A   1      38.638  34.332  39.068  1.00  0.00     0.198 A 
ATOM     75  C   UNL A   1      40.089  35.970  38.082  1.00  0.00     0.198 A 
ATOM     76  F   UNL A   1      40.971  35.615  35.930  1.00  0.00    -0.203 F 
ATOM     77  F   UNL A   1      37.847  33.938  40.074  1.00  0.00    -0.200 F 
ATOM     78  C   UNL A   1      39.296  35.551  39.140  1.00  0.00     0.200 A 
ATOM     79  F   UNL A   1      40.738  37.139  38.154  1.00  0.00    -0.200 F 
ATOM     80  F   UNL A   1      39.157  36.326  40.224  1.00  0.00    -0.200 F 
ENDBRANCH  46  70
BRANCH  58  81
ATOM     81  C   UNL A   1      43.748  28.636  35.126  1.00  0.00     0.064 A 
ATOM     82  C   UNL A   1      45.072  29.083  35.008  1.00  0.00     0.173 A 
ATOM     83  C   UNL A   1      43.497  27.544  35.972  1.00  0.00     0.173 A 
ATOM     84  F   UNL A   1      45.369  30.112  34.201  1.00  0.00    -0.203 F 
ATOM     85  C   UNL A   1      46.107  28.445  35.687  1.00  0.00     0.198 A 
ATOM     86  C   UNL A   1      44.529  26.929  36.675  1.00  0.00     0.198 A 
ATOM     87  F   UNL A   1      42.248  27.081  36.125  1.00  0.00    -0.203 F 
ATOM     88  F   UNL A   1      47.371  28.855  35.517  1.00  0.00    -0.200 F 
ATOM     89  C   UNL A   1      45.834  27.374  36.525  1.00  0.00     0.200 A 
ATOM     90  F   UNL A   1      44.261  25.905  37.496  1.00  0.00    -0.200 F 
ATOM     91  F   UNL A   1      46.829  26.765  37.183  1.00  0.00    -0.200 F 
ENDBRANCH  58  81
ENDBRANCH  32  33
ENDBRANCH  24  27
ENDBRANCH  22  23
ENDBRANCH  21  22
ENDBRANCH   1  21
TORSDOF 15
ENDMDL
MODEL 2
REMARK VINA RESULT:     -12.3      0.138      1.626
REMARK SMILES CCOc1cc(/C=C(/F)C(=O)NCCCCNC(=O)c2ccc(-c3c4nc(c(-c5c(F)c(F)c(F)c(F)c5F)c5ccc([nH]5)c(-c5c(F)c(F)c(F)c(F)c5F)c5nc(c(-c6c(F)c(F)c(F)c(F)c6F)c6ccc3[nH]6)C=C5)C=C4)cc2)ccc1O
REMARK SMILES IDX 14 1 13 2 12 3 10 4 11 5 8 7 7 8 9 9 6 10 4 11 5 12 85 13
REMARK SMILES IDX 84 14 83 15 3 16 2 17 1 18 86 19 15 21 16 22 17 23 18 24
REMARK SMILES IDX 19 26 20 27 21 28 82 29 22 30 81 31 23 32 24 33 25 34 75 35
REMARK SMILES IDX 26 36 80 37 74 38 76 39 27 40 79 41 73 42 72 43 28 45 60 46
REMARK SMILES IDX 40 47 59 48 41 49 44 50 58 51 77 52 42 53 43 54 57 56 78 57
REMARK SMILES IDX 45 58 29 59 30 60 38 61 31 62 32 63 36 64 39 65 33 66 34 67
REMARK SMILES IDX 37 68 35 69 61 70 62 71 70 72 63 73 64 74 68 75 71 76 65 77
REMARK SMILES IDX 66 78 69 79 67 80 46 81 47 82 55 83 48 84 49 85 53 86 56 87
REMARK SMILES IDX 50 88 51 89 54 90 52 91
REMARK H PARENT 12 6 86 20 17 25 76 44 44 55
REMARK Flexibility Score: inf
ROOT
ATOM      1  C   UNL A   1      31.775  30.520  26.162  1.00  0.00     0.023 C 
ENDROOT
BRANCH   1   2
ATOM      2  C   UNL A   1      32.514  29.655  27.181  1.00  0.00     0.116 C 
BRANCH   2   3
ATOM      3  N   UNL A   1      31.976  28.311  27.296  1.00  0.00    -0.350 N 
ATOM      4  C   UNL A   1      32.002  27.225  26.470  1.00  0.00     0.280 C 
ATOM      5  O   UNL A   1      31.580  26.169  26.940  1.00  0.00    -0.267 OA
ATOM      6  H   UNL A   1      31.496  28.150  28.140  1.00  0.00     0.163 HD
BRANCH   4   7
ATOM      7  C   UNL A   1      32.527  27.324  25.076  1.00  0.00     0.188 C 
ATOM      8  C   UNL A   1      31.865  27.635  23.949  1.00  0.00     0.053 C 
ATOM      9  F   UNL A   1      33.830  27.000  24.923  1.00  0.00    -0.201 F 
BRANCH   8  10
ATOM     10  C   UNL A   1      30.465  28.007  23.676  1.00  0.00    -0.019 A 
ATOM     11  C   UNL A   1      28.710  29.526  22.898  1.00  0.00     0.161 A 
ATOM     12  C   UNL A   1      30.062  29.240  23.148  1.00  0.00     0.058 A 
ATOM     13  C   UNL A   1      27.759  28.527  23.109  1.00  0.00     0.157 A 
ATOM     14  C   UNL A   1      28.139  27.285  23.605  1.00  0.00     0.051 A 
ATOM     15  C   UNL A   1      29.483  27.025  23.882  1.00  0.00     0.012 A 
BRANCH  11  16
ATOM     16  O   UNL A   1      28.473  30.772  22.383  1.00  0.00    -0.490 OA
BRANCH  16  17
ATOM     17  C   UNL A   1      28.056  31.786  23.300  1.00  0.00     0.226 C 
ATOM     18  C   UNL A   1      28.814  33.066  22.986  1.00  0.00     0.049 C 
ENDBRANCH  16  17
ENDBRANCH  11  16
BRANCH  13  19
ATOM     19  O   UNL A   1      26.440  28.664  22.784  1.00  0.00    -0.504 OA
ATOM     20  H   UNL A   1      25.805  28.812  23.457  1.00  0.00     0.293 HD
ENDBRANCH  13  19
ENDBRANCH   8  10
ENDBRANCH   4   7
ENDBRANCH   2   3
ENDBRANCH   1   2
BRANCH   1  21
ATOM     21  C   UNL A   1      31.512  31.970  26.577  1.00  0.00     0.023 C 
BRANCH  21  22
ATOM     22  C   UNL A   1      32.635  32.672  27.335  1.00  0.00     0.116 C 
BRANCH  22  23
ATOM     23  N   UNL A   1      32.339  34.058  27.656  1.00  0.00    -0.352 N 
ATOM     24  C   UNL A   1      32.951  34.910  28.546  1.00  0.00     0.251 C 
ATOM     25  H   UNL A   1      31.584  34.448  27.159  1.00  0.00     0.163 HD
ATOM     26  O   UNL A   1      32.483  36.022  28.747  1.00  0.00    -0.269 OA
BRANCH  24  27
ATOM     27  C   UNL A   1      34.150  34.471  29.299  1.00  0.00     0.039 A 
ATOM     28  C   UNL A   1      33.969  33.922  30.572  1.00  0.00     0.014 A 
ATOM     29  C   UNL A   1      35.434  34.590  28.765  1.00  0.00     0.014 A 
ATOM     30  C   UNL A   1      35.066  33.414  31.271  1.00  0.00     0.010 A 
ATOM     31  C   UNL A   1      36.519  34.021  29.433  1.00  0.00     0.010 A 
ATOM     32  C   UNL A   1      36.343  33.414  30.686  1.00  0.00    -0.014 A 
BRANCH  32  33
ATOM     33  C   UNL A   1      37.488  32.734  31.350  1.00  0.00     0.031 A 
ATOM     34  C   UNL A   1      38.185  31.580  30.687  1.00  0.00     0.074 A 
ATOM     35  C   UNL A   1      37.856  33.123  32.586  1.00  0.00     0.049 A 
ATOM     36  N   UNL A   1      39.162  30.834  31.140  1.00  0.00    -0.248 NA
ATOM     37  C   UNL A   1      37.710  31.200  29.348  1.00  0.00     0.031 C 
ATOM     38  C   UNL A   1      37.229  34.200  33.354  1.00  0.00     0.029 A 
ATOM     39  N   UNL A   1      38.840  32.652  33.421  1.00  0.00    -0.354 N 
ATOM     40  C   UNL A   1      39.413  29.895  30.149  1.00  0.00     0.074 A 
ATOM     41  C   UNL A   1      38.453  30.132  29.091  1.00  0.00     0.031 C 
ATOM     42  C   UNL A   1      37.854  34.320  34.535  1.00  0.00     0.029 A 
ATOM     43  C   UNL A   1      38.896  33.304  34.629  1.00  0.00     0.049 A 
ATOM     44  H   UNL A   1      39.447  31.916  33.176  1.00  0.00     0.167 HD
ATOM     45  C   UNL A   1      40.369  28.935  30.116  1.00  0.00     0.037 A 
ATOM     46  C   UNL A   1      39.689  33.096  35.699  1.00  0.00     0.037 A 
ATOM     47  C   UNL A   1      41.329  28.708  31.166  1.00  0.00     0.049 A 
ATOM     48  C   UNL A   1      40.724  32.006  35.645  1.00  0.00     0.074 A 
ATOM     49  C   UNL A   1      42.374  27.800  31.199  1.00  0.00     0.029 A 
ATOM     50  N   UNL A   1      41.355  29.389  32.375  1.00  0.00    -0.354 N 
ATOM     51  N   UNL A   1      41.002  31.174  34.671  1.00  0.00    -0.248 NA
ATOM     52  C   UNL A   1      41.560  31.828  36.841  1.00  0.00     0.031 C 
ATOM     53  C   UNL A   1      42.995  27.891  32.449  1.00  0.00     0.029 A 
ATOM     54  C   UNL A   1      42.379  28.898  33.173  1.00  0.00     0.049 A 
ATOM     55  H   UNL A   1      40.739  30.114  32.629  1.00  0.00     0.167 HD
ATOM     56  C   UNL A   1      42.056  30.393  35.124  1.00  0.00     0.074 A 
ATOM     57  C   UNL A   1      42.383  30.865  36.454  1.00  0.00     0.031 C 
ATOM     58  C   UNL A   1      42.694  29.375  34.496  1.00  0.00     0.037 A 
BRANCH  45  59
ATOM     59  C   UNL A   1      40.428  28.051  28.904  1.00  0.00     0.064 A 
ATOM     60  C   UNL A   1      39.716  26.843  28.838  1.00  0.00     0.173 A 
ATOM     61  C   UNL A   1      41.163  28.439  27.773  1.00  0.00     0.173 A 
ATOM     62  F   UNL A   1      39.003  26.421  29.893  1.00  0.00    -0.203 F 
ATOM     63  C   UNL A   1      39.761  26.044  27.697  1.00  0.00     0.198 A 
ATOM     64  C   UNL A   1      41.180  27.654  26.623  1.00  0.00     0.198 A 
ATOM     65  F   UNL A   1      41.856  29.588  27.779  1.00  0.00    -0.203 F 
ATOM     66  F   UNL A   1      39.110  24.873  27.675  1.00  0.00    -0.200 F 
ATOM     67  C   UNL A   1      40.486  26.454  26.589  1.00  0.00     0.200 A 
ATOM     68  F   UNL A   1      41.869  28.059  25.547  1.00  0.00    -0.200 F 
ATOM     69  F   UNL A   1      40.519  25.690  25.488  1.00  0.00    -0.200 F 
ENDBRANCH  45  59
BRANCH  46  70
ATOM     70  C   UNL A   1      39.540  33.947  36.908  1.00  0.00     0.064 A 
ATOM     71  C   UNL A   1      38.760  33.526  37.995  1.00  0.00     0.173 A 
ATOM     72  C   UNL A   1      40.164  35.200  37.002  1.00  0.00     0.173 A 
ATOM     73  F   UNL A   1      38.125  32.346  37.945  1.00  0.00    -0.203 F 
ATOM     74  C   UNL A   1      38.591  34.335  39.117  1.00  0.00     0.198 A 
ATOM     75  C   UNL A   1      40.021  35.994  38.137  1.00  0.00     0.198 A 
ATOM     76  F   UNL A   1      40.925  35.648  35.993  1.00  0.00    -0.203 F 
ATOM     77  F   UNL A   1      37.799  33.930  40.118  1.00  0.00    -0.200 F 
ATOM     78  C   UNL A   1      39.227  35.565  39.190  1.00  0.00     0.200 A 
ATOM     79  F   UNL A   1      40.649  37.175  38.211  1.00  0.00    -0.200 F 
ATOM     80  F   UNL A   1      39.067  36.340  40.271  1.00  0.00    -0.200 F 
ENDBRANCH  46  70
BRANCH  58  81
ATOM     81  C   UNL A   1      43.831  28.719  35.229  1.00  0.00     0.064 A 
ATOM     82  C   UNL A   1      43.628  27.604  36.055  1.00  0.00     0.173 A 
ATOM     83  C   UNL A   1      45.143  29.194  35.076  1.00  0.00     0.173 A 
ATOM     84  F   UNL A   1      42.392  27.121  36.248  1.00  0.00    -0.203 F 
ATOM     85  C   UNL A   1      44.693  27.007  36.724  1.00  0.00     0.198 A 
ATOM     86  C   UNL A   1      46.209  28.573  35.720  1.00  0.00     0.198 A 
ATOM     87  F   UNL A   1      45.391  30.254  34.292  1.00  0.00    -0.203 F 
ATOM     88  F   UNL A   1      44.468  25.976  37.551  1.00  0.00    -0.200 F 
ATOM     89  C   UNL A   1      45.983  27.486  36.550  1.00  0.00     0.200 A 
ATOM     90  F   UNL A   1      47.456  29.029  35.539  1.00  0.00    -0.200 F 
ATOM     91  F   UNL A   1      47.007  26.906  37.189  1.00  0.00    -0.200 F 
ENDBRANCH  58  81
ENDBRANCH  32  33
ENDBRANCH  24  27
ENDBRANCH  22  23
ENDBRANCH  21  22
ENDBRANCH   1  21
TORSDOF 15
ENDMDL
MODEL 3
REMARK VINA RESULT:     -12.2      0.623      7.456
REMARK SMILES CCOc1cc(/C=C(/F)C(=O)NCCCCNC(=O)c2ccc(-c3c4nc(c(-c5c(F)c(F)c(F)c(F)c5F)c5ccc([nH]5)c(-c5c(F)c(F)c(F)c(F)c5F)c5nc(c(-c6c(F)c(F)c(F)c(F)c6F)c6ccc3[nH]6)C=C5)C=C4)cc2)ccc1O
REMARK SMILES IDX 14 1 13 2 12 3 10 4 11 5 8 7 7 8 9 9 6 10 4 11 5 12 85 13
REMARK SMILES IDX 84 14 83 15 3 16 2 17 1 18 86 19 15 21 16 22 17 23 18 24
REMARK SMILES IDX 19 26 20 27 21 28 82 29 22 30 81 31 23 32 24 33 25 34 75 35
REMARK SMILES IDX 26 36 80 37 74 38 76 39 27 40 79 41 73 42 72 43 28 45 60 46
REMARK SMILES IDX 40 47 59 48 41 49 44 50 58 51 77 52 42 53 43 54 57 56 78 57
REMARK SMILES IDX 45 58 29 59 30 60 38 61 31 62 32 63 36 64 39 65 33 66 34 67
REMARK SMILES IDX 37 68 35 69 61 70 62 71 70 72 63 73 64 74 68 75 71 76 65 77
REMARK SMILES IDX 66 78 69 79 67 80 46 81 47 82 55 83 48 84 49 85 53 86 56 87
REMARK SMILES IDX 50 88 51 89 54 90 52 91
REMARK H PARENT 12 6 86 20 17 25 76 44 44 55
REMARK Flexibility Score: inf
ROOT
ATOM      1  C   UNL A   1      31.677  30.495  26.063  1.00  0.00     0.023 C 
ENDROOT
BRANCH   1   2
ATOM      2  C   UNL A   1      32.556  29.571  26.904  1.00  0.00     0.116 C 
BRANCH   2   3
ATOM      3  N   UNL A   1      31.962  28.267  27.141  1.00  0.00    -0.350 N 
ATOM      4  C   UNL A   1      31.901  27.124  26.398  1.00  0.00     0.280 C 
ATOM      5  O   UNL A   1      31.452  26.127  26.963  1.00  0.00    -0.267 OA
ATOM      6  H   UNL A   1      31.514  28.192  28.015  1.00  0.00     0.163 HD
BRANCH   4   7
ATOM      7  C   UNL A   1      32.365  27.096  24.980  1.00  0.00     0.188 C 
ATOM      8  C   UNL A   1      31.669  27.358  23.862  1.00  0.00     0.053 C 
ATOM      9  F   UNL A   1      33.643  26.695  24.798  1.00  0.00    -0.201 F 
BRANCH   8  10
ATOM     10  C   UNL A   1      30.278  27.780  23.621  1.00  0.00    -0.019 A 
ATOM     11  C   UNL A   1      28.563  29.344  22.842  1.00  0.00     0.161 A 
ATOM     12  C   UNL A   1      29.909  29.008  23.058  1.00  0.00     0.058 A 
ATOM     13  C   UNL A   1      27.578  28.397  23.123  1.00  0.00     0.157 A 
ATOM     14  C   UNL A   1      27.921  27.159  23.656  1.00  0.00     0.051 A 
ATOM     15  C   UNL A   1      29.262  26.851  23.898  1.00  0.00     0.012 A 
BRANCH  11  16
ATOM     16  O   UNL A   1      28.361  30.579  22.286  1.00  0.00    -0.490 OA
BRANCH  16  17
ATOM     17  C   UNL A   1      27.832  31.597  23.139  1.00  0.00     0.226 C 
ATOM     18  C   UNL A   1      28.774  32.790  23.111  1.00  0.00     0.049 C 
ENDBRANCH  16  17
ENDBRANCH  11  16
BRANCH  13  19
ATOM     19  O   UNL A   1      26.255  28.579  22.837  1.00  0.00    -0.504 OA
ATOM     20  H   UNL A   1      25.883  29.438  22.870  1.00  0.00     0.293 HD
ENDBRANCH  13  19
ENDBRANCH   8  10
ENDBRANCH   4   7
ENDBRANCH   2   3
ENDBRANCH   1   2
BRANCH   1  21
ATOM     21  C   UNL A   1      31.472  31.910  26.612  1.00  0.00     0.023 C 
BRANCH  21  22
ATOM     22  C   UNL A   1      32.692  32.574  27.244  1.00  0.00     0.116 C 
BRANCH  22  23
ATOM     23  N   UNL A   1      32.465  33.958  27.623  1.00  0.00    -0.352 N 
ATOM     24  C   UNL A   1      33.108  34.735  28.559  1.00  0.00     0.251 C 
ATOM     25  H   UNL A   1      31.740  34.410  27.135  1.00  0.00     0.163 HD
ATOM     26  O   UNL A   1      32.697  35.861  28.805  1.00  0.00    -0.269 OA
BRANCH  24  27
ATOM     27  C   UNL A   1      34.270  34.199  29.307  1.00  0.00     0.039 A 
ATOM     28  C   UNL A   1      34.025  33.396  30.425  1.00  0.00     0.014 A 
ATOM     29  C   UNL A   1      35.582  34.474  28.918  1.00  0.00     0.014 A 
ATOM     30  C   UNL A   1      35.094  32.799  31.098  1.00  0.00     0.010 A 
ATOM     31  C   UNL A   1      36.643  33.823  29.547  1.00  0.00     0.010 A 
ATOM     32  C   UNL A   1      36.408  32.967  30.634  1.00  0.00    -0.014 A 
BRANCH  32  33
ATOM     33  C   UNL A   1      37.536  32.212  31.242  1.00  0.00     0.031 A 
ATOM     34  C   UNL A   1      38.039  32.555  32.616  1.00  0.00     0.074 A 
ATOM     35  C   UNL A   1      38.149  31.253  30.522  1.00  0.00     0.049 A 
ATOM     36  N   UNL A   1      39.044  32.043  33.281  1.00  0.00    -0.248 NA
ATOM     37  C   UNL A   1      37.332  33.630  33.330  1.00  0.00     0.031 C 
ATOM     38  C   UNL A   1      37.785  30.856  29.161  1.00  0.00     0.029 A 
ATOM     39  N   UNL A   1      39.215  30.442  30.828  1.00  0.00    -0.354 N 
ATOM     40  C   UNL A   1      39.097  32.735  34.483  1.00  0.00     0.074 A 
ATOM     41  C   UNL A   1      38.053  33.738  34.437  1.00  0.00     0.031 C 
ATOM     42  C   UNL A   1      38.598  29.868  28.758  1.00  0.00     0.029 A 
ATOM     43  C   UNL A   1      39.568  29.588  29.811  1.00  0.00     0.049 A 
ATOM     44  H   UNL A   1      39.682  30.470  31.694  1.00  0.00     0.167 HD
ATOM     45  C   UNL A   1      39.926  32.538  35.536  1.00  0.00     0.037 A 
ATOM     46  C   UNL A   1      40.569  28.691  29.729  1.00  0.00     0.037 A 
ATOM     47  C   UNL A   1      40.957  31.533  35.583  1.00  0.00     0.049 A 
ATOM     48  C   UNL A   1      41.493  28.513  30.903  1.00  0.00     0.074 A 
ATOM     49  C   UNL A   1      41.808  31.217  36.628  1.00  0.00     0.029 A 
ATOM     50  N   UNL A   1      41.284  30.686  34.533  1.00  0.00    -0.354 N 
ATOM     51  N   UNL A   1      41.483  29.120  32.065  1.00  0.00    -0.248 NA
ATOM     52  C   UNL A   1      42.565  27.518  30.757  1.00  0.00     0.031 C 
ATOM     53  C   UNL A   1      42.688  30.220  36.191  1.00  0.00     0.029 A 
ATOM     54  C   UNL A   1      42.346  29.870  34.895  1.00  0.00     0.049 A 
ATOM     55  H   UNL A   1      40.830  30.667  33.659  1.00  0.00     0.167 HD
ATOM     56  C   UNL A   1      42.527  28.568  32.794  1.00  0.00     0.074 A 
ATOM     57  C   UNL A   1      43.137  27.560  31.951  1.00  0.00     0.031 C 
ATOM     58  C   UNL A   1      42.945  28.871  34.047  1.00  0.00     0.037 A 
BRANCH  45  59
ATOM     59  C   UNL A   1      39.758  33.431  36.732  1.00  0.00     0.064 A 
ATOM     60  C   UNL A   1      40.459  34.640  36.854  1.00  0.00     0.173 A 
ATOM     61  C   UNL A   1      38.845  33.099  37.746  1.00  0.00     0.173 A 
ATOM     62  F   UNL A   1      41.350  35.001  35.918  1.00  0.00    -0.203 F 
ATOM     63  C   UNL A   1      40.275  35.469  37.959  1.00  0.00     0.198 A 
ATOM     64  C   UNL A   1      38.639  33.947  38.832  1.00  0.00     0.198 A 
ATOM     65  F   UNL A   1      38.141  31.960  37.676  1.00  0.00    -0.203 F 
ATOM     66  F   UNL A   1      40.991  36.596  38.075  1.00  0.00    -0.200 F 
ATOM     67  C   UNL A   1      39.360  35.126  38.942  1.00  0.00     0.200 A 
ATOM     68  F   UNL A   1      37.743  33.621  39.774  1.00  0.00    -0.200 F 
ATOM     69  F   UNL A   1      39.176  35.931  39.998  1.00  0.00    -0.200 F 
ENDBRANCH  45  59
BRANCH  46  70
ATOM     70  C   UNL A   1      40.746  27.885  28.493  1.00  0.00     0.064 A 
ATOM     71  C   UNL A   1      41.536  28.353  27.433  1.00  0.00     0.173 A 
ATOM     72  C   UNL A   1      40.121  26.639  28.337  1.00  0.00     0.173 A 
ATOM     73  F   UNL A   1      42.137  29.549  27.524  1.00  0.00    -0.203 F 
ATOM     74  C   UNL A   1      41.677  27.617  26.259  1.00  0.00     0.198 A 
ATOM     75  C   UNL A   1      40.288  25.888  27.176  1.00  0.00     0.198 A 
ATOM     76  F   UNL A   1      39.357  26.144  29.322  1.00  0.00    -0.203 F 
ATOM     77  F   UNL A   1      42.397  28.110  25.243  1.00  0.00    -0.200 F 
ATOM     78  C   UNL A   1      41.059  26.382  26.134  1.00  0.00     0.200 A 
ATOM     79  F   UNL A   1      39.702  24.689  27.065  1.00  0.00    -0.200 F 
ATOM     80  F   UNL A   1      41.198  25.672  25.006  1.00  0.00    -0.200 F 
ENDBRANCH  46  70
BRANCH  58  81
ATOM     81  C   UNL A   1      44.101  28.083  34.597  1.00  0.00     0.064 A 
ATOM     82  C   UNL A   1      45.423  28.536  34.480  1.00  0.00     0.173 A 
ATOM     83  C   UNL A   1      43.878  26.874  35.275  1.00  0.00     0.173 A 
ATOM     84  F   UNL A   1      45.691  29.676  33.827  1.00  0.00    -0.203 F 
ATOM     85  C   UNL A   1      46.482  27.795  34.997  1.00  0.00     0.198 A 
ATOM     86  C   UNL A   1      44.937  26.153  35.820  1.00  0.00     0.198 A 
ATOM     87  F   UNL A   1      42.633  26.399  35.420  1.00  0.00    -0.203 F 
ATOM     88  F   UNL A   1      47.741  28.220  34.827  1.00  0.00    -0.200 F 
ATOM     89  C   UNL A   1      46.238  26.609  35.673  1.00  0.00     0.200 A 
ATOM     90  F   UNL A   1      44.697  25.015  36.486  1.00  0.00    -0.200 F 
ATOM     91  F   UNL A   1      47.257  25.900  36.176  1.00  0.00    -0.200 F 
ENDBRANCH  58  81
ENDBRANCH  32  33
ENDBRANCH  24  27
ENDBRANCH  22  23
ENDBRANCH  21  22
ENDBRANCH   1  21
TORSDOF 15
ENDMDL
