MODEL 1
REMARK VINA RESULT:     -13.5      0.000      0.000
REMARK SMILES C[C@@H](NC(=O)[C@@H]1CC[C@@H]2CCCC[C@@H]2[NH2+]1)C(=O)NCCCCNC(=O)c1ccc(-c2c3nc(c(-c4c(F)c(F)c(F)c(F)c4F)c4ccc([nH]4)c(-c4c(F)c(F)c(F)c(F)c4F)c4nc(c(-c5c(F)c(F)c(F)c(F)c5F)c5ccc2[nH]5)C=C4)C=C3)cc1
REMARK SMILES IDX 20 1 19 2 18 3 16 4 17 5 2 7 1 8 3 9 4 10 5 12 6 13 7 14
REMARK SMILES IDX 15 15 8 16 14 17 9 20 13 21 10 22 12 23 11 24 21 25 22 26
REMARK SMILES IDX 23 27 24 28 25 30 26 31 27 32 88 33 28 34 87 35 29 36 30 37
REMARK SMILES IDX 31 38 81 39 32 40 86 41 80 42 82 43 33 44 85 45 79 46 78 47
REMARK SMILES IDX 34 49 66 50 46 51 65 52 47 53 50 54 64 55 83 56 48 57 49 58
REMARK SMILES IDX 63 60 84 61 51 62 35 63 36 64 44 65 37 66 38 67 42 68 45 69
REMARK SMILES IDX 39 70 40 71 43 72 41 73 67 74 68 75 76 76 69 77 70 78 74 79
REMARK SMILES IDX 77 80 71 81 72 82 75 83 73 84 52 85 53 86 61 87 54 88 55 89
REMARK SMILES IDX 59 90 62 91 56 92 57 93 60 94 58 95
REMARK H PARENT 18 6 3 11 15 18 15 19 23 29 82 48 50 59
REMARK Flexibility Score: inf
ROOT
ATOM      1  C   UNL A   1      31.880  27.486  26.265  1.00  0.00     0.023 C 
ENDROOT
BRANCH   1   2
ATOM      2  C   UNL A   1      33.137  26.641  26.202  1.00  0.00     0.116 C 
BRANCH   2   3
ATOM      3  N   UNL A   1      33.505  25.898  24.874  1.00  0.00    -0.354 N 
ATOM      4  C   UNL A   1      34.443  24.792  24.367  1.00  0.00     0.242 C 
ATOM      5  O   UNL A   1      34.178  24.953  23.138  1.00  0.00    -0.273 OA
ATOM      6  H   UNL A   1      32.966  26.252  24.129  1.00  0.00     0.163 HD
BRANCH   4   7
ATOM      7  C   UNL A   1      35.741  23.401  25.338  1.00  0.00     0.168 C 
ATOM      8  C   UNL A   1      37.421  23.615  25.933  1.00  0.00     0.041 C 
BRANCH   7   9
ATOM      9  N   UNL A   1      35.444  22.778  26.706  1.00  0.00    -0.339 N 
ATOM     10  C   UNL A   1      34.613  21.702  26.474  1.00  0.00     0.278 C 
ATOM     11  H   UNL A   1      35.781  23.084  27.579  1.00  0.00     0.164 HD
ATOM     12  O   UNL A   1      33.839  21.130  27.204  1.00  0.00    -0.268 OA
BRANCH  10  13
ATOM     13  C   UNL A   1      35.043  21.428  25.082  1.00  0.00     0.272 C 
ATOM     14  C   UNL A   1      33.243  21.551  24.393  1.00  0.00     0.076 C 
ATOM     15  N   UNL A   1      35.948  19.750  25.138  1.00  0.00    -0.333 N 
ATOM     16  C   UNL A   1      32.342  19.969  23.969  1.00  0.00     0.016 C 
ATOM     17  C   UNL A   1      35.042  18.201  24.386  1.00  0.00     0.186 C 
ATOM     18  H   UNL A   1      36.141  19.543  26.118  1.00  0.00     0.347 HD
ATOM     19  H   UNL A   1      36.766  19.881  24.545  1.00  0.00     0.347 HD
ATOM     20  C   UNL A   1      33.292  18.391  23.664  1.00  0.00     0.048 C 
ATOM     21  C   UNL A   1      35.181  16.735  24.884  1.00  0.00     0.065 C 
ATOM     22  C   UNL A   1      32.472  17.112  23.816  1.00  0.00     0.010 C 
ATOM     23  C   UNL A   1      34.002  16.150  25.668  1.00  0.00     0.006 C 
ATOM     24  C   UNL A   1      32.583  16.466  25.181  1.00  0.00     0.001 C 
ENDBRANCH  10  13
ENDBRANCH   7   9
ENDBRANCH   4   7
ENDBRANCH   2   3
ENDBRANCH   1   2
BRANCH   1  25
ATOM     25  C   UNL A   1      31.973  28.819  25.564  1.00  0.00     0.023 C 
BRANCH  25  26
ATOM     26  C   UNL A   1      33.163  29.662  25.983  1.00  0.00     0.116 C 
BRANCH  26  27
ATOM     27  N   UNL A   1      32.813  30.937  26.613  1.00  0.00    -0.352 N 
ATOM     28  C   UNL A   1      33.599  31.714  27.427  1.00  0.00     0.251 C 
ATOM     29  H   UNL A   1      31.907  31.276  26.430  1.00  0.00     0.163 HD
ATOM     30  O   UNL A   1      33.193  32.756  27.923  1.00  0.00    -0.269 OA
BRANCH  28  31
ATOM     31  C   UNL A   1      34.933  31.192  27.739  1.00  0.00     0.039 A 
ATOM     32  C   UNL A   1      35.971  32.108  27.899  1.00  0.00     0.014 A 
ATOM     33  C   UNL A   1      35.061  29.856  28.126  1.00  0.00     0.014 A 
ATOM     34  C   UNL A   1      37.139  31.689  28.522  1.00  0.00     0.010 A 
ATOM     35  C   UNL A   1      36.171  29.483  28.864  1.00  0.00     0.010 A 
ATOM     36  C   UNL A   1      37.227  30.390  29.053  1.00  0.00    -0.014 A 
BRANCH  36  37
ATOM     37  C   UNL A   1      38.439  29.952  29.780  1.00  0.00     0.031 A 
ATOM     38  C   UNL A   1      38.682  30.467  31.170  1.00  0.00     0.074 A 
ATOM     39  C   UNL A   1      39.320  29.123  29.186  1.00  0.00     0.049 A 
ATOM     40  N   UNL A   1      39.679  30.220  31.978  1.00  0.00    -0.248 NA
ATOM     41  C   UNL A   1      37.688  31.407  31.715  1.00  0.00     0.031 C 
ATOM     42  C   UNL A   1      39.207  28.598  27.824  1.00  0.00     0.029 A 
ATOM     43  N   UNL A   1      40.483  28.570  29.659  1.00  0.00    -0.354 N 
ATOM     44  C   UNL A   1      39.434  30.980  33.113  1.00  0.00     0.074 A 
ATOM     45  C   UNL A   1      38.243  31.756  32.862  1.00  0.00     0.031 C 
ATOM     46  C   UNL A   1      40.231  27.762  27.588  1.00  0.00     0.029 A 
ATOM     47  C   UNL A   1      41.100  27.733  28.760  1.00  0.00     0.049 A 
ATOM     48  H   UNL A   1      40.841  28.755  30.557  1.00  0.00     0.167 HD
ATOM     49  C   UNL A   1      40.125  31.003  34.275  1.00  0.00     0.037 A 
ATOM     50  C   UNL A   1      42.241  27.027  28.874  1.00  0.00     0.037 A 
ATOM     51  C   UNL A   1      41.300  30.214  34.519  1.00  0.00     0.049 A 
ATOM     52  C   UNL A   1      43.012  27.103  30.167  1.00  0.00     0.074 A 
ATOM     53  C   UNL A   1      42.047  30.121  35.678  1.00  0.00     0.029 A 
ATOM     54  N   UNL A   1      41.907  29.391  33.581  1.00  0.00    -0.354 N 
ATOM     55  N   UNL A   1      42.729  27.763  31.265  1.00  0.00    -0.248 NA
ATOM     56  C   UNL A   1      44.259  26.331  30.239  1.00  0.00     0.031 C 
ATOM     57  C   UNL A   1      43.151  29.305  35.417  1.00  0.00     0.029 A 
ATOM     58  C   UNL A   1      43.044  28.818  34.123  1.00  0.00     0.049 A 
ATOM     59  H   UNL A   1      41.577  29.238  32.665  1.00  0.00     0.167 HD
ATOM     60  C   UNL A   1      43.739  27.457  32.166  1.00  0.00     0.074 A 
ATOM     61  C   UNL A   1      44.632  26.537  31.493  1.00  0.00     0.031 C 
ATOM     62  C   UNL A   1      43.914  27.897  33.438  1.00  0.00     0.037 A 
BRANCH  49  63
ATOM     63  C   UNL A   1      39.633  31.919  35.359  1.00  0.00     0.064 A 
ATOM     64  C   UNL A   1      40.083  33.244  35.475  1.00  0.00     0.173 A 
ATOM     65  C   UNL A   1      38.676  31.470  36.281  1.00  0.00     0.173 A 
ATOM     66  F   UNL A   1      41.011  33.720  34.630  1.00  0.00    -0.203 F 
ATOM     67  C   UNL A   1      39.615  34.073  36.491  1.00  0.00     0.198 A 
ATOM     68  C   UNL A   1      38.181  32.315  37.270  1.00  0.00     0.198 A 
ATOM     69  F   UNL A   1      38.213  30.212  36.217  1.00  0.00    -0.203 F 
ATOM     70  F   UNL A   1      40.104  35.315  36.617  1.00  0.00    -0.200 F 
ATOM     71  C   UNL A   1      38.657  33.612  37.380  1.00  0.00     0.200 A 
ATOM     72  F   UNL A   1      37.243  31.872  38.118  1.00  0.00    -0.200 F 
ATOM     73  F   UNL A   1      38.198  34.415  38.349  1.00  0.00    -0.200 F 
ENDBRANCH  49  63
BRANCH  50  74
ATOM     74  C   UNL A   1      42.720  26.182  27.748  1.00  0.00     0.064 A 
ATOM     75  C   UNL A   1      43.673  26.662  26.836  1.00  0.00     0.173 A 
ATOM     76  C   UNL A   1      42.216  24.890  27.538  1.00  0.00     0.173 A 
ATOM     77  F   UNL A   1      44.176  27.897  26.981  1.00  0.00    -0.203 F 
ATOM     78  C   UNL A   1      44.076  25.898  25.742  1.00  0.00     0.198 A 
ATOM     79  C   UNL A   1      42.647  24.111  26.466  1.00  0.00     0.198 A 
ATOM     80  F   UNL A   1      41.308  24.377  28.381  1.00  0.00    -0.203 F 
ATOM     81  F   UNL A   1      44.939  26.406  24.854  1.00  0.00    -0.200 F 
ATOM     82  C   UNL A   1      43.566  24.621  25.561  1.00  0.00     0.200 A 
ATOM     83  F   UNL A   1      42.167  22.870  26.306  1.00  0.00    -0.200 F 
ATOM     84  F   UNL A   1      43.953  23.885  24.510  1.00  0.00    -0.200 F 
ENDBRANCH  50  74
BRANCH  62  85
ATOM     85  C   UNL A   1      45.086  27.350  34.204  1.00  0.00     0.064 A 
ATOM     86  C   UNL A   1      46.328  28.001  34.230  1.00  0.00     0.173 A 
ATOM     87  C   UNL A   1      44.948  26.174  34.959  1.00  0.00     0.173 A 
ATOM     88  F   UNL A   1      46.518  29.122  33.516  1.00  0.00    -0.203 F 
ATOM     89  C   UNL A   1      47.396  27.477  34.954  1.00  0.00     0.198 A 
ATOM     90  C   UNL A   1      46.004  25.678  35.717  1.00  0.00     0.198 A 
ATOM     91  F   UNL A   1      43.778  25.516  34.981  1.00  0.00    -0.203 F 
ATOM     92  F   UNL A   1      48.591  28.083  34.912  1.00  0.00    -0.200 F 
ATOM     93  C   UNL A   1      47.230  26.323  35.704  1.00  0.00     0.200 A 
ATOM     94  F   UNL A   1      45.834  24.576  36.460  1.00  0.00    -0.200 F 
ATOM     95  F   UNL A   1      48.256  25.827  36.409  1.00  0.00    -0.200 F 
ENDBRANCH  62  85
ENDBRANCH  36  37
ENDBRANCH  28  31
ENDBRANCH  26  27
ENDBRANCH  25  26
ENDBRANCH   1  25
TORSDOF 13
ENDMDL
MODEL 2
REMARK VINA RESULT:     -13.5      2.116      3.447
REMARK SMILES C[C@@H](NC(=O)[C@@H]1CC[C@@H]2CCCC[C@@H]2[NH2+]1)C(=O)NCCCCNC(=O)c1ccc(-c2c3nc(c(-c4c(F)c(F)c(F)c(F)c4F)c4ccc([nH]4)c(-c4c(F)c(F)c(F)c(F)c4F)c4nc(c(-c5c(F)c(F)c(F)c(F)c5F)c5ccc2[nH]5)C=C4)C=C3)cc1
REMARK SMILES IDX 20 1 19 2 18 3 16 4 17 5 2 7 1 8 3 9 4 10 5 12 6 13 7 14
REMARK SMILES IDX 15 15 8 16 14 17 9 20 13 21 10 22 12 23 11 24 21 25 22 26
REMARK SMILES IDX 23 27 24 28 25 30 26 31 27 32 88 33 28 34 87 35 29 36 30 37
REMARK SMILES IDX 31 38 81 39 32 40 86 41 80 42 82 43 33 44 85 45 79 46 78 47
REMARK SMILES IDX 34 49 66 50 46 51 65 52 47 53 50 54 64 55 83 56 48 57 49 58
REMARK SMILES IDX 63 60 84 61 51 62 35 63 36 64 44 65 37 66 38 67 42 68 45 69
REMARK SMILES IDX 39 70 40 71 43 72 41 73 67 74 68 75 76 76 69 77 70 78 74 79
REMARK SMILES IDX 77 80 71 81 72 82 75 83 73 84 52 85 53 86 61 87 54 88 55 89
REMARK SMILES IDX 59 90 62 91 56 92 57 93 60 94 58 95
REMARK H PARENT 18 6 3 11 15 18 15 19 23 29 82 48 50 59
REMARK Flexibility Score: inf
ROOT
ATOM      1  C   UNL A   1      32.381  29.977  27.251  1.00  0.00     0.023 C 
ENDROOT
BRANCH   1   2
ATOM      2  C   UNL A   1      33.533  29.304  26.530  1.00  0.00     0.116 C 
BRANCH   2   3
ATOM      3  N   UNL A   1      33.628  29.392  24.970  1.00  0.00    -0.354 N 
ATOM      4  C   UNL A   1      33.120  28.662  23.718  1.00  0.00     0.242 C 
ATOM      5  O   UNL A   1      33.812  29.328  22.891  1.00  0.00    -0.273 OA
ATOM      6  H   UNL A   1      34.193  30.157  24.710  1.00  0.00     0.163 HD
BRANCH   4   7
ATOM      7  C   UNL A   1      31.709  27.091  23.400  1.00  0.00     0.168 C 
ATOM      8  C   UNL A   1      29.937  27.172  23.125  1.00  0.00     0.041 C 
BRANCH   7   9
ATOM      9  N   UNL A   1      31.749  26.147  22.194  1.00  0.00    -0.339 N 
ATOM     10  C   UNL A   1      32.620  25.130  22.522  1.00  0.00     0.278 C 
ATOM     11  H   UNL A   1      31.251  26.246  21.350  1.00  0.00     0.164 HD
ATOM     12  O   UNL A   1      33.249  24.372  21.822  1.00  0.00    -0.268 OA
BRANCH  10  13
ATOM     13  C   UNL A   1      32.462  25.214  23.993  1.00  0.00     0.272 C 
ATOM     14  C   UNL A   1      34.367  25.325  24.294  1.00  0.00     0.076 C 
ATOM     15  N   UNL A   1      31.489  23.655  24.502  1.00  0.00    -0.333 N 
ATOM     16  C   UNL A   1      35.261  23.803  24.909  1.00  0.00     0.016 C 
ATOM     17  C   UNL A   1      32.454  22.238  25.422  1.00  0.00     0.186 C 
ATOM     18  H   UNL A   1      31.096  23.251  23.651  1.00  0.00     0.347 HD
ATOM     19  H   UNL A   1      30.811  23.988  25.187  1.00  0.00     0.347 HD
ATOM     20  C   UNL A   1      34.320  22.425  25.747  1.00  0.00     0.048 C 
ATOM     21  C   UNL A   1      32.153  20.716  25.319  1.00  0.00     0.065 C 
ATOM     22  C   UNL A   1      35.034  21.076  25.756  1.00  0.00     0.010 C 
ATOM     23  C   UNL A   1      33.125  19.866  24.495  1.00  0.00     0.006 C 
ATOM     24  C   UNL A   1      34.626  20.154  24.626  1.00  0.00     0.001 C 
ENDBRANCH  10  13
ENDBRANCH   7   9
ENDBRANCH   4   7
ENDBRANCH   2   3
ENDBRANCH   1   2
BRANCH   1  25
ATOM     25  C   UNL A   1      32.131  31.410  26.852  1.00  0.00     0.023 C 
BRANCH  25  26
ATOM     26  C   UNL A   1      33.133  32.398  27.420  1.00  0.00     0.116 C 
BRANCH  26  27
ATOM     27  N   UNL A   1      32.599  33.743  27.646  1.00  0.00    -0.352 N 
ATOM     28  C   UNL A   1      33.073  34.700  28.509  1.00  0.00     0.251 C 
ATOM     29  H   UNL A   1      31.805  33.988  27.117  1.00  0.00     0.163 HD
ATOM     30  O   UNL A   1      32.529  35.788  28.637  1.00  0.00    -0.269 OA
BRANCH  28  31
ATOM     31  C   UNL A   1      34.226  34.323  29.332  1.00  0.00     0.039 A 
ATOM     32  C   UNL A   1      34.004  33.491  30.426  1.00  0.00     0.014 A 
ATOM     33  C   UNL A   1      35.512  34.578  28.846  1.00  0.00     0.014 A 
ATOM     34  C   UNL A   1      35.090  32.848  31.006  1.00  0.00     0.010 A 
ATOM     35  C   UNL A   1      36.567  33.831  29.342  1.00  0.00     0.010 A 
ATOM     36  C   UNL A   1      36.369  32.974  30.436  1.00  0.00    -0.014 A 
BRANCH  36  37
ATOM     37  C   UNL A   1      37.522  32.239  31.002  1.00  0.00     0.031 A 
ATOM     38  C   UNL A   1      38.006  32.589  32.379  1.00  0.00     0.074 A 
ATOM     39  C   UNL A   1      38.139  31.287  30.273  1.00  0.00     0.049 A 
ATOM     40  N   UNL A   1      39.000  32.080  33.058  1.00  0.00    -0.248 NA
ATOM     41  C   UNL A   1      37.299  33.676  33.077  1.00  0.00     0.031 C 
ATOM     42  C   UNL A   1      37.781  30.897  28.908  1.00  0.00     0.029 A 
ATOM     43  N   UNL A   1      39.194  30.469  30.585  1.00  0.00    -0.354 N 
ATOM     44  C   UNL A   1      39.040  32.792  34.250  1.00  0.00     0.074 A 
ATOM     45  C   UNL A   1      38.026  33.817  34.171  1.00  0.00     0.031 C 
ATOM     46  C   UNL A   1      38.571  29.884  28.519  1.00  0.00     0.029 A 
ATOM     47  C   UNL A   1      39.524  29.588  29.584  1.00  0.00     0.049 A 
ATOM     48  H   UNL A   1      39.671  30.509  31.446  1.00  0.00     0.167 HD
ATOM     49  C   UNL A   1      39.830  32.585  35.326  1.00  0.00     0.037 A 
ATOM     50  C   UNL A   1      40.490  28.651  29.535  1.00  0.00     0.037 A 
ATOM     51  C   UNL A   1      40.823  31.550  35.400  1.00  0.00     0.049 A 
ATOM     52  C   UNL A   1      41.382  28.470  30.736  1.00  0.00     0.074 A 
ATOM     53  C   UNL A   1      41.643  31.218  36.462  1.00  0.00     0.029 A 
ATOM     54  N   UNL A   1      41.141  30.688  34.360  1.00  0.00    -0.354 N 
ATOM     55  N   UNL A   1      41.359  29.094  31.890  1.00  0.00    -0.248 NA
ATOM     56  C   UNL A   1      42.432  27.449  30.630  1.00  0.00     0.031 C 
ATOM     57  C   UNL A   1      42.511  30.209  36.039  1.00  0.00     0.029 A 
ATOM     58  C   UNL A   1      42.174  29.850  34.743  1.00  0.00     0.049 A 
ATOM     59  H   UNL A   1      40.698  30.673  33.481  1.00  0.00     0.167 HD
ATOM     60  C   UNL A   1      42.362  28.517  32.657  1.00  0.00     0.074 A 
ATOM     61  C   UNL A   1      42.963  27.480  31.844  1.00  0.00     0.031 C 
ATOM     62  C   UNL A   1      42.752  28.818  33.921  1.00  0.00     0.037 A 
BRANCH  49  63
ATOM     63  C   UNL A   1      39.658  33.504  36.503  1.00  0.00     0.064 A 
ATOM     64  C   UNL A   1      40.312  34.744  36.580  1.00  0.00     0.173 A 
ATOM     65  C   UNL A   1      38.803  33.148  37.556  1.00  0.00     0.173 A 
ATOM     66  F   UNL A   1      41.154  35.126  35.608  1.00  0.00    -0.203 F 
ATOM     67  C   UNL A   1      40.139  35.577  37.682  1.00  0.00     0.198 A 
ATOM     68  C   UNL A   1      38.602  34.001  38.637  1.00  0.00     0.198 A 
ATOM     69  F   UNL A   1      38.154  31.973  37.534  1.00  0.00    -0.203 F 
ATOM     70  F   UNL A   1      40.821  36.728  37.761  1.00  0.00    -0.200 F 
ATOM     71  C   UNL A   1      39.277  35.210  38.703  1.00  0.00     0.200 A 
ATOM     72  F   UNL A   1      37.755  33.652  39.615  1.00  0.00    -0.200 F 
ATOM     73  F   UNL A   1      39.102  36.019  39.757  1.00  0.00    -0.200 F 
ENDBRANCH  49  63
BRANCH  50  74
ATOM     74  C   UNL A   1      40.661  27.807  28.322  1.00  0.00     0.064 A 
ATOM     75  C   UNL A   1      40.046  26.550  28.222  1.00  0.00     0.173 A 
ATOM     76  C   UNL A   1      41.464  28.223  27.250  1.00  0.00     0.173 A 
ATOM     77  F   UNL A   1      39.280  26.097  29.226  1.00  0.00    -0.203 F 
ATOM     78  C   UNL A   1      40.255  25.729  27.115  1.00  0.00     0.198 A 
ATOM     79  C   UNL A   1      41.643  27.418  26.126  1.00  0.00     0.198 A 
ATOM     80  F   UNL A   1      42.071  29.418  27.288  1.00  0.00    -0.203 F 
ATOM     81  F   UNL A   1      39.707  24.508  27.076  1.00  0.00    -0.200 F 
ATOM     82  C   UNL A   1      41.050  26.166  26.066  1.00  0.00     0.200 A 
ATOM     83  F   UNL A   1      42.395  27.853  25.106  1.00  0.00    -0.200 F 
ATOM     84  F   UNL A   1      41.252  25.377  25.001  1.00  0.00    -0.200 F 
ENDBRANCH  50  74
BRANCH  62  85
ATOM     85  C   UNL A   1      43.847  27.982  34.523  1.00  0.00     0.064 A 
ATOM     86  C   UNL A   1      45.192  28.377  34.486  1.00  0.00     0.173 A 
ATOM     87  C   UNL A   1      43.535  26.785  35.189  1.00  0.00     0.173 A 
ATOM     88  F   UNL A   1      45.547  29.506  33.852  1.00  0.00    -0.203 F 
ATOM     89  C   UNL A   1      46.186  27.589  35.058  1.00  0.00     0.198 A 
ATOM     90  C   UNL A   1      44.526  26.023  35.798  1.00  0.00     0.198 A 
ATOM     91  F   UNL A   1      42.263  26.365  35.267  1.00  0.00    -0.203 F 
ATOM     92  F   UNL A   1      47.471  27.955  34.953  1.00  0.00    -0.200 F 
ATOM     93  C   UNL A   1      45.851  26.419  35.722  1.00  0.00     0.200 A 
ATOM     94  F   UNL A   1      44.197  24.905  36.461  1.00  0.00    -0.200 F 
ATOM     95  F   UNL A   1      46.809  25.667  36.283  1.00  0.00    -0.200 F 
ENDBRANCH  62  85
ENDBRANCH  36  37
ENDBRANCH  28  31
ENDBRANCH  26  27
ENDBRANCH  25  26
ENDBRANCH   1  25
TORSDOF 13
ENDMDL
MODEL 3
REMARK VINA RESULT:     -13.4      3.008      4.279
REMARK SMILES C[C@@H](NC(=O)[C@@H]1CC[C@@H]2CCCC[C@@H]2[NH2+]1)C(=O)NCCCCNC(=O)c1ccc(-c2c3nc(c(-c4c(F)c(F)c(F)c(F)c4F)c4ccc([nH]4)c(-c4c(F)c(F)c(F)c(F)c4F)c4nc(c(-c5c(F)c(F)c(F)c(F)c5F)c5ccc2[nH]5)C=C4)C=C3)cc1
REMARK SMILES IDX 20 1 19 2 18 3 16 4 17 5 2 7 1 8 3 9 4 10 5 12 6 13 7 14
REMARK SMILES IDX 15 15 8 16 14 17 9 20 13 21 10 22 12 23 11 24 21 25 22 26
REMARK SMILES IDX 23 27 24 28 25 30 26 31 27 32 88 33 28 34 87 35 29 36 30 37
REMARK SMILES IDX 31 38 81 39 32 40 86 41 80 42 82 43 33 44 85 45 79 46 78 47
REMARK SMILES IDX 34 49 66 50 46 51 65 52 47 53 50 54 64 55 83 56 48 57 49 58
REMARK SMILES IDX 63 60 84 61 51 62 35 63 36 64 44 65 37 66 38 67 42 68 45 69
REMARK SMILES IDX 39 70 40 71 43 72 41 73 67 74 68 75 76 76 69 77 70 78 74 79
REMARK SMILES IDX 77 80 71 81 72 82 75 83 73 84 52 85 53 86 61 87 54 88 55 89
REMARK SMILES IDX 59 90 62 91 56 92 57 93 60 94 58 95
REMARK H PARENT 18 6 3 11 15 18 15 19 23 29 82 48 50 59
REMARK Flexibility Score: inf
ROOT
ATOM      1  C   UNL A   1      32.245  27.433  25.732  1.00  0.00     0.023 C 
ENDROOT
BRANCH   1   2
ATOM      2  C   UNL A   1      32.804  26.023  25.762  1.00  0.00     0.116 C 
BRANCH   2   3
ATOM      3  N   UNL A   1      33.418  25.405  24.461  1.00  0.00    -0.354 N 
ATOM      4  C   UNL A   1      34.547  24.457  24.030  1.00  0.00     0.242 C 
ATOM      5  O   UNL A   1      34.406  24.647  22.785  1.00  0.00    -0.273 OA
ATOM      6  H   UNL A   1      32.925  25.725  23.671  1.00  0.00     0.163 HD
BRANCH   4   7
ATOM      7  C   UNL A   1      35.899  23.195  25.098  1.00  0.00     0.168 C 
ATOM      8  C   UNL A   1      37.550  23.537  25.715  1.00  0.00     0.041 C 
BRANCH   7   9
ATOM      9  N   UNL A   1      35.607  22.625  26.489  1.00  0.00    -0.339 N 
ATOM     10  C   UNL A   1      34.707  21.596  26.310  1.00  0.00     0.278 C 
ATOM     11  H   UNL A   1      35.987  22.933  27.344  1.00  0.00     0.164 HD
ATOM     12  O   UNL A   1      33.923  21.090  27.076  1.00  0.00    -0.268 OA
BRANCH  10  13
ATOM     13  C   UNL A   1      35.079  21.262  24.914  1.00  0.00     0.272 C 
ATOM     14  C   UNL A   1      33.255  21.382  24.291  1.00  0.00     0.076 C 
ATOM     15  N   UNL A   1      35.965  19.575  25.001  1.00  0.00    -0.333 N 
ATOM     16  C   UNL A   1      32.319  19.797  23.966  1.00  0.00     0.016 C 
ATOM     17  C   UNL A   1      35.012  18.010  24.347  1.00  0.00     0.186 C 
ATOM     18  H   UNL A   1      36.195  19.403  25.981  1.00  0.00     0.347 HD
ATOM     19  H   UNL A   1      36.761  19.671  24.372  1.00  0.00     0.347 HD
ATOM     20  C   UNL A   1      33.237  18.195  23.687  1.00  0.00     0.048 C 
ATOM     21  C   UNL A   1      35.153  16.563  24.897  1.00  0.00     0.065 C 
ATOM     22  C   UNL A   1      32.409  16.934  23.921  1.00  0.00     0.010 C 
ATOM     23  C   UNL A   1      33.999  16.025  25.749  1.00  0.00     0.006 C 
ATOM     24  C   UNL A   1      32.566  16.341  25.305  1.00  0.00     0.001 C 
ENDBRANCH  10  13
ENDBRANCH   7   9
ENDBRANCH   4   7
ENDBRANCH   2   3
ENDBRANCH   1   2
BRANCH   1  25
ATOM     25  C   UNL A   1      33.264  28.525  25.937  1.00  0.00     0.023 C 
BRANCH  25  26
ATOM     26  C   UNL A   1      33.752  28.661  27.368  1.00  0.00     0.116 C 
BRANCH  26  27
ATOM     27  N   UNL A   1      33.818  30.039  27.859  1.00  0.00    -0.352 N 
ATOM     28  C   UNL A   1      34.921  30.712  28.324  1.00  0.00     0.251 C 
ATOM     29  H   UNL A   1      32.971  30.541  27.856  1.00  0.00     0.163 HD
ATOM     30  O   UNL A   1      34.855  31.862  28.737  1.00  0.00    -0.269 OA
BRANCH  28  31
ATOM     31  C   UNL A   1      36.175  29.955  28.373  1.00  0.00     0.039 A 
ATOM     32  C   UNL A   1      37.069  30.104  27.314  1.00  0.00     0.014 A 
ATOM     33  C   UNL A   1      36.546  29.343  29.573  1.00  0.00     0.014 A 
ATOM     34  C   UNL A   1      38.382  29.688  27.488  1.00  0.00     0.010 A 
ATOM     35  C   UNL A   1      37.884  29.056  29.784  1.00  0.00     0.010 A 
ATOM     36  C   UNL A   1      38.810  29.209  28.738  1.00  0.00    -0.014 A 
BRANCH  36  37
ATOM     37  C   UNL A   1      40.223  28.828  28.958  1.00  0.00     0.031 A 
ATOM     38  C   UNL A   1      41.133  29.782  29.676  1.00  0.00     0.074 A 
ATOM     39  C   UNL A   1      40.684  27.650  28.494  1.00  0.00     0.049 A 
ATOM     40  N   UNL A   1      42.401  29.652  29.966  1.00  0.00    -0.248 NA
ATOM     41  C   UNL A   1      40.550  31.065  30.102  1.00  0.00     0.031 C 
ATOM     42  C   UNL A   1      39.899  26.667  27.743  1.00  0.00     0.029 A 
ATOM     43  N   UNL A   1      41.925  27.075  28.593  1.00  0.00    -0.354 N 
ATOM     44  C   UNL A   1      42.762  30.837  30.593  1.00  0.00     0.074 A 
ATOM     45  C   UNL A   1      41.607  31.703  30.573  1.00  0.00     0.031 C 
ATOM     46  C   UNL A   1      40.664  25.592  27.492  1.00  0.00     0.029 A 
ATOM     47  C   UNL A   1      42.005  25.831  28.017  1.00  0.00     0.049 A 
ATOM     48  H   UNL A   1      42.687  27.514  29.036  1.00  0.00     0.167 HD
ATOM     49  C   UNL A   1      43.944  31.159  31.164  1.00  0.00     0.037 A 
ATOM     50  C   UNL A   1      43.048  24.984  27.922  1.00  0.00     0.037 A 
ATOM     51  C   UNL A   1      45.081  30.282  31.193  1.00  0.00     0.049 A 
ATOM     52  C   UNL A   1      44.364  25.387  28.534  1.00  0.00     0.074 A 
ATOM     53  C   UNL A   1      46.310  30.487  31.790  1.00  0.00     0.029 A 
ATOM     54  N   UNL A   1      45.131  29.036  30.583  1.00  0.00    -0.354 N 
ATOM     55  N   UNL A   1      44.674  26.476  29.196  1.00  0.00    -0.248 NA
ATOM     56  C   UNL A   1      45.477  24.439  28.390  1.00  0.00     0.031 C 
ATOM     57  C   UNL A   1      47.131  29.401  31.476  1.00  0.00     0.029 A 
ATOM     58  C   UNL A   1      46.386  28.478  30.758  1.00  0.00     0.049 A 
ATOM     59  H   UNL A   1      44.385  28.612  30.100  1.00  0.00     0.167 HD
ATOM     60  C   UNL A   1      46.000  26.328  29.578  1.00  0.00     0.074 A 
ATOM     61  C   UNL A   1      46.431  25.034  29.089  1.00  0.00     0.031 C 
ATOM     62  C   UNL A   1      46.792  27.184  30.271  1.00  0.00     0.037 A 
BRANCH  49  63
ATOM     63  C   UNL A   1      44.066  32.519  31.791  1.00  0.00     0.064 A 
ATOM     64  C   UNL A   1      43.771  32.743  33.145  1.00  0.00     0.173 A 
ATOM     65  C   UNL A   1      44.512  33.609  31.029  1.00  0.00     0.173 A 
ATOM     66  F   UNL A   1      43.326  31.739  33.916  1.00  0.00    -0.203 F 
ATOM     67  C   UNL A   1      43.889  34.013  33.704  1.00  0.00     0.198 A 
ATOM     68  C   UNL A   1      44.667  34.868  31.601  1.00  0.00     0.198 A 
ATOM     69  F   UNL A   1      44.805  33.452  29.729  1.00  0.00    -0.203 F 
ATOM     70  F   UNL A   1      43.545  34.213  34.983  1.00  0.00    -0.200 F 
ATOM     71  C   UNL A   1      44.347  35.071  32.934  1.00  0.00     0.200 A 
ATOM     72  F   UNL A   1      45.124  35.886  30.860  1.00  0.00    -0.200 F 
ATOM     73  F   UNL A   1      44.472  36.290  33.477  1.00  0.00    -0.200 F 
ENDBRANCH  49  63
BRANCH  50  74
ATOM     74  C   UNL A   1      42.893  23.673  27.236  1.00  0.00     0.064 A 
ATOM     75  C   UNL A   1      42.332  22.571  27.899  1.00  0.00     0.173 A 
ATOM     76  C   UNL A   1      43.328  23.483  25.916  1.00  0.00     0.173 A 
ATOM     77  F   UNL A   1      41.915  22.693  29.167  1.00  0.00    -0.203 F 
ATOM     78  C   UNL A   1      42.245  21.324  27.281  1.00  0.00     0.198 A 
ATOM     79  C   UNL A   1      43.205  22.246  25.285  1.00  0.00     0.198 A 
ATOM     80  F   UNL A   1      43.866  24.503  25.231  1.00  0.00    -0.203 F 
ATOM     81  F   UNL A   1      41.764  20.274  27.960  1.00  0.00    -0.200 F 
ATOM     82  C   UNL A   1      42.677  21.164  25.973  1.00  0.00     0.200 A 
ATOM     83  F   UNL A   1      43.606  22.101  24.015  1.00  0.00    -0.200 F 
ATOM     84  F   UNL A   1      42.594  19.966  25.379  1.00  0.00    -0.200 F 
ENDBRANCH  50  74
BRANCH  62  85
ATOM     85  C   UNL A   1      48.190  26.730  30.588  1.00  0.00     0.064 A 
ATOM     86  C   UNL A   1      48.485  25.971  31.729  1.00  0.00     0.173 A 
ATOM     87  C   UNL A   1      49.243  27.025  29.707  1.00  0.00     0.173 A 
ATOM     88  F   UNL A   1      47.518  25.671  32.610  1.00  0.00    -0.203 F 
ATOM     89  C   UNL A   1      49.788  25.557  31.996  1.00  0.00     0.198 A 
ATOM     90  C   UNL A   1      50.534  26.571  29.953  1.00  0.00     0.198 A 
ATOM     91  F   UNL A   1      49.015  27.738  28.593  1.00  0.00    -0.203 F 
ATOM     92  F   UNL A   1      50.057  24.887  33.125  1.00  0.00    -0.200 F 
ATOM     93  C   UNL A   1      50.808  25.848  31.103  1.00  0.00     0.200 A 
ATOM     94  F   UNL A   1      51.514  26.833  29.077  1.00  0.00    -0.200 F 
ATOM     95  F   UNL A   1      52.059  25.437  31.356  1.00  0.00    -0.200 F 
ENDBRANCH  62  85
ENDBRANCH  36  37
ENDBRANCH  28  31
ENDBRANCH  26  27
ENDBRANCH  25  26
ENDBRANCH   1  25
TORSDOF 13
ENDMDL
