MODEL 1
REMARK VINA RESULT:      -8.8      0.000      0.000
REMARK SMILES CCCCCCNC(=O)Oc1cccc(-c2ccc([C@@H](C)C(=O)NCCCCNC(=O)c3ccc(-c4c5nc(c(-c6c(F)c(F)c(F)c(F)c6F)c6ccc([nH]6)c(-c6c(F)c(F)c(F)c(F)c6F)c6nc(c(-c7c(F)c(F)c(F)c(F)c7F)c7ccc4[nH]7)C=C6)C=C5)cc3)cc2N)c1
REMARK SMILES IDX 20 1 21 2 19 3 16 4 17 5 96 6 18 7 95 8 15 9 11 10 12 11
REMARK SMILES IDX 98 12 13 13 14 14 10 15 8 16 7 17 9 19 6 20 5 21 4 22 3 23
REMARK SMILES IDX 2 24 1 25 97 26 22 29 23 30 24 31 25 33 26 34 27 35 28 36
REMARK SMILES IDX 29 37 30 38 31 40 32 41 33 42 94 43 34 44 93 45 35 46 36 47
REMARK SMILES IDX 37 48 87 49 38 50 92 51 86 52 88 53 39 54 91 55 85 56 84 57
REMARK SMILES IDX 40 59 72 60 52 61 71 62 53 63 56 64 70 65 89 66 54 67 55 68
REMARK SMILES IDX 69 70 90 71 57 72 41 73 42 74 50 75 43 76 44 77 48 78 51 79
REMARK SMILES IDX 45 80 46 81 49 82 47 83 73 84 74 85 82 86 75 87 76 88 80 89
REMARK SMILES IDX 83 90 77 91 78 92 81 93 79 94 58 95 59 96 67 97 60 98 61 99
REMARK SMILES IDX 65 100 68 101 62 102 63 103 66 104 64 105
REMARK H PARENT 7 18 97 27 97 28 24 32 29 39 88 58 56 69
REMARK Flexibility Score: inf
ROOT
ATOM      1  C   UNL A   1      36.537  33.575  31.415  1.00  0.00     0.105 C 
ATOM      2  C   UNL A   1      36.536  32.312  32.276  1.00  0.00     0.023 C 
ENDROOT
BRANCH   1   3
ATOM      3  C   UNL A   1      37.895  34.032  30.907  1.00  0.00    -0.034 A 
ATOM      4  C   UNL A   1      40.554  34.587  30.028  1.00  0.00     0.005 A 
ATOM      5  C   UNL A   1      39.481  34.465  29.126  1.00  0.00     0.011 A 
ATOM      6  C   UNL A   1      40.244  34.575  31.406  1.00  0.00     0.040 A 
ATOM      7  C   UNL A   1      38.169  34.251  29.559  1.00  0.00     0.005 A 
ATOM      8  C   UNL A   1      38.947  34.213  31.819  1.00  0.00     0.030 A 
BRANCH   4   9
ATOM      9  C   UNL A   1      41.936  34.702  29.493  1.00  0.00    -0.013 A 
ATOM     10  C   UNL A   1      43.876  33.734  28.381  1.00  0.00     0.133 A 
ATOM     11  C   UNL A   1      44.557  34.945  28.444  1.00  0.00     0.047 A 
ATOM     12  C   UNL A   1      42.580  33.608  28.884  1.00  0.00     0.056 A 
ATOM     13  C   UNL A   1      43.929  36.048  29.011  1.00  0.00     0.004 A 
ATOM     14  C   UNL A   1      42.640  35.922  29.540  1.00  0.00     0.009 A 
BRANCH  10  15
ATOM     15  O   UNL A   1      44.606  32.619  27.937  1.00  0.00    -0.410 OA
BRANCH  15  16
ATOM     16  C   UNL A   1      44.688  32.358  26.577  1.00  0.00     0.412 C 
ATOM     17  N   UNL A   1      44.078  31.185  26.224  1.00  0.00    -0.321 N 
ATOM     18  H   UNL A   1      44.113  30.940  25.271  1.00  0.00     0.167 HD
ATOM     19  O   UNL A   1      45.245  33.059  25.742  1.00  0.00    -0.224 OA
BRANCH  17  20
ATOM     20  C   UNL A   1      43.386  30.266  27.105  1.00  0.00     0.119 C 
BRANCH  20  21
ATOM     21  C   UNL A   1      44.288  29.119  27.564  1.00  0.00     0.021 C 
BRANCH  21  22
ATOM     22  C   UNL A   1      44.414  27.959  26.569  1.00  0.00     0.002 C 
BRANCH  22  23
ATOM     23  C   UNL A   1      45.809  27.335  26.453  1.00  0.00    -0.000 C 
BRANCH  23  24
ATOM     24  C   UNL A   1      46.824  28.139  25.636  1.00  0.00    -0.003 C 
ATOM     25  C   UNL A   1      46.778  27.833  24.147  1.00  0.00     0.004 C 
ENDBRANCH  23  24
ENDBRANCH  22  23
ENDBRANCH  21  22
ENDBRANCH  20  21
ENDBRANCH  17  20
ENDBRANCH  15  16
ENDBRANCH  10  15
ENDBRANCH   4   9
BRANCH   6  26
ATOM     26  N   UNL A   1      41.208  34.786  32.396  1.00  0.00    -0.398 N 
ATOM     27  H   UNL A   1      40.934  35.075  33.297  1.00  0.00     0.156 HD
ATOM     28  H   UNL A   1      42.162  34.648  32.193  1.00  0.00     0.156 HD
ENDBRANCH   6  26
ENDBRANCH   1   3
BRANCH   1  29
ATOM     29  C   UNL A   1      35.668  34.713  31.977  1.00  0.00     0.227 C 
ATOM     30  O   UNL A   1      36.030  35.323  32.991  1.00  0.00    -0.274 OA
ATOM     31  N   UNL A   1      34.502  35.134  31.411  1.00  0.00    -0.356 N 
ATOM     32  H   UNL A   1      34.103  35.921  31.845  1.00  0.00     0.163 HD
BRANCH  31  33
ATOM     33  C   UNL A   1      33.747  34.630  30.284  1.00  0.00     0.116 C 
BRANCH  33  34
ATOM     34  C   UNL A   1      34.563  34.649  28.990  1.00  0.00     0.023 C 
BRANCH  34  35
ATOM     35  C   UNL A   1      34.464  33.382  28.144  1.00  0.00     0.023 C 
BRANCH  35  36
ATOM     36  C   UNL A   1      34.478  32.076  28.930  1.00  0.00     0.116 C 
BRANCH  36  37
ATOM     37  N   UNL A   1      34.053  30.913  28.166  1.00  0.00    -0.352 N 
ATOM     38  C   UNL A   1      34.802  29.813  27.812  1.00  0.00     0.251 C 
ATOM     39  H   UNL A   1      33.115  30.911  27.866  1.00  0.00     0.163 HD
ATOM     40  O   UNL A   1      34.332  28.930  27.104  1.00  0.00    -0.269 OA
BRANCH  38  41
ATOM     41  C   UNL A   1      36.207  29.740  28.259  1.00  0.00     0.039 A 
ATOM     42  C   UNL A   1      36.482  29.304  29.557  1.00  0.00     0.014 A 
ATOM     43  C   UNL A   1      37.245  30.021  27.367  1.00  0.00     0.014 A 
ATOM     44  C   UNL A   1      37.805  29.067  29.935  1.00  0.00     0.010 A 
ATOM     45  C   UNL A   1      38.553  29.708  27.719  1.00  0.00     0.010 A 
ATOM     46  C   UNL A   1      38.846  29.224  29.004  1.00  0.00    -0.014 A 
BRANCH  46  47
ATOM     47  C   UNL A   1      40.250  28.891  29.346  1.00  0.00     0.031 A 
ATOM     48  C   UNL A   1      40.852  27.606  28.855  1.00  0.00     0.074 A 
ATOM     49  C   UNL A   1      40.950  29.698  30.168  1.00  0.00     0.049 A 
ATOM     50  N   UNL A   1      42.018  27.077  29.128  1.00  0.00    -0.248 NA
ATOM     51  C   UNL A   1      40.017  26.786  27.962  1.00  0.00     0.031 C 
ATOM     52  C   UNL A   1      40.456  30.944  30.756  1.00  0.00     0.029 A 
ATOM     53  N   UNL A   1      42.225  29.579  30.664  1.00  0.00    -0.354 N 
ATOM     54  C   UNL A   1      42.044  25.859  28.464  1.00  0.00     0.074 A 
ATOM     55  C   UNL A   1      40.760  25.700  27.818  1.00  0.00     0.031 C 
ATOM     56  C   UNL A   1      41.422  31.486  31.516  1.00  0.00     0.029 A 
ATOM     57  C   UNL A   1      42.589  30.608  31.498  1.00  0.00     0.049 A 
ATOM     58  H   UNL A   1      42.821  28.828  30.443  1.00  0.00     0.167 HD
ATOM     59  C   UNL A   1      43.058  24.965  28.378  1.00  0.00     0.037 A 
ATOM     60  C   UNL A   1      43.733  30.816  32.177  1.00  0.00     0.037 A 
ATOM     61  C   UNL A   1      44.347  25.147  28.989  1.00  0.00     0.049 A 
ATOM     62  C   UNL A   1      44.851  29.815  32.052  1.00  0.00     0.074 A 
ATOM     63  C   UNL A   1      45.464  24.333  28.908  1.00  0.00     0.029 A 
ATOM     64  N   UNL A   1      44.692  26.222  29.796  1.00  0.00    -0.354 N 
ATOM     65  N   UNL A   1      44.890  28.699  31.366  1.00  0.00    -0.248 NA
ATOM     66  C   UNL A   1      46.086  30.106  32.792  1.00  0.00     0.031 C 
ATOM     67  C   UNL A   1      46.473  24.897  29.695  1.00  0.00     0.029 A 
ATOM     68  C   UNL A   1      46.000  26.086  30.230  1.00  0.00     0.049 A 
ATOM     69  H   UNL A   1      44.095  26.971  30.025  1.00  0.00     0.167 HD
ATOM     70  C   UNL A   1      46.158  28.171  31.565  1.00  0.00     0.074 A 
ATOM     71  C   UNL A   1      46.863  29.095  32.428  1.00  0.00     0.031 C 
ATOM     72  C   UNL A   1      46.690  27.025  31.077  1.00  0.00     0.037 A 
BRANCH  59  73
ATOM     73  C   UNL A   1      42.814  23.716  27.585  1.00  0.00     0.064 A 
ATOM     74  C   UNL A   1      42.219  22.584  28.162  1.00  0.00     0.173 A 
ATOM     75  C   UNL A   1      43.152  23.658  26.224  1.00  0.00     0.173 A 
ATOM     76  F   UNL A   1      41.889  22.583  29.462  1.00  0.00    -0.203 F 
ATOM     77  C   UNL A   1      41.999  21.429  27.415  1.00  0.00     0.198 A 
ATOM     78  C   UNL A   1      42.903  22.512  25.473  1.00  0.00     0.198 A 
ATOM     79  F   UNL A   1      43.719  24.713  25.622  1.00  0.00    -0.203 F 
ATOM     80  F   UNL A   1      41.477  20.343  28.002  1.00  0.00    -0.200 F 
ATOM     81  C   UNL A   1      42.335  21.398  26.070  1.00  0.00     0.200 A 
ATOM     82  F   UNL A   1      43.217  22.486  24.170  1.00  0.00    -0.200 F 
ATOM     83  F   UNL A   1      42.119  20.287  25.351  1.00  0.00    -0.200 F 
ENDBRANCH  59  73
BRANCH  60  84
ATOM     84  C   UNL A   1      43.894  32.035  33.011  1.00  0.00     0.064 A 
ATOM     85  C   UNL A   1      44.506  33.184  32.489  1.00  0.00     0.173 A 
ATOM     86  C   UNL A   1      43.452  32.078  34.340  1.00  0.00     0.173 A 
ATOM     87  F   UNL A   1      44.965  33.184  31.229  1.00  0.00    -0.203 F 
ATOM     88  C   UNL A   1      44.687  34.322  33.273  1.00  0.00     0.198 A 
ATOM     89  C   UNL A   1      43.611  33.225  35.115  1.00  0.00     0.198 A 
ATOM     90  F   UNL A   1      42.858  31.005  34.885  1.00  0.00    -0.203 F 
ATOM     91  F   UNL A   1      45.317  35.389  32.763  1.00  0.00    -0.200 F 
ATOM     92  C   UNL A   1      44.234  34.344  34.583  1.00  0.00     0.200 A 
ATOM     93  F   UNL A   1      43.161  33.247  36.378  1.00  0.00    -0.200 F 
ATOM     94  F   UNL A   1      44.409  35.438  35.337  1.00  0.00    -0.200 F 
ENDBRANCH  60  84
BRANCH  72  95
ATOM     95  C   UNL A   1      48.117  26.723  31.429  1.00  0.00     0.064 A 
ATOM     96  C   UNL A   1      49.185  27.292  30.723  1.00  0.00     0.173 A 
ATOM     97  C   UNL A   1      48.415  25.892  32.520  1.00  0.00     0.173 A 
ATOM     98  F   UNL A   1      48.950  28.080  29.663  1.00  0.00    -0.203 F 
ATOM     99  C   UNL A   1      50.503  27.024  31.084  1.00  0.00     0.198 A 
ATOM    100  C   UNL A   1      49.732  25.650  32.896  1.00  0.00     0.198 A 
ATOM    101  F   UNL A   1      47.427  25.329  33.232  1.00  0.00    -0.203 F 
ATOM    102  F   UNL A   1      51.510  27.546  30.370  1.00  0.00    -0.200 F 
ATOM    103  C   UNL A   1      50.775  26.211  32.174  1.00  0.00     0.200 A 
ATOM    104  F   UNL A   1      49.994  24.875  33.958  1.00  0.00    -0.200 F 
ATOM    105  F   UNL A   1      52.045  25.964  32.526  1.00  0.00    -0.200 F 
ENDBRANCH  72  95
ENDBRANCH  46  47
ENDBRANCH  38  41
ENDBRANCH  36  37
ENDBRANCH  35  36
ENDBRANCH  34  35
ENDBRANCH  33  34
ENDBRANCH  31  33
ENDBRANCH   1  29
TORSDOF 21
ENDMDL
MODEL 2
REMARK VINA RESULT:      -8.7      3.594      9.543
REMARK SMILES CCCCCCNC(=O)Oc1cccc(-c2ccc([C@@H](C)C(=O)NCCCCNC(=O)c3ccc(-c4c5nc(c(-c6c(F)c(F)c(F)c(F)c6F)c6ccc([nH]6)c(-c6c(F)c(F)c(F)c(F)c6F)c6nc(c(-c7c(F)c(F)c(F)c(F)c7F)c7ccc4[nH]7)C=C6)C=C5)cc3)cc2N)c1
REMARK SMILES IDX 20 1 21 2 19 3 16 4 17 5 96 6 18 7 95 8 15 9 11 10 12 11
REMARK SMILES IDX 98 12 13 13 14 14 10 15 8 16 7 17 9 19 6 20 5 21 4 22 3 23
REMARK SMILES IDX 2 24 1 25 97 26 22 29 23 30 24 31 25 33 26 34 27 35 28 36
REMARK SMILES IDX 29 37 30 38 31 40 32 41 33 42 94 43 34 44 93 45 35 46 36 47
REMARK SMILES IDX 37 48 87 49 38 50 92 51 86 52 88 53 39 54 91 55 85 56 84 57
REMARK SMILES IDX 40 59 72 60 52 61 71 62 53 63 56 64 70 65 89 66 54 67 55 68
REMARK SMILES IDX 69 70 90 71 57 72 41 73 42 74 50 75 43 76 44 77 48 78 51 79
REMARK SMILES IDX 45 80 46 81 49 82 47 83 73 84 74 85 82 86 75 87 76 88 80 89
REMARK SMILES IDX 83 90 77 91 78 92 81 93 79 94 58 95 59 96 67 97 60 98 61 99
REMARK SMILES IDX 65 100 68 101 62 102 63 103 66 104 64 105
REMARK H PARENT 7 18 97 27 97 28 24 32 29 39 88 58 56 69
REMARK Flexibility Score: inf
ROOT
ATOM      1  C   UNL A   1      42.149  25.502  27.570  1.00  0.00     0.105 C 
ATOM      2  C   UNL A   1      42.362  24.148  28.246  1.00  0.00     0.023 C 
ENDROOT
BRANCH   1   3
ATOM      3  C   UNL A   1      41.168  26.440  28.255  1.00  0.00    -0.034 A 
ATOM      4  C   UNL A   1      39.329  28.377  29.262  1.00  0.00     0.005 A 
ATOM      5  C   UNL A   1      38.934  27.061  28.959  1.00  0.00     0.011 A 
ATOM      6  C   UNL A   1      40.709  28.670  29.193  1.00  0.00     0.040 A 
ATOM      7  C   UNL A   1      39.845  26.096  28.521  1.00  0.00     0.005 A 
ATOM      8  C   UNL A   1      41.585  27.732  28.613  1.00  0.00     0.030 A 
BRANCH   4   9
ATOM      9  C   UNL A   1      38.288  29.378  29.614  1.00  0.00    -0.013 A 
ATOM     10  C   UNL A   1      37.052  31.423  29.137  1.00  0.00     0.133 A 
ATOM     11  C   UNL A   1      36.277  31.261  30.279  1.00  0.00     0.047 A 
ATOM     12  C   UNL A   1      38.037  30.494  28.794  1.00  0.00     0.056 A 
ATOM     13  C   UNL A   1      36.485  30.149  31.088  1.00  0.00     0.004 A 
ATOM     14  C   UNL A   1      37.488  29.228  30.764  1.00  0.00     0.009 A 
BRANCH  10  15
ATOM     15  O   UNL A   1      36.905  32.634  28.438  1.00  0.00    -0.410 OA
BRANCH  15  16
ATOM     16  C   UNL A   1      36.482  33.764  29.120  1.00  0.00     0.412 C 
ATOM     17  N   UNL A   1      37.517  34.578  29.494  1.00  0.00    -0.321 N 
ATOM     18  H   UNL A   1      37.279  35.392  29.994  1.00  0.00     0.167 HD
ATOM     19  O   UNL A   1      35.323  34.047  29.398  1.00  0.00    -0.224 OA
BRANCH  17  20
ATOM     20  C   UNL A   1      38.927  34.365  29.233  1.00  0.00     0.119 C 
BRANCH  20  21
ATOM     21  C   UNL A   1      39.725  34.152  30.520  1.00  0.00     0.021 C 
BRANCH  21  22
ATOM     22  C   UNL A   1      38.985  33.383  31.621  1.00  0.00     0.002 C 
BRANCH  22  23
ATOM     23  C   UNL A   1      39.638  32.068  32.063  1.00  0.00    -0.000 C 
BRANCH  23  24
ATOM     24  C   UNL A   1      39.225  31.561  33.447  1.00  0.00    -0.003 C 
ATOM     25  C   UNL A   1      39.427  30.064  33.626  1.00  0.00     0.004 C 
ENDBRANCH  23  24
ENDBRANCH  22  23
ENDBRANCH  21  22
ENDBRANCH  20  21
ENDBRANCH  17  20
ENDBRANCH  15  16
ENDBRANCH  10  15
ENDBRANCH   4   9
BRANCH   6  26
ATOM     26  N   UNL A   1      41.235  29.910  29.565  1.00  0.00    -0.398 N 
ATOM     27  H   UNL A   1      40.942  30.728  29.102  1.00  0.00     0.156 HD
ATOM     28  H   UNL A   1      41.899  29.967  30.290  1.00  0.00     0.156 HD
ENDBRANCH   6  26
ENDBRANCH   1   3
BRANCH   1  29
ATOM     29  C   UNL A   1      41.964  25.415  26.045  1.00  0.00     0.227 C 
ATOM     30  O   UNL A   1      41.504  26.381  25.423  1.00  0.00    -0.274 OA
ATOM     31  N   UNL A   1      42.303  24.328  25.296  1.00  0.00    -0.356 N 
ATOM     32  H   UNL A   1      42.193  24.456  24.327  1.00  0.00     0.163 HD
BRANCH  31  33
ATOM     33  C   UNL A   1      42.795  23.020  25.671  1.00  0.00     0.116 C 
BRANCH  33  34
ATOM     34  C   UNL A   1      44.258  22.821  25.273  1.00  0.00     0.023 C 
BRANCH  34  35
ATOM     35  C   UNL A   1      45.256  22.882  26.425  1.00  0.00     0.023 C 
BRANCH  35  36
ATOM     36  C   UNL A   1      45.984  24.212  26.580  1.00  0.00     0.116 C 
BRANCH  36  37
ATOM     37  N   UNL A   1      46.601  24.704  25.357  1.00  0.00    -0.352 N 
ATOM     38  C   UNL A   1      46.787  26.013  24.971  1.00  0.00     0.251 C 
ATOM     39  H   UNL A   1      46.926  24.018  24.730  1.00  0.00     0.163 HD
ATOM     40  O   UNL A   1      47.264  26.286  23.876  1.00  0.00    -0.269 OA
BRANCH  38  41
ATOM     41  C   UNL A   1      46.351  27.089  25.883  1.00  0.00     0.039 A 
ATOM     42  C   UNL A   1      44.993  27.407  25.953  1.00  0.00     0.014 A 
ATOM     43  C   UNL A   1      47.274  27.717  26.723  1.00  0.00     0.014 A 
ATOM     44  C   UNL A   1      44.547  28.299  26.930  1.00  0.00     0.010 A 
ATOM     45  C   UNL A   1      46.818  28.541  27.744  1.00  0.00     0.010 A 
ATOM     46  C   UNL A   1      45.451  28.837  27.862  1.00  0.00    -0.014 A 
BRANCH  46  47
ATOM     47  C   UNL A   1      44.994  29.713  28.968  1.00  0.00     0.031 A 
ATOM     48  C   UNL A   1      44.628  29.109  30.294  1.00  0.00     0.074 A 
ATOM     49  C   UNL A   1      44.826  31.033  28.754  1.00  0.00     0.049 A 
ATOM     50  N   UNL A   1      44.108  29.680  31.351  1.00  0.00    -0.248 NA
ATOM     51  C   UNL A   1      44.844  27.661  30.441  1.00  0.00     0.031 C 
ATOM     52  C   UNL A   1      45.092  31.728  27.494  1.00  0.00     0.029 A 
ATOM     53  N   UNL A   1      44.372  32.023  29.590  1.00  0.00    -0.354 N 
ATOM     54  C   UNL A   1      43.914  28.661  32.272  1.00  0.00     0.074 A 
ATOM     55  C   UNL A   1      44.321  27.428  31.633  1.00  0.00     0.031 C 
ATOM     56  C   UNL A   1      44.818  33.034  27.645  1.00  0.00     0.029 A 
ATOM     57  C   UNL A   1      44.322  33.262  28.999  1.00  0.00     0.049 A 
ATOM     58  H   UNL A   1      44.108  31.861  30.524  1.00  0.00     0.167 HD
ATOM     59  C   UNL A   1      43.461  28.747  33.546  1.00  0.00     0.037 A 
ATOM     60  C   UNL A   1      43.916  34.447  29.493  1.00  0.00     0.037 A 
ATOM     61  C   UNL A   1      43.095  29.981  34.189  1.00  0.00     0.049 A 
ATOM     62  C   UNL A   1      43.432  34.519  30.917  1.00  0.00     0.074 A 
ATOM     63  C   UNL A   1      42.688  30.185  35.496  1.00  0.00     0.029 A 
ATOM     64  N   UNL A   1      43.094  31.222  33.569  1.00  0.00    -0.354 N 
ATOM     65  N   UNL A   1      43.317  33.560  31.802  1.00  0.00    -0.248 NA
ATOM     66  C   UNL A   1      43.027  35.842  31.412  1.00  0.00     0.031 C 
ATOM     67  C   UNL A   1      42.406  31.545  35.657  1.00  0.00     0.029 A 
ATOM     68  C   UNL A   1      42.680  32.195  34.463  1.00  0.00     0.049 A 
ATOM     69  H   UNL A   1      43.351  31.387  32.633  1.00  0.00     0.167 HD
ATOM     70  C   UNL A   1      42.857  34.164  32.964  1.00  0.00     0.074 A 
ATOM     71  C   UNL A   1      42.725  35.577  32.676  1.00  0.00     0.031 C 
ATOM     72  C   UNL A   1      42.571  33.599  34.162  1.00  0.00     0.037 A 
BRANCH  59  73
ATOM     73  C   UNL A   1      43.349  27.473  34.328  1.00  0.00     0.064 A 
ATOM     74  C   UNL A   1      44.471  26.872  34.919  1.00  0.00     0.173 A 
ATOM     75  C   UNL A   1      42.101  26.859  34.515  1.00  0.00     0.173 A 
ATOM     76  F   UNL A   1      45.689  27.412  34.759  1.00  0.00    -0.203 F 
ATOM     77  C   UNL A   1      44.354  25.687  35.641  1.00  0.00     0.198 A 
ATOM     78  C   UNL A   1      41.983  25.690  35.264  1.00  0.00     0.198 A 
ATOM     79  F   UNL A   1      40.996  27.393  33.976  1.00  0.00    -0.203 F 
ATOM     80  F   UNL A   1      45.448  25.105  36.152  1.00  0.00    -0.200 F 
ATOM     81  C   UNL A   1      43.109  25.102  35.819  1.00  0.00     0.200 A 
ATOM     82  F   UNL A   1      40.778  25.131  35.445  1.00  0.00    -0.200 F 
ATOM     83  F   UNL A   1      42.997  23.964  36.518  1.00  0.00    -0.200 F 
ENDBRANCH  59  73
BRANCH  60  84
ATOM     84  C   UNL A   1      43.977  35.668  28.648  1.00  0.00     0.064 A 
ATOM     85  C   UNL A   1      45.170  36.395  28.525  1.00  0.00     0.173 A 
ATOM     86  C   UNL A   1      42.852  36.137  27.956  1.00  0.00     0.173 A 
ATOM     87  F   UNL A   1      46.266  35.997  29.186  1.00  0.00    -0.203 F 
ATOM     88  C   UNL A   1      45.229  37.557  27.758  1.00  0.00     0.198 A 
ATOM     89  C   UNL A   1      42.919  37.284  27.168  1.00  0.00     0.198 A 
ATOM     90  F   UNL A   1      41.688  35.475  28.038  1.00  0.00    -0.203 F 
ATOM     91  F   UNL A   1      46.369  38.257  27.696  1.00  0.00    -0.200 F 
ATOM     92  C   UNL A   1      44.105  37.997  27.075  1.00  0.00     0.200 A 
ATOM     93  F   UNL A   1      41.835  37.702  26.500  1.00  0.00    -0.200 F 
ATOM     94  F   UNL A   1      44.162  39.115  26.338  1.00  0.00    -0.200 F 
ENDBRANCH  60  84
BRANCH  72  95
ATOM     95  C   UNL A   1      42.125  34.513  35.265  1.00  0.00     0.064 A 
ATOM     96  C   UNL A   1      43.040  35.090  36.157  1.00  0.00     0.173 A 
ATOM     97  C   UNL A   1      40.770  34.853  35.398  1.00  0.00     0.173 A 
ATOM     98  F   UNL A   1      44.343  34.784  36.079  1.00  0.00    -0.203 F 
ATOM     99  C   UNL A   1      42.611  35.960  37.155  1.00  0.00     0.198 A 
ATOM    100  C   UNL A   1      40.349  35.745  36.379  1.00  0.00     0.198 A 
ATOM    101  F   UNL A   1      39.856  34.332  34.565  1.00  0.00    -0.203 F 
ATOM    102  F   UNL A   1      43.496  36.470  38.023  1.00  0.00    -0.200 F 
ATOM    103  C   UNL A   1      41.269  36.293  37.260  1.00  0.00     0.200 A 
ATOM    104  F   UNL A   1      39.054  36.077  36.471  1.00  0.00    -0.200 F 
ATOM    105  F   UNL A   1      40.860  37.140  38.216  1.00  0.00    -0.200 F 
ENDBRANCH  72  95
ENDBRANCH  46  47
ENDBRANCH  38  41
ENDBRANCH  36  37
ENDBRANCH  35  36
ENDBRANCH  34  35
ENDBRANCH  33  34
ENDBRANCH  31  33
ENDBRANCH   1  29
TORSDOF 21
ENDMDL
MODEL 3
REMARK VINA RESULT:      -8.6      4.835     11.898
REMARK SMILES CCCCCCNC(=O)Oc1cccc(-c2ccc([C@@H](C)C(=O)NCCCCNC(=O)c3ccc(-c4c5nc(c(-c6c(F)c(F)c(F)c(F)c6F)c6ccc([nH]6)c(-c6c(F)c(F)c(F)c(F)c6F)c6nc(c(-c7c(F)c(F)c(F)c(F)c7F)c7ccc4[nH]7)C=C6)C=C5)cc3)cc2N)c1
REMARK SMILES IDX 20 1 21 2 19 3 16 4 17 5 96 6 18 7 95 8 15 9 11 10 12 11
REMARK SMILES IDX 98 12 13 13 14 14 10 15 8 16 7 17 9 19 6 20 5 21 4 22 3 23
REMARK SMILES IDX 2 24 1 25 97 26 22 29 23 30 24 31 25 33 26 34 27 35 28 36
REMARK SMILES IDX 29 37 30 38 31 40 32 41 33 42 94 43 34 44 93 45 35 46 36 47
REMARK SMILES IDX 37 48 87 49 38 50 92 51 86 52 88 53 39 54 91 55 85 56 84 57
REMARK SMILES IDX 40 59 72 60 52 61 71 62 53 63 56 64 70 65 89 66 54 67 55 68
REMARK SMILES IDX 69 70 90 71 57 72 41 73 42 74 50 75 43 76 44 77 48 78 51 79
REMARK SMILES IDX 45 80 46 81 49 82 47 83 73 84 74 85 82 86 75 87 76 88 80 89
REMARK SMILES IDX 83 90 77 91 78 92 81 93 79 94 58 95 59 96 67 97 60 98 61 99
REMARK SMILES IDX 65 100 68 101 62 102 63 103 66 104 64 105
REMARK H PARENT 7 18 97 27 97 28 24 32 29 39 88 58 56 69
REMARK Flexibility Score: inf
ROOT
ATOM      1  C   UNL A   1      40.852  22.718  27.104  1.00  0.00     0.105 C 
ATOM      2  C   UNL A   1      41.022  23.746  28.222  1.00  0.00     0.023 C 
ENDROOT
BRANCH   1   3
ATOM      3  C   UNL A   1      39.549  22.794  26.324  1.00  0.00    -0.034 A 
ATOM      4  C   UNL A   1      36.965  22.769  25.110  1.00  0.00     0.005 A 
ATOM      5  C   UNL A   1      37.535  23.948  25.625  1.00  0.00     0.011 A 
ATOM      6  C   UNL A   1      37.783  21.617  25.077  1.00  0.00     0.040 A 
ATOM      7  C   UNL A   1      38.823  23.973  26.167  1.00  0.00     0.005 A 
ATOM      8  C   UNL A   1      39.015  21.626  25.757  1.00  0.00     0.030 A 
BRANCH   4   9
ATOM      9  C   UNL A   1      35.552  22.792  24.651  1.00  0.00    -0.013 A 
ATOM     10  C   UNL A   1      33.162  22.670  25.110  1.00  0.00     0.133 A 
ATOM     11  C   UNL A   1      32.860  22.876  23.769  1.00  0.00     0.047 A 
ATOM     12  C   UNL A   1      34.485  22.640  25.557  1.00  0.00     0.056 A 
ATOM     13  C   UNL A   1      33.897  23.061  22.861  1.00  0.00     0.004 A 
ATOM     14  C   UNL A   1      35.225  23.006  23.297  1.00  0.00     0.009 A 
BRANCH  10  15
ATOM     15  O   UNL A   1      32.090  22.341  25.958  1.00  0.00    -0.410 OA
BRANCH  15  16
ATOM     16  C   UNL A   1      31.977  22.973  27.186  1.00  0.00     0.412 C 
ATOM     17  N   UNL A   1      31.212  24.107  27.132  1.00  0.00    -0.321 N 
ATOM     18  H   UNL A   1      31.105  24.606  27.973  1.00  0.00     0.167 HD
ATOM     19  O   UNL A   1      32.495  22.609  28.235  1.00  0.00    -0.224 OA
BRANCH  17  20
ATOM     20  C   UNL A   1      30.544  24.648  25.965  1.00  0.00     0.119 C 
BRANCH  20  21
ATOM     21  C   UNL A   1      31.169  25.966  25.503  1.00  0.00     0.021 C 
BRANCH  21  22
ATOM     22  C   UNL A   1      32.495  26.325  26.183  1.00  0.00     0.002 C 
BRANCH  22  23
ATOM     23  C   UNL A   1      33.737  26.263  25.287  1.00  0.00    -0.000 C 
BRANCH  23  24
ATOM     24  C   UNL A   1      33.796  27.308  24.169  1.00  0.00    -0.003 C 
ATOM     25  C   UNL A   1      33.545  26.726  22.786  1.00  0.00     0.004 C 
ENDBRANCH  23  24
ENDBRANCH  22  23
ENDBRANCH  21  22
ENDBRANCH  20  21
ENDBRANCH  17  20
ENDBRANCH  15  16
ENDBRANCH  10  15
ENDBRANCH   4   9
BRANCH   6  26
ATOM     26  N   UNL A   1      37.365  20.414  24.500  1.00  0.00    -0.398 N 
ATOM     27  H   UNL A   1      38.023  19.817  24.076  1.00  0.00     0.156 HD
ATOM     28  H   UNL A   1      36.412  20.165  24.515  1.00  0.00     0.156 HD
ENDBRANCH   6  26
ENDBRANCH   1   3
BRANCH   1  29
ATOM     29  C   UNL A   1      41.254  21.288  27.506  1.00  0.00     0.227 C 
ATOM     30  O   UNL A   1      40.732  20.755  28.493  1.00  0.00    -0.274 OA
ATOM     31  N   UNL A   1      42.152  20.528  26.820  1.00  0.00    -0.356 N 
ATOM     32  H   UNL A   1      42.246  19.609  27.158  1.00  0.00     0.163 HD
BRANCH  31  33
ATOM     33  C   UNL A   1      42.994  20.830  25.682  1.00  0.00     0.116 C 
BRANCH  33  34
ATOM     34  C   UNL A   1      43.806  22.109  25.891  1.00  0.00     0.023 C 
BRANCH  34  35
ATOM     35  C   UNL A   1      43.536  23.220  24.880  1.00  0.00     0.023 C 
BRANCH  35  36
ATOM     36  C   UNL A   1      44.546  24.360  24.887  1.00  0.00     0.116 C 
BRANCH  36  37
ATOM     37  N   UNL A   1      45.817  24.032  25.516  1.00  0.00    -0.352 N 
ATOM     38  C   UNL A   1      46.291  24.459  26.736  1.00  0.00     0.251 C 
ATOM     39  H   UNL A   1      46.409  23.432  25.008  1.00  0.00     0.163 HD
ATOM     40  O   UNL A   1      47.416  24.157  27.117  1.00  0.00    -0.269 OA
BRANCH  38  41
ATOM     41  C   UNL A   1      45.437  25.336  27.561  1.00  0.00     0.039 A 
ATOM     42  C   UNL A   1      44.569  24.756  28.489  1.00  0.00     0.014 A 
ATOM     43  C   UNL A   1      45.560  26.725  27.472  1.00  0.00     0.014 A 
ATOM     44  C   UNL A   1      43.885  25.573  29.391  1.00  0.00     0.010 A 
ATOM     45  C   UNL A   1      44.940  27.528  28.421  1.00  0.00     0.010 A 
ATOM     46  C   UNL A   1      44.100  26.962  29.393  1.00  0.00    -0.014 A 
BRANCH  46  47
ATOM     47  C   UNL A   1      43.460  27.845  30.397  1.00  0.00     0.031 A 
ATOM     48  C   UNL A   1      44.080  27.998  31.758  1.00  0.00     0.074 A 
ATOM     49  C   UNL A   1      42.282  28.436  30.118  1.00  0.00     0.049 A 
ATOM     50  N   UNL A   1      43.626  28.631  32.810  1.00  0.00    -0.248 NA
ATOM     51  C   UNL A   1      45.366  27.318  31.976  1.00  0.00     0.031 C 
ATOM     52  C   UNL A   1      41.553  28.318  28.855  1.00  0.00     0.029 A 
ATOM     53  N   UNL A   1      41.482  29.242  30.889  1.00  0.00    -0.354 N 
ATOM     54  C   UNL A   1      44.557  28.405  33.814  1.00  0.00     0.074 A 
ATOM     55  C   UNL A   1      45.573  27.533  33.265  1.00  0.00     0.031 C 
ATOM     56  C   UNL A   1      40.424  29.042  28.929  1.00  0.00     0.029 A 
ATOM     57  C   UNL A   1      40.331  29.645  30.255  1.00  0.00     0.049 A 
ATOM     58  H   UNL A   1      41.710  29.507  31.809  1.00  0.00     0.167 HD
ATOM     59  C   UNL A   1      44.577  28.901  35.074  1.00  0.00     0.037 A 
ATOM     60  C   UNL A   1      39.314  30.408  30.698  1.00  0.00     0.037 A 
ATOM     61  C   UNL A   1      43.585  29.799  35.603  1.00  0.00     0.049 A 
ATOM     62  C   UNL A   1      39.369  30.960  32.098  1.00  0.00     0.074 A 
ATOM     63  C   UNL A   1      43.549  30.411  36.844  1.00  0.00     0.029 A 
ATOM     64  N   UNL A   1      42.453  30.215  34.917  1.00  0.00    -0.354 N 
ATOM     65  N   UNL A   1      40.287  30.796  33.017  1.00  0.00    -0.248 NA
ATOM     66  C   UNL A   1      38.245  31.809  32.518  1.00  0.00     0.031 C 
ATOM     67  C   UNL A   1      42.376  31.169  36.922  1.00  0.00     0.029 A 
ATOM     68  C   UNL A   1      41.705  31.065  35.713  1.00  0.00     0.049 A 
ATOM     69  H   UNL A   1      42.218  29.947  33.999  1.00  0.00     0.167 HD
ATOM     70  C   UNL A   1      39.871  31.542  34.111  1.00  0.00     0.074 A 
ATOM     71  C   UNL A   1      38.622  32.170  33.737  1.00  0.00     0.031 C 
ATOM     72  C   UNL A   1      40.471  31.693  35.317  1.00  0.00     0.037 A 
BRANCH  59  73
ATOM     73  C   UNL A   1      45.714  28.490  35.962  1.00  0.00     0.064 A 
ATOM     74  C   UNL A   1      45.637  27.348  36.773  1.00  0.00     0.173 A 
ATOM     75  C   UNL A   1      46.906  29.230  35.982  1.00  0.00     0.173 A 
ATOM     76  F   UNL A   1      44.514  26.613  36.801  1.00  0.00    -0.203 F 
ATOM     77  C   UNL A   1      46.698  26.978  37.595  1.00  0.00     0.198 A 
ATOM     78  C   UNL A   1      47.977  28.840  36.781  1.00  0.00     0.198 A 
ATOM     79  F   UNL A   1      47.034  30.327  35.223  1.00  0.00    -0.203 F 
ATOM     80  F   UNL A   1      46.581  25.913  38.399  1.00  0.00    -0.200 F 
ATOM     81  C   UNL A   1      47.870  27.720  37.592  1.00  0.00     0.200 A 
ATOM     82  F   UNL A   1      49.113  29.551  36.770  1.00  0.00    -0.200 F 
ATOM     83  F   UNL A   1      48.893  27.361  38.380  1.00  0.00    -0.200 F 
ENDBRANCH  59  73
BRANCH  60  84
ATOM     84  C   UNL A   1      38.173  30.722  29.800  1.00  0.00     0.064 A 
ATOM     85  C   UNL A   1      38.048  31.992  29.218  1.00  0.00     0.173 A 
ATOM     86  C   UNL A   1      37.184  29.771  29.511  1.00  0.00     0.173 A 
ATOM     87  F   UNL A   1      38.957  32.941  29.483  1.00  0.00    -0.203 F 
ATOM     88  C   UNL A   1      36.965  32.305  28.399  1.00  0.00     0.198 A 
ATOM     89  C   UNL A   1      36.116  30.077  28.670  1.00  0.00     0.198 A 
ATOM     90  F   UNL A   1      37.260  28.541  30.040  1.00  0.00    -0.203 F 
ATOM     91  F   UNL A   1      36.846  33.540  27.894  1.00  0.00    -0.200 F 
ATOM     92  C   UNL A   1      36.003  31.345  28.120  1.00  0.00     0.200 A 
ATOM     93  F   UNL A   1      35.194  29.144  28.393  1.00  0.00    -0.200 F 
ATOM     94  F   UNL A   1      34.962  31.646  27.332  1.00  0.00    -0.200 F 
ENDBRANCH  60  84
BRANCH  72  95
ATOM     95  C   UNL A   1      39.807  32.605  36.307  1.00  0.00     0.064 A 
ATOM     96  C   UNL A   1      38.779  32.155  37.147  1.00  0.00     0.173 A 
ATOM     97  C   UNL A   1      40.241  33.932  36.448  1.00  0.00     0.173 A 
ATOM     98  F   UNL A   1      38.320  30.899  37.039  1.00  0.00    -0.203 F 
ATOM     99  C   UNL A   1      38.196  33.007  38.081  1.00  0.00     0.198 A 
ATOM    100  C   UNL A   1      39.676  34.771  37.402  1.00  0.00     0.198 A 
ATOM    101  F   UNL A   1      41.227  34.408  35.672  1.00  0.00    -0.203 F 
ATOM    102  F   UNL A   1      37.187  32.569  38.846  1.00  0.00    -0.200 F 
ATOM    103  C   UNL A   1      38.650  34.311  38.213  1.00  0.00     0.200 A 
ATOM    104  F   UNL A   1      40.125  36.027  37.539  1.00  0.00    -0.200 F 
ATOM    105  F   UNL A   1      38.094  35.126  39.120  1.00  0.00    -0.200 F 
ENDBRANCH  72  95
ENDBRANCH  46  47
ENDBRANCH  38  41
ENDBRANCH  36  37
ENDBRANCH  35  36
ENDBRANCH  34  35
ENDBRANCH  33  34
ENDBRANCH  31  33
ENDBRANCH   1  29
TORSDOF 21
ENDMDL
