MODEL 1
REMARK VINA RESULT:     -10.3      0.000      0.000
REMARK SMILES CCOC(=O)c1ccc(NC(=O)[C@@H]2[C@H]3c4ccccc4[C@H](c4ccccc43)[C@@H]2C(=O)NCCCCNC(=O)c2ccc(-c3c4nc(c(-c5c(F)c(F)c(F)c(F)c5F)c5ccc([nH]5)c(-c5c(F)c(F)c(F)c(F)c5F)c5nc(c(-c6c(F)c(F)c(F)c(F)c6F)c6ccc3[nH]6)C=C5)C=C4)cc2)cc1
REMARK SMILES IDX 32 1 31 2 29 3 30 4 28 6 13 7 14 8 15 9 27 10 21 11 16 12
REMARK SMILES IDX 20 13 22 14 26 15 17 16 19 17 23 18 25 19 18 20 24 21 11 22
REMARK SMILES IDX 10 23 12 25 9 26 6 27 7 28 103 29 8 30 102 31 4 32 5 33 3 34
REMARK SMILES IDX 2 35 1 36 33 37 34 38 35 39 36 40 37 41 38 43 39 44 40 45
REMARK SMILES IDX 101 46 41 47 100 48 42 49 43 50 44 51 94 52 45 53 99 54
REMARK SMILES IDX 93 55 95 56 46 57 98 58 92 59 91 60 47 62 79 63 59 64 78 65
REMARK SMILES IDX 60 66 63 67 77 68 96 69 61 70 62 71 76 73 97 74 64 75 48 76
REMARK SMILES IDX 49 77 57 78 50 79 51 80 55 81 58 82 52 83 53 84 56 85 54 86
REMARK SMILES IDX 80 87 81 88 89 89 82 90 83 91 87 92 90 93 84 94 85 95 88 96
REMARK SMILES IDX 86 97 65 98 66 99 74 100 67 101 68 102 72 103 75 104 69 105
REMARK SMILES IDX 70 106 73 107 71 108
REMARK H PARENT 31 5 10 24 36 42 95 61 63 72
REMARK Flexibility Score: inf
ROOT
ATOM      1  C   UNL A   1      50.314  26.807  30.986  1.00  0.00     0.116 C 
ENDROOT
BRANCH   1   2
ATOM      2  N   UNL A   1      49.946  27.247  29.651  1.00  0.00    -0.356 N 
ATOM      3  C   UNL A   1      48.791  26.992  28.963  1.00  0.00     0.224 C 
ATOM      4  O   UNL A   1      48.552  27.647  27.951  1.00  0.00    -0.275 OA
ATOM      5  H   UNL A   1      50.613  27.797  29.181  1.00  0.00     0.163 HD
BRANCH   3   6
ATOM      6  C   UNL A   1      47.870  25.911  29.493  1.00  0.00     0.104 C 
ATOM      7  C   UNL A   1      47.068  25.134  28.407  1.00  0.00     0.104 C 
ATOM      8  C   UNL A   1      45.546  25.674  28.389  1.00  0.00     0.063 C 
ATOM      9  C   UNL A   1      45.024  25.110  29.729  1.00  0.00    -0.036 A 
ATOM     10  C   UNL A   1      45.452  27.201  28.570  1.00  0.00    -0.036 A 
ATOM     11  C   UNL A   1      46.865  26.567  30.471  1.00  0.00     0.063 C 
ATOM     12  C   UNL A   1      43.958  24.249  29.919  1.00  0.00     0.004 A 
ATOM     13  C   UNL A   1      45.819  25.521  30.832  1.00  0.00    -0.036 A 
ATOM     14  C   UNL A   1      46.172  27.675  29.692  1.00  0.00    -0.036 A 
ATOM     15  C   UNL A   1      44.617  28.083  27.893  1.00  0.00     0.004 A 
ATOM     16  C   UNL A   1      43.752  23.731  31.202  1.00  0.00     0.000 A 
ATOM     17  C   UNL A   1      45.643  24.975  32.090  1.00  0.00     0.004 A 
ATOM     18  C   UNL A   1      46.193  29.023  30.042  1.00  0.00     0.004 A 
ATOM     19  C   UNL A   1      44.595  29.436  28.275  1.00  0.00     0.000 A 
ATOM     20  C   UNL A   1      44.606  24.063  32.267  1.00  0.00     0.000 A 
ATOM     21  C   UNL A   1      45.404  29.909  29.317  1.00  0.00     0.000 A 
BRANCH   7  22
ATOM     22  C   UNL A   1      47.674  24.740  27.051  1.00  0.00     0.229 C 
ATOM     23  N   UNL A   1      46.916  24.752  25.881  1.00  0.00    -0.326 N 
ATOM     24  H   UNL A   1      47.156  25.412  25.190  1.00  0.00     0.169 HD
ATOM     25  O   UNL A   1      48.902  24.722  26.902  1.00  0.00    -0.274 OA
BRANCH  23  26
ATOM     26  C   UNL A   1      45.829  23.888  25.610  1.00  0.00     0.041 A 
ATOM     27  C   UNL A   1      43.655  22.113  25.465  1.00  0.00     0.060 A 
ATOM     28  C   UNL A   1      43.489  23.466  25.128  1.00  0.00     0.018 A 
ATOM     29  C   UNL A   1      44.945  21.628  25.697  1.00  0.00     0.018 A 
ATOM     30  C   UNL A   1      44.579  24.356  25.200  1.00  0.00     0.027 A 
ATOM     31  C   UNL A   1      46.030  22.510  25.746  1.00  0.00     0.027 A 
BRANCH  27  32
ATOM     32  C   UNL A   1      42.454  21.237  25.640  1.00  0.00     0.338 C 
ATOM     33  O   UNL A   1      42.477  20.027  25.587  1.00  0.00    -0.246 OA
BRANCH  32  34
ATOM     34  O   UNL A   1      41.342  22.018  25.757  1.00  0.00    -0.462 OA
BRANCH  34  35
ATOM     35  C   UNL A   1      40.592  21.937  26.985  1.00  0.00     0.230 C 
ATOM     36  C   UNL A   1      41.468  22.104  28.212  1.00  0.00     0.049 C 
ENDBRANCH  34  35
ENDBRANCH  32  34
ENDBRANCH  27  32
ENDBRANCH  23  26
ENDBRANCH   7  22
ENDBRANCH   3   6
ENDBRANCH   1   2
BRANCH   1  37
ATOM     37  C   UNL A   1      50.434  25.302  31.168  1.00  0.00     0.023 C 
BRANCH  37  38
ATOM     38  C   UNL A   1      50.121  24.816  32.578  1.00  0.00     0.023 C 
BRANCH  38  39
ATOM     39  C   UNL A   1      48.836  25.362  33.193  1.00  0.00     0.116 C 
BRANCH  39  40
ATOM     40  N   UNL A   1      49.023  25.744  34.576  1.00  0.00    -0.352 N 
ATOM     41  C   UNL A   1      48.380  26.702  35.320  1.00  0.00     0.251 C 
ATOM     42  H   UNL A   1      49.717  25.239  35.058  1.00  0.00     0.163 HD
ATOM     43  O   UNL A   1      48.865  27.040  36.398  1.00  0.00    -0.269 OA
BRANCH  41  44
ATOM     44  C   UNL A   1      47.126  27.348  34.854  1.00  0.00     0.039 A 
ATOM     45  C   UNL A   1      47.232  28.454  34.004  1.00  0.00     0.014 A 
ATOM     46  C   UNL A   1      45.862  26.955  35.303  1.00  0.00     0.014 A 
ATOM     47  C   UNL A   1      46.085  29.142  33.593  1.00  0.00     0.010 A 
ATOM     48  C   UNL A   1      44.712  27.583  34.818  1.00  0.00     0.010 A 
ATOM     49  C   UNL A   1      44.807  28.702  33.978  1.00  0.00    -0.014 A 
BRANCH  49  50
ATOM     50  C   UNL A   1      43.583  29.431  33.535  1.00  0.00     0.031 A 
ATOM     51  C   UNL A   1      42.771  28.933  32.366  1.00  0.00     0.074 A 
ATOM     52  C   UNL A   1      43.207  30.561  34.166  1.00  0.00     0.049 A 
ATOM     53  N   UNL A   1      41.688  29.443  31.831  1.00  0.00    -0.248 NA
ATOM     54  C   UNL A   1      43.253  27.718  31.692  1.00  0.00     0.031 C 
ATOM     55  C   UNL A   1      43.919  31.182  35.282  1.00  0.00     0.029 A 
ATOM     56  N   UNL A   1      42.132  31.391  33.956  1.00  0.00    -0.354 N 
ATOM     57  C   UNL A   1      41.374  28.623  30.752  1.00  0.00     0.074 A 
ATOM     58  C   UNL A   1      42.410  27.618  30.674  1.00  0.00     0.031 C 
ATOM     59  C   UNL A   1      43.254  32.280  35.672  1.00  0.00     0.029 A 
ATOM     60  C   UNL A   1      42.088  32.464  34.813  1.00  0.00     0.049 A 
ATOM     61  H   UNL A   1      41.458  31.232  33.256  1.00  0.00     0.167 HD
ATOM     62  C   UNL A   1      40.308  28.687  29.916  1.00  0.00     0.037 A 
ATOM     63  C   UNL A   1      41.214  33.486  34.895  1.00  0.00     0.037 A 
ATOM     64  C   UNL A   1      39.258  29.669  30.009  1.00  0.00     0.049 A 
ATOM     65  C   UNL A   1      40.035  33.534  33.961  1.00  0.00     0.074 A 
ATOM     66  C   UNL A   1      38.097  29.763  29.260  1.00  0.00     0.029 A 
ATOM     67  N   UNL A   1      39.243  30.730  30.901  1.00  0.00    -0.354 N 
ATOM     68  N   UNL A   1      39.706  32.704  33.002  1.00  0.00    -0.248 NA
ATOM     69  C   UNL A   1      39.099  34.653  34.132  1.00  0.00     0.031 C 
ATOM     70  C   UNL A   1      37.414  30.919  29.653  1.00  0.00     0.029 A 
ATOM     71  C   UNL A   1      38.112  31.506  30.695  1.00  0.00     0.049 A 
ATOM     72  H   UNL A   1      39.934  30.909  31.579  1.00  0.00     0.167 HD
ATOM     73  C   UNL A   1      38.515  33.185  32.472  1.00  0.00     0.074 A 
ATOM     74  C   UNL A   1      38.169  34.369  33.230  1.00  0.00     0.031 C 
ATOM     75  C   UNL A   1      37.774  32.686  31.451  1.00  0.00     0.037 A 
BRANCH  62  76
ATOM     76  C   UNL A   1      40.227  27.667  28.812  1.00  0.00     0.064 A 
ATOM     77  C   UNL A   1      40.879  27.849  27.583  1.00  0.00     0.173 A 
ATOM     78  C   UNL A   1      39.510  26.475  29.001  1.00  0.00     0.173 A 
ATOM     79  F   UNL A   1      41.573  28.972  27.347  1.00  0.00    -0.203 F 
ATOM     80  C   UNL A   1      40.782  26.897  26.571  1.00  0.00     0.198 A 
ATOM     81  C   UNL A   1      39.446  25.509  27.999  1.00  0.00     0.198 A 
ATOM     82  F   UNL A   1      38.876  26.241  30.160  1.00  0.00    -0.203 F 
ATOM     83  F   UNL A   1      41.363  27.123  25.384  1.00  0.00    -0.200 F 
ATOM     84  C   UNL A   1      40.071  25.726  26.782  1.00  0.00     0.200 A 
ATOM     85  F   UNL A   1      38.773  24.369  28.212  1.00  0.00    -0.200 F 
ATOM     86  F   UNL A   1      39.983  24.809  25.808  1.00  0.00    -0.200 F 
ENDBRANCH  62  76
BRANCH  63  87
ATOM     87  C   UNL A   1      41.418  34.545  35.920  1.00  0.00     0.064 A 
ATOM     88  C   UNL A   1      40.792  34.473  37.172  1.00  0.00     0.173 A 
ATOM     89  C   UNL A   1      42.247  35.648  35.668  1.00  0.00     0.173 A 
ATOM     90  F   UNL A   1      39.972  33.449  37.454  1.00  0.00    -0.203 F 
ATOM     91  C   UNL A   1      40.973  35.472  38.127  1.00  0.00     0.198 A 
ATOM     92  C   UNL A   1      42.453  36.630  36.634  1.00  0.00     0.198 A 
ATOM     93  F   UNL A   1      42.874  35.761  34.488  1.00  0.00    -0.203 F 
ATOM     94  F   UNL A   1      40.328  35.401  39.299  1.00  0.00    -0.200 F 
ATOM     95  C   UNL A   1      41.810  36.545  37.860  1.00  0.00     0.200 A 
ATOM     96  F   UNL A   1      43.276  37.657  36.378  1.00  0.00    -0.200 F 
ATOM     97  F   UNL A   1      41.991  37.501  38.781  1.00  0.00    -0.200 F 
ENDBRANCH  63  87
BRANCH  75  98
ATOM     98  C   UNL A   1      36.496  33.400  31.110  1.00  0.00     0.064 A 
ATOM     99  C   UNL A   1      36.319  34.055  29.881  1.00  0.00     0.173 A 
ATOM    100  C   UNL A   1      35.419  33.399  32.011  1.00  0.00     0.173 A 
ATOM    101  F   UNL A   1      37.319  34.099  28.989  1.00  0.00    -0.203 F 
ATOM    102  C   UNL A   1      35.124  34.707  29.582  1.00  0.00     0.198 A 
ATOM    103  C   UNL A   1      34.215  34.022  31.694  1.00  0.00     0.198 A 
ATOM    104  F   UNL A   1      35.531  32.782  33.197  1.00  0.00    -0.203 F 
ATOM    105  F   UNL A   1      34.998  35.371  28.425  1.00  0.00    -0.200 F 
ATOM    106  C   UNL A   1      34.071  34.683  30.484  1.00  0.00     0.200 A 
ATOM    107  F   UNL A   1      33.193  33.983  32.562  1.00  0.00    -0.200 F 
ATOM    108  F   UNL A   1      32.921  35.304  30.192  1.00  0.00    -0.200 F 
ENDBRANCH  75  98
ENDBRANCH  49  50
ENDBRANCH  41  44
ENDBRANCH  39  40
ENDBRANCH  38  39
ENDBRANCH  37  38
ENDBRANCH   1  37
TORSDOF 16
ENDMDL
MODEL 2
REMARK VINA RESULT:     -10.2      4.369     13.631
REMARK SMILES CCOC(=O)c1ccc(NC(=O)[C@@H]2[C@H]3c4ccccc4[C@H](c4ccccc43)[C@@H]2C(=O)NCCCCNC(=O)c2ccc(-c3c4nc(c(-c5c(F)c(F)c(F)c(F)c5F)c5ccc([nH]5)c(-c5c(F)c(F)c(F)c(F)c5F)c5nc(c(-c6c(F)c(F)c(F)c(F)c6F)c6ccc3[nH]6)C=C5)C=C4)cc2)cc1
REMARK SMILES IDX 32 1 31 2 29 3 30 4 28 6 13 7 14 8 15 9 27 10 21 11 16 12
REMARK SMILES IDX 20 13 22 14 26 15 17 16 19 17 23 18 25 19 18 20 24 21 11 22
REMARK SMILES IDX 10 23 12 25 9 26 6 27 7 28 103 29 8 30 102 31 4 32 5 33 3 34
REMARK SMILES IDX 2 35 1 36 33 37 34 38 35 39 36 40 37 41 38 43 39 44 40 45
REMARK SMILES IDX 101 46 41 47 100 48 42 49 43 50 44 51 94 52 45 53 99 54
REMARK SMILES IDX 93 55 95 56 46 57 98 58 92 59 91 60 47 62 79 63 59 64 78 65
REMARK SMILES IDX 60 66 63 67 77 68 96 69 61 70 62 71 76 73 97 74 64 75 48 76
REMARK SMILES IDX 49 77 57 78 50 79 51 80 55 81 58 82 52 83 53 84 56 85 54 86
REMARK SMILES IDX 80 87 81 88 89 89 82 90 83 91 87 92 90 93 84 94 85 95 88 96
REMARK SMILES IDX 86 97 65 98 66 99 74 100 67 101 68 102 72 103 75 104 69 105
REMARK SMILES IDX 70 106 73 107 71 108
REMARK H PARENT 31 5 10 24 36 42 95 61 63 72
REMARK Flexibility Score: inf
ROOT
ATOM      1  C   UNL A   1      35.046  32.210  31.935  1.00  0.00     0.116 C 
ENDROOT
BRANCH   1   2
ATOM      2  N   UNL A   1      35.395  33.213  32.928  1.00  0.00    -0.356 N 
ATOM      3  C   UNL A   1      36.442  33.205  33.809  1.00  0.00     0.224 C 
ATOM      4  O   UNL A   1      36.722  34.245  34.399  1.00  0.00    -0.275 OA
ATOM      5  H   UNL A   1      34.803  33.997  32.972  1.00  0.00     0.163 HD
BRANCH   3   6
ATOM      6  C   UNL A   1      37.197  31.906  34.005  1.00  0.00     0.104 C 
ATOM      7  C   UNL A   1      38.224  31.908  35.177  1.00  0.00     0.104 C 
ATOM      8  C   UNL A   1      39.714  32.060  34.572  1.00  0.00     0.063 C 
ATOM      9  C   UNL A   1      39.897  30.680  33.903  1.00  0.00    -0.036 A 
ATOM     10  C   UNL A   1      39.781  33.053  33.395  1.00  0.00    -0.036 A 
ATOM     11  C   UNL A   1      37.950  31.580  32.692  1.00  0.00     0.063 C 
ATOM     12  C   UNL A   1      40.876  29.741  34.172  1.00  0.00     0.004 A 
ATOM     13  C   UNL A   1      38.868  30.396  32.966  1.00  0.00    -0.036 A 
ATOM     14  C   UNL A   1      38.822  32.790  32.388  1.00  0.00    -0.036 A 
ATOM     15  C   UNL A   1      40.764  34.004  33.147  1.00  0.00     0.004 A 
ATOM     16  C   UNL A   1      40.767  28.486  33.565  1.00  0.00     0.000 A 
ATOM     17  C   UNL A   1      38.735  29.140  32.401  1.00  0.00     0.004 A 
ATOM     18  C   UNL A   1      38.736  33.558  31.230  1.00  0.00     0.004 A 
ATOM     19  C   UNL A   1      40.712  34.749  31.955  1.00  0.00     0.000 A 
ATOM     20  C   UNL A   1      39.689  28.177  32.718  1.00  0.00     0.000 A 
ATOM     21  C   UNL A   1      39.685  34.552  31.021  1.00  0.00     0.000 A 
BRANCH   7  22
ATOM     22  C   UNL A   1      37.951  32.606  36.517  1.00  0.00     0.229 C 
ATOM     23  N   UNL A   1      38.243  33.956  36.711  1.00  0.00    -0.326 N 
ATOM     24  H   UNL A   1      37.485  34.570  36.850  1.00  0.00     0.169 HD
ATOM     25  O   UNL A   1      37.178  32.096  37.338  1.00  0.00    -0.274 OA
BRANCH  23  26
ATOM     26  C   UNL A   1      39.545  34.510  36.724  1.00  0.00     0.041 A 
ATOM     27  C   UNL A   1      41.978  35.892  36.985  1.00  0.00     0.060 A 
ATOM     28  C   UNL A   1      41.831  34.607  37.531  1.00  0.00     0.018 A 
ATOM     29  C   UNL A   1      40.967  36.397  36.162  1.00  0.00     0.018 A 
ATOM     30  C   UNL A   1      40.611  33.913  37.399  1.00  0.00     0.027 A 
ATOM     31  C   UNL A   1      39.765  35.696  36.014  1.00  0.00     0.027 A 
BRANCH  27  32
ATOM     32  C   UNL A   1      43.169  36.723  37.349  1.00  0.00     0.338 C 
ATOM     33  O   UNL A   1      43.982  37.138  36.552  1.00  0.00    -0.246 OA
BRANCH  32  34
ATOM     34  O   UNL A   1      43.239  36.837  38.706  1.00  0.00    -0.462 OA
BRANCH  34  35
ATOM     35  C   UNL A   1      42.332  37.753  39.349  1.00  0.00     0.230 C 
ATOM     36  C   UNL A   1      42.943  39.126  39.558  1.00  0.00     0.049 C 
ENDBRANCH  34  35
ENDBRANCH  32  34
ENDBRANCH  27  32
ENDBRANCH  23  26
ENDBRANCH   7  22
ENDBRANCH   3   6
ENDBRANCH   1   2
BRANCH   1  37
ATOM     37  C   UNL A   1      34.544  32.754  30.607  1.00  0.00     0.023 C 
BRANCH  37  38
ATOM     38  C   UNL A   1      35.649  33.117  29.622  1.00  0.00     0.023 C 
BRANCH  38  39
ATOM     39  C   UNL A   1      35.364  32.783  28.160  1.00  0.00     0.116 C 
BRANCH  39  40
ATOM     40  N   UNL A   1      34.571  31.579  28.029  1.00  0.00    -0.352 N 
ATOM     41  C   UNL A   1      34.967  30.276  27.863  1.00  0.00     0.251 C 
ATOM     42  H   UNL A   1      33.596  31.717  28.066  1.00  0.00     0.163 HD
ATOM     43  O   UNL A   1      34.133  29.442  27.517  1.00  0.00    -0.269 OA
BRANCH  41  44
ATOM     44  C   UNL A   1      36.375  29.850  28.076  1.00  0.00     0.039 A 
ATOM     45  C   UNL A   1      36.717  29.304  29.318  1.00  0.00     0.014 A 
ATOM     46  C   UNL A   1      37.378  30.060  27.126  1.00  0.00     0.014 A 
ATOM     47  C   UNL A   1      38.043  28.951  29.593  1.00  0.00     0.010 A 
ATOM     48  C   UNL A   1      38.683  29.622  27.367  1.00  0.00     0.010 A 
ATOM     49  C   UNL A   1      39.040  29.086  28.614  1.00  0.00    -0.014 A 
BRANCH  49  50
ATOM     50  C   UNL A   1      40.453  28.705  28.905  1.00  0.00     0.031 A 
ATOM     51  C   UNL A   1      41.366  29.647  29.649  1.00  0.00     0.074 A 
ATOM     52  C   UNL A   1      40.932  27.519  28.480  1.00  0.00     0.049 A 
ATOM     53  N   UNL A   1      42.626  29.493  29.979  1.00  0.00    -0.248 NA
ATOM     54  C   UNL A   1      40.799  30.942  30.052  1.00  0.00     0.031 C 
ATOM     55  C   UNL A   1      40.177  26.530  27.713  1.00  0.00     0.029 A 
ATOM     56  N   UNL A   1      42.172  26.947  28.630  1.00  0.00    -0.354 N 
ATOM     57  C   UNL A   1      43.002  30.675  30.609  1.00  0.00     0.074 A 
ATOM     58  C   UNL A   1      41.856  31.556  30.565  1.00  0.00     0.031 C 
ATOM     59  C   UNL A   1      40.959  25.466  27.477  1.00  0.00     0.029 A 
ATOM     60  C   UNL A   1      42.283  25.709  28.044  1.00  0.00     0.049 A 
ATOM     61  H   UNL A   1      42.912  27.383  29.111  1.00  0.00     0.167 HD
ATOM     62  C   UNL A   1      44.185  30.989  31.191  1.00  0.00     0.037 A 
ATOM     63  C   UNL A   1      43.331  24.867  27.963  1.00  0.00     0.037 A 
ATOM     64  C   UNL A   1      45.319  30.103  31.265  1.00  0.00     0.049 A 
ATOM     65  C   UNL A   1      44.633  25.234  28.622  1.00  0.00     0.074 A 
ATOM     66  C   UNL A   1      46.530  30.303  31.906  1.00  0.00     0.029 A 
ATOM     67  N   UNL A   1      45.385  28.852  30.671  1.00  0.00    -0.354 N 
ATOM     68  N   UNL A   1      44.946  26.319  29.288  1.00  0.00    -0.248 NA
ATOM     69  C   UNL A   1      45.722  24.252  28.531  1.00  0.00     0.031 C 
ATOM     70  C   UNL A   1      47.352  29.202  31.644  1.00  0.00     0.029 A 
ATOM     71  C   UNL A   1      46.629  28.284  30.900  1.00  0.00     0.049 A 
ATOM     72  H   UNL A   1      44.657  28.429  30.160  1.00  0.00     0.167 HD
ATOM     73  C   UNL A   1      46.256  26.140  29.715  1.00  0.00     0.074 A 
ATOM     74  C   UNL A   1      46.673  24.835  29.249  1.00  0.00     0.031 C 
ATOM     75  C   UNL A   1      47.040  26.984  30.431  1.00  0.00     0.037 A 
BRANCH  62  76
ATOM     76  C   UNL A   1      44.322  32.362  31.793  1.00  0.00     0.064 A 
ATOM     77  C   UNL A   1      44.664  33.482  31.018  1.00  0.00     0.173 A 
ATOM     78  C   UNL A   1      44.077  32.565  33.160  1.00  0.00     0.173 A 
ATOM     79  F   UNL A   1      44.915  33.345  29.708  1.00  0.00    -0.203 F 
ATOM     80  C   UNL A   1      44.795  34.743  31.597  1.00  0.00     0.198 A 
ATOM     81  C   UNL A   1      44.173  33.833  33.727  1.00  0.00     0.198 A 
ATOM     82  F   UNL A   1      43.735  31.534  33.947  1.00  0.00    -0.203 F 
ATOM     83  F   UNL A   1      45.182  35.784  30.847  1.00  0.00    -0.200 F 
ATOM     84  C   UNL A   1      44.544  34.918  32.948  1.00  0.00     0.200 A 
ATOM     85  F   UNL A   1      43.912  34.004  35.031  1.00  0.00    -0.200 F 
ATOM     86  F   UNL A   1      44.665  36.132  33.502  1.00  0.00    -0.200 F 
ENDBRANCH  62  76
BRANCH  63  87
ATOM     87  C   UNL A   1      43.182  23.577  27.237  1.00  0.00     0.064 A 
ATOM     88  C   UNL A   1      43.668  23.419  25.932  1.00  0.00     0.173 A 
ATOM     89  C   UNL A   1      42.554  22.475  27.837  1.00  0.00     0.173 A 
ATOM     90  F   UNL A   1      44.257  24.449  25.307  1.00  0.00    -0.203 F 
ATOM     91  C   UNL A   1      43.516  22.214  25.248  1.00  0.00     0.198 A 
ATOM     92  C   UNL A   1      42.431  21.262  27.164  1.00  0.00     0.198 A 
ATOM     93  F   UNL A   1      42.077  22.573  29.086  1.00  0.00    -0.203 F 
ATOM     94  F   UNL A   1      43.950  22.104  23.984  1.00  0.00    -0.200 F 
ATOM     95  C   UNL A   1      42.905  21.135  25.867  1.00  0.00     0.200 A 
ATOM     96  F   UNL A   1      41.855  20.216  27.773  1.00  0.00    -0.200 F 
ATOM     97  F   UNL A   1      42.768  19.973  25.212  1.00  0.00    -0.200 F 
ENDBRANCH  63  87
BRANCH  75  98
ATOM     98  C   UNL A   1      48.423  26.511  30.786  1.00  0.00     0.064 A 
ATOM     99  C   UNL A   1      48.672  25.751  31.938  1.00  0.00     0.173 A 
ATOM    100  C   UNL A   1      49.508  26.792  29.941  1.00  0.00     0.173 A 
ATOM    101  F   UNL A   1      47.674  25.465  32.788  1.00  0.00    -0.203 F 
ATOM    102  C   UNL A   1      49.960  25.319  32.248  1.00  0.00     0.198 A 
ATOM    103  C   UNL A   1      50.787  26.329  30.234  1.00  0.00     0.198 A 
ATOM    104  F   UNL A   1      49.325  27.509  28.821  1.00  0.00    -0.203 F 
ATOM    105  F   UNL A   1      50.183  24.641  33.382  1.00  0.00    -0.200 F 
ATOM    106  C   UNL A   1      51.015  25.601  31.391  1.00  0.00     0.200 A 
ATOM    107  F   UNL A   1      51.802  26.589  29.397  1.00  0.00    -0.200 F 
ATOM    108  F   UNL A   1      52.251  25.178  31.687  1.00  0.00    -0.200 F 
ENDBRANCH  75  98
ENDBRANCH  49  50
ENDBRANCH  41  44
ENDBRANCH  39  40
ENDBRANCH  38  39
ENDBRANCH  37  38
ENDBRANCH   1  37
TORSDOF 16
ENDMDL
MODEL 3
REMARK VINA RESULT:     -10.1      4.378     13.515
REMARK SMILES CCOC(=O)c1ccc(NC(=O)[C@@H]2[C@H]3c4ccccc4[C@H](c4ccccc43)[C@@H]2C(=O)NCCCCNC(=O)c2ccc(-c3c4nc(c(-c5c(F)c(F)c(F)c(F)c5F)c5ccc([nH]5)c(-c5c(F)c(F)c(F)c(F)c5F)c5nc(c(-c6c(F)c(F)c(F)c(F)c6F)c6ccc3[nH]6)C=C5)C=C4)cc2)cc1
REMARK SMILES IDX 32 1 31 2 29 3 30 4 28 6 13 7 14 8 15 9 27 10 21 11 16 12
REMARK SMILES IDX 20 13 22 14 26 15 17 16 19 17 23 18 25 19 18 20 24 21 11 22
REMARK SMILES IDX 10 23 12 25 9 26 6 27 7 28 103 29 8 30 102 31 4 32 5 33 3 34
REMARK SMILES IDX 2 35 1 36 33 37 34 38 35 39 36 40 37 41 38 43 39 44 40 45
REMARK SMILES IDX 101 46 41 47 100 48 42 49 43 50 44 51 94 52 45 53 99 54
REMARK SMILES IDX 93 55 95 56 46 57 98 58 92 59 91 60 47 62 79 63 59 64 78 65
REMARK SMILES IDX 60 66 63 67 77 68 96 69 61 70 62 71 76 73 97 74 64 75 48 76
REMARK SMILES IDX 49 77 57 78 50 79 51 80 55 81 58 82 52 83 53 84 56 85 54 86
REMARK SMILES IDX 80 87 81 88 89 89 82 90 83 91 87 92 90 93 84 94 85 95 88 96
REMARK SMILES IDX 86 97 65 98 66 99 74 100 67 101 68 102 72 103 75 104 69 105
REMARK SMILES IDX 70 106 73 107 71 108
REMARK H PARENT 31 5 10 24 36 42 95 61 63 72
REMARK Flexibility Score: inf
ROOT
ATOM      1  C   UNL A   1      35.151  32.118  32.091  1.00  0.00     0.116 C 
ENDROOT
BRANCH   1   2
ATOM      2  N   UNL A   1      35.450  33.078  33.141  1.00  0.00    -0.356 N 
ATOM      3  C   UNL A   1      36.476  33.053  34.046  1.00  0.00     0.224 C 
ATOM      4  O   UNL A   1      36.713  34.069  34.694  1.00  0.00    -0.275 OA
ATOM      5  H   UNL A   1      34.835  33.844  33.210  1.00  0.00     0.163 HD
BRANCH   3   6
ATOM      6  C   UNL A   1      37.262  31.766  34.194  1.00  0.00     0.104 C 
ATOM      7  C   UNL A   1      38.322  31.766  35.336  1.00  0.00     0.104 C 
ATOM      8  C   UNL A   1      39.791  31.961  34.691  1.00  0.00     0.063 C 
ATOM      9  C   UNL A   1      39.982  30.598  33.991  1.00  0.00    -0.036 A 
ATOM     10  C   UNL A   1      39.804  32.977  33.533  1.00  0.00    -0.036 A 
ATOM     11  C   UNL A   1      37.983  31.481  32.854  1.00  0.00     0.063 C 
ATOM     12  C   UNL A   1      40.987  29.674  34.212  1.00  0.00     0.004 A 
ATOM     13  C   UNL A   1      38.932  30.311  33.077  1.00  0.00    -0.036 A 
ATOM     14  C   UNL A   1      38.822  32.714  32.549  1.00  0.00    -0.036 A 
ATOM     15  C   UNL A   1      40.760  33.953  33.276  1.00  0.00     0.004 A 
ATOM     16  C   UNL A   1      40.885  28.429  33.584  1.00  0.00     0.000 A 
ATOM     17  C   UNL A   1      38.807  29.064  32.492  1.00  0.00     0.004 A 
ATOM     18  C   UNL A   1      38.687  33.503  31.410  1.00  0.00     0.004 A 
ATOM     19  C   UNL A   1      40.658  34.720  32.101  1.00  0.00     0.000 A 
ATOM     20  C   UNL A   1      39.789  28.115  32.762  1.00  0.00     0.000 A 
ATOM     21  C   UNL A   1      39.609  34.520  31.194  1.00  0.00     0.000 A 
BRANCH   7  22
ATOM     22  C   UNL A   1      38.074  32.433  36.697  1.00  0.00     0.229 C 
ATOM     23  N   UNL A   1      38.290  33.796  36.893  1.00  0.00    -0.326 N 
ATOM     24  H   UNL A   1      37.503  34.359  37.078  1.00  0.00     0.169 HD
ATOM     25  O   UNL A   1      37.378  31.866  37.549  1.00  0.00    -0.274 OA
BRANCH  23  26
ATOM     26  C   UNL A   1      39.553  34.433  36.847  1.00  0.00     0.041 A 
ATOM     27  C   UNL A   1      41.900  35.972  36.991  1.00  0.00     0.060 A 
ATOM     28  C   UNL A   1      41.855  34.693  37.570  1.00  0.00     0.018 A 
ATOM     29  C   UNL A   1      40.831  36.392  36.194  1.00  0.00     0.018 A 
ATOM     30  C   UNL A   1      40.678  33.921  37.497  1.00  0.00     0.027 A 
ATOM     31  C   UNL A   1      39.672  35.612  36.104  1.00  0.00     0.027 A 
BRANCH  27  32
ATOM     32  C   UNL A   1      43.047  36.886  37.294  1.00  0.00     0.338 C 
ATOM     33  O   UNL A   1      43.698  37.466  36.454  1.00  0.00    -0.246 OA
BRANCH  32  34
ATOM     34  O   UNL A   1      43.294  36.866  38.635  1.00  0.00    -0.462 OA
BRANCH  34  35
ATOM     35  C   UNL A   1      44.661  36.707  39.062  1.00  0.00     0.230 C 
ATOM     36  C   UNL A   1      45.243  35.365  38.661  1.00  0.00     0.049 C 
ENDBRANCH  34  35
ENDBRANCH  32  34
ENDBRANCH  27  32
ENDBRANCH  23  26
ENDBRANCH   7  22
ENDBRANCH   3   6
ENDBRANCH   1   2
BRANCH   1  37
ATOM     37  C   UNL A   1      34.623  32.713  30.795  1.00  0.00     0.023 C 
BRANCH  37  38
ATOM     38  C   UNL A   1      35.698  32.992  29.751  1.00  0.00     0.023 C 
BRANCH  38  39
ATOM     39  C   UNL A   1      35.276  32.783  28.299  1.00  0.00     0.116 C 
BRANCH  39  40
ATOM     40  N   UNL A   1      34.491  31.578  28.137  1.00  0.00    -0.352 N 
ATOM     41  C   UNL A   1      34.896  30.282  27.939  1.00  0.00     0.251 C 
ATOM     42  H   UNL A   1      33.516  31.708  28.175  1.00  0.00     0.163 HD
ATOM     43  O   UNL A   1      34.068  29.452  27.571  1.00  0.00    -0.269 OA
BRANCH  41  44
ATOM     44  C   UNL A   1      36.306  29.860  28.144  1.00  0.00     0.039 A 
ATOM     45  C   UNL A   1      36.658  29.323  29.387  1.00  0.00     0.014 A 
ATOM     46  C   UNL A   1      37.302  30.064  27.185  1.00  0.00     0.014 A 
ATOM     47  C   UNL A   1      37.987  28.974  29.655  1.00  0.00     0.010 A 
ATOM     48  C   UNL A   1      38.610  29.630  27.419  1.00  0.00     0.010 A 
ATOM     49  C   UNL A   1      38.977  29.104  28.666  1.00  0.00    -0.014 A 
BRANCH  49  50
ATOM     50  C   UNL A   1      40.392  28.727  28.950  1.00  0.00     0.031 A 
ATOM     51  C   UNL A   1      41.308  29.673  29.685  1.00  0.00     0.074 A 
ATOM     52  C   UNL A   1      40.871  27.541  28.525  1.00  0.00     0.049 A 
ATOM     53  N   UNL A   1      42.570  29.523  30.007  1.00  0.00    -0.248 NA
ATOM     54  C   UNL A   1      40.741  30.969  30.087  1.00  0.00     0.031 C 
ATOM     55  C   UNL A   1      40.113  26.547  27.767  1.00  0.00     0.029 A 
ATOM     56  N   UNL A   1      42.113  26.972  28.669  1.00  0.00    -0.354 N 
ATOM     57  C   UNL A   1      42.948  30.708  30.630  1.00  0.00     0.074 A 
ATOM     58  C   UNL A   1      41.800  31.586  30.591  1.00  0.00     0.031 C 
ATOM     59  C   UNL A   1      40.896  25.484  27.530  1.00  0.00     0.029 A 
ATOM     60  C   UNL A   1      42.223  25.732  28.087  1.00  0.00     0.049 A 
ATOM     61  H   UNL A   1      42.855  27.411  29.144  1.00  0.00     0.167 HD
ATOM     62  C   UNL A   1      44.134  31.027  31.204  1.00  0.00     0.037 A 
ATOM     63  C   UNL A   1      43.273  24.892  28.002  1.00  0.00     0.037 A 
ATOM     64  C   UNL A   1      45.270  30.144  31.273  1.00  0.00     0.049 A 
ATOM     65  C   UNL A   1      44.578  25.264  28.651  1.00  0.00     0.074 A 
ATOM     66  C   UNL A   1      46.485  30.349  31.905  1.00  0.00     0.029 A 
ATOM     67  N   UNL A   1      45.335  28.891  30.682  1.00  0.00    -0.354 N 
ATOM     68  N   UNL A   1      44.893  26.352  29.311  1.00  0.00    -0.248 NA
ATOM     69  C   UNL A   1      45.669  24.285  28.556  1.00  0.00     0.031 C 
ATOM     70  C   UNL A   1      47.308  29.248  31.641  1.00  0.00     0.029 A 
ATOM     71  C   UNL A   1      46.582  28.327  30.905  1.00  0.00     0.049 A 
ATOM     72  H   UNL A   1      44.605  28.464  30.178  1.00  0.00     0.167 HD
ATOM     73  C   UNL A   1      46.206  26.178  29.729  1.00  0.00     0.074 A 
ATOM     74  C   UNL A   1      46.623  24.872  29.266  1.00  0.00     0.031 C 
ATOM     75  C   UNL A   1      46.993  27.026  30.437  1.00  0.00     0.037 A 
BRANCH  62  76
ATOM     76  C   UNL A   1      44.272  32.403  31.799  1.00  0.00     0.064 A 
ATOM     77  C   UNL A   1      44.032  32.650  33.160  1.00  0.00     0.173 A 
ATOM     78  C   UNL A   1      44.680  33.483  31.001  1.00  0.00     0.173 A 
ATOM     79  F   UNL A   1      43.633  31.656  33.967  1.00  0.00    -0.203 F 
ATOM     80  C   UNL A   1      44.155  33.934  33.689  1.00  0.00     0.198 A 
ATOM     81  C   UNL A   1      44.837  34.757  31.542  1.00  0.00     0.198 A 
ATOM     82  F   UNL A   1      44.935  33.303  29.697  1.00  0.00    -0.203 F 
ATOM     83  F   UNL A   1      43.860  34.156  34.977  1.00  0.00    -0.200 F 
ATOM     84  C   UNL A   1      44.563  34.984  32.881  1.00  0.00     0.200 A 
ATOM     85  F   UNL A   1      45.249  35.767  30.763  1.00  0.00    -0.200 F 
ATOM     86  F   UNL A   1      44.685  36.216  33.393  1.00  0.00    -0.200 F 
ENDBRANCH  62  76
BRANCH  63  87
ATOM     87  C   UNL A   1      43.122  23.599  27.281  1.00  0.00     0.064 A 
ATOM     88  C   UNL A   1      42.495  22.501  27.886  1.00  0.00     0.173 A 
ATOM     89  C   UNL A   1      43.596  23.439  25.971  1.00  0.00     0.173 A 
ATOM     90  F   UNL A   1      42.043  22.596  29.145  1.00  0.00    -0.203 F 
ATOM     91  C   UNL A   1      42.365  21.286  27.214  1.00  0.00     0.198 A 
ATOM     92  C   UNL A   1      43.438  22.235  25.289  1.00  0.00     0.198 A 
ATOM     93  F   UNL A   1      44.197  24.462  25.346  1.00  0.00    -0.203 F 
ATOM     94  F   UNL A   1      41.803  20.238  27.832  1.00  0.00    -0.200 F 
ATOM     95  C   UNL A   1      42.830  21.157  25.914  1.00  0.00     0.200 A 
ATOM     96  F   UNL A   1      43.873  22.121  24.026  1.00  0.00    -0.200 F 
ATOM     97  F   UNL A   1      42.696  19.992  25.265  1.00  0.00    -0.200 F 
ENDBRANCH  63  87
BRANCH  75  98
ATOM     98  C   UNL A   1      48.379  26.558  30.785  1.00  0.00     0.064 A 
ATOM     99  C   UNL A   1      49.488  26.867  29.983  1.00  0.00     0.173 A 
ATOM    100  C   UNL A   1      48.606  25.818  31.956  1.00  0.00     0.173 A 
ATOM    101  F   UNL A   1      49.327  27.559  28.845  1.00  0.00    -0.203 F 
ATOM    102  C   UNL A   1      50.765  26.428  30.325  1.00  0.00     0.198 A 
ATOM    103  C   UNL A   1      49.888  25.411  32.313  1.00  0.00     0.198 A 
ATOM    104  F   UNL A   1      47.583  25.500  32.764  1.00  0.00    -0.203 F 
ATOM    105  F   UNL A   1      51.801  26.689  29.515  1.00  0.00    -0.200 F 
ATOM    106  C   UNL A   1      50.966  25.707  31.493  1.00  0.00     0.200 A 
ATOM    107  F   UNL A   1      50.081  24.728  33.451  1.00  0.00    -0.200 F 
ATOM    108  F   UNL A   1      52.195  25.292  31.824  1.00  0.00    -0.200 F 
ENDBRANCH  75  98
ENDBRANCH  49  50
ENDBRANCH  41  44
ENDBRANCH  39  40
ENDBRANCH  38  39
ENDBRANCH  37  38
ENDBRANCH   1  37
TORSDOF 16
ENDMDL
