MODEL 1
REMARK VINA RESULT:     -13.7      0.000      0.000
REMARK SMILES Cc1nc(-c2ccccc2Cl)sc1C(=O)NC[C@H]1CC[C@@H](C(=O)NCCCCNC(=O)c2ccc(-c3c4nc(c(-c5c(F)c(F)c(F)c(F)c5F)c5ccc([nH]5)c(-c5c(F)c(F)c(F)c(F)c5F)c5nc(c(-c6c(F)c(F)c(F)c(F)c6F)c6ccc3[nH]6)C=C5)C=C4)cc2)CC1
REMARK SMILES IDX 25 1 24 2 22 3 23 4 21 6 18 7 19 8 96 9 20 10 95 11 17 12
REMARK SMILES IDX 16 13 14 14 15 15 13 17 1 18 2 19 3 20 4 21 12 22 5 23 6 24
REMARK SMILES IDX 10 25 7 26 9 27 11 28 8 29 26 30 27 31 28 32 29 33 30 34
REMARK SMILES IDX 31 36 32 37 33 38 94 39 34 40 93 41 35 42 36 43 37 44 87 45
REMARK SMILES IDX 38 46 92 47 86 48 88 49 39 50 91 51 85 52 84 53 40 55 72 56
REMARK SMILES IDX 52 57 71 58 53 59 56 60 70 61 89 62 54 63 55 64 69 66 90 67
REMARK SMILES IDX 57 68 41 69 42 70 50 71 43 72 44 73 48 74 51 75 45 76 46 77
REMARK SMILES IDX 49 78 47 79 73 80 74 81 82 82 75 83 76 84 80 85 83 86 77 87
REMARK SMILES IDX 78 88 81 89 79 90 58 91 59 92 67 93 60 94 61 95 65 96 68 97
REMARK SMILES IDX 62 98 63 99 66 100 64 101
REMARK H PARENT 24 5 16 16 29 35 88 54 56 65
REMARK Flexibility Score: inf
ROOT
ATOM      1  C   UNL A   1      36.117  21.174  24.792  1.00  0.00     0.116 C 
ENDROOT
BRANCH   1   2
ATOM      2  N   UNL A   1      35.548  22.188  23.939  1.00  0.00    -0.356 N 
ATOM      3  C   UNL A   1      35.149  23.465  24.152  1.00  0.00     0.223 C 
ATOM      4  O   UNL A   1      34.880  24.106  23.127  1.00  0.00    -0.275 OA
ATOM      5  H   UNL A   1      35.424  21.890  23.009  1.00  0.00     0.163 HD
BRANCH   3   6
ATOM      6  C   UNL A   1      34.986  24.150  25.519  1.00  0.00     0.078 C 
ATOM      7  C   UNL A   1      32.231  24.664  26.681  1.00  0.00     0.008 C 
ATOM      8  C   UNL A   1      32.956  23.317  26.894  1.00  0.00     0.006 C 
ATOM      9  C   UNL A   1      32.900  25.632  25.686  1.00  0.00     0.006 C 
ATOM     10  C   UNL A   1      34.464  23.318  26.684  1.00  0.00     0.014 C 
ATOM     11  C   UNL A   1      34.403  25.549  25.503  1.00  0.00     0.014 C 
BRANCH   7  12
ATOM     12  C   UNL A   1      30.748  24.410  26.274  1.00  0.00     0.119 C 
BRANCH  12  13
ATOM     13  N   UNL A   1      30.608  23.707  25.027  1.00  0.00    -0.351 N 
ATOM     14  C   UNL A   1      30.669  24.040  23.698  1.00  0.00     0.263 C 
ATOM     15  O   UNL A   1      30.750  23.026  22.990  1.00  0.00    -0.268 OA
ATOM     16  H   UNL A   1      30.425  22.749  25.161  1.00  0.00     0.163 HD
BRANCH  14  17
ATOM     17  C   UNL A   1      30.611  25.385  23.121  1.00  0.00     0.115 A 
ATOM     18  C   UNL A   1      32.472  25.923  21.340  1.00  0.00     0.068 C 
ATOM     19  C   UNL A   1      31.302  26.178  22.204  1.00  0.00     0.062 A 
ATOM     20  N   UNL A   1      30.858  27.489  22.090  1.00  0.00    -0.240 NA
ATOM     21  C   UNL A   1      29.896  27.743  22.937  1.00  0.00     0.125 A 
ATOM     22  S   UNL A   1      29.313  26.383  23.771  1.00  0.00    -0.108 S 
BRANCH  21  23
ATOM     23  C   UNL A   1      29.316  29.075  23.091  1.00  0.00     0.029 A 
ATOM     24  C   UNL A   1      28.197  29.394  22.300  1.00  0.00     0.013 A 
ATOM     25  C   UNL A   1      29.889  30.086  23.880  1.00  0.00     0.051 A 
ATOM     26  C   UNL A   1      27.655  30.680  22.304  1.00  0.00     0.001 A 
ATOM     27  C   UNL A   1      29.340  31.373  23.884  1.00  0.00     0.021 A 
ATOM     28  Cl  UNL A   1      31.325  29.846  24.816  1.00  0.00    -0.084 Cl
ATOM     29  C   UNL A   1      28.227  31.669  23.097  1.00  0.00     0.002 A 
ENDBRANCH  21  23
ENDBRANCH  14  17
ENDBRANCH  12  13
ENDBRANCH   7  12
ENDBRANCH   3   6
ENDBRANCH   1   2
BRANCH   1  30
ATOM     30  C   UNL A   1      37.564  21.456  25.198  1.00  0.00     0.023 C 
BRANCH  30  31
ATOM     31  C   UNL A   1      38.510  20.264  25.093  1.00  0.00     0.023 C 
BRANCH  31  32
ATOM     32  C   UNL A   1      39.655  20.247  26.101  1.00  0.00     0.116 C 
BRANCH  32  33
ATOM     33  N   UNL A   1      40.559  19.110  25.991  1.00  0.00    -0.352 N 
ATOM     34  C   UNL A   1      41.935  19.111  26.120  1.00  0.00     0.251 C 
ATOM     35  H   UNL A   1      40.141  18.239  25.804  1.00  0.00     0.163 HD
ATOM     36  O   UNL A   1      42.581  18.085  25.967  1.00  0.00    -0.269 OA
BRANCH  34  37
ATOM     37  C   UNL A   1      42.616  20.398  26.382  1.00  0.00     0.039 A 
ATOM     38  C   UNL A   1      43.106  21.134  25.300  1.00  0.00     0.014 A 
ATOM     39  C   UNL A   1      42.650  20.926  27.674  1.00  0.00     0.014 A 
ATOM     40  C   UNL A   1      43.526  22.451  25.502  1.00  0.00     0.010 A 
ATOM     41  C   UNL A   1      42.987  22.263  27.857  1.00  0.00     0.010 A 
ATOM     42  C   UNL A   1      43.411  23.043  26.770  1.00  0.00    -0.014 A 
BRANCH  42  43
ATOM     43  C   UNL A   1      43.700  24.486  26.982  1.00  0.00     0.031 A 
ATOM     44  C   UNL A   1      45.078  25.023  26.720  1.00  0.00     0.074 A 
ATOM     45  C   UNL A   1      42.751  25.290  27.502  1.00  0.00     0.049 A 
ATOM     46  N   UNL A   1      45.558  26.220  26.944  1.00  0.00    -0.248 NA
ATOM     47  C   UNL A   1      46.060  24.076  26.169  1.00  0.00     0.031 C 
ATOM     48  C   UNL A   1      41.394  24.877  27.865  1.00  0.00     0.029 A 
ATOM     49  N   UNL A   1      42.788  26.622  27.829  1.00  0.00    -0.354 N 
ATOM     50  C   UNL A   1      46.897  26.161  26.586  1.00  0.00     0.074 A 
ATOM     51  C   UNL A   1      47.169  24.799  26.182  1.00  0.00     0.031 C 
ATOM     52  C   UNL A   1      40.720  25.939  28.335  1.00  0.00     0.029 A 
ATOM     53  C   UNL A   1      41.605  27.099  28.341  1.00  0.00     0.049 A 
ATOM     54  H   UNL A   1      43.587  27.185  27.708  1.00  0.00     0.167 HD
ATOM     55  C   UNL A   1      47.813  27.159  26.568  1.00  0.00     0.037 A 
ATOM     56  C   UNL A   1      41.274  28.334  28.766  1.00  0.00     0.037 A 
ATOM     57  C   UNL A   1      47.531  28.523  26.927  1.00  0.00     0.049 A 
ATOM     58  C   UNL A   1      42.299  29.433  28.704  1.00  0.00     0.074 A 
ATOM     59  C   UNL A   1      48.372  29.622  26.876  1.00  0.00     0.029 A 
ATOM     60  N   UNL A   1      46.307  28.977  27.396  1.00  0.00    -0.354 N 
ATOM     61  N   UNL A   1      43.544  29.381  28.299  1.00  0.00    -0.248 NA
ATOM     62  C   UNL A   1      41.870  30.766  29.152  1.00  0.00     0.031 C 
ATOM     63  C   UNL A   1      47.664  30.736  27.342  1.00  0.00     0.029 A 
ATOM     64  C   UNL A   1      46.373  30.337  27.647  1.00  0.00     0.049 A 
ATOM     65  H   UNL A   1      45.510  28.415  27.530  1.00  0.00     0.167 HD
ATOM     66  C   UNL A   1      44.038  30.672  28.416  1.00  0.00     0.074 A 
ATOM     67  C   UNL A   1      42.954  31.491  28.919  1.00  0.00     0.031 C 
ATOM     68  C   UNL A   1      45.279  31.138  28.134  1.00  0.00     0.037 A 
BRANCH  55  69
ATOM     69  C   UNL A   1      49.204  26.808  26.132  1.00  0.00     0.064 A 
ATOM     70  C   UNL A   1      49.614  26.956  24.798  1.00  0.00     0.173 A 
ATOM     71  C   UNL A   1      50.145  26.333  27.059  1.00  0.00     0.173 A 
ATOM     72  F   UNL A   1      48.746  27.392  23.872  1.00  0.00    -0.203 F 
ATOM     73  C   UNL A   1      50.902  26.610  24.401  1.00  0.00     0.198 A 
ATOM     74  C   UNL A   1      51.442  26.017  26.664  1.00  0.00     0.198 A 
ATOM     75  F   UNL A   1      49.806  26.177  28.347  1.00  0.00    -0.203 F 
ATOM     76  F   UNL A   1      51.252  26.708  23.111  1.00  0.00    -0.200 F 
ATOM     77  C   UNL A   1      51.817  26.147  25.335  1.00  0.00     0.200 A 
ATOM     78  F   UNL A   1      52.328  25.578  27.568  1.00  0.00    -0.200 F 
ATOM     79  F   UNL A   1      53.057  25.815  24.951  1.00  0.00    -0.200 F 
ENDBRANCH  55  69
BRANCH  56  80
ATOM     80  C   UNL A   1      39.896  28.610  29.247  1.00  0.00     0.064 A 
ATOM     81  C   UNL A   1      39.547  28.380  30.585  1.00  0.00     0.173 A 
ATOM     82  C   UNL A   1      38.903  29.100  28.387  1.00  0.00     0.173 A 
ATOM     83  F   UNL A   1      40.459  27.892  31.439  1.00  0.00    -0.203 F 
ATOM     84  C   UNL A   1      38.251  28.610  31.041  1.00  0.00     0.198 A 
ATOM     85  C   UNL A   1      37.613  29.353  28.851  1.00  0.00     0.198 A 
ATOM     86  F   UNL A   1      39.188  29.340  27.099  1.00  0.00    -0.203 F 
ATOM     87  F   UNL A   1      37.933  28.343  32.315  1.00  0.00    -0.200 F 
ATOM     88  C   UNL A   1      37.285  29.101  30.175  1.00  0.00     0.200 A 
ATOM     89  F   UNL A   1      36.686  29.838  28.014  1.00  0.00    -0.200 F 
ATOM     90  F   UNL A   1      36.040  29.325  30.615  1.00  0.00    -0.200 F 
ENDBRANCH  56  80
BRANCH  68  91
ATOM     91  C   UNL A   1      45.521  32.605  28.324  1.00  0.00     0.064 A 
ATOM     92  C   UNL A   1      46.029  33.115  29.528  1.00  0.00     0.173 A 
ATOM     93  C   UNL A   1      45.283  33.505  27.275  1.00  0.00     0.173 A 
ATOM     94  F   UNL A   1      46.257  32.295  30.565  1.00  0.00    -0.203 F 
ATOM     95  C   UNL A   1      46.270  34.477  29.680  1.00  0.00     0.198 A 
ATOM     96  C   UNL A   1      45.549  34.863  27.422  1.00  0.00     0.198 A 
ATOM     97  F   UNL A   1      44.801  33.064  26.102  1.00  0.00    -0.203 F 
ATOM     98  F   UNL A   1      46.718  34.949  30.852  1.00  0.00    -0.200 F 
ATOM     99  C   UNL A   1      46.037  35.348  28.626  1.00  0.00     0.200 A 
ATOM    100  F   UNL A   1      45.334  35.702  26.400  1.00  0.00    -0.200 F 
ATOM    101  F   UNL A   1      46.277  36.658  28.773  1.00  0.00    -0.200 F 
ENDBRANCH  68  91
ENDBRANCH  42  43
ENDBRANCH  34  37
ENDBRANCH  32  33
ENDBRANCH  31  32
ENDBRANCH  30  31
ENDBRANCH   1  30
TORSDOF 15
ENDMDL
MODEL 2
REMARK VINA RESULT:     -13.6      1.748      2.985
REMARK SMILES Cc1nc(-c2ccccc2Cl)sc1C(=O)NC[C@H]1CC[C@@H](C(=O)NCCCCNC(=O)c2ccc(-c3c4nc(c(-c5c(F)c(F)c(F)c(F)c5F)c5ccc([nH]5)c(-c5c(F)c(F)c(F)c(F)c5F)c5nc(c(-c6c(F)c(F)c(F)c(F)c6F)c6ccc3[nH]6)C=C5)C=C4)cc2)CC1
REMARK SMILES IDX 25 1 24 2 22 3 23 4 21 6 18 7 19 8 96 9 20 10 95 11 17 12
REMARK SMILES IDX 16 13 14 14 15 15 13 17 1 18 2 19 3 20 4 21 12 22 5 23 6 24
REMARK SMILES IDX 10 25 7 26 9 27 11 28 8 29 26 30 27 31 28 32 29 33 30 34
REMARK SMILES IDX 31 36 32 37 33 38 94 39 34 40 93 41 35 42 36 43 37 44 87 45
REMARK SMILES IDX 38 46 92 47 86 48 88 49 39 50 91 51 85 52 84 53 40 55 72 56
REMARK SMILES IDX 52 57 71 58 53 59 56 60 70 61 89 62 54 63 55 64 69 66 90 67
REMARK SMILES IDX 57 68 41 69 42 70 50 71 43 72 44 73 48 74 51 75 45 76 46 77
REMARK SMILES IDX 49 78 47 79 73 80 74 81 82 82 75 83 76 84 80 85 83 86 77 87
REMARK SMILES IDX 78 88 81 89 79 90 58 91 59 92 67 93 60 94 61 95 65 96 68 97
REMARK SMILES IDX 62 98 63 99 66 100 64 101
REMARK H PARENT 24 5 16 16 29 35 88 54 56 65
REMARK Flexibility Score: inf
ROOT
ATOM      1  C   UNL A   1      39.737  22.563  26.642  1.00  0.00     0.116 C 
ENDROOT
BRANCH   1   2
ATOM      2  N   UNL A   1      38.739  21.656  26.130  1.00  0.00    -0.356 N 
ATOM      3  C   UNL A   1      37.711  21.801  25.259  1.00  0.00     0.223 C 
ATOM      4  O   UNL A   1      37.172  20.743  24.908  1.00  0.00    -0.275 OA
ATOM      5  H   UNL A   1      38.823  20.743  26.486  1.00  0.00     0.163 HD
BRANCH   3   6
ATOM      6  C   UNL A   1      37.164  23.130  24.712  1.00  0.00     0.078 C 
ATOM      7  C   UNL A   1      34.181  23.552  24.349  1.00  0.00     0.008 C 
ATOM      8  C   UNL A   1      34.876  23.830  25.701  1.00  0.00     0.006 C 
ATOM      9  C   UNL A   1      35.053  22.863  23.281  1.00  0.00     0.006 C 
ATOM     10  C   UNL A   1      36.384  24.033  25.660  1.00  0.00     0.014 C 
ATOM     11  C   UNL A   1      36.552  23.083  23.326  1.00  0.00     0.014 C 
BRANCH   7  12
ATOM     12  C   UNL A   1      32.871  22.741  24.583  1.00  0.00     0.119 C 
BRANCH  12  13
ATOM     13  N   UNL A   1      32.160  23.130  25.771  1.00  0.00    -0.351 N 
ATOM     14  C   UNL A   1      31.426  24.220  26.165  1.00  0.00     0.263 C 
ATOM     15  O   UNL A   1      30.783  23.972  27.195  1.00  0.00    -0.268 OA
ATOM     16  H   UNL A   1      32.212  22.445  26.476  1.00  0.00     0.163 HD
BRANCH  14  17
ATOM     17  C   UNL A   1      31.388  25.538  25.527  1.00  0.00     0.115 A 
ATOM     18  C   UNL A   1      33.118  27.287  26.461  1.00  0.00     0.068 C 
ATOM     19  C   UNL A   1      32.019  26.779  25.614  1.00  0.00     0.062 A 
ATOM     20  N   UNL A   1      31.508  27.772  24.790  1.00  0.00    -0.240 NA
ATOM     21  C   UNL A   1      30.465  27.351  24.125  1.00  0.00     0.125 A 
ATOM     22  S   UNL A   1      30.157  25.687  24.275  1.00  0.00    -0.108 S 
BRANCH  21  23
ATOM     23  C   UNL A   1      29.679  28.226  23.258  1.00  0.00     0.029 A 
ATOM     24  C   UNL A   1      30.361  29.250  22.575  1.00  0.00     0.013 A 
ATOM     25  C   UNL A   1      28.278  28.184  23.176  1.00  0.00     0.051 A 
ATOM     26  C   UNL A   1      29.669  30.197  21.819  1.00  0.00     0.001 A 
ATOM     27  C   UNL A   1      27.588  29.134  22.414  1.00  0.00     0.021 A 
ATOM     28  Cl  UNL A   1      27.319  27.039  24.052  1.00  0.00    -0.084 Cl
ATOM     29  C   UNL A   1      28.282  30.138  21.739  1.00  0.00     0.002 A 
ENDBRANCH  21  23
ENDBRANCH  14  17
ENDBRANCH  12  13
ENDBRANCH   7  12
ENDBRANCH   3   6
ENDBRANCH   1   2
BRANCH   1  30
ATOM     30  C   UNL A   1      41.160  22.005  26.584  1.00  0.00     0.023 C 
BRANCH  30  31
ATOM     31  C   UNL A   1      41.266  20.552  26.133  1.00  0.00     0.023 C 
BRANCH  31  32
ATOM     32  C   UNL A   1      42.563  19.842  26.513  1.00  0.00     0.116 C 
BRANCH  32  33
ATOM     33  N   UNL A   1      43.224  19.136  25.424  1.00  0.00    -0.352 N 
ATOM     34  C   UNL A   1      44.244  19.598  24.615  1.00  0.00     0.251 C 
ATOM     35  H   UNL A   1      42.907  18.221  25.244  1.00  0.00     0.163 HD
ATOM     36  O   UNL A   1      44.687  18.910  23.707  1.00  0.00    -0.269 OA
BRANCH  34  37
ATOM     37  C   UNL A   1      44.744  20.974  24.829  1.00  0.00     0.039 A 
ATOM     38  C   UNL A   1      44.313  21.989  23.972  1.00  0.00     0.014 A 
ATOM     39  C   UNL A   1      45.526  21.272  25.947  1.00  0.00     0.014 A 
ATOM     40  C   UNL A   1      44.572  23.321  24.303  1.00  0.00     0.010 A 
ATOM     41  C   UNL A   1      45.709  22.600  26.318  1.00  0.00     0.010 A 
ATOM     42  C   UNL A   1      45.218  23.637  25.509  1.00  0.00    -0.014 A 
BRANCH  42  43
ATOM     43  C   UNL A   1      45.369  25.044  25.964  1.00  0.00     0.031 A 
ATOM     44  C   UNL A   1      46.712  25.714  25.904  1.00  0.00     0.074 A 
ATOM     45  C   UNL A   1      44.321  25.684  26.521  1.00  0.00     0.049 A 
ATOM     46  N   UNL A   1      47.072  26.892  26.348  1.00  0.00    -0.248 NA
ATOM     47  C   UNL A   1      47.807  24.941  25.297  1.00  0.00     0.031 C 
ATOM     48  C   UNL A   1      42.981  25.122  26.701  1.00  0.00     0.029 A 
ATOM     49  N   UNL A   1      44.222  26.946  27.051  1.00  0.00    -0.354 N 
ATOM     50  C   UNL A   1      48.434  26.987  26.098  1.00  0.00     0.074 A 
ATOM     51  C   UNL A   1      48.848  25.730  25.514  1.00  0.00     0.031 C 
ATOM     52  C   UNL A   1      42.189  26.044  27.272  1.00  0.00     0.029 A 
ATOM     53  C   UNL A   1      42.970  27.249  27.530  1.00  0.00     0.049 A 
ATOM     54  H   UNL A   1      44.978  27.577  27.084  1.00  0.00     0.167 HD
ATOM     55  C   UNL A   1      49.261  28.038  26.311  1.00  0.00     0.037 A 
ATOM     56  C   UNL A   1      42.507  28.372  28.110  1.00  0.00     0.037 A 
ATOM     57  C   UNL A   1      48.841  29.304  26.850  1.00  0.00     0.049 A 
ATOM     58  C   UNL A   1      43.438  29.538  28.304  1.00  0.00     0.074 A 
ATOM     59  C   UNL A   1      49.587  30.454  27.039  1.00  0.00     0.029 A 
ATOM     60  N   UNL A   1      47.552  29.587  27.280  1.00  0.00    -0.354 N 
ATOM     61  N   UNL A   1      44.708  29.641  28.001  1.00  0.00    -0.248 NA
ATOM     62  C   UNL A   1      42.867  30.748  28.914  1.00  0.00     0.031 C 
ATOM     63  C   UNL A   1      48.757  31.425  27.611  1.00  0.00     0.029 A 
ATOM     64  C   UNL A   1      47.486  30.891  27.743  1.00  0.00     0.049 A 
ATOM     65  H   UNL A   1      46.798  28.955  27.260  1.00  0.00     0.167 HD
ATOM     66  C   UNL A   1      45.082  30.930  28.357  1.00  0.00     0.074 A 
ATOM     67  C   UNL A   1      43.900  31.577  28.887  1.00  0.00     0.031 C 
ATOM     68  C   UNL A   1      46.297  31.523  28.254  1.00  0.00     0.037 A 
BRANCH  55  69
ATOM     69  C   UNL A   1      50.704  27.863  25.944  1.00  0.00     0.064 A 
ATOM     70  C   UNL A   1      51.672  27.540  26.906  1.00  0.00     0.173 A 
ATOM     71  C   UNL A   1      51.124  28.004  24.612  1.00  0.00     0.173 A 
ATOM     72  F   UNL A   1      51.323  27.409  28.195  1.00  0.00    -0.203 F 
ATOM     73  C   UNL A   1      53.012  27.396  26.557  1.00  0.00     0.198 A 
ATOM     74  C   UNL A   1      52.460  27.830  24.261  1.00  0.00     0.198 A 
ATOM     75  F   UNL A   1      50.238  28.309  23.652  1.00  0.00    -0.203 F 
ATOM     76  F   UNL A   1      53.926  27.143  27.503  1.00  0.00    -0.200 F 
ATOM     77  C   UNL A   1      53.404  27.536  25.234  1.00  0.00     0.200 A 
ATOM     78  F   UNL A   1      52.837  27.956  22.981  1.00  0.00    -0.200 F 
ATOM     79  F   UNL A   1      54.694  27.398  24.899  1.00  0.00    -0.200 F 
ENDBRANCH  55  69
BRANCH  56  80
ATOM     80  C   UNL A   1      41.080  28.468  28.512  1.00  0.00     0.064 A 
ATOM     81  C   UNL A   1      40.120  28.972  27.623  1.00  0.00     0.173 A 
ATOM     82  C   UNL A   1      40.647  28.067  29.784  1.00  0.00     0.173 A 
ATOM     83  F   UNL A   1      40.492  29.387  26.404  1.00  0.00    -0.203 F 
ATOM     84  C   UNL A   1      38.783  29.091  27.998  1.00  0.00     0.198 A 
ATOM     85  C   UNL A   1      39.305  28.163  30.149  1.00  0.00     0.198 A 
ATOM     86  F   UNL A   1      41.526  27.574  30.669  1.00  0.00    -0.203 F 
ATOM     87  F   UNL A   1      37.894  29.615  27.144  1.00  0.00    -0.200 F 
ATOM     88  C   UNL A   1      38.375  28.682  29.259  1.00  0.00     0.200 A 
ATOM     89  F   UNL A   1      38.912  27.757  31.364  1.00  0.00    -0.200 F 
ATOM     90  F   UNL A   1      37.090  28.794  29.618  1.00  0.00    -0.200 F 
ENDBRANCH  56  80
BRANCH  68  91
ATOM     91  C   UNL A   1      46.400  32.954  28.687  1.00  0.00     0.064 A 
ATOM     92  C   UNL A   1      46.154  34.009  27.797  1.00  0.00     0.173 A 
ATOM     93  C   UNL A   1      46.704  33.271  30.018  1.00  0.00     0.173 A 
ATOM     94  F   UNL A   1      45.875  33.755  26.509  1.00  0.00    -0.203 F 
ATOM     95  C   UNL A   1      46.230  35.333  28.221  1.00  0.00     0.198 A 
ATOM     96  C   UNL A   1      46.754  34.595  30.446  1.00  0.00     0.198 A 
ATOM     97  F   UNL A   1      46.942  32.296  30.909  1.00  0.00    -0.203 F 
ATOM     98  F   UNL A   1      46.031  36.327  27.344  1.00  0.00    -0.200 F 
ATOM     99  C   UNL A   1      46.522  35.624  29.545  1.00  0.00     0.200 A 
ATOM    100  F   UNL A   1      47.026  34.876  31.727  1.00  0.00    -0.200 F 
ATOM    101  F   UNL A   1      46.588  36.899  29.952  1.00  0.00    -0.200 F 
ENDBRANCH  68  91
ENDBRANCH  42  43
ENDBRANCH  34  37
ENDBRANCH  32  33
ENDBRANCH  31  32
ENDBRANCH  30  31
ENDBRANCH   1  30
TORSDOF 15
ENDMDL
MODEL 3
REMARK VINA RESULT:     -13.3      0.925      2.176
REMARK SMILES Cc1nc(-c2ccccc2Cl)sc1C(=O)NC[C@H]1CC[C@@H](C(=O)NCCCCNC(=O)c2ccc(-c3c4nc(c(-c5c(F)c(F)c(F)c(F)c5F)c5ccc([nH]5)c(-c5c(F)c(F)c(F)c(F)c5F)c5nc(c(-c6c(F)c(F)c(F)c(F)c6F)c6ccc3[nH]6)C=C5)C=C4)cc2)CC1
REMARK SMILES IDX 25 1 24 2 22 3 23 4 21 6 18 7 19 8 96 9 20 10 95 11 17 12
REMARK SMILES IDX 16 13 14 14 15 15 13 17 1 18 2 19 3 20 4 21 12 22 5 23 6 24
REMARK SMILES IDX 10 25 7 26 9 27 11 28 8 29 26 30 27 31 28 32 29 33 30 34
REMARK SMILES IDX 31 36 32 37 33 38 94 39 34 40 93 41 35 42 36 43 37 44 87 45
REMARK SMILES IDX 38 46 92 47 86 48 88 49 39 50 91 51 85 52 84 53 40 55 72 56
REMARK SMILES IDX 52 57 71 58 53 59 56 60 70 61 89 62 54 63 55 64 69 66 90 67
REMARK SMILES IDX 57 68 41 69 42 70 50 71 43 72 44 73 48 74 51 75 45 76 46 77
REMARK SMILES IDX 49 78 47 79 73 80 74 81 82 82 75 83 76 84 80 85 83 86 77 87
REMARK SMILES IDX 78 88 81 89 79 90 58 91 59 92 67 93 60 94 61 95 65 96 68 97
REMARK SMILES IDX 62 98 63 99 66 100 64 101
REMARK H PARENT 24 5 16 16 29 35 88 54 56 65
REMARK Flexibility Score: inf
ROOT
ATOM      1  C   UNL A   1      36.302  20.774  24.977  1.00  0.00     0.116 C 
ENDROOT
BRANCH   1   2
ATOM      2  N   UNL A   1      35.612  21.729  24.144  1.00  0.00    -0.356 N 
ATOM      3  C   UNL A   1      35.131  22.977  24.363  1.00  0.00     0.223 C 
ATOM      4  O   UNL A   1      34.759  23.579  23.347  1.00  0.00    -0.275 OA
ATOM      5  H   UNL A   1      35.461  21.408  23.227  1.00  0.00     0.163 HD
BRANCH   3   6
ATOM      6  C   UNL A   1      34.992  23.669  25.730  1.00  0.00     0.078 C 
ATOM      7  C   UNL A   1      32.268  24.495  26.782  1.00  0.00     0.008 C 
ATOM      8  C   UNL A   1      32.823  23.072  27.012  1.00  0.00     0.006 C 
ATOM      9  C   UNL A   1      33.086  25.383  25.824  1.00  0.00     0.006 C 
ATOM     10  C   UNL A   1      34.328  22.898  26.864  1.00  0.00     0.014 C 
ATOM     11  C   UNL A   1      34.575  25.127  25.702  1.00  0.00     0.014 C 
BRANCH   7  12
ATOM     12  C   UNL A   1      30.784  24.417  26.312  1.00  0.00     0.119 C 
BRANCH  12  13
ATOM     13  N   UNL A   1      30.615  23.732  25.059  1.00  0.00    -0.351 N 
ATOM     14  C   UNL A   1      30.662  24.081  23.733  1.00  0.00     0.263 C 
ATOM     15  O   UNL A   1      30.716  23.075  23.011  1.00  0.00    -0.268 OA
ATOM     16  H   UNL A   1      30.418  22.776  25.183  1.00  0.00     0.163 HD
BRANCH  14  17
ATOM     17  C   UNL A   1      30.618  25.434  23.173  1.00  0.00     0.115 A 
ATOM     18  C   UNL A   1      32.575  26.027  21.516  1.00  0.00     0.068 C 
ATOM     19  C   UNL A   1      31.350  26.251  22.312  1.00  0.00     0.062 A 
ATOM     20  N   UNL A   1      30.894  27.557  22.191  1.00  0.00    -0.240 NA
ATOM     21  C   UNL A   1      29.879  27.784  22.982  1.00  0.00     0.125 A 
ATOM     22  S   UNL A   1      29.268  26.403  23.759  1.00  0.00    -0.108 S 
BRANCH  21  23
ATOM     23  C   UNL A   1      29.271  29.105  23.121  1.00  0.00     0.029 A 
ATOM     24  C   UNL A   1      28.169  29.404  22.298  1.00  0.00     0.013 A 
ATOM     25  C   UNL A   1      29.802  30.125  23.927  1.00  0.00     0.051 A 
ATOM     26  C   UNL A   1      27.603  30.680  22.288  1.00  0.00     0.001 A 
ATOM     27  C   UNL A   1      29.229  31.402  23.916  1.00  0.00     0.021 A 
ATOM     28  Cl  UNL A   1      31.215  29.910  24.903  1.00  0.00    -0.084 Cl
ATOM     29  C   UNL A   1      28.134  31.678  23.098  1.00  0.00     0.002 A 
ENDBRANCH  21  23
ENDBRANCH  14  17
ENDBRANCH  12  13
ENDBRANCH   7  12
ENDBRANCH   3   6
ENDBRANCH   1   2
BRANCH   1  30
ATOM     30  C   UNL A   1      37.787  21.087  25.168  1.00  0.00     0.023 C 
BRANCH  30  31
ATOM     31  C   UNL A   1      38.716  19.879  25.104  1.00  0.00     0.023 C 
BRANCH  31  32
ATOM     32  C   UNL A   1      39.550  19.630  26.357  1.00  0.00     0.116 C 
BRANCH  32  33
ATOM     33  N   UNL A   1      40.890  19.112  26.115  1.00  0.00    -0.352 N 
ATOM     34  C   UNL A   1      42.089  19.788  26.232  1.00  0.00     0.251 C 
ATOM     35  H   UNL A   1      40.948  18.169  25.837  1.00  0.00     0.163 HD
ATOM     36  O   UNL A   1      43.148  19.241  25.962  1.00  0.00    -0.269 OA
BRANCH  34  37
ATOM     37  C   UNL A   1      42.059  21.213  26.628  1.00  0.00     0.039 A 
ATOM     38  C   UNL A   1      42.488  21.567  27.909  1.00  0.00     0.014 A 
ATOM     39  C   UNL A   1      41.731  22.197  25.692  1.00  0.00     0.014 A 
ATOM     40  C   UNL A   1      42.700  22.913  28.213  1.00  0.00     0.010 A 
ATOM     41  C   UNL A   1      42.023  23.528  25.969  1.00  0.00     0.010 A 
ATOM     42  C   UNL A   1      42.527  23.897  27.226  1.00  0.00    -0.014 A 
BRANCH  42  43
ATOM     43  C   UNL A   1      42.894  25.316  27.471  1.00  0.00     0.031 A 
ATOM     44  C   UNL A   1      44.270  25.808  27.123  1.00  0.00     0.074 A 
ATOM     45  C   UNL A   1      42.025  26.135  28.096  1.00  0.00     0.049 A 
ATOM     46  N   UNL A   1      44.817  26.975  27.354  1.00  0.00    -0.248 NA
ATOM     47  C   UNL A   1      45.164  24.847  26.458  1.00  0.00     0.031 C 
ATOM     48  C   UNL A   1      40.683  25.762  28.549  1.00  0.00     0.029 A 
ATOM     49  N   UNL A   1      42.145  27.450  28.472  1.00  0.00    -0.354 N 
ATOM     50  C   UNL A   1      46.121  26.877  26.889  1.00  0.00     0.074 A 
ATOM     51  C   UNL A   1      46.302  25.523  26.412  1.00  0.00     0.031 C 
ATOM     52  C   UNL A   1      40.095  26.830  29.113  1.00  0.00     0.029 A 
ATOM     53  C   UNL A   1      41.027  27.952  29.094  1.00  0.00     0.049 A 
ATOM     54  H   UNL A   1      42.956  27.984  28.309  1.00  0.00     0.167 HD
ATOM     55  C   UNL A   1      47.076  27.837  26.839  1.00  0.00     0.037 A 
ATOM     56  C   UNL A   1      40.784  29.179  29.592  1.00  0.00     0.037 A 
ATOM     57  C   UNL A   1      46.882  29.195  27.271  1.00  0.00     0.049 A 
ATOM     58  C   UNL A   1      41.848  30.238  29.492  1.00  0.00     0.074 A 
ATOM     59  C   UNL A   1      47.763  30.259  27.197  1.00  0.00     0.029 A 
ATOM     60  N   UNL A   1      45.719  29.677  27.854  1.00  0.00    -0.354 N 
ATOM     61  N   UNL A   1      43.055  30.153  28.988  1.00  0.00    -0.248 NA
ATOM     62  C   UNL A   1      41.514  31.567  30.025  1.00  0.00     0.031 C 
ATOM     63  C   UNL A   1      47.143  31.380  27.761  1.00  0.00     0.029 A 
ATOM     64  C   UNL A   1      45.864  31.021  28.152  1.00  0.00     0.049 A 
ATOM     65  H   UNL A   1      44.911  29.142  28.029  1.00  0.00     0.167 HD
ATOM     66  C   UNL A   1      43.612  31.417  29.117  1.00  0.00     0.074 A 
ATOM     67  C   UNL A   1      42.607  32.257  29.735  1.00  0.00     0.031 C 
ATOM     68  C   UNL A   1      44.847  31.844  28.755  1.00  0.00     0.037 A 
BRANCH  55  69
ATOM     69  C   UNL A   1      48.412  27.449  26.280  1.00  0.00     0.064 A 
ATOM     70  C   UNL A   1      49.485  27.107  27.116  1.00  0.00     0.173 A 
ATOM     71  C   UNL A   1      48.620  27.403  24.893  1.00  0.00     0.173 A 
ATOM     72  F   UNL A   1      49.341  27.150  28.450  1.00  0.00    -0.203 F 
ATOM     73  C   UNL A   1      50.727  26.765  26.587  1.00  0.00     0.198 A 
ATOM     74  C   UNL A   1      49.854  27.032  24.366  1.00  0.00     0.198 A 
ATOM     75  F   UNL A   1      47.626  27.717  24.049  1.00  0.00    -0.203 F 
ATOM     76  F   UNL A   1      51.752  26.497  27.407  1.00  0.00    -0.200 F 
ATOM     77  C   UNL A   1      50.909  26.722  25.213  1.00  0.00     0.200 A 
ATOM     78  F   UNL A   1      50.027  26.982  23.038  1.00  0.00    -0.200 F 
ATOM     79  F   UNL A   1      52.104  26.393  24.705  1.00  0.00    -0.200 F 
ENDBRANCH  55  69
BRANCH  56  80
ATOM     80  C   UNL A   1      39.461  29.490  30.191  1.00  0.00     0.064 A 
ATOM     81  C   UNL A   1      38.419  29.996  29.401  1.00  0.00     0.173 A 
ATOM     82  C   UNL A   1      39.210  29.297  31.557  1.00  0.00     0.173 A 
ATOM     83  F   UNL A   1      38.620  30.217  28.094  1.00  0.00    -0.203 F 
ATOM     84  C   UNL A   1      37.183  30.316  29.957  1.00  0.00     0.198 A 
ATOM     85  C   UNL A   1      37.965  29.594  32.108  1.00  0.00     0.198 A 
ATOM     86  F   UNL A   1      40.172  28.811  32.355  1.00  0.00    -0.203 F 
ATOM     87  F   UNL A   1      36.218  30.837  29.187  1.00  0.00    -0.200 F 
ATOM     88  C   UNL A   1      36.954  30.110  31.309  1.00  0.00     0.200 A 
ATOM     89  F   UNL A   1      37.743  29.383  33.412  1.00  0.00    -0.200 F 
ATOM     90  F   UNL A   1      35.764  30.415  31.843  1.00  0.00    -0.200 F 
ENDBRANCH  56  80
BRANCH  68  91
ATOM     91  C   UNL A   1      45.166  33.291  28.983  1.00  0.00     0.064 A 
ATOM     92  C   UNL A   1      44.856  34.270  28.028  1.00  0.00     0.173 A 
ATOM     93  C   UNL A   1      45.748  33.707  30.189  1.00  0.00     0.173 A 
ATOM     94  F   UNL A   1      44.313  33.918  26.852  1.00  0.00    -0.203 F 
ATOM     95  C   UNL A   1      45.137  35.613  28.266  1.00  0.00     0.198 A 
ATOM     96  C   UNL A   1      46.004  35.053  30.434  1.00  0.00     0.198 A 
ATOM     97  F   UNL A   1      46.058  32.808  31.136  1.00  0.00    -0.203 F 
ATOM     98  F   UNL A   1      44.869  36.527  27.323  1.00  0.00    -0.200 F 
ATOM     99  C   UNL A   1      45.703  36.004  29.470  1.00  0.00     0.200 A 
ATOM    100  F   UNL A   1      46.542  35.431  31.601  1.00  0.00    -0.200 F 
ATOM    101  F   UNL A   1      45.966  37.297  29.699  1.00  0.00    -0.200 F 
ENDBRANCH  68  91
ENDBRANCH  42  43
ENDBRANCH  34  37
ENDBRANCH  32  33
ENDBRANCH  31  32
ENDBRANCH  30  31
ENDBRANCH   1  30
TORSDOF 15
ENDMDL
