MODEL 1
REMARK VINA RESULT:     -12.2      0.000      0.000
REMARK SMILES O=C(CSc1nc2ncccc2[nH]1)NCCCCNC(=O)c1ccc(-c2c3nc(c(-c4c(F)c(F)c(F)c(F)c4F)c4ccc([nH]4)c(-c4c(F)c(F)c(F)c(F)c4F)c4nc(c(-c5c(F)c(F)c(F)c(F)c5F)c5ccc2[nH]5)C=C4)C=C3)cc1
REMARK SMILES IDX 16 1 15 2 14 3 1 4 2 5 3 7 4 8 5 9 6 10 13 11 7 12 12 13
REMARK SMILES IDX 8 15 11 16 9 17 10 18 17 19 18 20 19 21 20 22 21 24 22 25
REMARK SMILES IDX 23 26 84 27 24 28 83 29 25 30 26 31 27 32 77 33 28 34 82 35
REMARK SMILES IDX 76 36 78 37 29 38 81 39 75 40 74 41 30 43 62 44 42 45 61 46
REMARK SMILES IDX 43 47 46 48 60 49 79 50 44 51 45 52 59 54 80 55 47 56 31 57
REMARK SMILES IDX 32 58 40 59 33 60 34 61 38 62 41 63 35 64 36 65 39 66 37 67
REMARK SMILES IDX 63 68 64 69 72 70 65 71 66 72 70 73 73 74 67 75 68 76 71 77
REMARK SMILES IDX 69 78 48 79 49 80 57 81 50 82 51 83 55 84 58 85 52 86 53 87
REMARK SMILES IDX 56 88 54 89
REMARK H PARENT 14 6 13 14 19 23 78 42 46 53
REMARK Flexibility Score: inf
ROOT
ATOM      1  C   UNL A   1      34.417  29.768  27.289  1.00  0.00     0.023 C 
ENDROOT
BRANCH   1   2
ATOM      2  C   UNL A   1      33.399  28.629  27.420  1.00  0.00     0.116 C 
BRANCH   2   3
ATOM      3  N   UNL A   1      33.131  27.963  26.160  1.00  0.00    -0.355 N 
ATOM      4  O   UNL A   1      31.225  26.859  26.841  1.00  0.00    -0.274 OA
ATOM      5  C   UNL A   1      32.047  27.130  25.970  1.00  0.00     0.230 C 
ATOM      6  H   UNL A   1      33.749  28.111  25.408  1.00  0.00     0.163 HD
BRANCH   5   7
ATOM      7  C   UNL A   1      31.953  26.508  24.591  1.00  0.00     0.178 C 
BRANCH   7   8
ATOM      8  S   UNL A   1      32.538  27.623  23.298  1.00  0.00    -0.078 SA
BRANCH   8   9
ATOM      9  C   UNL A   1      31.221  28.710  23.041  1.00  0.00     0.168 A 
ATOM     10  N   UNL A   1      30.330  28.576  22.088  1.00  0.00    -0.203 NA
ATOM     11  N   UNL A   1      30.935  29.757  23.874  1.00  0.00    -0.332 N 
ATOM     12  C   UNL A   1      29.417  29.566  22.325  1.00  0.00     0.178 A 
ATOM     13  C   UNL A   1      29.764  30.321  23.440  1.00  0.00     0.086 A 
ATOM     14  H   UNL A   1      31.472  30.050  24.644  1.00  0.00     0.169 HD
ATOM     15  N   UNL A   1      28.304  29.793  21.592  1.00  0.00    -0.235 NA
ATOM     16  C   UNL A   1      28.979  31.380  23.890  1.00  0.00     0.032 A 
ATOM     17  C   UNL A   1      27.545  30.817  22.038  1.00  0.00     0.114 A 
ATOM     18  C   UNL A   1      27.825  31.616  23.144  1.00  0.00     0.022 A 
ENDBRANCH   8   9
ENDBRANCH   7   8
ENDBRANCH   5   7
ENDBRANCH   2   3
ENDBRANCH   1   2
BRANCH   1  19
ATOM     19  C   UNL A   1      33.884  31.191  27.513  1.00  0.00     0.023 C 
BRANCH  19  20
ATOM     20  C   UNL A   1      34.935  32.202  27.947  1.00  0.00     0.116 C 
BRANCH  20  21
ATOM     21  N   UNL A   1      34.801  32.612  29.341  1.00  0.00    -0.352 N 
ATOM     22  C   UNL A   1      35.424  32.069  30.443  1.00  0.00     0.251 C 
ATOM     23  H   UNL A   1      34.193  33.367  29.514  1.00  0.00     0.163 HD
ATOM     24  O   UNL A   1      34.957  32.239  31.571  1.00  0.00    -0.269 OA
BRANCH  22  25
ATOM     25  C   UNL A   1      36.656  31.275  30.271  1.00  0.00     0.039 A 
ATOM     26  C   UNL A   1      37.890  31.906  30.088  1.00  0.00     0.014 A 
ATOM     27  C   UNL A   1      36.569  29.882  30.261  1.00  0.00     0.014 A 
ATOM     28  C   UNL A   1      39.035  31.124  29.960  1.00  0.00     0.010 A 
ATOM     29  C   UNL A   1      37.709  29.113  30.260  1.00  0.00     0.010 A 
ATOM     30  C   UNL A   1      38.939  29.725  30.062  1.00  0.00    -0.014 A 
BRANCH  30  31
ATOM     31  C   UNL A   1      40.144  28.907  30.051  1.00  0.00     0.031 A 
ATOM     32  C   UNL A   1      40.782  28.732  31.382  1.00  0.00     0.074 A 
ATOM     33  C   UNL A   1      40.584  28.223  28.974  1.00  0.00     0.049 A 
ATOM     34  N   UNL A   1      41.904  29.229  31.783  1.00  0.00    -0.248 NA
ATOM     35  C   UNL A   1      40.033  28.026  32.432  1.00  0.00     0.031 C 
ATOM     36  C   UNL A   1      39.928  28.028  27.677  1.00  0.00     0.029 A 
ATOM     37  N   UNL A   1      41.718  27.478  28.851  1.00  0.00    -0.354 N 
ATOM     38  C   UNL A   1      42.098  28.757  33.076  1.00  0.00     0.074 A 
ATOM     39  C   UNL A   1      40.854  28.152  33.477  1.00  0.00     0.031 C 
ATOM     40  C   UNL A   1      40.566  27.056  26.985  1.00  0.00     0.029 A 
ATOM     41  C   UNL A   1      41.771  26.690  27.707  1.00  0.00     0.049 A 
ATOM     42  H   UNL A   1      42.442  27.498  29.517  1.00  0.00     0.167 HD
ATOM     43  C   UNL A   1      43.347  28.707  33.619  1.00  0.00     0.037 A 
ATOM     44  C   UNL A   1      42.737  25.794  27.388  1.00  0.00     0.037 A 
ATOM     45  C   UNL A   1      44.269  29.522  32.869  1.00  0.00     0.049 A 
ATOM     46  C   UNL A   1      43.946  26.175  28.157  1.00  0.00     0.074 A 
ATOM     47  C   UNL A   1      44.362  30.866  32.571  1.00  0.00     0.029 A 
ATOM     48  N   UNL A   1      45.090  28.882  31.975  1.00  0.00    -0.354 N 
ATOM     49  N   UNL A   1      44.625  27.270  27.956  1.00  0.00    -0.248 NA
ATOM     50  C   UNL A   1      44.156  25.534  29.445  1.00  0.00     0.031 C 
ATOM     51  C   UNL A   1      44.847  30.914  31.230  1.00  0.00     0.029 A 
ATOM     52  C   UNL A   1      45.081  29.603  30.812  1.00  0.00     0.049 A 
ATOM     53  H   UNL A   1      45.595  28.053  32.140  1.00  0.00     0.167 HD
ATOM     54  C   UNL A   1      44.997  27.686  29.224  1.00  0.00     0.074 A 
ATOM     55  C   UNL A   1      44.772  26.529  30.086  1.00  0.00     0.031 C 
ATOM     56  C   UNL A   1      45.185  29.009  29.498  1.00  0.00     0.037 A 
BRANCH  43  57
ATOM     57  C   UNL A   1      43.831  27.643  34.572  1.00  0.00     0.064 A 
ATOM     58  C   UNL A   1      43.798  26.293  34.164  1.00  0.00     0.173 A 
ATOM     59  C   UNL A   1      44.017  27.857  35.954  1.00  0.00     0.173 A 
ATOM     60  F   UNL A   1      43.608  25.971  32.876  1.00  0.00    -0.203 F 
ATOM     61  C   UNL A   1      43.860  25.243  35.084  1.00  0.00     0.198 A 
ATOM     62  C   UNL A   1      44.132  26.805  36.862  1.00  0.00     0.198 A 
ATOM     63  F   UNL A   1      43.978  29.078  36.498  1.00  0.00    -0.203 F 
ATOM     64  F   UNL A   1      43.688  23.982  34.664  1.00  0.00    -0.200 F 
ATOM     65  C   UNL A   1      44.020  25.500  36.432  1.00  0.00     0.200 A 
ATOM     66  F   UNL A   1      44.265  27.075  38.168  1.00  0.00    -0.200 F 
ATOM     67  F   UNL A   1      44.013  24.499  37.322  1.00  0.00    -0.200 F 
ENDBRANCH  43  57
BRANCH  44  68
ATOM     68  C   UNL A   1      42.604  24.465  26.743  1.00  0.00     0.064 A 
ATOM     69  C   UNL A   1      43.183  24.218  25.487  1.00  0.00     0.173 A 
ATOM     70  C   UNL A   1      42.196  23.335  27.478  1.00  0.00     0.173 A 
ATOM     71  F   UNL A   1      43.635  25.237  24.741  1.00  0.00    -0.203 F 
ATOM     72  C   UNL A   1      43.387  22.918  25.015  1.00  0.00     0.198 A 
ATOM     73  C   UNL A   1      42.395  22.037  27.002  1.00  0.00     0.198 A 
ATOM     74  F   UNL A   1      41.696  23.467  28.714  1.00  0.00    -0.203 F 
ATOM     75  F   UNL A   1      44.017  22.722  23.847  1.00  0.00    -0.200 F 
ATOM     76  C   UNL A   1      43.007  21.829  25.780  1.00  0.00     0.200 A 
ATOM     77  F   UNL A   1      42.061  20.987  27.766  1.00  0.00    -0.200 F 
ATOM     78  F   UNL A   1      43.272  20.582  25.362  1.00  0.00    -0.200 F 
ENDBRANCH  44  68
BRANCH  56  79
ATOM     79  C   UNL A   1      45.279  29.969  28.346  1.00  0.00     0.064 A 
ATOM     80  C   UNL A   1      44.180  30.641  27.784  1.00  0.00     0.173 A 
ATOM     81  C   UNL A   1      46.559  30.363  27.933  1.00  0.00     0.173 A 
ATOM     82  F   UNL A   1      42.930  30.376  28.182  1.00  0.00    -0.203 F 
ATOM     83  C   UNL A   1      44.360  31.658  26.847  1.00  0.00     0.198 A 
ATOM     84  C   UNL A   1      46.736  31.400  27.024  1.00  0.00     0.198 A 
ATOM     85  F   UNL A   1      47.644  29.782  28.468  1.00  0.00    -0.203 F 
ATOM     86  F   UNL A   1      43.298  32.295  26.331  1.00  0.00    -0.200 F 
ATOM     87  C   UNL A   1      45.639  32.046  26.480  1.00  0.00     0.200 A 
ATOM     88  F   UNL A   1      47.976  31.802  26.707  1.00  0.00    -0.200 F 
ATOM     89  F   UNL A   1      45.815  33.064  25.626  1.00  0.00    -0.200 F 
ENDBRANCH  56  79
ENDBRANCH  30  31
ENDBRANCH  22  25
ENDBRANCH  20  21
ENDBRANCH  19  20
ENDBRANCH   1  19
TORSDOF 13
ENDMDL
MODEL 2
REMARK VINA RESULT:     -12.2      4.539      9.712
REMARK SMILES O=C(CSc1nc2ncccc2[nH]1)NCCCCNC(=O)c1ccc(-c2c3nc(c(-c4c(F)c(F)c(F)c(F)c4F)c4ccc([nH]4)c(-c4c(F)c(F)c(F)c(F)c4F)c4nc(c(-c5c(F)c(F)c(F)c(F)c5F)c5ccc2[nH]5)C=C4)C=C3)cc1
REMARK SMILES IDX 16 1 15 2 14 3 1 4 2 5 3 7 4 8 5 9 6 10 13 11 7 12 12 13
REMARK SMILES IDX 8 15 11 16 9 17 10 18 17 19 18 20 19 21 20 22 21 24 22 25
REMARK SMILES IDX 23 26 84 27 24 28 83 29 25 30 26 31 27 32 77 33 28 34 82 35
REMARK SMILES IDX 76 36 78 37 29 38 81 39 75 40 74 41 30 43 62 44 42 45 61 46
REMARK SMILES IDX 43 47 46 48 60 49 79 50 44 51 45 52 59 54 80 55 47 56 31 57
REMARK SMILES IDX 32 58 40 59 33 60 34 61 38 62 41 63 35 64 36 65 39 66 37 67
REMARK SMILES IDX 63 68 64 69 72 70 65 71 66 72 70 73 73 74 67 75 68 76 71 77
REMARK SMILES IDX 69 78 48 79 49 80 57 81 50 82 51 83 55 84 58 85 52 86 53 87
REMARK SMILES IDX 56 88 54 89
REMARK H PARENT 14 6 13 14 19 23 78 42 46 53
REMARK Flexibility Score: inf
ROOT
ATOM      1  C   UNL A   1      40.567  19.982  26.711  1.00  0.00     0.023 C 
ENDROOT
BRANCH   1   2
ATOM      2  C   UNL A   1      40.270  21.437  26.331  1.00  0.00     0.116 C 
BRANCH   2   3
ATOM      3  N   UNL A   1      39.024  21.588  25.603  1.00  0.00    -0.355 N 
ATOM      4  O   UNL A   1      38.403  23.596  26.549  1.00  0.00    -0.274 OA
ATOM      5  C   UNL A   1      38.188  22.673  25.767  1.00  0.00     0.230 C 
ATOM      6  H   UNL A   1      38.764  20.885  24.963  1.00  0.00     0.163 HD
BRANCH   5   7
ATOM      7  C   UNL A   1      36.921  22.636  24.936  1.00  0.00     0.178 C 
BRANCH   7   8
ATOM      8  S   UNL A   1      35.436  22.546  25.959  1.00  0.00    -0.078 SA
BRANCH   8   9
ATOM      9  C   UNL A   1      34.747  21.009  25.578  1.00  0.00     0.168 A 
ATOM     10  N   UNL A   1      33.467  20.736  25.658  1.00  0.00    -0.203 NA
ATOM     11  N   UNL A   1      35.469  19.966  25.065  1.00  0.00    -0.332 N 
ATOM     12  C   UNL A   1      33.351  19.468  25.157  1.00  0.00     0.178 A 
ATOM     13  C   UNL A   1      34.586  18.959  24.772  1.00  0.00     0.086 A 
ATOM     14  H   UNL A   1      36.443  19.944  24.931  1.00  0.00     0.169 HD
ATOM     15  N   UNL A   1      32.193  18.783  25.029  1.00  0.00    -0.235 NA
ATOM     16  C   UNL A   1      34.723  17.689  24.216  1.00  0.00     0.032 A 
ATOM     17  C   UNL A   1      32.333  17.555  24.485  1.00  0.00     0.114 A 
ATOM     18  C   UNL A   1      33.532  16.978  24.074  1.00  0.00     0.022 A 
ENDBRANCH   8   9
ENDBRANCH   7   8
ENDBRANCH   5   7
ENDBRANCH   2   3
ENDBRANCH   1   2
BRANCH   1  19
ATOM     19  C   UNL A   1      41.646  19.266  25.885  1.00  0.00     0.023 C 
BRANCH  19  20
ATOM     20  C   UNL A   1      43.034  19.274  26.511  1.00  0.00     0.116 C 
BRANCH  20  21
ATOM     21  N   UNL A   1      44.110  19.296  25.526  1.00  0.00    -0.352 N 
ATOM     22  C   UNL A   1      44.605  20.384  24.842  1.00  0.00     0.251 C 
ATOM     23  H   UNL A   1      44.534  18.430  25.328  1.00  0.00     0.163 HD
ATOM     24  O   UNL A   1      45.231  20.229  23.791  1.00  0.00    -0.269 OA
BRANCH  22  25
ATOM     25  C   UNL A   1      44.380  21.744  25.368  1.00  0.00     0.039 A 
ATOM     26  C   UNL A   1      43.403  22.572  24.808  1.00  0.00     0.014 A 
ATOM     27  C   UNL A   1      45.179  22.206  26.415  1.00  0.00     0.014 A 
ATOM     28  C   UNL A   1      43.198  23.837  25.353  1.00  0.00     0.010 A 
ATOM     29  C   UNL A   1      44.895  23.402  27.032  1.00  0.00     0.010 A 
ATOM     30  C   UNL A   1      43.940  24.241  26.476  1.00  0.00    -0.014 A 
BRANCH  30  31
ATOM     31  C   UNL A   1      43.649  25.512  27.126  1.00  0.00     0.031 A 
ATOM     32  C   UNL A   1      44.578  26.615  26.766  1.00  0.00     0.074 A 
ATOM     33  C   UNL A   1      42.548  25.746  27.872  1.00  0.00     0.049 A 
ATOM     34  N   UNL A   1      45.464  27.170  27.525  1.00  0.00    -0.248 NA
ATOM     35  C   UNL A   1      44.617  27.073  25.370  1.00  0.00     0.031 C 
ATOM     36  C   UNL A   1      41.379  24.886  28.081  1.00  0.00     0.029 A 
ATOM     37  N   UNL A   1      42.216  26.876  28.557  1.00  0.00    -0.354 N 
ATOM     38  C   UNL A   1      46.055  28.172  26.763  1.00  0.00     0.074 A 
ATOM     39  C   UNL A   1      45.608  27.967  25.410  1.00  0.00     0.031 C 
ATOM     40  C   UNL A   1      40.386  25.600  28.659  1.00  0.00     0.029 A 
ATOM     41  C   UNL A   1      40.906  26.906  29.020  1.00  0.00     0.049 A 
ATOM     42  H   UNL A   1      42.853  27.610  28.713  1.00  0.00     0.167 HD
ATOM     43  C   UNL A   1      46.685  29.221  27.362  1.00  0.00     0.037 A 
ATOM     44  C   UNL A   1      40.296  27.941  29.648  1.00  0.00     0.037 A 
ATOM     45  C   UNL A   1      46.965  28.934  28.746  1.00  0.00     0.049 A 
ATOM     46  C   UNL A   1      41.369  28.790  30.219  1.00  0.00     0.074 A 
ATOM     47  C   UNL A   1      47.723  27.992  29.412  1.00  0.00     0.029 A 
ATOM     48  N   UNL A   1      46.110  29.458  29.683  1.00  0.00    -0.354 N 
ATOM     49  N   UNL A   1      42.158  28.416  31.188  1.00  0.00    -0.248 NA
ATOM     50  C   UNL A   1      41.843  29.908  29.419  1.00  0.00     0.031 C 
ATOM     51  C   UNL A   1      46.965  27.665  30.575  1.00  0.00     0.029 A 
ATOM     52  C   UNL A   1      45.825  28.468  30.585  1.00  0.00     0.049 A 
ATOM     53  H   UNL A   1      45.764  30.379  29.703  1.00  0.00     0.167 HD
ATOM     54  C   UNL A   1      43.395  28.944  30.852  1.00  0.00     0.074 A 
ATOM     55  C   UNL A   1      43.117  29.934  29.815  1.00  0.00     0.031 C 
ATOM     56  C   UNL A   1      44.547  28.330  31.246  1.00  0.00     0.037 A 
BRANCH  43  57
ATOM     57  C   UNL A   1      46.703  30.633  26.831  1.00  0.00     0.064 A 
ATOM     58  C   UNL A   1      47.909  31.362  26.867  1.00  0.00     0.173 A 
ATOM     59  C   UNL A   1      45.538  31.393  26.593  1.00  0.00     0.173 A 
ATOM     60  F   UNL A   1      49.076  30.745  27.105  1.00  0.00    -0.203 F 
ATOM     61  C   UNL A   1      47.933  32.755  26.761  1.00  0.00     0.198 A 
ATOM     62  C   UNL A   1      45.573  32.778  26.434  1.00  0.00     0.198 A 
ATOM     63  F   UNL A   1      44.315  30.853  26.622  1.00  0.00    -0.203 F 
ATOM     64  F   UNL A   1      49.086  33.416  26.937  1.00  0.00    -0.200 F 
ATOM     65  C   UNL A   1      46.764  33.462  26.551  1.00  0.00     0.200 A 
ATOM     66  F   UNL A   1      44.426  33.448  26.253  1.00  0.00    -0.200 F 
ATOM     67  F   UNL A   1      46.775  34.801  26.514  1.00  0.00    -0.200 F 
ENDBRANCH  43  57
BRANCH  44  68
ATOM     68  C   UNL A   1      38.902  28.428  29.510  1.00  0.00     0.064 A 
ATOM     69  C   UNL A   1      38.101  28.639  30.646  1.00  0.00     0.173 A 
ATOM     70  C   UNL A   1      38.443  28.999  28.307  1.00  0.00     0.173 A 
ATOM     71  F   UNL A   1      38.487  28.163  31.840  1.00  0.00    -0.203 F 
ATOM     72  C   UNL A   1      36.939  29.414  30.593  1.00  0.00     0.198 A 
ATOM     73  C   UNL A   1      37.278  29.767  28.254  1.00  0.00     0.198 A 
ATOM     74  F   UNL A   1      39.172  28.909  27.186  1.00  0.00    -0.203 F 
ATOM     75  F   UNL A   1      36.246  29.659  31.715  1.00  0.00    -0.200 F 
ATOM     76  C   UNL A   1      36.537  29.990  29.400  1.00  0.00     0.200 A 
ATOM     77  F   UNL A   1      36.917  30.355  27.104  1.00  0.00    -0.200 F 
ATOM     78  F   UNL A   1      35.465  30.796  29.364  1.00  0.00    -0.200 F 
ENDBRANCH  44  68
BRANCH  56  79
ATOM     79  C   UNL A   1      44.460  27.257  32.293  1.00  0.00     0.064 A 
ATOM     80  C   UNL A   1      44.301  27.503  33.668  1.00  0.00     0.173 A 
ATOM     81  C   UNL A   1      44.336  25.931  31.855  1.00  0.00     0.173 A 
ATOM     82  F   UNL A   1      44.329  28.749  34.155  1.00  0.00    -0.203 F 
ATOM     83  C   UNL A   1      44.037  26.464  34.560  1.00  0.00     0.198 A 
ATOM     84  C   UNL A   1      44.038  24.902  32.742  1.00  0.00     0.198 A 
ATOM     85  F   UNL A   1      44.437  25.646  30.548  1.00  0.00    -0.203 F 
ATOM     86  F   UNL A   1      43.878  26.722  35.867  1.00  0.00    -0.200 F 
ATOM     87  C   UNL A   1      43.890  25.168  34.093  1.00  0.00     0.200 A 
ATOM     88  F   UNL A   1      43.852  23.658  32.279  1.00  0.00    -0.200 F 
ATOM     89  F   UNL A   1      43.575  24.178  34.940  1.00  0.00    -0.200 F 
ENDBRANCH  56  79
ENDBRANCH  30  31
ENDBRANCH  22  25
ENDBRANCH  20  21
ENDBRANCH  19  20
ENDBRANCH   1  19
TORSDOF 13
ENDMDL
MODEL 3
REMARK VINA RESULT:     -11.8      3.824      9.052
REMARK SMILES O=C(CSc1nc2ncccc2[nH]1)NCCCCNC(=O)c1ccc(-c2c3nc(c(-c4c(F)c(F)c(F)c(F)c4F)c4ccc([nH]4)c(-c4c(F)c(F)c(F)c(F)c4F)c4nc(c(-c5c(F)c(F)c(F)c(F)c5F)c5ccc2[nH]5)C=C4)C=C3)cc1
REMARK SMILES IDX 16 1 15 2 14 3 1 4 2 5 3 7 4 8 5 9 6 10 13 11 7 12 12 13
REMARK SMILES IDX 8 15 11 16 9 17 10 18 17 19 18 20 19 21 20 22 21 24 22 25
REMARK SMILES IDX 23 26 84 27 24 28 83 29 25 30 26 31 27 32 77 33 28 34 82 35
REMARK SMILES IDX 76 36 78 37 29 38 81 39 75 40 74 41 30 43 62 44 42 45 61 46
REMARK SMILES IDX 43 47 46 48 60 49 79 50 44 51 45 52 59 54 80 55 47 56 31 57
REMARK SMILES IDX 32 58 40 59 33 60 34 61 38 62 41 63 35 64 36 65 39 66 37 67
REMARK SMILES IDX 63 68 64 69 72 70 65 71 66 72 70 73 73 74 67 75 68 76 71 77
REMARK SMILES IDX 69 78 48 79 49 80 57 81 50 82 51 83 55 84 58 85 52 86 53 87
REMARK SMILES IDX 56 88 54 89
REMARK H PARENT 14 6 13 14 19 23 78 42 46 53
REMARK Flexibility Score: inf
ROOT
ATOM      1  C   UNL A   1      38.210  23.446  26.357  1.00  0.00     0.023 C 
ENDROOT
BRANCH   1   2
ATOM      2  C   UNL A   1      37.058  23.669  25.370  1.00  0.00     0.116 C 
BRANCH   2   3
ATOM      3  N   UNL A   1      35.754  23.617  26.002  1.00  0.00    -0.355 N 
ATOM      4  O   UNL A   1      35.402  21.358  25.702  1.00  0.00    -0.274 OA
ATOM      5  C   UNL A   1      35.029  22.449  26.126  1.00  0.00     0.230 C 
ATOM      6  H   UNL A   1      35.369  24.450  26.359  1.00  0.00     0.163 HD
BRANCH   5   7
ATOM      7  C   UNL A   1      33.677  22.604  26.794  1.00  0.00     0.178 C 
BRANCH   7   8
ATOM      8  S   UNL A   1      32.472  23.407  25.717  1.00  0.00    -0.078 SA
BRANCH   8   9
ATOM      9  C   UNL A   1      32.583  25.082  26.124  1.00  0.00     0.168 A 
ATOM     10  N   UNL A   1      33.530  25.883  25.698  1.00  0.00    -0.203 NA
ATOM     11  N   UNL A   1      31.634  25.745  26.853  1.00  0.00    -0.332 N 
ATOM     12  C   UNL A   1      33.170  27.121  26.153  1.00  0.00     0.178 A 
ATOM     13  C   UNL A   1      31.983  27.071  26.876  1.00  0.00     0.086 A 
ATOM     14  H   UNL A   1      30.845  25.343  27.281  1.00  0.00     0.169 HD
ATOM     15  N   UNL A   1      33.854  28.265  25.928  1.00  0.00    -0.235 NA
ATOM     16  C   UNL A   1      31.404  28.210  27.429  1.00  0.00     0.032 A 
ATOM     17  C   UNL A   1      33.283  29.366  26.463  1.00  0.00     0.114 A 
ATOM     18  C   UNL A   1      32.100  29.396  27.197  1.00  0.00     0.022 A 
ENDBRANCH   8   9
ENDBRANCH   7   8
ENDBRANCH   5   7
ENDBRANCH   2   3
ENDBRANCH   1   2
BRANCH   1  19
ATOM     19  C   UNL A   1      39.076  22.199  26.126  1.00  0.00     0.023 C 
BRANCH  19  20
ATOM     20  C   UNL A   1      40.255  22.060  27.079  1.00  0.00     0.116 C 
BRANCH  20  21
ATOM     21  N   UNL A   1      41.550  22.154  26.413  1.00  0.00    -0.352 N 
ATOM     22  C   UNL A   1      42.245  23.295  26.077  1.00  0.00     0.251 C 
ATOM     23  H   UNL A   1      41.978  21.299  26.175  1.00  0.00     0.163 HD
ATOM     24  O   UNL A   1      43.116  23.262  25.205  1.00  0.00    -0.269 OA
BRANCH  22  25
ATOM     25  C   UNL A   1      41.943  24.564  26.765  1.00  0.00     0.039 A 
ATOM     26  C   UNL A   1      42.435  24.813  28.050  1.00  0.00     0.014 A 
ATOM     27  C   UNL A   1      41.131  25.504  26.127  1.00  0.00     0.014 A 
ATOM     28  C   UNL A   1      42.154  26.036  28.654  1.00  0.00     0.010 A 
ATOM     29  C   UNL A   1      40.958  26.757  26.669  1.00  0.00     0.010 A 
ATOM     30  C   UNL A   1      41.426  27.011  27.950  1.00  0.00    -0.014 A 
BRANCH  30  31
ATOM     31  C   UNL A   1      41.232  28.335  28.525  1.00  0.00     0.031 A 
ATOM     32  C   UNL A   1      42.288  29.321  28.172  1.00  0.00     0.074 A 
ATOM     33  C   UNL A   1      40.123  28.715  29.194  1.00  0.00     0.049 A 
ATOM     34  N   UNL A   1      43.183  29.822  28.957  1.00  0.00    -0.248 NA
ATOM     35  C   UNL A   1      42.449  29.703  26.761  1.00  0.00     0.031 C 
ATOM     36  C   UNL A   1      38.862  27.987  29.372  1.00  0.00     0.029 A 
ATOM     37  N   UNL A   1      39.871  29.904  29.808  1.00  0.00    -0.354 N 
ATOM     38  C   UNL A   1      43.913  30.721  28.187  1.00  0.00     0.074 A 
ATOM     39  C   UNL A   1      43.522  30.495  26.820  1.00  0.00     0.031 C 
ATOM     40  C   UNL A   1      37.918  28.824  29.858  1.00  0.00     0.029 A 
ATOM     41  C   UNL A   1      38.548  30.088  30.192  1.00  0.00     0.049 A 
ATOM     42  H   UNL A   1      40.570  30.579  29.969  1.00  0.00     0.167 HD
ATOM     43  C   UNL A   1      44.614  31.731  28.775  1.00  0.00     0.037 A 
ATOM     44  C   UNL A   1      38.014  31.209  30.736  1.00  0.00     0.037 A 
ATOM     45  C   UNL A   1      44.789  31.487  30.185  1.00  0.00     0.049 A 
ATOM     46  C   UNL A   1      39.136  31.974  31.331  1.00  0.00     0.074 A 
ATOM     47  C   UNL A   1      45.409  30.509  30.935  1.00  0.00     0.029 A 
ATOM     48  N   UNL A   1      43.942  32.139  31.046  1.00  0.00    -0.354 N 
ATOM     49  N   UNL A   1      39.829  31.571  32.360  1.00  0.00    -0.248 NA
ATOM     50  C   UNL A   1      39.764  32.998  30.512  1.00  0.00     0.031 C 
ATOM     51  C   UNL A   1      44.560  30.317  32.065  1.00  0.00     0.029 A 
ATOM     52  C   UNL A   1      43.509  31.229  31.972  1.00  0.00     0.049 A 
ATOM     53  H   UNL A   1      43.691  33.090  31.005  1.00  0.00     0.167 HD
ATOM     54  C   UNL A   1      41.129  31.957  32.074  1.00  0.00     0.074 A 
ATOM     55  C   UNL A   1      41.011  32.917  30.981  1.00  0.00     0.031 C 
ATOM     56  C   UNL A   1      42.190  31.252  32.562  1.00  0.00     0.037 A 
BRANCH  43  57
ATOM     57  C   UNL A   1      44.805  33.106  28.184  1.00  0.00     0.064 A 
ATOM     58  C   UNL A   1      46.110  33.546  27.883  1.00  0.00     0.173 A 
ATOM     59  C   UNL A   1      43.813  34.109  28.204  1.00  0.00     0.173 A 
ATOM     60  F   UNL A   1      47.135  32.681  27.855  1.00  0.00    -0.203 F 
ATOM     61  C   UNL A   1      46.410  34.899  27.703  1.00  0.00     0.198 A 
ATOM     62  C   UNL A   1      44.108  35.452  27.970  1.00  0.00     0.198 A 
ATOM     63  F   UNL A   1      42.550  33.857  28.564  1.00  0.00    -0.203 F 
ATOM     64  F   UNL A   1      47.685  35.283  27.553  1.00  0.00    -0.200 F 
ATOM     65  C   UNL A   1      45.410  35.851  27.753  1.00  0.00     0.200 A 
ATOM     66  F   UNL A   1      43.128  36.363  28.045  1.00  0.00    -0.200 F 
ATOM     67  F   UNL A   1      45.703  37.154  27.646  1.00  0.00    -0.200 F 
ENDBRANCH  43  57
BRANCH  44  68
ATOM     68  C   UNL A   1      36.686  31.825  30.495  1.00  0.00     0.064 A 
ATOM     69  C   UNL A   1      35.833  32.130  31.569  1.00  0.00     0.173 A 
ATOM     70  C   UNL A   1      36.369  32.416  29.257  1.00  0.00     0.173 A 
ATOM     71  F   UNL A   1      36.087  31.640  32.792  1.00  0.00    -0.203 F 
ATOM     72  C   UNL A   1      34.758  33.012  31.427  1.00  0.00     0.198 A 
ATOM     73  C   UNL A   1      35.290  33.292  29.114  1.00  0.00     0.198 A 
ATOM     74  F   UNL A   1      37.162  32.238  28.192  1.00  0.00    -0.203 F 
ATOM     75  F   UNL A   1      34.016  33.340  32.495  1.00  0.00    -0.200 F 
ATOM     76  C   UNL A   1      34.497  33.604  30.203  1.00  0.00     0.200 A 
ATOM     77  F   UNL A   1      35.069  33.892  27.936  1.00  0.00    -0.200 F 
ATOM     78  F   UNL A   1      33.513  34.508  30.083  1.00  0.00    -0.200 F 
ENDBRANCH  44  68
BRANCH  56  79
ATOM     79  C   UNL A   1      41.937  30.245  33.649  1.00  0.00     0.064 A 
ATOM     80  C   UNL A   1      41.580  28.906  33.419  1.00  0.00     0.173 A 
ATOM     81  C   UNL A   1      42.262  30.612  34.962  1.00  0.00     0.173 A 
ATOM     82  F   UNL A   1      41.330  28.459  32.183  1.00  0.00    -0.203 F 
ATOM     83  C   UNL A   1      41.547  27.980  34.462  1.00  0.00     0.198 A 
ATOM     84  C   UNL A   1      42.261  29.679  35.993  1.00  0.00     0.198 A 
ATOM     85  F   UNL A   1      42.649  31.869  35.230  1.00  0.00    -0.203 F 
ATOM     86  F   UNL A   1      41.214  26.703  34.219  1.00  0.00    -0.200 F 
ATOM     87  C   UNL A   1      41.903  28.365  35.744  1.00  0.00     0.200 A 
ATOM     88  F   UNL A   1      42.651  30.047  37.223  1.00  0.00    -0.200 F 
ATOM     89  F   UNL A   1      41.931  27.463  36.735  1.00  0.00    -0.200 F 
ENDBRANCH  56  79
ENDBRANCH  30  31
ENDBRANCH  22  25
ENDBRANCH  20  21
ENDBRANCH  19  20
ENDBRANCH   1  19
TORSDOF 13
ENDMDL
