MODEL 1
REMARK VINA RESULT:     -12.1      0.000      0.000
REMARK SMILES CC1(C)C(NC(=O)N[C@]2(C(=O)NCCCCNC(=O)c3ccc(-c4c5nc(c(-c6c(F)c(F)c(F)c(F)c6F)c6ccc([nH]6)c(-c6c(F)c(F)c(F)c(F)c6F)c6nc(c(-c7c(F)c(F)c(F)c(F)c7F)c7ccc4[nH]7)C=C6)C=C5)cc3)CC[C@@H](C)CC2)C1(C)C
REMARK SMILES IDX 14 1 13 2 12 3 10 4 11 5 9 7 86 8 85 9 87 10 84 11 88 12
REMARK SMILES IDX 83 13 8 14 6 15 7 17 5 18 4 20 2 21 89 22 1 23 3 24 90 25
REMARK SMILES IDX 91 26 15 27 16 28 17 29 18 30 19 32 20 33 21 34 82 35 22 36
REMARK SMILES IDX 81 37 23 38 24 39 25 40 75 41 26 42 80 43 74 44 76 45 27 46
REMARK SMILES IDX 79 47 73 48 72 49 28 51 60 52 40 53 59 54 41 55 44 56 58 57
REMARK SMILES IDX 77 58 42 59 43 60 57 62 78 63 45 64 29 65 30 66 38 67 31 68
REMARK SMILES IDX 32 69 36 70 39 71 33 72 34 73 37 74 35 75 61 76 62 77 70 78
REMARK SMILES IDX 63 79 64 80 68 81 71 82 65 83 66 84 69 85 67 86 46 87 47 88
REMARK SMILES IDX 55 89 48 90 49 91 53 92 56 93 50 94 51 95 54 96 52 97
REMARK H PARENT 12 6 8 16 5 19 17 31 76 50 44 61
REMARK Flexibility Score: inf
ROOT
ATOM      1  C   UNL A   1      32.159  28.283  27.303  1.00  0.00     0.023 C 
ENDROOT
BRANCH   1   2
ATOM      2  C   UNL A   1      31.234  27.099  27.042  1.00  0.00     0.116 C 
BRANCH   2   3
ATOM      3  N   UNL A   1      30.627  27.209  25.730  1.00  0.00    -0.354 N 
ATOM      4  C   UNL A   1      30.429  26.276  24.757  1.00  0.00     0.245 C 
ATOM      5  O   UNL A   1      29.950  26.698  23.701  1.00  0.00    -0.272 OA
ATOM      6  H   UNL A   1      30.305  28.112  25.503  1.00  0.00     0.163 HD
BRANCH   4   7
ATOM      7  C   UNL A   1      30.971  24.826  24.901  1.00  0.00     0.120 C 
ATOM      8  C   UNL A   1      33.036  26.212  21.486  1.00  0.00     0.007 C 
ATOM      9  C   UNL A   1      32.860  25.145  22.576  1.00  0.00    -0.014 C 
ATOM     10  C   UNL A   1      31.485  24.475  22.400  1.00  0.00     0.006 C 
ATOM     11  C   UNL A   1      33.142  25.761  23.956  1.00  0.00     0.006 C 
ATOM     12  C   UNL A   1      30.854  23.909  23.668  1.00  0.00     0.039 C 
ATOM     13  C   UNL A   1      32.504  24.993  25.119  1.00  0.00     0.039 C 
BRANCH   7  14
ATOM     14  N   UNL A   1      30.338  24.162  26.057  1.00  0.00    -0.324 N 
ATOM     15  C   UNL A   1      30.476  22.966  26.652  1.00  0.00     0.315 C 
ATOM     16  H   UNL A   1      29.659  24.726  26.493  1.00  0.00     0.166 HD
ATOM     17  O   UNL A   1      29.872  22.806  27.717  1.00  0.00    -0.249 OA
ATOM     18  N   UNL A   1      31.162  21.912  26.165  1.00  0.00    -0.334 N 
ATOM     19  H   UNL A   1      31.075  21.112  26.734  1.00  0.00     0.165 HD
BRANCH  18  20
ATOM     20  C   UNL A   1      31.987  21.675  25.020  1.00  0.00     0.096 C 
ATOM     21  C   UNL A   1      33.499  21.490  25.121  1.00  0.00    -0.007 C 
ATOM     22  C   UNL A   1      32.612  20.313  24.698  1.00  0.00    -0.007 C 
ATOM     23  C   UNL A   1      34.324  22.215  24.074  1.00  0.00     0.014 C 
ATOM     24  C   UNL A   1      34.221  21.405  26.445  1.00  0.00     0.014 C 
ATOM     25  C   UNL A   1      32.433  19.148  25.643  1.00  0.00     0.014 C 
ATOM     26  C   UNL A   1      32.699  19.839  23.260  1.00  0.00     0.014 C 
ENDBRANCH  18  20
ENDBRANCH   7  14
ENDBRANCH   4   7
ENDBRANCH   2   3
ENDBRANCH   1   2
BRANCH   1  27
ATOM     27  C   UNL A   1      33.613  28.014  26.913  1.00  0.00     0.023 C 
BRANCH  27  28
ATOM     28  C   UNL A   1      34.263  29.154  26.139  1.00  0.00     0.116 C 
BRANCH  28  29
ATOM     29  N   UNL A   1      33.950  30.448  26.717  1.00  0.00    -0.352 N 
ATOM     30  C   UNL A   1      34.548  31.083  27.770  1.00  0.00     0.251 C 
ATOM     31  H   UNL A   1      33.206  30.935  26.294  1.00  0.00     0.163 HD
ATOM     32  O   UNL A   1      34.029  32.082  28.270  1.00  0.00    -0.269 OA
BRANCH  30  33
ATOM     33  C   UNL A   1      35.810  30.558  28.327  1.00  0.00     0.039 A 
ATOM     34  C   UNL A   1      37.012  30.904  27.708  1.00  0.00     0.014 A 
ATOM     35  C   UNL A   1      35.808  29.717  29.446  1.00  0.00     0.014 A 
ATOM     36  C   UNL A   1      38.218  30.437  28.232  1.00  0.00     0.010 A 
ATOM     37  C   UNL A   1      37.016  29.310  30.009  1.00  0.00     0.010 A 
ATOM     38  C   UNL A   1      38.232  29.654  29.398  1.00  0.00    -0.014 A 
BRANCH  38  39
ATOM     39  C   UNL A   1      39.515  29.175  29.970  1.00  0.00     0.031 A 
ATOM     40  C   UNL A   1      40.111  29.856  31.171  1.00  0.00     0.074 A 
ATOM     41  C   UNL A   1      40.157  28.140  29.394  1.00  0.00     0.049 A 
ATOM     42  N   UNL A   1      41.226  29.591  31.805  1.00  0.00    -0.248 NA
ATOM     43  C   UNL A   1      39.366  31.000  31.720  1.00  0.00     0.031 C 
ATOM     44  C   UNL A   1      39.700  27.420  28.205  1.00  0.00     0.029 A 
ATOM     45  N   UNL A   1      41.331  27.515  29.731  1.00  0.00    -0.354 N 
ATOM     46  C   UNL A   1      41.317  30.534  32.820  1.00  0.00     0.074 A 
ATOM     47  C   UNL A   1      40.176  31.413  32.683  1.00  0.00     0.031 C 
ATOM     48  C   UNL A   1      40.570  26.436  27.927  1.00  0.00     0.029 A 
ATOM     49  C   UNL A   1      41.662  26.478  28.893  1.00  0.00     0.049 A 
ATOM     50  H   UNL A   1      41.884  27.784  30.501  1.00  0.00     0.167 HD
ATOM     51  C   UNL A   1      42.254  30.642  33.792  1.00  0.00     0.037 A 
ATOM     52  C   UNL A   1      42.731  25.658  28.902  1.00  0.00     0.037 A 
ATOM     53  C   UNL A   1      43.379  29.755  33.936  1.00  0.00     0.049 A 
ATOM     54  C   UNL A   1      43.769  25.813  29.981  1.00  0.00     0.074 A 
ATOM     55  C   UNL A   1      44.353  29.750  34.919  1.00  0.00     0.029 A 
ATOM     56  N   UNL A   1      43.683  28.718  33.066  1.00  0.00    -0.354 N 
ATOM     57  N   UNL A   1      43.807  26.665  30.977  1.00  0.00    -0.248 NA
ATOM     58  C   UNL A   1      44.910  24.887  29.941  1.00  0.00     0.031 C 
ATOM     59  C   UNL A   1      45.276  28.744  34.614  1.00  0.00     0.029 A 
ATOM     60  C   UNL A   1      44.845  28.083  33.475  1.00  0.00     0.049 A 
ATOM     61  H   UNL A   1      43.151  28.468  32.275  1.00  0.00     0.167 HD
ATOM     62  C   UNL A   1      44.955  26.359  31.696  1.00  0.00     0.074 A 
ATOM     63  C   UNL A   1      45.577  25.234  31.031  1.00  0.00     0.031 C 
ATOM     64  C   UNL A   1      45.450  26.958  32.808  1.00  0.00     0.037 A 
BRANCH  51  65
ATOM     65  C   UNL A   1      42.104  31.763  34.780  1.00  0.00     0.064 A 
ATOM     66  C   UNL A   1      42.762  32.991  34.608  1.00  0.00     0.173 A 
ATOM     67  C   UNL A   1      41.260  31.623  35.893  1.00  0.00     0.173 A 
ATOM     68  F   UNL A   1      43.588  33.173  33.567  1.00  0.00    -0.203 F 
ATOM     69  C   UNL A   1      42.602  34.025  35.527  1.00  0.00     0.198 A 
ATOM     70  C   UNL A   1      41.078  32.671  36.792  1.00  0.00     0.198 A 
ATOM     71  F   UNL A   1      40.602  30.473  36.103  1.00  0.00    -0.203 F 
ATOM     72  F   UNL A   1      43.279  35.171  35.366  1.00  0.00    -0.200 F 
ATOM     73  C   UNL A   1      41.755  33.867  36.612  1.00  0.00     0.200 A 
ATOM     74  F   UNL A   1      40.248  32.521  37.833  1.00  0.00    -0.200 F 
ATOM     75  F   UNL A   1      41.596  34.867  37.491  1.00  0.00    -0.200 F 
ENDBRANCH  51  65
BRANCH  52  76
ATOM     76  C   UNL A   1      42.863  24.601  27.865  1.00  0.00     0.064 A 
ATOM     77  C   UNL A   1      42.471  23.281  28.125  1.00  0.00     0.173 A 
ATOM     78  C   UNL A   1      43.394  24.886  26.598  1.00  0.00     0.173 A 
ATOM     79  F   UNL A   1      41.977  22.954  29.328  1.00  0.00    -0.203 F 
ATOM     80  C   UNL A   1      42.625  22.282  27.166  1.00  0.00     0.198 A 
ATOM     81  C   UNL A   1      43.520  23.893  25.630  1.00  0.00     0.198 A 
ATOM     82  F   UNL A   1      43.781  26.135  26.297  1.00  0.00    -0.203 F 
ATOM     83  F   UNL A   1      42.288  21.019  27.459  1.00  0.00    -0.200 F 
ATOM     84  C   UNL A   1      43.144  22.589  25.917  1.00  0.00     0.200 A 
ATOM     85  F   UNL A   1      44.007  24.198  24.420  1.00  0.00    -0.200 F 
ATOM     86  F   UNL A   1      43.288  21.629  24.995  1.00  0.00    -0.200 F 
ENDBRANCH  52  76
BRANCH  64  87
ATOM     87  C   UNL A   1      46.707  26.386  33.399  1.00  0.00     0.064 A 
ATOM     88  C   UNL A   1      47.974  26.885  33.064  1.00  0.00     0.173 A 
ATOM     89  C   UNL A   1      46.638  25.350  34.342  1.00  0.00     0.173 A 
ATOM     90  F   UNL A   1      48.095  27.865  32.155  1.00  0.00    -0.203 F 
ATOM     91  C   UNL A   1      49.127  26.348  33.631  1.00  0.00     0.198 A 
ATOM     92  C   UNL A   1      47.790  24.839  34.932  1.00  0.00     0.198 A 
ATOM     93  F   UNL A   1      45.450  24.841  34.704  1.00  0.00    -0.203 F 
ATOM     94  F   UNL A   1      50.330  26.807  33.259  1.00  0.00    -0.200 F 
ATOM     95  C   UNL A   1      49.033  25.333  34.571  1.00  0.00     0.200 A 
ATOM     96  F   UNL A   1      47.697  23.867  35.851  1.00  0.00    -0.200 F 
ATOM     97  F   UNL A   1      50.144  24.824  35.121  1.00  0.00    -0.200 F 
ENDBRANCH  64  87
ENDBRANCH  38  39
ENDBRANCH  30  33
ENDBRANCH  28  29
ENDBRANCH  27  28
ENDBRANCH   1  27
TORSDOF 13
ENDMDL
MODEL 2
REMARK VINA RESULT:     -12.1      0.076      1.576
REMARK SMILES CC1(C)C(NC(=O)N[C@]2(C(=O)NCCCCNC(=O)c3ccc(-c4c5nc(c(-c6c(F)c(F)c(F)c(F)c6F)c6ccc([nH]6)c(-c6c(F)c(F)c(F)c(F)c6F)c6nc(c(-c7c(F)c(F)c(F)c(F)c7F)c7ccc4[nH]7)C=C6)C=C5)cc3)CC[C@@H](C)CC2)C1(C)C
REMARK SMILES IDX 14 1 13 2 12 3 10 4 11 5 9 7 86 8 85 9 87 10 84 11 88 12
REMARK SMILES IDX 83 13 8 14 6 15 7 17 5 18 4 20 2 21 89 22 1 23 3 24 90 25
REMARK SMILES IDX 91 26 15 27 16 28 17 29 18 30 19 32 20 33 21 34 82 35 22 36
REMARK SMILES IDX 81 37 23 38 24 39 25 40 75 41 26 42 80 43 74 44 76 45 27 46
REMARK SMILES IDX 79 47 73 48 72 49 28 51 60 52 40 53 59 54 41 55 44 56 58 57
REMARK SMILES IDX 77 58 42 59 43 60 57 62 78 63 45 64 29 65 30 66 38 67 31 68
REMARK SMILES IDX 32 69 36 70 39 71 33 72 34 73 37 74 35 75 61 76 62 77 70 78
REMARK SMILES IDX 63 79 64 80 68 81 71 82 65 83 66 84 69 85 67 86 46 87 47 88
REMARK SMILES IDX 55 89 48 90 49 91 53 92 56 93 50 94 51 95 54 96 52 97
REMARK H PARENT 12 6 8 16 5 19 17 31 76 50 44 61
REMARK Flexibility Score: inf
ROOT
ATOM      1  C   UNL A   1      32.155  28.307  27.267  1.00  0.00     0.023 C 
ENDROOT
BRANCH   1   2
ATOM      2  C   UNL A   1      31.235  27.118  27.014  1.00  0.00     0.116 C 
BRANCH   2   3
ATOM      3  N   UNL A   1      30.624  27.219  25.703  1.00  0.00    -0.354 N 
ATOM      4  C   UNL A   1      30.426  26.281  24.736  1.00  0.00     0.245 C 
ATOM      5  O   UNL A   1      29.943  26.695  23.679  1.00  0.00    -0.272 OA
ATOM      6  H   UNL A   1      30.299  28.120  25.472  1.00  0.00     0.163 HD
BRANCH   4   7
ATOM      7  C   UNL A   1      30.971  24.833  24.886  1.00  0.00     0.120 C 
ATOM      8  C   UNL A   1      33.060  26.221  21.487  1.00  0.00     0.007 C 
ATOM      9  C   UNL A   1      32.878  25.155  22.577  1.00  0.00    -0.014 C 
ATOM     10  C   UNL A   1      31.507  24.480  22.390  1.00  0.00     0.006 C 
ATOM     11  C   UNL A   1      33.148  25.773  23.959  1.00  0.00     0.006 C 
ATOM     12  C   UNL A   1      30.868  23.914  23.654  1.00  0.00     0.039 C 
ATOM     13  C   UNL A   1      32.501  25.005  25.116  1.00  0.00     0.039 C 
BRANCH   7  14
ATOM     14  N   UNL A   1      30.331  24.168  26.038  1.00  0.00    -0.324 N 
ATOM     15  C   UNL A   1      30.459  22.968  26.628  1.00  0.00     0.315 C 
ATOM     16  H   UNL A   1      29.654  24.734  26.474  1.00  0.00     0.166 HD
ATOM     17  O   UNL A   1      29.850  22.808  27.690  1.00  0.00    -0.249 OA
ATOM     18  N   UNL A   1      31.139  21.911  26.137  1.00  0.00    -0.334 N 
ATOM     19  H   UNL A   1      31.045  21.110  26.703  1.00  0.00     0.165 HD
BRANCH  18  20
ATOM     20  C   UNL A   1      31.966  21.674  24.995  1.00  0.00     0.096 C 
ATOM     21  C   UNL A   1      33.477  21.490  25.097  1.00  0.00    -0.007 C 
ATOM     22  C   UNL A   1      32.592  20.312  24.674  1.00  0.00    -0.007 C 
ATOM     23  C   UNL A   1      34.303  22.214  24.050  1.00  0.00     0.014 C 
ATOM     24  C   UNL A   1      34.198  21.406  26.422  1.00  0.00     0.014 C 
ATOM     25  C   UNL A   1      32.412  19.148  25.620  1.00  0.00     0.014 C 
ATOM     26  C   UNL A   1      32.681  19.837  23.237  1.00  0.00     0.014 C 
ENDBRANCH  18  20
ENDBRANCH   7  14
ENDBRANCH   4   7
ENDBRANCH   2   3
ENDBRANCH   1   2
BRANCH   1  27
ATOM     27  C   UNL A   1      33.612  28.038  26.887  1.00  0.00     0.023 C 
BRANCH  27  28
ATOM     28  C   UNL A   1      34.266  29.179  26.116  1.00  0.00     0.116 C 
BRANCH  28  29
ATOM     29  N   UNL A   1      33.957  30.472  26.697  1.00  0.00    -0.352 N 
ATOM     30  C   UNL A   1      34.556  31.102  27.753  1.00  0.00     0.251 C 
ATOM     31  H   UNL A   1      33.216  30.963  26.274  1.00  0.00     0.163 HD
ATOM     32  O   UNL A   1      34.039  32.101  28.255  1.00  0.00    -0.269 OA
BRANCH  30  33
ATOM     33  C   UNL A   1      35.814  30.570  28.311  1.00  0.00     0.039 A 
ATOM     34  C   UNL A   1      37.018  30.895  27.683  1.00  0.00     0.014 A 
ATOM     35  C   UNL A   1      35.809  29.743  29.440  1.00  0.00     0.014 A 
ATOM     36  C   UNL A   1      38.221  30.423  28.207  1.00  0.00     0.010 A 
ATOM     37  C   UNL A   1      37.015  29.330  30.003  1.00  0.00     0.010 A 
ATOM     38  C   UNL A   1      38.232  29.654  29.383  1.00  0.00    -0.014 A 
BRANCH  38  39
ATOM     39  C   UNL A   1      39.513  29.168  29.955  1.00  0.00     0.031 A 
ATOM     40  C   UNL A   1      40.112  29.846  31.155  1.00  0.00     0.074 A 
ATOM     41  C   UNL A   1      40.149  28.130  29.378  1.00  0.00     0.049 A 
ATOM     42  N   UNL A   1      41.225  29.576  31.790  1.00  0.00    -0.248 NA
ATOM     43  C   UNL A   1      39.373  30.994  31.704  1.00  0.00     0.031 C 
ATOM     44  C   UNL A   1      39.689  27.412  28.190  1.00  0.00     0.029 A 
ATOM     45  N   UNL A   1      41.320  27.499  29.716  1.00  0.00    -0.354 N 
ATOM     46  C   UNL A   1      41.321  30.518  32.805  1.00  0.00     0.074 A 
ATOM     47  C   UNL A   1      40.184  31.403  32.668  1.00  0.00     0.031 C 
ATOM     48  C   UNL A   1      40.554  26.424  27.911  1.00  0.00     0.029 A 
ATOM     49  C   UNL A   1      41.647  26.460  28.878  1.00  0.00     0.049 A 
ATOM     50  H   UNL A   1      41.874  27.765  30.486  1.00  0.00     0.167 HD
ATOM     51  C   UNL A   1      42.258  30.622  33.777  1.00  0.00     0.037 A 
ATOM     52  C   UNL A   1      42.711  25.636  28.887  1.00  0.00     0.037 A 
ATOM     53  C   UNL A   1      43.378  29.729  33.921  1.00  0.00     0.049 A 
ATOM     54  C   UNL A   1      43.749  25.786  29.966  1.00  0.00     0.074 A 
ATOM     55  C   UNL A   1      44.353  29.719  34.904  1.00  0.00     0.029 A 
ATOM     56  N   UNL A   1      43.678  28.690  33.051  1.00  0.00    -0.354 N 
ATOM     57  N   UNL A   1      43.792  26.637  30.962  1.00  0.00    -0.248 NA
ATOM     58  C   UNL A   1      44.886  24.854  29.926  1.00  0.00     0.031 C 
ATOM     59  C   UNL A   1      45.271  28.709  34.600  1.00  0.00     0.029 A 
ATOM     60  C   UNL A   1      44.837  28.050  33.461  1.00  0.00     0.049 A 
ATOM     61  H   UNL A   1      43.145  28.444  32.261  1.00  0.00     0.167 HD
ATOM     62  C   UNL A   1      44.938  26.325  31.681  1.00  0.00     0.074 A 
ATOM     63  C   UNL A   1      45.555  25.197  31.017  1.00  0.00     0.031 C 
ATOM     64  C   UNL A   1      45.436  26.922  32.793  1.00  0.00     0.037 A 
BRANCH  51  65
ATOM     65  C   UNL A   1      42.114  31.743  34.765  1.00  0.00     0.064 A 
ATOM     66  C   UNL A   1      41.361  31.598  35.941  1.00  0.00     0.173 A 
ATOM     67  C   UNL A   1      42.769  32.966  34.555  1.00  0.00     0.173 A 
ATOM     68  F   UNL A   1      40.706  30.453  36.185  1.00  0.00    -0.203 F 
ATOM     69  C   UNL A   1      41.247  32.644  36.853  1.00  0.00     0.198 A 
ATOM     70  C   UNL A   1      42.679  33.999  35.486  1.00  0.00     0.198 A 
ATOM     71  F   UNL A   1      43.507  33.157  33.451  1.00  0.00    -0.203 F 
ATOM     72  F   UNL A   1      40.483  32.498  37.945  1.00  0.00    -0.200 F 
ATOM     73  C   UNL A   1      41.912  33.839  36.629  1.00  0.00     0.200 A 
ATOM     74  F   UNL A   1      43.334  35.148  35.274  1.00  0.00    -0.200 F 
ATOM     75  F   UNL A   1      41.808  34.842  37.513  1.00  0.00    -0.200 F 
ENDBRANCH  51  65
BRANCH  52  76
ATOM     76  C   UNL A   1      42.838  24.578  27.850  1.00  0.00     0.064 A 
ATOM     77  C   UNL A   1      42.433  23.262  28.107  1.00  0.00     0.173 A 
ATOM     78  C   UNL A   1      43.377  24.859  26.585  1.00  0.00     0.173 A 
ATOM     79  F   UNL A   1      41.931  22.939  29.308  1.00  0.00    -0.203 F 
ATOM     80  C   UNL A   1      42.581  22.261  27.149  1.00  0.00     0.198 A 
ATOM     81  C   UNL A   1      43.498  23.865  25.618  1.00  0.00     0.198 A 
ATOM     82  F   UNL A   1      43.777  26.104  26.287  1.00  0.00    -0.203 F 
ATOM     83  F   UNL A   1      42.232  21.001  27.439  1.00  0.00    -0.200 F 
ATOM     84  C   UNL A   1      43.109  22.565  25.903  1.00  0.00     0.200 A 
ATOM     85  F   UNL A   1      43.993  24.166  24.410  1.00  0.00    -0.200 F 
ATOM     86  F   UNL A   1      43.248  21.604  24.980  1.00  0.00    -0.200 F 
ENDBRANCH  52  76
BRANCH  64  87
ATOM     87  C   UNL A   1      46.690  26.344  33.385  1.00  0.00     0.064 A 
ATOM     88  C   UNL A   1      46.652  25.289  34.309  1.00  0.00     0.173 A 
ATOM     89  C   UNL A   1      47.947  26.827  32.991  1.00  0.00     0.173 A 
ATOM     90  F   UNL A   1      45.475  24.802  34.729  1.00  0.00    -0.203 F 
ATOM     91  C   UNL A   1      47.827  24.759  34.837  1.00  0.00     0.198 A 
ATOM     92  C   UNL A   1      49.119  26.272  33.496  1.00  0.00     0.198 A 
ATOM     93  F   UNL A   1      48.039  27.829  32.104  1.00  0.00    -0.203 F 
ATOM     94  F   UNL A   1      47.766  23.785  35.756  1.00  0.00    -0.200 F 
ATOM     95  C   UNL A   1      49.058  25.244  34.423  1.00  0.00     0.200 A 
ATOM     96  F   UNL A   1      50.308  26.733  33.084  1.00  0.00    -0.200 F 
ATOM     97  F   UNL A   1      50.187  24.727  34.927  1.00  0.00    -0.200 F 
ENDBRANCH  64  87
ENDBRANCH  38  39
ENDBRANCH  30  33
ENDBRANCH  28  29
ENDBRANCH  27  28
ENDBRANCH   1  27
TORSDOF 13
ENDMDL
MODEL 3
REMARK VINA RESULT:     -12.0      1.614      2.340
REMARK SMILES CC1(C)C(NC(=O)N[C@]2(C(=O)NCCCCNC(=O)c3ccc(-c4c5nc(c(-c6c(F)c(F)c(F)c(F)c6F)c6ccc([nH]6)c(-c6c(F)c(F)c(F)c(F)c6F)c6nc(c(-c7c(F)c(F)c(F)c(F)c7F)c7ccc4[nH]7)C=C6)C=C5)cc3)CC[C@@H](C)CC2)C1(C)C
REMARK SMILES IDX 14 1 13 2 12 3 10 4 11 5 9 7 86 8 85 9 87 10 84 11 88 12
REMARK SMILES IDX 83 13 8 14 6 15 7 17 5 18 4 20 2 21 89 22 1 23 3 24 90 25
REMARK SMILES IDX 91 26 15 27 16 28 17 29 18 30 19 32 20 33 21 34 82 35 22 36
REMARK SMILES IDX 81 37 23 38 24 39 25 40 75 41 26 42 80 43 74 44 76 45 27 46
REMARK SMILES IDX 79 47 73 48 72 49 28 51 60 52 40 53 59 54 41 55 44 56 58 57
REMARK SMILES IDX 77 58 42 59 43 60 57 62 78 63 45 64 29 65 30 66 38 67 31 68
REMARK SMILES IDX 32 69 36 70 39 71 33 72 34 73 37 74 35 75 61 76 62 77 70 78
REMARK SMILES IDX 63 79 64 80 68 81 71 82 65 83 66 84 69 85 67 86 46 87 47 88
REMARK SMILES IDX 55 89 48 90 49 91 53 92 56 93 50 94 51 95 54 96 52 97
REMARK H PARENT 12 6 8 16 5 19 17 31 76 50 44 61
REMARK Flexibility Score: inf
ROOT
ATOM      1  C   UNL A   1      31.798  28.487  27.593  1.00  0.00     0.023 C 
ENDROOT
BRANCH   1   2
ATOM      2  C   UNL A   1      31.411  27.112  27.058  1.00  0.00     0.116 C 
BRANCH   2   3
ATOM      3  N   UNL A   1      30.736  27.237  25.781  1.00  0.00    -0.354 N 
ATOM      4  C   UNL A   1      30.466  26.310  24.821  1.00  0.00     0.245 C 
ATOM      5  O   UNL A   1      29.938  26.743  23.792  1.00  0.00    -0.272 OA
ATOM      6  H   UNL A   1      30.420  28.146  25.573  1.00  0.00     0.163 HD
BRANCH   4   7
ATOM      7  C   UNL A   1      30.984  24.848  24.934  1.00  0.00     0.120 C 
ATOM      8  C   UNL A   1      33.079  26.275  21.555  1.00  0.00     0.007 C 
ATOM      9  C   UNL A   1      32.884  25.188  22.621  1.00  0.00    -0.014 C 
ATOM     10  C   UNL A   1      31.499  24.544  22.428  1.00  0.00     0.006 C 
ATOM     11  C   UNL A   1      33.173  25.769  24.015  1.00  0.00     0.006 C 
ATOM     12  C   UNL A   1      30.856  23.960  23.682  1.00  0.00     0.039 C 
ATOM     13  C   UNL A   1      32.519  24.986  25.159  1.00  0.00     0.039 C 
BRANCH   7  14
ATOM     14  N   UNL A   1      30.338  24.170  26.074  1.00  0.00    -0.324 N 
ATOM     15  C   UNL A   1      30.458  22.960  26.645  1.00  0.00     0.315 C 
ATOM     16  H   UNL A   1      29.664  24.733  26.519  1.00  0.00     0.166 HD
ATOM     17  O   UNL A   1      29.847  22.786  27.704  1.00  0.00    -0.249 OA
ATOM     18  N   UNL A   1      31.132  21.907  26.139  1.00  0.00    -0.334 N 
ATOM     19  H   UNL A   1      31.032  21.097  26.692  1.00  0.00     0.165 HD
BRANCH  18  20
ATOM     20  C   UNL A   1      31.959  21.683  24.994  1.00  0.00     0.096 C 
ATOM     21  C   UNL A   1      33.469  21.488  25.095  1.00  0.00    -0.007 C 
ATOM     22  C   UNL A   1      32.577  20.322  24.653  1.00  0.00    -0.007 C 
ATOM     23  C   UNL A   1      34.301  22.223  24.060  1.00  0.00     0.014 C 
ATOM     24  C   UNL A   1      34.187  21.379  26.419  1.00  0.00     0.014 C 
ATOM     25  C   UNL A   1      32.389  19.144  25.580  1.00  0.00     0.014 C 
ATOM     26  C   UNL A   1      32.665  19.869  23.208  1.00  0.00     0.014 C 
ENDBRANCH  18  20
ENDBRANCH   7  14
ENDBRANCH   4   7
ENDBRANCH   2   3
ENDBRANCH   1   2
BRANCH   1  27
ATOM     27  C   UNL A   1      31.710  29.594  26.541  1.00  0.00     0.023 C 
BRANCH  27  28
ATOM     28  C   UNL A   1      33.021  30.340  26.325  1.00  0.00     0.116 C 
BRANCH  28  29
ATOM     29  N   UNL A   1      32.892  31.756  26.612  1.00  0.00    -0.352 N 
ATOM     30  C   UNL A   1      33.591  32.515  27.509  1.00  0.00     0.251 C 
ATOM     31  H   UNL A   1      32.209  32.236  26.091  1.00  0.00     0.163 HD
ATOM     32  O   UNL A   1      33.218  33.657  27.782  1.00  0.00    -0.269 OA
BRANCH  30  33
ATOM     33  C   UNL A   1      34.786  31.958  28.173  1.00  0.00     0.039 A 
ATOM     34  C   UNL A   1      35.936  32.745  28.255  1.00  0.00     0.014 A 
ATOM     35  C   UNL A   1      34.779  30.661  28.700  1.00  0.00     0.014 A 
ATOM     36  C   UNL A   1      37.069  32.247  28.898  1.00  0.00     0.010 A 
ATOM     37  C   UNL A   1      35.887  30.192  29.403  1.00  0.00     0.010 A 
ATOM     38  C   UNL A   1      37.048  30.975  29.496  1.00  0.00    -0.014 A 
BRANCH  38  39
ATOM     39  C   UNL A   1      38.245  30.452  30.201  1.00  0.00     0.031 A 
ATOM     40  C   UNL A   1      38.531  30.863  31.618  1.00  0.00     0.074 A 
ATOM     41  C   UNL A   1      39.089  29.623  29.555  1.00  0.00     0.049 A 
ATOM     42  N   UNL A   1      39.529  30.523  32.394  1.00  0.00    -0.248 NA
ATOM     43  C   UNL A   1      37.580  31.798  32.240  1.00  0.00     0.031 C 
ATOM     44  C   UNL A   1      38.941  29.179  28.169  1.00  0.00     0.029 A 
ATOM     45  N   UNL A   1      40.239  29.008  29.982  1.00  0.00    -0.354 N 
ATOM     46  C   UNL A   1      39.329  31.203  33.588  1.00  0.00     0.074 A 
ATOM     47  C   UNL A   1      38.146  32.019  33.416  1.00  0.00     0.031 C 
ATOM     48  C   UNL A   1      39.947  28.343  27.867  1.00  0.00     0.029 A 
ATOM     49  C   UNL A   1      40.829  28.220  29.023  1.00  0.00     0.049 A 
ATOM     50  H   UNL A   1      40.607  29.119  30.888  1.00  0.00     0.167 HD
ATOM     51  C   UNL A   1      40.051  31.133  34.732  1.00  0.00     0.037 A 
ATOM     52  C   UNL A   1      41.957  27.488  29.071  1.00  0.00     0.037 A 
ATOM     53  C   UNL A   1      41.216  30.306  34.906  1.00  0.00     0.049 A 
ATOM     54  C   UNL A   1      42.753  27.444  30.348  1.00  0.00     0.074 A 
ATOM     55  C   UNL A   1      41.985  30.127  36.043  1.00  0.00     0.029 A 
ATOM     56  N   UNL A   1      41.786  29.524  33.911  1.00  0.00    -0.354 N 
ATOM     57  N   UNL A   1      42.515  28.036  31.493  1.00  0.00    -0.248 NA
ATOM     58  C   UNL A   1      43.973  26.624  30.340  1.00  0.00     0.031 C 
ATOM     59  C   UNL A   1      43.050  29.279  35.721  1.00  0.00     0.029 A 
ATOM     60  C   UNL A   1      42.912  28.882  34.401  1.00  0.00     0.049 A 
ATOM     61  H   UNL A   1      41.440  29.438  32.993  1.00  0.00     0.167 HD
ATOM     62  C   UNL A   1      43.534  27.638  32.348  1.00  0.00     0.074 A 
ATOM     63  C   UNL A   1      44.385  26.742  31.595  1.00  0.00     0.031 C 
ATOM     64  C   UNL A   1      43.746  27.986  33.642  1.00  0.00     0.037 A 
BRANCH  51  65
ATOM     65  C   UNL A   1      39.601  31.977  35.890  1.00  0.00     0.064 A 
ATOM     66  C   UNL A   1      40.174  33.230  36.156  1.00  0.00     0.173 A 
ATOM     67  C   UNL A   1      38.556  31.546  36.722  1.00  0.00     0.173 A 
ATOM     68  F   UNL A   1      41.184  33.684  35.398  1.00  0.00    -0.203 F 
ATOM     69  C   UNL A   1      39.737  34.007  37.226  1.00  0.00     0.198 A 
ATOM     70  C   UNL A   1      38.099  32.339  37.771  1.00  0.00     0.198 A 
ATOM     71  F   UNL A   1      37.968  30.359  36.509  1.00  0.00    -0.203 F 
ATOM     72  F   UNL A   1      40.333  35.178  37.489  1.00  0.00    -0.200 F 
ATOM     73  C   UNL A   1      38.696  33.565  38.027  1.00  0.00     0.200 A 
ATOM     74  F   UNL A   1      37.084  31.917  38.536  1.00  0.00    -0.200 F 
ATOM     75  F   UNL A   1      38.271  34.317  39.052  1.00  0.00    -0.200 F 
ENDBRANCH  51  65
BRANCH  52  76
ATOM     76  C   UNL A   1      42.393  26.716  27.877  1.00  0.00     0.064 A 
ATOM     77  C   UNL A   1      43.295  27.261  26.954  1.00  0.00     0.173 A 
ATOM     78  C   UNL A   1      41.908  25.423  27.628  1.00  0.00     0.173 A 
ATOM     79  F   UNL A   1      43.771  28.502  27.136  1.00  0.00    -0.203 F 
ATOM     80  C   UNL A   1      43.680  26.554  25.817  1.00  0.00     0.198 A 
ATOM     81  C   UNL A   1      42.316  24.704  26.508  1.00  0.00     0.198 A 
ATOM     82  F   UNL A   1      41.045  24.854  28.483  1.00  0.00    -0.203 F 
ATOM     83  F   UNL A   1      44.505  27.118  24.926  1.00  0.00    -0.200 F 
ATOM     84  C   UNL A   1      43.194  25.273  25.598  1.00  0.00     0.200 A 
ATOM     85  F   UNL A   1      41.856  23.462  26.308  1.00  0.00    -0.200 F 
ATOM     86  F   UNL A   1      43.567  24.591  24.507  1.00  0.00    -0.200 F 
ENDBRANCH  52  76
BRANCH  64  87
ATOM     87  C   UNL A   1      44.924  27.366  34.338  1.00  0.00     0.064 A 
ATOM     88  C   UNL A   1      46.184  27.983  34.350  1.00  0.00     0.173 A 
ATOM     89  C   UNL A   1      44.779  26.157  35.036  1.00  0.00     0.173 A 
ATOM     90  F   UNL A   1      46.379  29.132  33.685  1.00  0.00    -0.203 F 
ATOM     91  C   UNL A   1      47.260  27.398  35.011  1.00  0.00     0.198 A 
ATOM     92  C   UNL A   1      45.849  25.593  35.724  1.00  0.00     0.198 A 
ATOM     93  F   UNL A   1      43.593  25.529  35.063  1.00  0.00    -0.203 F 
ATOM     94  F   UNL A   1      48.467  27.980  34.967  1.00  0.00    -0.200 F 
ATOM     95  C   UNL A   1      47.090  26.209  35.704  1.00  0.00     0.200 A 
ATOM     96  F   UNL A   1      45.679  24.451  36.405  1.00  0.00    -0.200 F 
ATOM     97  F   UNL A   1      48.126  25.652  36.346  1.00  0.00    -0.200 F 
ENDBRANCH  64  87
ENDBRANCH  38  39
ENDBRANCH  30  33
ENDBRANCH  28  29
ENDBRANCH  27  28
ENDBRANCH   1  27
TORSDOF 13
ENDMDL
