MODEL 1
REMARK VINA RESULT:     -13.6      0.000      0.000
REMARK SMILES CC(=O)Oc1ccc2oc(N)c([C@@H]3[NH2+][C@@H](C(=O)NCCCCNC(=O)c4ccc(-c5c6nc(c(-c7c(F)c(F)c(F)c(F)c7F)c7ccc([nH]7)c(-c7c(F)c(F)c(F)c(F)c7F)c7nc(c(-c8c(F)c(F)c(F)c(F)c8F)c8ccc5[nH]8)C=C7)C=C6)cc4)C(C)(C)S3)c(=O)c2c1
REMARK SMILES IDX 20 1 19 2 18 3 16 4 17 5 15 7 13 8 14 9 92 10 89 13 90 14
REMARK SMILES IDX 91 15 12 16 5 17 6 18 96 19 7 20 95 21 8 22 93 23 9 24 94 25
REMARK SMILES IDX 10 26 4 27 2 28 1 29 3 30 11 31 21 34 22 35 23 36 24 37
REMARK SMILES IDX 25 39 26 40 27 41 88 42 28 43 87 44 29 45 30 46 31 47 81 48
REMARK SMILES IDX 32 49 86 50 80 51 82 52 33 53 85 54 79 55 78 56 34 58 66 59
REMARK SMILES IDX 46 60 65 61 47 62 50 63 64 64 83 65 48 66 49 67 63 69 84 70
REMARK SMILES IDX 51 71 35 72 36 73 44 74 37 75 38 76 42 77 45 78 39 79 40 80
REMARK SMILES IDX 43 81 41 82 67 83 68 84 76 85 69 86 70 87 74 88 77 89 71 90
REMARK SMILES IDX 72 91 75 92 73 93 52 94 53 95 61 96 54 97 55 98 59 99 62 100
REMARK SMILES IDX 56 101 57 102 60 103 58 104
REMARK H PARENT 18 6 14 11 14 12 11 32 11 33 23 38 82 57 50 68
REMARK Flexibility Score: inf
ROOT
ATOM      1  C   UNL A   1      32.514  29.835  27.120  1.00  0.00     0.023 C 
ENDROOT
BRANCH   1   2
ATOM      2  C   UNL A   1      33.715  29.256  26.365  1.00  0.00     0.116 C 
BRANCH   2   3
ATOM      3  N   UNL A   1      33.648  29.514  24.938  1.00  0.00    -0.351 N 
ATOM      4  C   UNL A   1      33.286  28.768  23.859  1.00  0.00     0.279 C 
ATOM      5  O   UNL A   1      33.447  29.316  22.761  1.00  0.00    -0.268 OA
ATOM      6  H   UNL A   1      33.923  30.428  24.699  1.00  0.00     0.163 HD
BRANCH   4   7
ATOM      7  C   UNL A   1      32.764  27.315  23.912  1.00  0.00     0.289 C 
ATOM      8  C   UNL A   1      32.793  25.122  22.923  1.00  0.00     0.284 C 
ATOM      9  N   UNL A   1      33.533  26.383  23.056  1.00  0.00    -0.320 N 
ATOM     10  S   UNL A   1      31.030  25.403  23.323  1.00  0.00    -0.081 SA
ATOM     11  H   UNL A   1      33.666  26.799  22.134  1.00  0.00     0.348 HD
ATOM     12  H   UNL A   1      34.442  26.202  23.481  1.00  0.00     0.348 HD
ATOM     13  C   UNL A   1      31.235  27.158  23.771  1.00  0.00     0.077 C 
ATOM     14  C   UNL A   1      30.524  27.938  22.678  1.00  0.00     0.030 C 
ATOM     15  C   UNL A   1      30.521  27.455  25.097  1.00  0.00     0.030 C 
BRANCH   8  16
ATOM     16  C   UNL A   1      33.335  23.944  23.700  1.00  0.00     0.128 A 
ATOM     17  C   UNL A   1      32.593  19.157  24.431  1.00  0.00     0.131 A 
ATOM     18  C   UNL A   1      33.072  19.321  25.735  1.00  0.00     0.051 A 
ATOM     19  C   UNL A   1      32.645  20.200  23.504  1.00  0.00     0.063 A 
ATOM     20  C   UNL A   1      33.605  20.548  26.119  1.00  0.00     0.052 A 
ATOM     21  C   UNL A   1      33.154  21.436  23.915  1.00  0.00     0.069 A 
ATOM     22  C   UNL A   1      33.646  21.596  25.203  1.00  0.00     0.140 A 
ATOM     23  C   UNL A   1      33.144  22.617  23.038  1.00  0.00     0.205 A 
ATOM     24  O   UNL A   1      34.204  22.769  25.619  1.00  0.00    -0.440 OA
ATOM     25  O   UNL A   1      32.908  22.502  21.840  1.00  0.00    -0.288 OA
ATOM     26  C   UNL A   1      33.849  23.928  24.953  1.00  0.00     0.205 A 
BRANCH  17  27
ATOM     27  O   UNL A   1      32.147  17.904  23.986  1.00  0.00    -0.427 OA
BRANCH  27  28
ATOM     28  C   UNL A   1      33.128  16.955  23.711  1.00  0.00     0.308 C 
ATOM     29  C   UNL A   1      33.100  15.907  24.783  1.00  0.00     0.139 C 
ATOM     30  O   UNL A   1      33.882  16.938  22.747  1.00  0.00    -0.252 OA
ENDBRANCH  27  28
ENDBRANCH  17  27
BRANCH  26  31
ATOM     31  N   UNL A   1      34.030  25.021  25.745  1.00  0.00    -0.369 N 
ATOM     32  H   UNL A   1      34.940  25.345  25.936  1.00  0.00     0.159 HD
ATOM     33  H   UNL A   1      33.251  25.487  26.127  1.00  0.00     0.159 HD
ENDBRANCH  26  31
ENDBRANCH   8  16
ENDBRANCH   4   7
ENDBRANCH   2   3
ENDBRANCH   1   2
BRANCH   1  34
ATOM     34  C   UNL A   1      32.231  31.309  26.877  1.00  0.00     0.023 C 
BRANCH  34  35
ATOM     35  C   UNL A   1      33.174  32.252  27.596  1.00  0.00     0.116 C 
BRANCH  35  36
ATOM     36  N   UNL A   1      32.673  33.619  27.696  1.00  0.00    -0.352 N 
ATOM     37  C   UNL A   1      33.113  34.645  28.507  1.00  0.00     0.251 C 
ATOM     38  H   UNL A   1      31.917  33.839  27.105  1.00  0.00     0.163 HD
ATOM     39  O   UNL A   1      32.526  35.712  28.548  1.00  0.00    -0.269 OA
BRANCH  37  40
ATOM     40  C   UNL A   1      34.287  34.395  29.368  1.00  0.00     0.039 A 
ATOM     41  C   UNL A   1      35.569  34.584  28.855  1.00  0.00     0.014 A 
ATOM     42  C   UNL A   1      34.102  33.844  30.638  1.00  0.00     0.014 A 
ATOM     43  C   UNL A   1      36.643  33.994  29.499  1.00  0.00     0.010 A 
ATOM     44  C   UNL A   1      35.208  33.368  31.345  1.00  0.00     0.010 A 
ATOM     45  C   UNL A   1      36.478  33.370  30.748  1.00  0.00    -0.014 A 
BRANCH  45  46
ATOM     46  C   UNL A   1      37.657  32.714  31.372  1.00  0.00     0.031 A 
ATOM     47  C   UNL A   1      38.071  33.035  32.784  1.00  0.00     0.074 A 
ATOM     48  C   UNL A   1      38.286  31.738  30.690  1.00  0.00     0.049 A 
ATOM     49  N   UNL A   1      39.018  32.489  33.506  1.00  0.00    -0.248 NA
ATOM     50  C   UNL A   1      37.343  34.110  33.475  1.00  0.00     0.031 C 
ATOM     51  C   UNL A   1      37.966  31.340  29.317  1.00  0.00     0.029 A 
ATOM     52  N   UNL A   1      39.273  30.867  31.067  1.00  0.00    -0.354 N 
ATOM     53  C   UNL A   1      39.025  33.177  34.713  1.00  0.00     0.074 A 
ATOM     54  C   UNL A   1      38.000  34.193  34.624  1.00  0.00     0.031 C 
ATOM     55  C   UNL A   1      38.664  30.240  29.006  1.00  0.00     0.029 A 
ATOM     56  C   UNL A   1      39.540  29.905  30.123  1.00  0.00     0.049 A 
ATOM     57  H   UNL A   1      39.744  30.924  31.929  1.00  0.00     0.167 HD
ATOM     58  C   UNL A   1      39.808  32.970  35.798  1.00  0.00     0.037 A 
ATOM     59  C   UNL A   1      40.396  28.868  30.149  1.00  0.00     0.037 A 
ATOM     60  C   UNL A   1      40.787  31.918  35.901  1.00  0.00     0.049 A 
ATOM     61  C   UNL A   1      41.257  28.665  31.359  1.00  0.00     0.074 A 
ATOM     62  C   UNL A   1      41.585  31.588  36.982  1.00  0.00     0.029 A 
ATOM     63  N   UNL A   1      41.094  31.024  34.887  1.00  0.00    -0.354 N 
ATOM     64  N   UNL A   1      41.248  29.320  32.493  1.00  0.00    -0.248 NA
ATOM     65  C   UNL A   1      42.266  27.601  31.282  1.00  0.00     0.031 C 
ATOM     66  C   UNL A   1      42.405  30.519  36.608  1.00  0.00     0.029 A 
ATOM     67  C   UNL A   1      42.093  30.161  35.306  1.00  0.00     0.049 A 
ATOM     68  H   UNL A   1      40.665  31.005  34.001  1.00  0.00     0.167 HD
ATOM     69  C   UNL A   1      42.258  28.762  33.261  1.00  0.00     0.074 A 
ATOM     70  C   UNL A   1      42.839  27.691  32.476  1.00  0.00     0.031 C 
ATOM     71  C   UNL A   1      42.673  29.116  34.501  1.00  0.00     0.037 A 
BRANCH  58  72
ATOM     72  C   UNL A   1      39.656  33.906  36.961  1.00  0.00     0.064 A 
ATOM     73  C   UNL A   1      40.283  35.160  36.989  1.00  0.00     0.173 A 
ATOM     74  C   UNL A   1      38.831  33.560  38.042  1.00  0.00     0.173 A 
ATOM     75  F   UNL A   1      41.091  35.534  35.986  1.00  0.00    -0.203 F 
ATOM     76  C   UNL A   1      40.105  36.025  38.067  1.00  0.00     0.198 A 
ATOM     77  C   UNL A   1      38.636  34.437  39.106  1.00  0.00     0.198 A 
ATOM     78  F   UNL A   1      38.202  32.375  38.061  1.00  0.00    -0.203 F 
ATOM     79  F   UNL A   1      40.745  37.203  38.091  1.00  0.00    -0.200 F 
ATOM     80  C   UNL A   1      39.278  35.666  39.121  1.00  0.00     0.200 A 
ATOM     81  F   UNL A   1      37.827  34.092  40.118  1.00  0.00    -0.200 F 
ATOM     82  F   UNL A   1      39.104  36.502  40.154  1.00  0.00    -0.200 F 
ENDBRANCH  58  72
BRANCH  59  83
ATOM     83  C   UNL A   1      40.459  27.955  28.981  1.00  0.00     0.064 A 
ATOM     84  C   UNL A   1      39.673  26.797  28.934  1.00  0.00     0.173 A 
ATOM     85  C   UNL A   1      41.236  28.267  27.855  1.00  0.00     0.173 A 
ATOM     86  F   UNL A   1      38.926  26.450  29.992  1.00  0.00    -0.203 F 
ATOM     87  C   UNL A   1      39.652  25.990  27.797  1.00  0.00     0.198 A 
ATOM     88  C   UNL A   1      41.193  27.476  26.710  1.00  0.00     0.198 A 
ATOM     89  F   UNL A   1      41.996  29.372  27.850  1.00  0.00    -0.203 F 
ATOM     90  F   UNL A   1      38.899  24.883  27.777  1.00  0.00    -0.200 F 
ATOM     91  C   UNL A   1      40.402  26.339  26.682  1.00  0.00     0.200 A 
ATOM     92  F   UNL A   1      41.901  27.828  25.628  1.00  0.00    -0.200 F 
ATOM     93  F   UNL A   1      40.356  25.579  25.579  1.00  0.00    -0.200 F 
ENDBRANCH  59  83
BRANCH  71  94
ATOM     94  C   UNL A   1      43.832  28.364  35.080  1.00  0.00     0.064 A 
ATOM     95  C   UNL A   1      45.140  28.851  34.955  1.00  0.00     0.173 A 
ATOM     96  C   UNL A   1      43.626  27.200  35.834  1.00  0.00     0.173 A 
ATOM     97  F   UNL A   1      45.384  29.953  34.231  1.00  0.00    -0.203 F 
ATOM     98  C   UNL A   1      46.206  28.196  35.566  1.00  0.00     0.198 A 
ATOM     99  C   UNL A   1      44.693  26.560  36.459  1.00  0.00     0.198 A 
ATOM    100  F   UNL A   1      42.391  26.700  35.984  1.00  0.00    -0.203 F 
ATOM    101  F   UNL A   1      47.452  28.667  35.418  1.00  0.00    -0.200 F 
ATOM    102  C   UNL A   1      45.980  27.058  36.325  1.00  0.00     0.200 A 
ATOM    103  F   UNL A   1      44.472  25.466  37.202  1.00  0.00    -0.200 F 
ATOM    104  F   UNL A   1      47.005  26.439  36.928  1.00  0.00    -0.200 F 
ENDBRANCH  71  94
ENDBRANCH  45  46
ENDBRANCH  37  40
ENDBRANCH  35  36
ENDBRANCH  34  35
ENDBRANCH   1  34
TORSDOF 15
ENDMDL
MODEL 2
REMARK VINA RESULT:     -13.6      0.362      7.126
REMARK SMILES CC(=O)Oc1ccc2oc(N)c([C@@H]3[NH2+][C@@H](C(=O)NCCCCNC(=O)c4ccc(-c5c6nc(c(-c7c(F)c(F)c(F)c(F)c7F)c7ccc([nH]7)c(-c7c(F)c(F)c(F)c(F)c7F)c7nc(c(-c8c(F)c(F)c(F)c(F)c8F)c8ccc5[nH]8)C=C7)C=C6)cc4)C(C)(C)S3)c(=O)c2c1
REMARK SMILES IDX 20 1 19 2 18 3 16 4 17 5 15 7 13 8 14 9 92 10 89 13 90 14
REMARK SMILES IDX 91 15 12 16 5 17 6 18 96 19 7 20 95 21 8 22 93 23 9 24 94 25
REMARK SMILES IDX 10 26 4 27 2 28 1 29 3 30 11 31 21 34 22 35 23 36 24 37
REMARK SMILES IDX 25 39 26 40 27 41 88 42 28 43 87 44 29 45 30 46 31 47 81 48
REMARK SMILES IDX 32 49 86 50 80 51 82 52 33 53 85 54 79 55 78 56 34 58 66 59
REMARK SMILES IDX 46 60 65 61 47 62 50 63 64 64 83 65 48 66 49 67 63 69 84 70
REMARK SMILES IDX 51 71 35 72 36 73 44 74 37 75 38 76 42 77 45 78 39 79 40 80
REMARK SMILES IDX 43 81 41 82 67 83 68 84 76 85 69 86 70 87 74 88 77 89 71 90
REMARK SMILES IDX 72 91 75 92 73 93 52 94 53 95 61 96 54 97 55 98 59 99 62 100
REMARK SMILES IDX 56 101 57 102 60 103 58 104
REMARK H PARENT 18 6 14 11 14 12 11 32 11 33 23 38 82 57 50 68
REMARK Flexibility Score: inf
ROOT
ATOM      1  C   UNL A   1      32.084  30.226  26.870  1.00  0.00     0.023 C 
ENDROOT
BRANCH   1   2
ATOM      2  C   UNL A   1      33.336  29.520  26.340  1.00  0.00     0.116 C 
BRANCH   2   3
ATOM      3  N   UNL A   1      33.504  29.693  24.908  1.00  0.00    -0.351 N 
ATOM      4  C   UNL A   1      33.311  28.885  23.830  1.00  0.00     0.279 C 
ATOM      5  O   UNL A   1      33.655  29.367  22.742  1.00  0.00    -0.268 OA
ATOM      6  H   UNL A   1      33.826  30.590  24.664  1.00  0.00     0.163 HD
BRANCH   4   7
ATOM      7  C   UNL A   1      32.768  27.440  23.882  1.00  0.00     0.289 C 
ATOM      8  C   UNL A   1      32.776  25.244  22.901  1.00  0.00     0.284 C 
ATOM      9  N   UNL A   1      33.532  26.494  23.037  1.00  0.00    -0.320 N 
ATOM     10  S   UNL A   1      31.013  25.551  23.281  1.00  0.00    -0.081 SA
ATOM     11  H   UNL A   1      33.681  26.905  22.116  1.00  0.00     0.348 HD
ATOM     12  H   UNL A   1      34.434  26.302  23.473  1.00  0.00     0.348 HD
ATOM     13  C   UNL A   1      31.238  27.304  23.726  1.00  0.00     0.077 C 
ATOM     14  C   UNL A   1      30.550  28.091  22.622  1.00  0.00     0.030 C 
ATOM     15  C   UNL A   1      30.514  27.616  25.043  1.00  0.00     0.030 C 
BRANCH   8  16
ATOM     16  C   UNL A   1      33.293  24.060  23.687  1.00  0.00     0.128 A 
ATOM     17  C   UNL A   1      32.568  19.257  24.321  1.00  0.00     0.131 A 
ATOM     18  C   UNL A   1      32.983  19.409  25.648  1.00  0.00     0.051 A 
ATOM     19  C   UNL A   1      32.652  20.313  23.411  1.00  0.00     0.063 A 
ATOM     20  C   UNL A   1      33.484  20.635  26.073  1.00  0.00     0.052 A 
ATOM     21  C   UNL A   1      33.128  21.548  23.861  1.00  0.00     0.069 A 
ATOM     22  C   UNL A   1      33.557  21.696  25.173  1.00  0.00     0.140 A 
ATOM     23  C   UNL A   1      33.148  22.741  23.000  1.00  0.00     0.205 A 
ATOM     24  O   UNL A   1      34.082  22.869  25.630  1.00  0.00    -0.440 OA
ATOM     25  O   UNL A   1      32.969  22.639  21.791  1.00  0.00    -0.288 OA
ATOM     26  C   UNL A   1      33.747  24.033  24.963  1.00  0.00     0.205 A 
BRANCH  17  27
ATOM     27  O   UNL A   1      32.156  18.006  23.840  1.00  0.00    -0.427 OA
BRANCH  27  28
ATOM     28  C   UNL A   1      33.157  17.064  23.617  1.00  0.00     0.308 C 
ATOM     29  C   UNL A   1      33.145  16.072  24.741  1.00  0.00     0.139 C 
ATOM     30  O   UNL A   1      33.916  17.013  22.658  1.00  0.00    -0.252 OA
ENDBRANCH  27  28
ENDBRANCH  17  27
BRANCH  26  31
ATOM     31  N   UNL A   1      33.879  25.117  25.777  1.00  0.00    -0.369 N 
ATOM     32  H   UNL A   1      34.331  25.928  25.448  1.00  0.00     0.159 HD
ATOM     33  H   UNL A   1      33.523  25.091  26.694  1.00  0.00     0.159 HD
ENDBRANCH  26  31
ENDBRANCH   8  16
ENDBRANCH   4   7
ENDBRANCH   2   3
ENDBRANCH   1   2
BRANCH   1  34
ATOM     34  C   UNL A   1      32.021  31.726  26.631  1.00  0.00     0.023 C 
BRANCH  34  35
ATOM     35  C   UNL A   1      32.913  32.541  27.546  1.00  0.00     0.116 C 
BRANCH  35  36
ATOM     36  N   UNL A   1      32.511  33.938  27.664  1.00  0.00    -0.352 N 
ATOM     37  C   UNL A   1      32.982  34.904  28.530  1.00  0.00     0.251 C 
ATOM     38  H   UNL A   1      31.808  34.233  27.040  1.00  0.00     0.163 HD
ATOM     39  O   UNL A   1      32.475  36.011  28.575  1.00  0.00    -0.269 OA
BRANCH  37  40
ATOM     40  C   UNL A   1      34.084  34.540  29.443  1.00  0.00     0.039 A 
ATOM     41  C   UNL A   1      35.394  34.520  28.968  1.00  0.00     0.014 A 
ATOM     42  C   UNL A   1      33.787  34.090  30.732  1.00  0.00     0.014 A 
ATOM     43  C   UNL A   1      36.356  33.823  29.678  1.00  0.00     0.010 A 
ATOM     44  C   UNL A   1      34.795  33.503  31.501  1.00  0.00     0.010 A 
ATOM     45  C   UNL A   1      36.068  33.296  30.950  1.00  0.00    -0.014 A 
BRANCH  45  46
ATOM     46  C   UNL A   1      37.125  32.517  31.647  1.00  0.00     0.031 A 
ATOM     47  C   UNL A   1      37.882  31.423  30.942  1.00  0.00     0.074 A 
ATOM     48  C   UNL A   1      37.475  32.883  32.895  1.00  0.00     0.049 A 
ATOM     49  N   UNL A   1      38.892  30.710  31.377  1.00  0.00    -0.248 NA
ATOM     50  C   UNL A   1      37.452  31.072  29.580  1.00  0.00     0.031 C 
ATOM     51  C   UNL A   1      36.814  33.932  33.674  1.00  0.00     0.029 A 
ATOM     52  N   UNL A   1      38.501  32.467  33.703  1.00  0.00    -0.354 N 
ATOM     53  C   UNL A   1      39.187  29.806  30.365  1.00  0.00     0.074 A 
ATOM     54  C   UNL A   1      38.242  30.045  29.297  1.00  0.00     0.031 C 
ATOM     55  C   UNL A   1      37.511  34.151  34.796  1.00  0.00     0.029 A 
ATOM     56  C   UNL A   1      38.618  33.203  34.856  1.00  0.00     0.049 A 
ATOM     57  H   UNL A   1      39.095  31.715  33.478  1.00  0.00     0.167 HD
ATOM     58  C   UNL A   1      40.166  28.871  30.328  1.00  0.00     0.037 A 
ATOM     59  C   UNL A   1      39.514  33.125  35.856  1.00  0.00     0.037 A 
ATOM     60  C   UNL A   1      41.141  28.677  31.371  1.00  0.00     0.049 A 
ATOM     61  C   UNL A   1      40.583  32.077  35.795  1.00  0.00     0.074 A 
ATOM     62  C   UNL A   1      42.210  27.799  31.398  1.00  0.00     0.029 A 
ATOM     63  N   UNL A   1      41.167  29.380  32.566  1.00  0.00    -0.354 N 
ATOM     64  N   UNL A   1      40.853  31.233  34.830  1.00  0.00    -0.248 NA
ATOM     65  C   UNL A   1      41.452  31.947  36.972  1.00  0.00     0.031 C 
ATOM     66  C   UNL A   1      42.859  27.941  32.628  1.00  0.00     0.029 A 
ATOM     67  C   UNL A   1      42.216  28.932  33.353  1.00  0.00     0.049 A 
ATOM     68  H   UNL A   1      40.535  30.091  32.818  1.00  0.00     0.167 HD
ATOM     69  C   UNL A   1      41.910  30.460  35.285  1.00  0.00     0.074 A 
ATOM     70  C   UNL A   1      42.256  30.958  36.602  1.00  0.00     0.031 C 
ATOM     71  C   UNL A   1      42.529  29.425  34.670  1.00  0.00     0.037 A 
BRANCH  58  72
ATOM     72  C   UNL A   1      40.229  27.968  29.131  1.00  0.00     0.064 A 
ATOM     73  C   UNL A   1      39.533  26.751  29.082  1.00  0.00     0.173 A 
ATOM     74  C   UNL A   1      40.959  28.353  27.995  1.00  0.00     0.173 A 
ATOM     75  F   UNL A   1      38.830  26.334  30.146  1.00  0.00    -0.203 F 
ATOM     76  C   UNL A   1      39.584  25.943  27.949  1.00  0.00     0.198 A 
ATOM     77  C   UNL A   1      40.987  27.553  26.855  1.00  0.00     0.198 A 
ATOM     78  F   UNL A   1      41.636  29.511  27.986  1.00  0.00    -0.203 F 
ATOM     79  F   UNL A   1      38.942  24.766  27.940  1.00  0.00    -0.200 F 
ATOM     80  C   UNL A   1      40.304  26.347  26.835  1.00  0.00     0.200 A 
ATOM     81  F   UNL A   1      41.674  27.951  25.776  1.00  0.00    -0.200 F 
ATOM     82  F   UNL A   1      40.346  25.569  25.743  1.00  0.00    -0.200 F 
ENDBRANCH  58  72
BRANCH  59  83
ATOM     83  C   UNL A   1      39.419  34.081  36.987  1.00  0.00     0.064 A 
ATOM     84  C   UNL A   1      38.715  33.748  38.150  1.00  0.00     0.173 A 
ATOM     85  C   UNL A   1      40.102  35.307  36.961  1.00  0.00     0.173 A 
ATOM     86  F   UNL A   1      38.035  32.593  38.214  1.00  0.00    -0.203 F 
ATOM     87  C   UNL A   1      38.708  34.600  39.253  1.00  0.00     0.198 A 
ATOM     88  C   UNL A   1      40.116  36.145  38.073  1.00  0.00     0.198 A 
ATOM     89  F   UNL A   1      40.798  35.665  35.872  1.00  0.00    -0.203 F 
ATOM     90  F   UNL A   1      38.022  34.264  40.353  1.00  0.00    -0.200 F 
ATOM     91  C   UNL A   1      39.420  35.791  39.218  1.00  0.00     0.200 A 
ATOM     92  F   UNL A   1      40.823  37.283  38.042  1.00  0.00    -0.200 F 
ATOM     93  F   UNL A   1      39.438  36.595  40.290  1.00  0.00    -0.200 F 
ENDBRANCH  59  83
BRANCH  71  94
ATOM     94  C   UNL A   1      43.624  28.732  35.422  1.00  0.00     0.064 A 
ATOM     95  C   UNL A   1      43.342  27.654  36.272  1.00  0.00     0.173 A 
ATOM     96  C   UNL A   1      44.965  29.090  35.228  1.00  0.00     0.173 A 
ATOM     97  F   UNL A   1      42.072  27.287  36.498  1.00  0.00    -0.203 F 
ATOM     98  C   UNL A   1      44.367  26.957  36.904  1.00  0.00     0.198 A 
ATOM     99  C   UNL A   1      45.989  28.378  35.846  1.00  0.00     0.198 A 
ATOM    100  F   UNL A   1      45.282  30.112  34.419  1.00  0.00    -0.203 F 
ATOM    101  F   UNL A   1      44.076  25.941  37.729  1.00  0.00    -0.200 F 
ATOM    102  C   UNL A   1      45.689  27.313  36.683  1.00  0.00     0.200 A 
ATOM    103  F   UNL A   1      47.266  28.715  35.622  1.00  0.00    -0.200 F 
ATOM    104  F   UNL A   1      46.677  26.629  37.277  1.00  0.00    -0.200 F 
ENDBRANCH  71  94
ENDBRANCH  45  46
ENDBRANCH  37  40
ENDBRANCH  35  36
ENDBRANCH  34  35
ENDBRANCH   1  34
TORSDOF 15
ENDMDL
MODEL 3
REMARK VINA RESULT:     -13.6      5.231     10.786
REMARK SMILES CC(=O)Oc1ccc2oc(N)c([C@@H]3[NH2+][C@@H](C(=O)NCCCCNC(=O)c4ccc(-c5c6nc(c(-c7c(F)c(F)c(F)c(F)c7F)c7ccc([nH]7)c(-c7c(F)c(F)c(F)c(F)c7F)c7nc(c(-c8c(F)c(F)c(F)c(F)c8F)c8ccc5[nH]8)C=C7)C=C6)cc4)C(C)(C)S3)c(=O)c2c1
REMARK SMILES IDX 20 1 19 2 18 3 16 4 17 5 15 7 13 8 14 9 92 10 89 13 90 14
REMARK SMILES IDX 91 15 12 16 5 17 6 18 96 19 7 20 95 21 8 22 93 23 9 24 94 25
REMARK SMILES IDX 10 26 4 27 2 28 1 29 3 30 11 31 21 34 22 35 23 36 24 37
REMARK SMILES IDX 25 39 26 40 27 41 88 42 28 43 87 44 29 45 30 46 31 47 81 48
REMARK SMILES IDX 32 49 86 50 80 51 82 52 33 53 85 54 79 55 78 56 34 58 66 59
REMARK SMILES IDX 46 60 65 61 47 62 50 63 64 64 83 65 48 66 49 67 63 69 84 70
REMARK SMILES IDX 51 71 35 72 36 73 44 74 37 75 38 76 42 77 45 78 39 79 40 80
REMARK SMILES IDX 43 81 41 82 67 83 68 84 76 85 69 86 70 87 74 88 77 89 71 90
REMARK SMILES IDX 72 91 75 92 73 93 52 94 53 95 61 96 54 97 55 98 59 99 62 100
REMARK SMILES IDX 56 101 57 102 60 103 58 104
REMARK H PARENT 18 6 14 11 14 12 11 32 11 33 23 38 82 57 50 68
REMARK Flexibility Score: inf
ROOT
ATOM      1  C   UNL A   1      37.579  22.220  24.778  1.00  0.00     0.023 C 
ENDROOT
BRANCH   1   2
ATOM      2  C   UNL A   1      36.837  23.077  25.809  1.00  0.00     0.116 C 
BRANCH   2   3
ATOM      3  N   UNL A   1      35.916  22.298  26.615  1.00  0.00    -0.351 N 
ATOM      4  C   UNL A   1      34.559  22.217  26.688  1.00  0.00     0.279 C 
ATOM      5  O   UNL A   1      34.121  21.483  27.584  1.00  0.00    -0.268 OA
ATOM      6  H   UNL A   1      36.371  21.696  27.247  1.00  0.00     0.163 HD
BRANCH   4   7
ATOM      7  C   UNL A   1      33.569  22.998  25.797  1.00  0.00     0.289 C 
ATOM      8  C   UNL A   1      31.574  24.339  25.689  1.00  0.00     0.284 C 
ATOM      9  N   UNL A   1      32.665  23.887  26.561  1.00  0.00    -0.320 N 
ATOM     10  S   UNL A   1      31.417  23.200  24.266  1.00  0.00    -0.081 SA
ATOM     11  H   UNL A   1      32.277  23.376  27.355  1.00  0.00     0.348 HD
ATOM     12  H   UNL A   1      33.187  24.694  26.900  1.00  0.00     0.348 HD
ATOM     13  C   UNL A   1      32.841  22.159  24.725  1.00  0.00     0.077 C 
ATOM     14  C   UNL A   1      32.247  20.821  25.133  1.00  0.00     0.030 C 
ATOM     15  C   UNL A   1      33.739  21.917  23.503  1.00  0.00     0.030 C 
BRANCH   8  16
ATOM     16  C   UNL A   1      31.645  25.774  25.219  1.00  0.00     0.128 A 
ATOM     17  C   UNL A   1      29.315  29.000  22.363  1.00  0.00     0.131 A 
ATOM     18  C   UNL A   1      30.548  29.606  22.106  1.00  0.00     0.051 A 
ATOM     19  C   UNL A   1      29.193  27.976  23.304  1.00  0.00     0.063 A 
ATOM     20  C   UNL A   1      31.678  29.178  22.796  1.00  0.00     0.052 A 
ATOM     21  C   UNL A   1      30.343  27.536  23.966  1.00  0.00     0.069 A 
ATOM     22  C   UNL A   1      31.565  28.147  23.726  1.00  0.00     0.140 A 
ATOM     23  C   UNL A   1      30.324  26.391  24.891  1.00  0.00     0.205 A 
ATOM     24  O   UNL A   1      32.696  27.783  24.397  1.00  0.00    -0.440 OA
ATOM     25  O   UNL A   1      29.260  25.934  25.294  1.00  0.00    -0.288 OA
ATOM     26  C   UNL A   1      32.746  26.514  24.942  1.00  0.00     0.205 A 
BRANCH  17  27
ATOM     27  O   UNL A   1      28.143  29.480  21.759  1.00  0.00    -0.427 OA
BRANCH  27  28
ATOM     28  C   UNL A   1      27.774  30.787  22.066  1.00  0.00     0.308 C 
ATOM     29  C   UNL A   1      27.994  31.647  20.858  1.00  0.00     0.139 C 
ATOM     30  O   UNL A   1      27.316  31.189  23.128  1.00  0.00    -0.252 OA
ENDBRANCH  27  28
ENDBRANCH  17  27
BRANCH  26  31
ATOM     31  N   UNL A   1      34.034  26.101  25.100  1.00  0.00    -0.369 N 
ATOM     32  H   UNL A   1      34.595  25.925  24.310  1.00  0.00     0.159 HD
ATOM     33  H   UNL A   1      34.405  25.979  26.004  1.00  0.00     0.159 HD
ENDBRANCH  26  31
ENDBRANCH   8  16
ENDBRANCH   4   7
ENDBRANCH   2   3
ENDBRANCH   1   2
BRANCH   1  34
ATOM     34  C   UNL A   1      37.999  20.837  25.250  1.00  0.00     0.023 C 
BRANCH  34  35
ATOM     35  C   UNL A   1      39.266  20.820  26.082  1.00  0.00     0.116 C 
BRANCH  35  36
ATOM     36  N   UNL A   1      40.068  19.615  25.903  1.00  0.00    -0.352 N 
ATOM     37  C   UNL A   1      41.432  19.456  26.037  1.00  0.00     0.251 C 
ATOM     38  H   UNL A   1      39.568  18.805  25.653  1.00  0.00     0.163 HD
ATOM     39  O   UNL A   1      41.973  18.400  25.759  1.00  0.00    -0.269 OA
BRANCH  37  40
ATOM     40  C   UNL A   1      42.228  20.620  26.476  1.00  0.00     0.039 A 
ATOM     41  C   UNL A   1      42.359  20.890  27.837  1.00  0.00     0.014 A 
ATOM     42  C   UNL A   1      42.723  21.511  25.522  1.00  0.00     0.014 A 
ATOM     43  C   UNL A   1      42.754  22.156  28.235  1.00  0.00     0.010 A 
ATOM     44  C   UNL A   1      43.246  22.739  25.938  1.00  0.00     0.010 A 
ATOM     45  C   UNL A   1      43.194  23.101  27.292  1.00  0.00    -0.014 A 
BRANCH  45  46
ATOM     46  C   UNL A   1      43.563  24.459  27.771  1.00  0.00     0.031 A 
ATOM     47  C   UNL A   1      44.989  24.941  27.726  1.00  0.00     0.074 A 
ATOM     48  C   UNL A   1      42.578  25.299  28.144  1.00  0.00     0.049 A 
ATOM     49  N   UNL A   1      45.465  26.126  28.021  1.00  0.00    -0.248 NA
ATOM     50  C   UNL A   1      46.017  23.976  27.308  1.00  0.00     0.031 C 
ATOM     51  C   UNL A   1      41.160  24.941  28.222  1.00  0.00     0.029 A 
ATOM     52  N   UNL A   1      42.603  26.631  28.466  1.00  0.00    -0.354 N 
ATOM     53  C   UNL A   1      46.842  26.035  27.864  1.00  0.00     0.074 A 
ATOM     54  C   UNL A   1      47.132  24.676  27.464  1.00  0.00     0.031 C 
ATOM     55  C   UNL A   1      40.442  26.045  28.463  1.00  0.00     0.029 A 
ATOM     56  C   UNL A   1      41.353  27.171  28.640  1.00  0.00     0.049 A 
ATOM     57  H   UNL A   1      43.435  27.148  28.562  1.00  0.00     0.167 HD
ATOM     58  C   UNL A   1      47.776  27.002  28.029  1.00  0.00     0.037 A 
ATOM     59  C   UNL A   1      40.975  28.433  28.915  1.00  0.00     0.037 A 
ATOM     60  C   UNL A   1      47.475  28.368  28.371  1.00  0.00     0.049 A 
ATOM     61  C   UNL A   1      42.028  29.483  29.099  1.00  0.00     0.074 A 
ATOM     62  C   UNL A   1      48.346  29.436  28.498  1.00  0.00     0.029 A 
ATOM     63  N   UNL A   1      46.203  28.854  28.632  1.00  0.00    -0.354 N 
ATOM     64  N   UNL A   1      43.325  29.383  28.943  1.00  0.00    -0.248 NA
ATOM     65  C   UNL A   1      41.571  30.811  29.528  1.00  0.00     0.031 C 
ATOM     66  C   UNL A   1      47.606  30.559  28.878  1.00  0.00     0.029 A 
ATOM     67  C   UNL A   1      46.269  30.200  28.952  1.00  0.00     0.049 A 
ATOM     68  H   UNL A   1      45.376  28.321  28.595  1.00  0.00     0.167 HD
ATOM     69  C   UNL A   1      43.844  30.627  29.269  1.00  0.00     0.074 A 
ATOM     70  C   UNL A   1      42.717  31.477  29.600  1.00  0.00     0.031 C 
ATOM     71  C   UNL A   1      45.139  31.022  29.301  1.00  0.00     0.037 A 
BRANCH  58  72
ATOM     72  C   UNL A   1      49.218  26.621  27.858  1.00  0.00     0.064 A 
ATOM     73  C   UNL A   1      49.819  26.543  26.594  1.00  0.00     0.173 A 
ATOM     74  C   UNL A   1      50.021  26.376  28.983  1.00  0.00     0.173 A 
ATOM     75  F   UNL A   1      49.092  26.757  25.487  1.00  0.00    -0.203 F 
ATOM     76  C   UNL A   1      51.166  26.215  26.461  1.00  0.00     0.198 A 
ATOM     77  C   UNL A   1      51.373  26.072  28.847  1.00  0.00     0.198 A 
ATOM     78  F   UNL A   1      49.497  26.445  30.216  1.00  0.00    -0.203 F 
ATOM     79  F   UNL A   1      51.710  26.109  25.240  1.00  0.00    -0.200 F 
ATOM     80  C   UNL A   1      51.943  25.986  27.586  1.00  0.00     0.200 A 
ATOM     81  F   UNL A   1      52.125  25.863  29.937  1.00  0.00    -0.200 F 
ATOM     82  F   UNL A   1      53.241  25.677  27.456  1.00  0.00    -0.200 F 
ENDBRANCH  58  72
BRANCH  59  83
ATOM     83  C   UNL A   1      39.529  28.746  29.022  1.00  0.00     0.064 A 
ATOM     84  C   UNL A   1      38.864  28.647  30.250  1.00  0.00     0.173 A 
ATOM     85  C   UNL A   1      38.808  29.235  27.923  1.00  0.00     0.173 A 
ATOM     86  F   UNL A   1      39.509  28.171  31.325  1.00  0.00    -0.203 F 
ATOM     87  C   UNL A   1      37.532  29.038  30.378  1.00  0.00     0.198 A 
ATOM     88  C   UNL A   1      37.485  29.650  28.057  1.00  0.00     0.198 A 
ATOM     89  F   UNL A   1      39.406  29.358  26.729  1.00  0.00    -0.203 F 
ATOM     90  F   UNL A   1      36.914  28.927  31.561  1.00  0.00    -0.200 F 
ATOM     91  C   UNL A   1      36.849  29.552  29.285  1.00  0.00     0.200 A 
ATOM     92  F   UNL A   1      36.837  30.167  27.004  1.00  0.00    -0.200 F 
ATOM     93  F   UNL A   1      35.578  29.956  29.416  1.00  0.00    -0.200 F 
ENDBRANCH  59  83
BRANCH  71  94
ATOM     94  C   UNL A   1      45.418  32.427  29.740  1.00  0.00     0.064 A 
ATOM     95  C   UNL A   1      45.376  33.488  28.825  1.00  0.00     0.173 A 
ATOM     96  C   UNL A   1      45.646  32.724  31.091  1.00  0.00     0.173 A 
ATOM     97  F   UNL A   1      45.175  33.248  27.521  1.00  0.00    -0.203 F 
ATOM     98  C   UNL A   1      45.552  34.802  29.250  1.00  0.00     0.198 A 
ATOM     99  C   UNL A   1      45.802  34.041  31.514  1.00  0.00     0.198 A 
ATOM    100  F   UNL A   1      45.690  31.740  32.001  1.00  0.00    -0.203 F 
ATOM    101  F   UNL A   1      45.527  35.802  28.357  1.00  0.00    -0.200 F 
ATOM    102  C   UNL A   1      45.755  35.078  30.593  1.00  0.00     0.200 A 
ATOM    103  F   UNL A   1      45.986  34.308  32.814  1.00  0.00    -0.200 F 
ATOM    104  F   UNL A   1      45.906  36.345  31.003  1.00  0.00    -0.200 F 
ENDBRANCH  71  94
ENDBRANCH  45  46
ENDBRANCH  37  40
ENDBRANCH  35  36
ENDBRANCH  34  35
ENDBRANCH   1  34
TORSDOF 15
ENDMDL
