MODEL 1
REMARK VINA RESULT:     -13.5      0.000      0.000
REMARK SMILES O=C(NCCCCNC(=O)c1cnc2c(C(F)(F)F)cccc2c1NCc1cccnc1)c1ccc(-c2c3nc(c(-c4c(F)c(F)c(F)c(F)c4F)c4ccc([nH]4)c(-c4c(F)c(F)c(F)c(F)c4F)c4nc(c(-c5c(F)c(F)c(F)c(F)c5F)c5ccc2[nH]5)C=C4)C=C3)cc1
REMARK SMILES IDX 6 1 5 2 4 3 3 4 1 5 2 6 33 8 34 9 95 10 35 11 94 12 36 13
REMARK SMILES IDX 37 14 38 15 88 16 39 17 93 18 87 19 89 20 40 21 92 22 86 23
REMARK SMILES IDX 85 24 41 26 73 27 53 28 72 29 54 30 57 31 71 32 90 33 55 34
REMARK SMILES IDX 56 35 70 37 91 38 58 39 42 40 43 41 51 42 44 43 45 44 49 45
REMARK SMILES IDX 52 46 46 47 47 48 50 49 48 50 74 51 75 52 83 53 76 54 77 55
REMARK SMILES IDX 81 56 84 57 78 58 79 59 82 60 80 61 59 62 60 63 68 64 61 65
REMARK SMILES IDX 62 66 66 67 69 68 63 69 64 70 67 71 65 72 7 73 8 74 9 75
REMARK SMILES IDX 10 77 11 78 12 79 24 80 13 81 23 82 14 83 22 84 15 85 21 86
REMARK SMILES IDX 20 87 25 88 26 90 27 91 28 92 32 93 29 94 31 95 30 96 16 97
REMARK SMILES IDX 17 98 18 99 19 100
REMARK H PARENT 3 7 89 25 57 36 8 76 25 89
REMARK Flexibility Score: inf
ROOT
ATOM      1  C   UNL A   1      31.624  30.332  26.288  1.00  0.00     0.023 C 
ENDROOT
BRANCH   1   2
ATOM      2  C   UNL A   1      31.457  31.831  26.507  1.00  0.00     0.023 C 
BRANCH   2   3
ATOM      3  C   UNL A   1      32.592  32.531  27.243  1.00  0.00     0.116 C 
BRANCH   3   4
ATOM      4  N   UNL A   1      32.304  33.906  27.617  1.00  0.00    -0.352 N 
ATOM      5  O   UNL A   1      32.537  35.840  28.762  1.00  0.00    -0.269 OA
ATOM      6  C   UNL A   1      32.959  34.718  28.520  1.00  0.00     0.251 C 
ATOM      7  H   UNL A   1      31.533  34.315  27.163  1.00  0.00     0.163 HD
BRANCH   6   8
ATOM      8  C   UNL A   1      34.156  34.210  29.230  1.00  0.00     0.039 A 
ATOM      9  C   UNL A   1      35.439  34.502  28.769  1.00  0.00     0.014 A 
ATOM     10  C   UNL A   1      33.988  33.403  30.360  1.00  0.00     0.014 A 
ATOM     11  C   UNL A   1      36.534  33.845  29.318  1.00  0.00     0.010 A 
ATOM     12  C   UNL A   1      35.102  32.823  30.978  1.00  0.00     0.010 A 
ATOM     13  C   UNL A   1      36.382  33.004  30.434  1.00  0.00    -0.014 A 
BRANCH  13  14
ATOM     14  C   UNL A   1      37.595  32.383  31.026  1.00  0.00     0.031 A 
ATOM     15  C   UNL A   1      38.054  32.717  32.419  1.00  0.00     0.074 A 
ATOM     16  C   UNL A   1      38.242  31.441  30.311  1.00  0.00     0.049 A 
ATOM     17  N   UNL A   1      39.034  32.189  33.111  1.00  0.00    -0.248 NA
ATOM     18  C   UNL A   1      37.331  33.784  33.128  1.00  0.00     0.031 C 
ATOM     19  C   UNL A   1      37.907  31.055  28.938  1.00  0.00     0.029 A 
ATOM     20  N   UNL A   1      39.284  30.614  30.643  1.00  0.00    -0.354 N 
ATOM     21  C   UNL A   1      39.053  32.862  34.325  1.00  0.00     0.074 A 
ATOM     22  C   UNL A   1      38.004  33.859  34.269  1.00  0.00     0.031 C 
ATOM     23  C   UNL A   1      38.678  30.022  28.571  1.00  0.00     0.029 A 
ATOM     24  C   UNL A   1      39.601  29.713  29.657  1.00  0.00     0.049 A 
ATOM     25  H   UNL A   1      39.758  30.661  31.505  1.00  0.00     0.167 HD
ATOM     26  C   UNL A   1      39.865  32.658  35.392  1.00  0.00     0.037 A 
ATOM     27  C   UNL A   1      40.534  28.744  29.625  1.00  0.00     0.037 A 
ATOM     28  C   UNL A   1      40.901  31.657  35.450  1.00  0.00     0.049 A 
ATOM     29  C   UNL A   1      41.403  28.530  30.829  1.00  0.00     0.074 A 
ATOM     30  C   UNL A   1      41.769  31.371  36.489  1.00  0.00     0.029 A 
ATOM     31  N   UNL A   1      41.205  30.775  34.423  1.00  0.00    -0.354 N 
ATOM     32  N   UNL A   1      41.393  29.162  31.977  1.00  0.00    -0.248 NA
ATOM     33  C   UNL A   1      42.412  27.469  30.733  1.00  0.00     0.031 C 
ATOM     34  C   UNL A   1      42.619  30.337  36.079  1.00  0.00     0.029 A 
ATOM     35  C   UNL A   1      42.255  29.951  34.801  1.00  0.00     0.049 A 
ATOM     36  H   UNL A   1      40.744  30.740  33.553  1.00  0.00     0.167 HD
ATOM     37  C   UNL A   1      42.395  28.581  32.739  1.00  0.00     0.074 A 
ATOM     38  C   UNL A   1      42.964  27.515  31.938  1.00  0.00     0.031 C 
ATOM     39  C   UNL A   1      42.817  28.907  33.984  1.00  0.00     0.037 A 
BRANCH  26  40
ATOM     40  C   UNL A   1      39.673  33.535  36.595  1.00  0.00     0.064 A 
ATOM     41  C   UNL A   1      40.286  34.794  36.690  1.00  0.00     0.173 A 
ATOM     42  C   UNL A   1      38.811  33.146  37.633  1.00  0.00     0.173 A 
ATOM     43  F   UNL A   1      41.127  35.209  35.730  1.00  0.00    -0.203 F 
ATOM     44  C   UNL A   1      40.053  35.624  37.783  1.00  0.00     0.198 A 
ATOM     45  C   UNL A   1      38.562  33.989  38.713  1.00  0.00     0.198 A 
ATOM     46  F   UNL A   1      38.194  31.956  37.587  1.00  0.00    -0.203 F 
ATOM     47  F   UNL A   1      40.672  36.810  37.866  1.00  0.00    -0.200 F 
ATOM     48  C   UNL A   1      39.185  35.225  38.789  1.00  0.00     0.200 A 
ATOM     49  F   UNL A   1      37.714  33.607  39.678  1.00  0.00    -0.200 F 
ATOM     50  F   UNL A   1      38.952  36.032  39.834  1.00  0.00    -0.200 F 
ENDBRANCH  26  40
BRANCH  27  51
ATOM     51  C   UNL A   1      40.687  27.910  28.407  1.00  0.00     0.064 A 
ATOM     52  C   UNL A   1      41.495  28.325  27.341  1.00  0.00     0.173 A 
ATOM     53  C   UNL A   1      40.039  26.671  28.293  1.00  0.00     0.173 A 
ATOM     54  F   UNL A   1      42.121  29.510  27.396  1.00  0.00    -0.203 F 
ATOM     55  C   UNL A   1      41.637  27.539  26.198  1.00  0.00     0.198 A 
ATOM     56  C   UNL A   1      40.206  25.872  27.165  1.00  0.00     0.198 A 
ATOM     57  F   UNL A   1      39.260  26.227  29.290  1.00  0.00    -0.203 F 
ATOM     58  F   UNL A   1      42.382  27.977  25.176  1.00  0.00    -0.200 F 
ATOM     59  C   UNL A   1      40.998  26.311  26.115  1.00  0.00     0.200 A 
ATOM     60  F   UNL A   1      39.602  24.678  27.097  1.00  0.00    -0.200 F 
ATOM     61  F   UNL A   1      41.142  25.551  25.021  1.00  0.00    -0.200 F 
ENDBRANCH  27  51
BRANCH  39  62
ATOM     62  C   UNL A   1      43.950  28.101  34.544  1.00  0.00     0.064 A 
ATOM     63  C   UNL A   1      43.720  26.913  35.251  1.00  0.00     0.173 A 
ATOM     64  C   UNL A   1      45.278  28.521  34.374  1.00  0.00     0.173 A 
ATOM     65  F   UNL A   1      42.466  26.481  35.456  1.00  0.00    -0.203 F 
ATOM     66  C   UNL A   1      44.777  26.190  35.797  1.00  0.00     0.198 A 
ATOM     67  C   UNL A   1      46.334  27.781  34.898  1.00  0.00     0.198 A 
ATOM     68  F   UNL A   1      45.549  29.648  33.700  1.00  0.00    -0.203 F 
ATOM     69  F   UNL A   1      44.530  25.087  36.518  1.00  0.00    -0.200 F 
ATOM     70  C   UNL A   1      46.082  26.622  35.618  1.00  0.00     0.200 A 
ATOM     71  F   UNL A   1      47.595  28.196  34.718  1.00  0.00    -0.200 F 
ATOM     72  F   UNL A   1      47.097  25.928  36.149  1.00  0.00    -0.200 F 
ENDBRANCH  39  62
ENDBRANCH  13  14
ENDBRANCH   6   8
ENDBRANCH   3   4
ENDBRANCH   2   3
ENDBRANCH   1   2
BRANCH   1  73
ATOM     73  C   UNL A   1      33.050  29.850  26.052  1.00  0.00     0.116 C 
BRANCH  73  74
ATOM     74  N   UNL A   1      33.356  29.570  24.655  1.00  0.00    -0.352 N 
ATOM     75  C   UNL A   1      33.240  28.380  23.973  1.00  0.00     0.254 C 
ATOM     76  H   UNL A   1      33.692  30.332  24.130  1.00  0.00     0.163 HD
ATOM     77  O   UNL A   1      33.336  28.351  22.751  1.00  0.00    -0.269 OA
BRANCH  75  78
ATOM     78  C   UNL A   1      32.921  27.164  24.726  1.00  0.00     0.081 A 
ATOM     79  C   UNL A   1      34.045  26.499  25.192  1.00  0.00     0.127 A 
ATOM     80  C   UNL A   1      31.645  26.626  24.967  1.00  0.00     0.058 A 
ATOM     81  N   UNL A   1      34.025  25.279  25.752  1.00  0.00    -0.255 NA
ATOM     82  C   UNL A   1      31.618  25.308  25.566  1.00  0.00     0.025 A 
ATOM     83  C   UNL A   1      32.847  24.674  25.912  1.00  0.00     0.085 A 
ATOM     84  C   UNL A   1      30.428  24.574  25.821  1.00  0.00     0.012 A 
ATOM     85  C   UNL A   1      32.853  23.376  26.420  1.00  0.00     0.082 A 
ATOM     86  C   UNL A   1      30.441  23.294  26.372  1.00  0.00     0.001 A 
ATOM     87  C   UNL A   1      31.652  22.692  26.659  1.00  0.00     0.015 A 
BRANCH  80  88
ATOM     88  N   UNL A   1      30.428  27.200  24.597  1.00  0.00    -0.380 N 
ATOM     89  H   UNL A   1      29.870  27.499  25.352  1.00  0.00     0.160 HD
BRANCH  88  90
ATOM     90  C   UNL A   1      29.844  27.433  23.285  1.00  0.00     0.150 C 
BRANCH  90  91
ATOM     91  C   UNL A   1      29.066  28.723  23.206  1.00  0.00    -0.011 A 
ATOM     92  C   UNL A   1      29.744  29.946  23.310  1.00  0.00     0.009 A 
ATOM     93  C   UNL A   1      27.680  28.784  23.120  1.00  0.00     0.116 A 
ATOM     94  C   UNL A   1      29.034  31.143  23.318  1.00  0.00     0.020 A 
ATOM     95  N   UNL A   1      26.961  29.934  23.128  1.00  0.00    -0.264 NA
ATOM     96  C   UNL A   1      27.655  31.086  23.229  1.00  0.00     0.111 A 
ENDBRANCH  90  91
ENDBRANCH  88  90
ENDBRANCH  80  88
BRANCH  85  97
ATOM     97  C   UNL A   1      34.171  22.688  26.666  1.00  0.00     0.418 C 
ATOM     98  F   UNL A   1      34.035  21.408  27.119  1.00  0.00    -0.166 F 
ATOM     99  F   UNL A   1      34.985  22.634  25.576  1.00  0.00    -0.166 F 
ATOM    100  F   UNL A   1      34.916  23.317  27.628  1.00  0.00    -0.166 F 
ENDBRANCH  85  97
ENDBRANCH  75  78
ENDBRANCH  73  74
ENDBRANCH   1  73
TORSDOF 15
ENDMDL
MODEL 2
REMARK VINA RESULT:     -13.5      0.234      1.559
REMARK SMILES O=C(NCCCCNC(=O)c1cnc2c(C(F)(F)F)cccc2c1NCc1cccnc1)c1ccc(-c2c3nc(c(-c4c(F)c(F)c(F)c(F)c4F)c4ccc([nH]4)c(-c4c(F)c(F)c(F)c(F)c4F)c4nc(c(-c5c(F)c(F)c(F)c(F)c5F)c5ccc2[nH]5)C=C4)C=C3)cc1
REMARK SMILES IDX 6 1 5 2 4 3 3 4 1 5 2 6 33 8 34 9 95 10 35 11 94 12 36 13
REMARK SMILES IDX 37 14 38 15 88 16 39 17 93 18 87 19 89 20 40 21 92 22 86 23
REMARK SMILES IDX 85 24 41 26 73 27 53 28 72 29 54 30 57 31 71 32 90 33 55 34
REMARK SMILES IDX 56 35 70 37 91 38 58 39 42 40 43 41 51 42 44 43 45 44 49 45
REMARK SMILES IDX 52 46 46 47 47 48 50 49 48 50 74 51 75 52 83 53 76 54 77 55
REMARK SMILES IDX 81 56 84 57 78 58 79 59 82 60 80 61 59 62 60 63 68 64 61 65
REMARK SMILES IDX 62 66 66 67 69 68 63 69 64 70 67 71 65 72 7 73 8 74 9 75
REMARK SMILES IDX 10 77 11 78 12 79 24 80 13 81 23 82 14 83 22 84 15 85 21 86
REMARK SMILES IDX 20 87 25 88 26 90 27 91 28 92 32 93 29 94 31 95 30 96 16 97
REMARK SMILES IDX 17 98 18 99 19 100
REMARK H PARENT 3 7 89 25 57 36 8 76 25 89
REMARK Flexibility Score: inf
ROOT
ATOM      1  C   UNL A   1      31.688  30.430  26.423  1.00  0.00     0.023 C 
ENDROOT
BRANCH   1   2
ATOM      2  C   UNL A   1      31.517  31.936  26.585  1.00  0.00     0.023 C 
BRANCH   2   3
ATOM      3  C   UNL A   1      32.666  32.672  27.259  1.00  0.00     0.116 C 
BRANCH   3   4
ATOM      4  N   UNL A   1      32.354  34.037  27.652  1.00  0.00    -0.352 N 
ATOM      5  O   UNL A   1      32.548  35.957  28.827  1.00  0.00    -0.269 OA
ATOM      6  C   UNL A   1      32.990  34.846  28.571  1.00  0.00     0.251 C 
ATOM      7  H   UNL A   1      31.580  34.440  27.199  1.00  0.00     0.163 HD
BRANCH   6   8
ATOM      8  C   UNL A   1      34.190  34.346  29.283  1.00  0.00     0.039 A 
ATOM      9  C   UNL A   1      35.470  34.612  28.801  1.00  0.00     0.014 A 
ATOM     10  C   UNL A   1      34.026  33.572  30.437  1.00  0.00     0.014 A 
ATOM     11  C   UNL A   1      36.564  33.960  29.356  1.00  0.00     0.010 A 
ATOM     12  C   UNL A   1      35.141  32.997  31.058  1.00  0.00     0.010 A 
ATOM     13  C   UNL A   1      36.416  33.151  30.496  1.00  0.00    -0.014 A 
BRANCH  13  14
ATOM     14  C   UNL A   1      37.630  32.535  31.093  1.00  0.00     0.031 A 
ATOM     15  C   UNL A   1      38.093  32.885  32.480  1.00  0.00     0.074 A 
ATOM     16  C   UNL A   1      38.273  31.584  30.388  1.00  0.00     0.049 A 
ATOM     17  N   UNL A   1      39.074  32.364  33.176  1.00  0.00    -0.248 NA
ATOM     18  C   UNL A   1      37.375  33.962  33.178  1.00  0.00     0.031 C 
ATOM     19  C   UNL A   1      37.934  31.181  29.020  1.00  0.00     0.029 A 
ATOM     20  N   UNL A   1      39.314  30.758  30.727  1.00  0.00    -0.354 N 
ATOM     21  C   UNL A   1      39.098  33.052  34.382  1.00  0.00     0.074 A 
ATOM     22  C   UNL A   1      38.051  34.050  34.316  1.00  0.00     0.031 C 
ATOM     23  C   UNL A   1      38.702  30.142  28.664  1.00  0.00     0.029 A 
ATOM     24  C   UNL A   1      39.627  29.845  29.751  1.00  0.00     0.049 A 
ATOM     25  H   UNL A   1      39.791  30.815  31.587  1.00  0.00     0.167 HD
ATOM     26  C   UNL A   1      39.913  32.859  35.449  1.00  0.00     0.037 A 
ATOM     27  C   UNL A   1      40.557  28.873  29.729  1.00  0.00     0.037 A 
ATOM     28  C   UNL A   1      40.946  31.857  35.516  1.00  0.00     0.049 A 
ATOM     29  C   UNL A   1      41.429  28.672  30.933  1.00  0.00     0.074 A 
ATOM     30  C   UNL A   1      41.817  31.581  36.557  1.00  0.00     0.029 A 
ATOM     31  N   UNL A   1      41.246  30.962  34.499  1.00  0.00    -0.354 N 
ATOM     32  N   UNL A   1      41.424  29.318  32.073  1.00  0.00    -0.248 NA
ATOM     33  C   UNL A   1      42.437  27.607  30.847  1.00  0.00     0.031 C 
ATOM     34  C   UNL A   1      42.664  30.541  36.157  1.00  0.00     0.029 A 
ATOM     35  C   UNL A   1      42.296  30.140  34.884  1.00  0.00     0.049 A 
ATOM     36  H   UNL A   1      40.783  30.917  33.631  1.00  0.00     0.167 HD
ATOM     37  C   UNL A   1      42.427  28.744  32.839  1.00  0.00     0.074 A 
ATOM     38  C   UNL A   1      42.991  27.668  32.050  1.00  0.00     0.031 C 
ATOM     39  C   UNL A   1      42.853  29.085  34.079  1.00  0.00     0.037 A 
BRANCH  26  40
ATOM     40  C   UNL A   1      39.726  33.752  36.642  1.00  0.00     0.064 A 
ATOM     41  C   UNL A   1      40.319  35.022  36.706  1.00  0.00     0.173 A 
ATOM     42  C   UNL A   1      38.888  33.364  37.700  1.00  0.00     0.173 A 
ATOM     43  F   UNL A   1      41.136  35.436  35.726  1.00  0.00    -0.203 F 
ATOM     44  C   UNL A   1      40.089  35.865  37.791  1.00  0.00     0.198 A 
ATOM     45  C   UNL A   1      38.643  34.219  38.771  1.00  0.00     0.198 A 
ATOM     46  F   UNL A   1      38.291  32.163  37.683  1.00  0.00    -0.203 F 
ATOM     47  F   UNL A   1      40.689  37.063  37.845  1.00  0.00    -0.200 F 
ATOM     48  C   UNL A   1      39.245  35.467  38.818  1.00  0.00     0.200 A 
ATOM     49  F   UNL A   1      37.818  33.837  39.756  1.00  0.00    -0.200 F 
ATOM     50  F   UNL A   1      39.016  36.285  39.854  1.00  0.00    -0.200 F 
ENDBRANCH  26  40
BRANCH  27  51
ATOM     51  C   UNL A   1      40.705  28.024  28.520  1.00  0.00     0.064 A 
ATOM     52  C   UNL A   1      40.044  26.794  28.411  1.00  0.00     0.173 A 
ATOM     53  C   UNL A   1      41.500  28.437  27.440  1.00  0.00     0.173 A 
ATOM     54  F   UNL A   1      39.287  26.349  29.425  1.00  0.00    -0.203 F 
ATOM     55  C   UNL A   1      40.185  26.001  27.274  1.00  0.00     0.198 A 
ATOM     56  C   UNL A   1      41.615  27.659  26.292  1.00  0.00     0.198 A 
ATOM     57  F   UNL A   1      42.147  29.611  27.493  1.00  0.00    -0.203 F 
ATOM     58  F   UNL A   1      39.575  24.810  27.213  1.00  0.00    -0.200 F 
ATOM     59  C   UNL A   1      40.964  26.437  26.213  1.00  0.00     0.200 A 
ATOM     60  F   UNL A   1      42.353  28.093  25.262  1.00  0.00    -0.200 F 
ATOM     61  F   UNL A   1      41.091  25.679  25.116  1.00  0.00    -0.200 F 
ENDBRANCH  27  51
BRANCH  39  62
ATOM     62  C   UNL A   1      43.986  28.284  34.646  1.00  0.00     0.064 A 
ATOM     63  C   UNL A   1      45.319  28.682  34.470  1.00  0.00     0.173 A 
ATOM     64  C   UNL A   1      43.738  27.108  35.370  1.00  0.00     0.173 A 
ATOM     65  F   UNL A   1      45.606  29.789  33.770  1.00  0.00    -0.203 F 
ATOM     66  C   UNL A   1      46.366  27.913  34.971  1.00  0.00     0.198 A 
ATOM     67  C   UNL A   1      44.788  26.356  35.892  1.00  0.00     0.198 A 
ATOM     68  F   UNL A   1      42.480  26.689  35.568  1.00  0.00    -0.203 F 
ATOM     69  F   UNL A   1      47.634  28.283  34.742  1.00  0.00    -0.200 F 
ATOM     70  C   UNL A   1      46.100  26.754  35.683  1.00  0.00     0.200 A 
ATOM     71  F   UNL A   1      44.529  25.240  36.586  1.00  0.00    -0.200 F 
ATOM     72  F   UNL A   1      47.109  26.012  36.159  1.00  0.00    -0.200 F 
ENDBRANCH  39  62
ENDBRANCH  13  14
ENDBRANCH   6   8
ENDBRANCH   3   4
ENDBRANCH   2   3
ENDBRANCH   1   2
BRANCH   1  73
ATOM     73  C   UNL A   1      33.102  29.951  26.119  1.00  0.00     0.116 C 
BRANCH  73  74
ATOM     74  N   UNL A   1      33.342  29.676  24.708  1.00  0.00    -0.352 N 
ATOM     75  C   UNL A   1      33.189  28.491  24.026  1.00  0.00     0.254 C 
ATOM     76  H   UNL A   1      33.658  30.439  24.171  1.00  0.00     0.163 HD
ATOM     77  O   UNL A   1      33.228  28.467  22.800  1.00  0.00    -0.269 OA
BRANCH  75  78
ATOM     78  C   UNL A   1      32.898  27.272  24.787  1.00  0.00     0.081 A 
ATOM     79  C   UNL A   1      34.032  26.672  25.312  1.00  0.00     0.127 A 
ATOM     80  C   UNL A   1      31.641  26.675  24.983  1.00  0.00     0.058 A 
ATOM     81  N   UNL A   1      34.049  25.462  25.893  1.00  0.00    -0.255 NA
ATOM     82  C   UNL A   1      31.653  25.367  25.605  1.00  0.00     0.025 A 
ATOM     83  C   UNL A   1      32.896  24.802  26.014  1.00  0.00     0.085 A 
ATOM     84  C   UNL A   1      30.491  24.578  25.822  1.00  0.00     0.012 A 
ATOM     85  C   UNL A   1      32.945  23.513  26.546  1.00  0.00     0.082 A 
ATOM     86  C   UNL A   1      30.544  23.309  26.396  1.00  0.00     0.001 A 
ATOM     87  C   UNL A   1      31.770  22.774  26.746  1.00  0.00     0.015 A 
BRANCH  80  88
ATOM     88  N   UNL A   1      30.414  27.181  24.552  1.00  0.00    -0.380 N 
ATOM     89  H   UNL A   1      29.746  27.299  25.266  1.00  0.00     0.160 HD
BRANCH  88  90
ATOM     90  C   UNL A   1      29.955  27.565  23.225  1.00  0.00     0.150 C 
BRANCH  90  91
ATOM     91  C   UNL A   1      29.134  28.830  23.228  1.00  0.00    -0.011 A 
ATOM     92  C   UNL A   1      29.765  30.062  23.455  1.00  0.00     0.009 A 
ATOM     93  C   UNL A   1      27.751  28.853  23.102  1.00  0.00     0.116 A 
ATOM     94  C   UNL A   1      29.013  31.230  23.539  1.00  0.00     0.020 A 
ATOM     95  N   UNL A   1      26.991  29.973  23.182  1.00  0.00    -0.264 NA
ATOM     96  C   UNL A   1      27.640  31.135  23.400  1.00  0.00     0.111 A 
ENDBRANCH  90  91
ENDBRANCH  88  90
ENDBRANCH  80  88
BRANCH  85  97
ATOM     97  C   UNL A   1      34.284  22.898  26.860  1.00  0.00     0.418 C 
ATOM     98  F   UNL A   1      34.338  21.561  26.591  1.00  0.00    -0.166 F 
ATOM     99  F   UNL A   1      35.330  23.472  26.206  1.00  0.00    -0.166 F 
ATOM    100  F   UNL A   1      34.604  22.995  28.188  1.00  0.00    -0.166 F 
ENDBRANCH  85  97
ENDBRANCH  75  78
ENDBRANCH  73  74
ENDBRANCH   1  73
TORSDOF 15
ENDMDL
MODEL 3
REMARK VINA RESULT:     -13.3      5.523     10.989
REMARK SMILES O=C(NCCCCNC(=O)c1cnc2c(C(F)(F)F)cccc2c1NCc1cccnc1)c1ccc(-c2c3nc(c(-c4c(F)c(F)c(F)c(F)c4F)c4ccc([nH]4)c(-c4c(F)c(F)c(F)c(F)c4F)c4nc(c(-c5c(F)c(F)c(F)c(F)c5F)c5ccc2[nH]5)C=C4)C=C3)cc1
REMARK SMILES IDX 6 1 5 2 4 3 3 4 1 5 2 6 33 8 34 9 95 10 35 11 94 12 36 13
REMARK SMILES IDX 37 14 38 15 88 16 39 17 93 18 87 19 89 20 40 21 92 22 86 23
REMARK SMILES IDX 85 24 41 26 73 27 53 28 72 29 54 30 57 31 71 32 90 33 55 34
REMARK SMILES IDX 56 35 70 37 91 38 58 39 42 40 43 41 51 42 44 43 45 44 49 45
REMARK SMILES IDX 52 46 46 47 47 48 50 49 48 50 74 51 75 52 83 53 76 54 77 55
REMARK SMILES IDX 81 56 84 57 78 58 79 59 82 60 80 61 59 62 60 63 68 64 61 65
REMARK SMILES IDX 62 66 66 67 69 68 63 69 64 70 67 71 65 72 7 73 8 74 9 75
REMARK SMILES IDX 10 77 11 78 12 79 24 80 13 81 23 82 14 83 22 84 15 85 21 86
REMARK SMILES IDX 20 87 25 88 26 90 27 91 28 92 32 93 29 94 31 95 30 96 16 97
REMARK SMILES IDX 17 98 18 99 19 100
REMARK H PARENT 3 7 89 25 57 36 8 76 25 89
REMARK Flexibility Score: inf
ROOT
ATOM      1  C   UNL A   1      36.868  20.925  24.670  1.00  0.00     0.023 C 
ENDROOT
BRANCH   1   2
ATOM      2  C   UNL A   1      37.838  19.786  24.964  1.00  0.00     0.023 C 
BRANCH   2   3
ATOM      3  C   UNL A   1      39.107  20.163  25.716  1.00  0.00     0.116 C 
BRANCH   3   4
ATOM      4  N   UNL A   1      40.104  19.106  25.775  1.00  0.00    -0.352 N 
ATOM      5  O   UNL A   1      42.161  18.201  26.005  1.00  0.00    -0.269 OA
ATOM      6  C   UNL A   1      41.450  19.194  26.064  1.00  0.00     0.251 C 
ATOM      7  H   UNL A   1      39.772  18.201  25.580  1.00  0.00     0.163 HD
BRANCH   6   8
ATOM      8  C   UNL A   1      42.043  20.508  26.408  1.00  0.00     0.039 A 
ATOM      9  C   UNL A   1      42.269  20.866  27.736  1.00  0.00     0.014 A 
ATOM     10  C   UNL A   1      42.349  21.407  25.381  1.00  0.00     0.014 A 
ATOM     11  C   UNL A   1      42.622  22.174  28.046  1.00  0.00     0.010 A 
ATOM     12  C   UNL A   1      42.804  22.695  25.692  1.00  0.00     0.010 A 
ATOM     13  C   UNL A   1      42.902  23.103  27.029  1.00  0.00    -0.014 A 
BRANCH  13  14
ATOM     14  C   UNL A   1      43.345  24.468  27.416  1.00  0.00     0.031 A 
ATOM     15  C   UNL A   1      44.741  24.954  27.138  1.00  0.00     0.074 A 
ATOM     16  C   UNL A   1      42.436  25.302  27.958  1.00  0.00     0.049 A 
ATOM     17  N   UNL A   1      45.249  26.147  27.327  1.00  0.00    -0.248 NA
ATOM     18  C   UNL A   1      45.695  23.980  26.587  1.00  0.00     0.031 C 
ATOM     19  C   UNL A   1      41.060  24.934  28.301  1.00  0.00     0.029 A 
ATOM     20  N   UNL A   1      42.513  26.633  28.279  1.00  0.00    -0.354 N 
ATOM     21  C   UNL A   1      46.577  26.066  26.930  1.00  0.00     0.074 A 
ATOM     22  C   UNL A   1      46.809  24.698  26.516  1.00  0.00     0.031 C 
ATOM     23  C   UNL A   1      40.403  26.025  28.718  1.00  0.00     0.029 A 
ATOM     24  C   UNL A   1      41.325  27.155  28.729  1.00  0.00     0.049 A 
ATOM     25  H   UNL A   1      43.339  27.163  28.196  1.00  0.00     0.167 HD
ATOM     26  C   UNL A   1      47.513  27.047  26.905  1.00  0.00     0.037 A 
ATOM     27  C   UNL A   1      41.009  28.406  29.111  1.00  0.00     0.037 A 
ATOM     28  C   UNL A   1      47.277  28.411  27.307  1.00  0.00     0.049 A 
ATOM     29  C   UNL A   1      42.061  29.473  29.053  1.00  0.00     0.074 A 
ATOM     30  C   UNL A   1      48.160  29.477  27.310  1.00  0.00     0.029 A 
ATOM     31  N   UNL A   1      46.065  28.898  27.776  1.00  0.00    -0.354 N 
ATOM     32  N   UNL A   1      43.306  29.384  28.655  1.00  0.00    -0.248 NA
ATOM     33  C   UNL A   1      41.664  30.815  29.496  1.00  0.00     0.031 C 
ATOM     34  C   UNL A   1      47.491  30.601  27.810  1.00  0.00     0.029 A 
ATOM     35  C   UNL A   1      46.181  30.246  28.080  1.00  0.00     0.049 A 
ATOM     36  H   UNL A   1      45.243  28.364  27.878  1.00  0.00     0.167 HD
ATOM     37  C   UNL A   1      43.844  30.653  28.804  1.00  0.00     0.074 A 
ATOM     38  C   UNL A   1      42.776  31.505  29.287  1.00  0.00     0.031 C 
ATOM     39  C   UNL A   1      45.111  31.073  28.574  1.00  0.00     0.037 A 
BRANCH  26  40
ATOM     40  C   UNL A   1      48.890  26.688  26.426  1.00  0.00     0.064 A 
ATOM     41  C   UNL A   1      49.282  26.901  25.096  1.00  0.00     0.173 A 
ATOM     42  C   UNL A   1      49.851  26.193  27.322  1.00  0.00     0.173 A 
ATOM     43  F   UNL A   1      48.399  27.363  24.197  1.00  0.00    -0.203 F 
ATOM     44  C   UNL A   1      50.581  26.620  24.678  1.00  0.00     0.198 A 
ATOM     45  C   UNL A   1      51.154  25.935  26.905  1.00  0.00     0.198 A 
ATOM     46  F   UNL A   1      49.530  25.978  28.606  1.00  0.00    -0.203 F 
ATOM     47  F   UNL A   1      50.925  26.804  23.395  1.00  0.00    -0.200 F 
ATOM     48  C   UNL A   1      51.518  26.145  25.584  1.00  0.00     0.200 A 
ATOM     49  F   UNL A   1      52.061  25.487  27.785  1.00  0.00    -0.200 F 
ATOM     50  F   UNL A   1      52.770  25.889  25.182  1.00  0.00    -0.200 F 
ENDBRANCH  26  40
BRANCH  27  51
ATOM     51  C   UNL A   1      39.634  28.704  29.585  1.00  0.00     0.064 A 
ATOM     52  C   UNL A   1      39.278  28.545  30.930  1.00  0.00     0.173 A 
ATOM     53  C   UNL A   1      38.651  29.173  28.700  1.00  0.00     0.173 A 
ATOM     54  F   UNL A   1      40.179  28.082  31.810  1.00  0.00    -0.203 F 
ATOM     55  C   UNL A   1      37.986  28.827  31.370  1.00  0.00     0.198 A 
ATOM     56  C   UNL A   1      37.370  29.485  29.146  1.00  0.00     0.198 A 
ATOM     57  F   UNL A   1      38.944  29.349  27.403  1.00  0.00    -0.203 F 
ATOM     58  F   UNL A   1      37.661  28.626  32.654  1.00  0.00    -0.200 F 
ATOM     59  C   UNL A   1      37.036  29.303  30.480  1.00  0.00     0.200 A 
ATOM     60  F   UNL A   1      36.460  29.962  28.286  1.00  0.00    -0.200 F 
ATOM     61  F   UNL A   1      35.797  29.584  30.905  1.00  0.00    -0.200 F 
ENDBRANCH  27  51
BRANCH  39  62
ATOM     62  C   UNL A   1      45.402  32.518  28.851  1.00  0.00     0.064 A 
ATOM     63  C   UNL A   1      45.211  33.501  27.870  1.00  0.00     0.173 A 
ATOM     64  C   UNL A   1      45.876  32.923  30.108  1.00  0.00     0.173 A 
ATOM     65  F   UNL A   1      44.777  33.159  26.647  1.00  0.00    -0.203 F 
ATOM     66  C   UNL A   1      45.517  34.835  28.126  1.00  0.00     0.198 A 
ATOM     67  C   UNL A   1      46.155  34.262  30.368  1.00  0.00     0.198 A 
ATOM     68  F   UNL A   1      46.069  32.020  31.080  1.00  0.00    -0.203 F 
ATOM     69  F   UNL A   1      45.381  35.749  27.155  1.00  0.00    -0.200 F 
ATOM     70  C   UNL A   1      45.985  35.214  29.374  1.00  0.00     0.200 A 
ATOM     71  F   UNL A   1      46.600  34.628  31.578  1.00  0.00    -0.200 F 
ATOM     72  F   UNL A   1      46.284  36.497  29.617  1.00  0.00    -0.200 F 
ENDBRANCH  39  62
ENDBRANCH  13  14
ENDBRANCH   6   8
ENDBRANCH   3   4
ENDBRANCH   2   3
ENDBRANCH   1   2
BRANCH   1  73
ATOM     73  C   UNL A   1      36.729  21.977  25.764  1.00  0.00     0.116 C 
BRANCH  73  74
ATOM     74  N   UNL A   1      35.569  21.785  26.624  1.00  0.00    -0.352 N 
ATOM     75  C   UNL A   1      34.312  22.335  26.506  1.00  0.00     0.254 C 
ATOM     76  H   UNL A   1      35.700  21.184  27.393  1.00  0.00     0.163 HD
ATOM     77  O   UNL A   1      33.382  21.915  27.186  1.00  0.00    -0.269 OA
BRANCH  75  78
ATOM     78  C   UNL A   1      34.090  23.375  25.498  1.00  0.00     0.081 A 
ATOM     79  C   UNL A   1      34.358  24.653  25.963  1.00  0.00     0.127 A 
ATOM     80  C   UNL A   1      33.616  23.197  24.186  1.00  0.00     0.058 A 
ATOM     81  N   UNL A   1      34.067  25.780  25.293  1.00  0.00    -0.255 NA
ATOM     82  C   UNL A   1      33.296  24.408  23.461  1.00  0.00     0.025 A 
ATOM     83  C   UNL A   1      33.519  25.672  24.081  1.00  0.00     0.085 A 
ATOM     84  C   UNL A   1      32.741  24.429  22.152  1.00  0.00     0.012 A 
ATOM     85  C   UNL A   1      33.148  26.851  23.435  1.00  0.00     0.082 A 
ATOM     86  C   UNL A   1      32.416  25.615  21.496  1.00  0.00     0.001 A 
ATOM     87  C   UNL A   1      32.608  26.822  22.141  1.00  0.00     0.015 A 
BRANCH  80  88
ATOM     88  N   UNL A   1      33.343  21.975  23.570  1.00  0.00    -0.380 N 
ATOM     89  H   UNL A   1      33.960  21.739  22.839  1.00  0.00     0.160 HD
BRANCH  88  90
ATOM     90  C   UNL A   1      32.302  20.991  23.825  1.00  0.00     0.150 C 
BRANCH  90  91
ATOM     91  C   UNL A   1      32.793  19.569  23.705  1.00  0.00    -0.011 A 
ATOM     92  C   UNL A   1      33.798  19.110  24.568  1.00  0.00     0.009 A 
ATOM     93  C   UNL A   1      32.367  18.687  22.719  1.00  0.00     0.116 A 
ATOM     94  C   UNL A   1      34.317  17.827  24.421  1.00  0.00     0.020 A 
ATOM     95  N   UNL A   1      32.855  17.433  22.549  1.00  0.00    -0.264 NA
ATOM     96  C   UNL A   1      33.820  17.034  23.403  1.00  0.00     0.111 A 
ENDBRANCH  90  91
ENDBRANCH  88  90
ENDBRANCH  80  88
BRANCH  85  97
ATOM     97  C   UNL A   1      33.288  28.163  24.162  1.00  0.00     0.418 C 
ATOM     98  F   UNL A   1      32.433  28.287  25.219  1.00  0.00    -0.166 F 
ATOM     99  F   UNL A   1      34.539  28.407  24.639  1.00  0.00    -0.166 F 
ATOM    100  F   UNL A   1      33.003  29.237  23.361  1.00  0.00    -0.166 F 
ENDBRANCH  85  97
ENDBRANCH  75  78
ENDBRANCH  73  74
ENDBRANCH   1  73
TORSDOF 15
ENDMDL
