MODEL 1
REMARK VINA RESULT:     -12.5      0.000      0.000
REMARK SMILES O=C(NCCCCNC(=O)[C@H]1C[C@](O)(c2ccc(F)cc2)[C@@H](c2ccc(F)cc2)O1)c1ccc(-c2c3nc(c(-c4c(F)c(F)c(F)c(F)c4F)c4ccc([nH]4)c(-c4c(F)c(F)c(F)c(F)c4F)c4nc(c(-c5c(F)c(F)c(F)c(F)c5F)c5ccc2[nH]5)C=C4)C=C3)cc1
REMARK SMILES IDX 5 1 4 2 3 3 1 4 2 5 31 7 32 8 93 9 33 10 92 11 34 12 35 13
REMARK SMILES IDX 36 14 86 15 37 16 91 17 85 18 87 19 38 20 90 21 84 22 83 23
REMARK SMILES IDX 39 25 71 26 51 27 70 28 52 29 55 30 69 31 88 32 53 33 54 34
REMARK SMILES IDX 68 36 89 37 56 38 40 39 41 40 49 41 42 42 43 43 47 44 50 45
REMARK SMILES IDX 44 46 45 47 48 48 46 49 72 50 73 51 81 52 74 53 75 54 79 55
REMARK SMILES IDX 82 56 76 57 77 58 80 59 78 60 57 61 58 62 66 63 59 64 60 65
REMARK SMILES IDX 64 66 67 67 61 68 62 69 65 70 63 71 6 72 7 73 8 74 9 75
REMARK SMILES IDX 10 77 11 78 12 79 30 80 13 81 22 82 15 83 16 84 21 85 17 86
REMARK SMILES IDX 20 87 18 88 19 89 14 90 23 92 24 93 29 94 25 95 28 96 26 97
REMARK SMILES IDX 27 98
REMARK H PARENT 3 6 87 24 55 35 8 76 14 91
REMARK Flexibility Score: inf
ROOT
ATOM      1  C   UNL A   1      41.145  20.487  26.139  1.00  0.00     0.023 C 
ENDROOT
BRANCH   1   2
ATOM      2  C   UNL A   1      42.321  19.642  26.612  1.00  0.00     0.116 C 
BRANCH   2   3
ATOM      3  N   UNL A   1      43.052  18.979  25.545  1.00  0.00    -0.352 N 
ATOM      4  O   UNL A   1      44.570  18.891  23.857  1.00  0.00    -0.269 OA
ATOM      5  C   UNL A   1      44.058  19.519  24.760  1.00  0.00     0.251 C 
ATOM      6  H   UNL A   1      42.804  18.044  25.359  1.00  0.00     0.163 HD
BRANCH   5   7
ATOM      7  C   UNL A   1      44.460  20.920  25.031  1.00  0.00     0.039 A 
ATOM      8  C   UNL A   1      45.262  21.215  26.135  1.00  0.00     0.014 A 
ATOM      9  C   UNL A   1      43.934  21.942  24.238  1.00  0.00     0.014 A 
ATOM     10  C   UNL A   1      45.413  22.538  26.534  1.00  0.00     0.010 A 
ATOM     11  C   UNL A   1      44.154  23.275  24.599  1.00  0.00     0.010 A 
ATOM     12  C   UNL A   1      44.860  23.582  25.772  1.00  0.00    -0.014 A 
BRANCH  12  13
ATOM     13  C   UNL A   1      45.074  24.988  26.197  1.00  0.00     0.031 A 
ATOM     14  C   UNL A   1      43.969  25.797  26.816  1.00  0.00     0.074 A 
ATOM     15  C   UNL A   1      46.301  25.524  26.051  1.00  0.00     0.049 A 
ATOM     16  N   UNL A   1      43.990  27.039  27.232  1.00  0.00    -0.248 NA
ATOM     17  C   UNL A   1      42.668  25.133  26.992  1.00  0.00     0.031 C 
ATOM     18  C   UNL A   1      47.452  24.831  25.469  1.00  0.00     0.029 A 
ATOM     19  N   UNL A   1      46.791  26.757  26.394  1.00  0.00    -0.354 N 
ATOM     20  C   UNL A   1      42.710  27.312  27.695  1.00  0.00     0.074 A 
ATOM     21  C   UNL A   1      41.927  26.110  27.500  1.00  0.00     0.031 C 
ATOM     22  C   UNL A   1      48.526  25.629  25.542  1.00  0.00     0.029 A 
ATOM     23  C   UNL A   1      48.126  26.911  26.114  1.00  0.00     0.049 A 
ATOM     24  H   UNL A   1      46.240  27.463  26.802  1.00  0.00     0.167 HD
ATOM     25  C   UNL A   1      42.238  28.460  28.239  1.00  0.00     0.037 A 
ATOM     26  C   UNL A   1      48.938  27.970  26.282  1.00  0.00     0.037 A 
ATOM     27  C   UNL A   1      43.029  29.644  28.456  1.00  0.00     0.049 A 
ATOM     28  C   UNL A   1      48.383  29.235  26.865  1.00  0.00     0.074 A 
ATOM     29  C   UNL A   1      42.644  30.846  29.026  1.00  0.00     0.029 A 
ATOM     30  N   UNL A   1      44.368  29.776  28.116  1.00  0.00    -0.354 N 
ATOM     31  N   UNL A   1      47.169  29.479  27.294  1.00  0.00    -0.248 NA
ATOM     32  C   UNL A   1      49.303  30.374  26.975  1.00  0.00     0.031 C 
ATOM     33  C   UNL A   1      43.737  31.717  28.997  1.00  0.00     0.029 A 
ATOM     34  C   UNL A   1      44.816  31.045  28.447  1.00  0.00     0.049 A 
ATOM     35  H   UNL A   1      44.917  29.072  27.700  1.00  0.00     0.167 HD
ATOM     36  C   UNL A   1      47.178  30.796  27.727  1.00  0.00     0.074 A 
ATOM     37  C   UNL A   1      48.523  31.294  27.529  1.00  0.00     0.031 C 
ATOM     38  C   UNL A   1      46.157  31.527  28.236  1.00  0.00     0.037 A 
BRANCH  25  39
ATOM     39  C   UNL A   1      40.793  28.511  28.638  1.00  0.00     0.064 A 
ATOM     40  C   UNL A   1      39.827  28.993  27.741  1.00  0.00     0.173 A 
ATOM     41  C   UNL A   1      40.376  28.178  29.935  1.00  0.00     0.173 A 
ATOM     42  F   UNL A   1      40.175  29.334  26.491  1.00  0.00    -0.203 F 
ATOM     43  C   UNL A   1      38.501  29.154  28.134  1.00  0.00     0.198 A 
ATOM     44  C   UNL A   1      39.045  28.321  30.317  1.00  0.00     0.198 A 
ATOM     45  F   UNL A   1      41.261  27.705  30.826  1.00  0.00    -0.203 F 
ATOM     46  F   UNL A   1      37.601  29.647  27.269  1.00  0.00    -0.200 F 
ATOM     47  C   UNL A   1      38.110  28.817  29.421  1.00  0.00     0.200 A 
ATOM     48  F   UNL A   1      38.665  27.978  31.557  1.00  0.00    -0.200 F 
ATOM     49  F   UNL A   1      36.833  28.971  29.797  1.00  0.00    -0.200 F 
ENDBRANCH  25  39
BRANCH  26  50
ATOM     50  C   UNL A   1      50.364  27.858  25.886  1.00  0.00     0.064 A 
ATOM     51  C   UNL A   1      50.750  27.914  24.539  1.00  0.00     0.173 A 
ATOM     52  C   UNL A   1      51.359  27.632  26.845  1.00  0.00     0.173 A 
ATOM     53  F   UNL A   1      49.830  28.122  23.585  1.00  0.00    -0.203 F 
ATOM     54  C   UNL A   1      52.075  27.716  24.163  1.00  0.00     0.198 A 
ATOM     55  C   UNL A   1      52.689  27.460  26.470  1.00  0.00     0.198 A 
ATOM     56  F   UNL A   1      51.037  27.589  28.146  1.00  0.00    -0.203 F 
ATOM     57  F   UNL A   1      52.412  27.729  22.866  1.00  0.00    -0.200 F 
ATOM     58  C   UNL A   1      53.045  27.491  25.129  1.00  0.00     0.200 A 
ATOM     59  F   UNL A   1      53.627  27.262  27.407  1.00  0.00    -0.200 F 
ATOM     60  F   UNL A   1      54.322  27.305  24.768  1.00  0.00    -0.200 F 
ENDBRANCH  26  50
BRANCH  38  61
ATOM     61  C   UNL A   1      46.454  32.945  28.619  1.00  0.00     0.064 A 
ATOM     62  C   UNL A   1      46.315  33.979  27.683  1.00  0.00     0.173 A 
ATOM     63  C   UNL A   1      46.932  33.268  29.897  1.00  0.00     0.173 A 
ATOM     64  F   UNL A   1      45.866  33.717  26.446  1.00  0.00    -0.203 F 
ATOM     65  C   UNL A   1      46.653  35.289  28.011  1.00  0.00     0.198 A 
ATOM     66  C   UNL A   1      47.249  34.582  30.228  1.00  0.00     0.198 A 
ATOM     67  F   UNL A   1      47.067  32.313  30.829  1.00  0.00    -0.203 F 
ATOM     68  F   UNL A   1      46.535  36.260  27.094  1.00  0.00    -0.200 F 
ATOM     69  C   UNL A   1      47.116  35.589  29.283  1.00  0.00     0.200 A 
ATOM     70  F   UNL A   1      47.675  34.876  31.464  1.00  0.00    -0.200 F 
ATOM     71  F   UNL A   1      47.431  36.854  29.601  1.00  0.00    -0.200 F 
ENDBRANCH  38  61
ENDBRANCH  12  13
ENDBRANCH   5   7
ENDBRANCH   2   3
ENDBRANCH   1   2
BRANCH   1  72
ATOM     72  C   UNL A   1      40.767  21.640  27.065  1.00  0.00     0.023 C 
BRANCH  72  73
ATOM     73  C   UNL A   1      39.516  22.401  26.622  1.00  0.00     0.116 C 
BRANCH  73  74
ATOM     74  N   UNL A   1      38.891  21.835  25.446  1.00  0.00    -0.354 N 
ATOM     75  C   UNL A   1      37.612  21.889  24.988  1.00  0.00     0.249 C 
ATOM     76  H   UNL A   1      39.504  21.318  24.874  1.00  0.00     0.163 HD
ATOM     77  O   UNL A   1      37.424  21.431  23.854  1.00  0.00    -0.272 OA
BRANCH  75  78
ATOM     78  C   UNL A   1      36.424  22.485  25.783  1.00  0.00     0.211 C 
ATOM     79  C   UNL A   1      35.599  23.529  25.071  1.00  0.00     0.085 C 
ATOM     80  O   UNL A   1      35.555  21.555  26.406  1.00  0.00    -0.357 OA
ATOM     81  C   UNL A   1      34.145  23.034  25.083  1.00  0.00     0.123 C 
ATOM     82  C   UNL A   1      34.211  21.694  25.907  1.00  0.00     0.186 C 
BRANCH  81  83
ATOM     83  C   UNL A   1      33.255  24.194  25.553  1.00  0.00    -0.013 A 
ATOM     84  C   UNL A   1      33.826  25.495  25.570  1.00  0.00     0.010 A 
ATOM     85  C   UNL A   1      31.928  24.063  25.978  1.00  0.00     0.010 A 
ATOM     86  C   UNL A   1      33.118  26.604  26.030  1.00  0.00     0.039 A 
ATOM     87  C   UNL A   1      31.214  25.181  26.432  1.00  0.00     0.039 A 
ATOM     88  C   UNL A   1      31.815  26.434  26.462  1.00  0.00     0.123 A 
ATOM     89  F   UNL A   1      31.127  27.490  26.916  1.00  0.00    -0.207 F 
ENDBRANCH  81  83
BRANCH  81  90
ATOM     90  O   UNL A   1      33.744  22.801  23.721  1.00  0.00    -0.382 OA
ATOM     91  H   UNL A   1      32.873  22.376  23.708  1.00  0.00     0.212 HD
ENDBRANCH  81  90
BRANCH  82  92
ATOM     92  C   UNL A   1      33.842  20.388  25.191  1.00  0.00    -0.016 A 
ATOM     93  C   UNL A   1      34.804  19.381  24.956  1.00  0.00     0.009 A 
ATOM     94  C   UNL A   1      32.528  20.155  24.751  1.00  0.00     0.009 A 
ATOM     95  C   UNL A   1      34.493  18.234  24.225  1.00  0.00     0.039 A 
ATOM     96  C   UNL A   1      32.214  18.999  24.027  1.00  0.00     0.039 A 
ATOM     97  C   UNL A   1      33.203  18.060  23.756  1.00  0.00     0.123 A 
ATOM     98  F   UNL A   1      32.905  16.973  23.031  1.00  0.00    -0.207 F 
ENDBRANCH  82  92
ENDBRANCH  75  78
ENDBRANCH  73  74
ENDBRANCH  72  73
ENDBRANCH   1  72
TORSDOF 14
ENDMDL
MODEL 2
REMARK VINA RESULT:     -12.5      6.357     10.970
REMARK SMILES O=C(NCCCCNC(=O)[C@H]1C[C@](O)(c2ccc(F)cc2)[C@@H](c2ccc(F)cc2)O1)c1ccc(-c2c3nc(c(-c4c(F)c(F)c(F)c(F)c4F)c4ccc([nH]4)c(-c4c(F)c(F)c(F)c(F)c4F)c4nc(c(-c5c(F)c(F)c(F)c(F)c5F)c5ccc2[nH]5)C=C4)C=C3)cc1
REMARK SMILES IDX 5 1 4 2 3 3 1 4 2 5 31 7 32 8 93 9 33 10 92 11 34 12 35 13
REMARK SMILES IDX 36 14 86 15 37 16 91 17 85 18 87 19 38 20 90 21 84 22 83 23
REMARK SMILES IDX 39 25 71 26 51 27 70 28 52 29 55 30 69 31 88 32 53 33 54 34
REMARK SMILES IDX 68 36 89 37 56 38 40 39 41 40 49 41 42 42 43 43 47 44 50 45
REMARK SMILES IDX 44 46 45 47 48 48 46 49 72 50 73 51 81 52 74 53 75 54 79 55
REMARK SMILES IDX 82 56 76 57 77 58 80 59 78 60 57 61 58 62 66 63 59 64 60 65
REMARK SMILES IDX 64 66 67 67 61 68 62 69 65 70 63 71 6 72 7 73 8 74 9 75
REMARK SMILES IDX 10 77 11 78 12 79 30 80 13 81 22 82 15 83 16 84 21 85 17 86
REMARK SMILES IDX 20 87 18 88 19 89 14 90 23 92 24 93 29 94 25 95 28 96 26 97
REMARK SMILES IDX 27 98
REMARK H PARENT 3 6 87 24 55 35 8 76 14 91
REMARK Flexibility Score: inf
ROOT
ATOM      1  C   UNL A   1      33.321  32.039  27.833  1.00  0.00     0.023 C 
ENDROOT
BRANCH   1   2
ATOM      2  C   UNL A   1      33.598  33.423  27.259  1.00  0.00     0.116 C 
BRANCH   2   3
ATOM      3  N   UNL A   1      32.868  34.500  27.908  1.00  0.00    -0.352 N 
ATOM      4  O   UNL A   1      32.441  35.942  29.610  1.00  0.00    -0.269 OA
ATOM      5  C   UNL A   1      33.148  35.078  29.135  1.00  0.00     0.251 C 
ATOM      6  H   UNL A   1      32.090  34.857  27.421  1.00  0.00     0.163 HD
BRANCH   5   7
ATOM      7  C   UNL A   1      34.324  34.569  29.879  1.00  0.00     0.039 A 
ATOM      8  C   UNL A   1      35.610  34.768  29.374  1.00  0.00     0.014 A 
ATOM      9  C   UNL A   1      34.120  33.795  31.023  1.00  0.00     0.014 A 
ATOM     10  C   UNL A   1      36.677  34.068  29.926  1.00  0.00     0.010 A 
ATOM     11  C   UNL A   1      35.208  33.154  31.624  1.00  0.00     0.010 A 
ATOM     12  C   UNL A   1      36.488  33.253  31.056  1.00  0.00    -0.014 A 
BRANCH  12  13
ATOM     13  C   UNL A   1      37.652  32.551  31.651  1.00  0.00     0.031 A 
ATOM     14  C   UNL A   1      38.159  32.898  33.023  1.00  0.00     0.074 A 
ATOM     15  C   UNL A   1      38.232  31.559  30.949  1.00  0.00     0.049 A 
ATOM     16  N   UNL A   1      39.170  32.386  33.681  1.00  0.00    -0.248 NA
ATOM     17  C   UNL A   1      37.447  33.957  33.754  1.00  0.00     0.031 C 
ATOM     18  C   UNL A   1      37.821  31.130  29.611  1.00  0.00     0.029 A 
ATOM     19  N   UNL A   1      39.270  30.722  31.263  1.00  0.00    -0.354 N 
ATOM     20  C   UNL A   1      39.229  33.071  34.887  1.00  0.00     0.074 A 
ATOM     21  C   UNL A   1      38.160  34.047  34.870  1.00  0.00     0.031 C 
ATOM     22  C   UNL A   1      38.564  30.078  29.240  1.00  0.00     0.029 A 
ATOM     23  C   UNL A   1      39.545  29.801  30.283  1.00  0.00     0.049 A 
ATOM     24  H   UNL A   1      39.771  30.775  32.110  1.00  0.00     0.167 HD
ATOM     25  C   UNL A   1      40.095  32.894  35.915  1.00  0.00     0.037 A 
ATOM     26  C   UNL A   1      40.492  28.847  30.221  1.00  0.00     0.037 A 
ATOM     27  C   UNL A   1      41.140  31.903  35.938  1.00  0.00     0.049 A 
ATOM     28  C   UNL A   1      41.450  28.689  31.362  1.00  0.00     0.074 A 
ATOM     29  C   UNL A   1      42.049  31.631  36.948  1.00  0.00     0.029 A 
ATOM     30  N   UNL A   1      41.416  31.018  34.905  1.00  0.00    -0.354 N 
ATOM     31  N   UNL A   1      41.497  29.347  32.495  1.00  0.00    -0.248 NA
ATOM     32  C   UNL A   1      42.495  27.667  31.214  1.00  0.00     0.031 C 
ATOM     33  C   UNL A   1      42.896  30.608  36.512  1.00  0.00     0.029 A 
ATOM     34  C   UNL A   1      42.491  30.213  35.247  1.00  0.00     0.049 A 
ATOM     35  H   UNL A   1      40.920  30.970  34.056  1.00  0.00     0.167 HD
ATOM     36  C   UNL A   1      42.571  28.820  33.196  1.00  0.00     0.074 A 
ATOM     37  C   UNL A   1      43.137  27.773  32.371  1.00  0.00     0.031 C 
ATOM     38  C   UNL A   1      43.047  29.180  34.412  1.00  0.00     0.037 A 
BRANCH  25  39
ATOM     39  C   UNL A   1      39.967  33.791  37.110  1.00  0.00     0.064 A 
ATOM     40  C   UNL A   1      39.106  33.450  38.164  1.00  0.00     0.173 A 
ATOM     41  C   UNL A   1      40.618  35.032  37.170  1.00  0.00     0.173 A 
ATOM     42  F   UNL A   1      38.452  32.278  38.150  1.00  0.00    -0.203 F 
ATOM     43  C   UNL A   1      38.889  34.324  39.226  1.00  0.00     0.198 A 
ATOM     44  C   UNL A   1      40.414  35.895  38.245  1.00  0.00     0.198 A 
ATOM     45  F   UNL A   1      41.457  35.401  36.191  1.00  0.00    -0.203 F 
ATOM     46  F   UNL A   1      38.037  33.989  40.206  1.00  0.00    -0.200 F 
ATOM     47  C   UNL A   1      39.544  35.545  39.266  1.00  0.00     0.200 A 
ATOM     48  F   UNL A   1      41.062  37.069  38.291  1.00  0.00    -0.200 F 
ATOM     49  F   UNL A   1      39.335  36.386  40.290  1.00  0.00    -0.200 F 
ENDBRANCH  25  39
BRANCH  26  50
ATOM     50  C   UNL A   1      40.562  27.976  29.022  1.00  0.00     0.064 A 
ATOM     51  C   UNL A   1      41.351  28.324  27.915  1.00  0.00     0.173 A 
ATOM     52  C   UNL A   1      39.792  26.809  28.937  1.00  0.00     0.173 A 
ATOM     53  F   UNL A   1      42.099  29.437  27.949  1.00  0.00    -0.203 F 
ATOM     54  C   UNL A   1      41.343  27.553  26.757  1.00  0.00     0.198 A 
ATOM     55  C   UNL A   1      39.805  26.024  27.787  1.00  0.00     0.198 A 
ATOM     56  F   UNL A   1      39.037  26.428  29.978  1.00  0.00    -0.203 F 
ATOM     57  F   UNL A   1      42.070  27.932  25.696  1.00  0.00    -0.200 F 
ATOM     58  C   UNL A   1      40.572  26.403  26.693  1.00  0.00     0.200 A 
ATOM     59  F   UNL A   1      39.074  24.902  27.735  1.00  0.00    -0.200 F 
ATOM     60  F   UNL A   1      40.566  25.658  25.579  1.00  0.00    -0.200 F 
ENDBRANCH  26  50
BRANCH  38  61
ATOM     61  C   UNL A   1      44.239  28.435  34.929  1.00  0.00     0.064 A 
ATOM     62  C   UNL A   1      45.538  28.880  34.640  1.00  0.00     0.173 A 
ATOM     63  C   UNL A   1      44.094  27.248  35.660  1.00  0.00     0.173 A 
ATOM     64  F   UNL A   1      45.726  30.008  33.938  1.00  0.00    -0.203 F 
ATOM     65  C   UNL A   1      46.650  28.156  35.059  1.00  0.00     0.198 A 
ATOM     66  C   UNL A   1      45.209  26.539  36.097  1.00  0.00     0.198 A 
ATOM     67  F   UNL A   1      42.872  26.793  35.973  1.00  0.00    -0.203 F 
ATOM     68  F   UNL A   1      47.882  28.587  34.753  1.00  0.00    -0.200 F 
ATOM     69  C   UNL A   1      46.485  26.989  35.790  1.00  0.00     0.200 A 
ATOM     70  F   UNL A   1      45.049  25.423  36.822  1.00  0.00    -0.200 F 
ATOM     71  F   UNL A   1      47.558  26.299  36.203  1.00  0.00    -0.200 F 
ENDBRANCH  38  61
ENDBRANCH  12  13
ENDBRANCH   5   7
ENDBRANCH   2   3
ENDBRANCH   1   2
BRANCH   1  72
ATOM     72  C   UNL A   1      34.508  31.080  27.800  1.00  0.00     0.023 C 
BRANCH  72  73
ATOM     73  C   UNL A   1      34.152  29.679  27.299  1.00  0.00     0.116 C 
BRANCH  73  74
ATOM     74  N   UNL A   1      32.855  29.225  27.749  1.00  0.00    -0.354 N 
ATOM     75  C   UNL A   1      32.124  28.122  27.435  1.00  0.00     0.249 C 
ATOM     76  H   UNL A   1      32.423  29.822  28.403  1.00  0.00     0.163 HD
ATOM     77  O   UNL A   1      31.109  27.933  28.118  1.00  0.00    -0.272 OA
BRANCH  75  78
ATOM     78  C   UNL A   1      32.493  27.121  26.312  1.00  0.00     0.211 C 
ATOM     79  C   UNL A   1      31.840  25.763  26.386  1.00  0.00     0.085 C 
ATOM     80  O   UNL A   1      32.402  27.605  24.984  1.00  0.00    -0.357 OA
ATOM     81  C   UNL A   1      31.107  25.545  25.054  1.00  0.00     0.123 C 
ATOM     82  C   UNL A   1      31.457  26.834  24.219  1.00  0.00     0.186 C 
BRANCH  81  83
ATOM     83  C   UNL A   1      31.482  24.152  24.530  1.00  0.00    -0.013 A 
ATOM     84  C   UNL A   1      31.465  23.075  25.456  1.00  0.00     0.010 A 
ATOM     85  C   UNL A   1      31.852  23.865  23.210  1.00  0.00     0.010 A 
ATOM     86  C   UNL A   1      31.840  21.783  25.092  1.00  0.00     0.039 A 
ATOM     87  C   UNL A   1      32.222  22.564  22.843  1.00  0.00     0.039 A 
ATOM     88  C   UNL A   1      32.221  21.541  23.784  1.00  0.00     0.123 A 
ATOM     89  F   UNL A   1      32.594  20.306  23.423  1.00  0.00    -0.207 F 
ENDBRANCH  81  83
BRANCH  81  90
ATOM     90  O   UNL A   1      29.698  25.459  25.332  1.00  0.00    -0.382 OA
ATOM     91  H   UNL A   1      29.327  24.683  24.886  1.00  0.00     0.212 HD
ENDBRANCH  81  90
BRANCH  82  92
ATOM     92  C   UNL A   1      30.307  27.768  23.818  1.00  0.00    -0.016 A 
ATOM     93  C   UNL A   1      29.040  27.260  23.454  1.00  0.00     0.009 A 
ATOM     94  C   UNL A   1      30.483  29.161  23.804  1.00  0.00     0.009 A 
ATOM     95  C   UNL A   1      28.023  28.099  23.000  1.00  0.00     0.039 A 
ATOM     96  C   UNL A   1      29.458  30.004  23.359  1.00  0.00     0.039 A 
ATOM     97  C   UNL A   1      28.246  29.464  22.944  1.00  0.00     0.123 A 
ATOM     98  F   UNL A   1      27.281  30.272  22.484  1.00  0.00    -0.207 F 
ENDBRANCH  82  92
ENDBRANCH  75  78
ENDBRANCH  73  74
ENDBRANCH  72  73
ENDBRANCH   1  72
TORSDOF 14
ENDMDL
MODEL 3
REMARK VINA RESULT:     -12.4      6.816     12.247
REMARK SMILES O=C(NCCCCNC(=O)[C@H]1C[C@](O)(c2ccc(F)cc2)[C@@H](c2ccc(F)cc2)O1)c1ccc(-c2c3nc(c(-c4c(F)c(F)c(F)c(F)c4F)c4ccc([nH]4)c(-c4c(F)c(F)c(F)c(F)c4F)c4nc(c(-c5c(F)c(F)c(F)c(F)c5F)c5ccc2[nH]5)C=C4)C=C3)cc1
REMARK SMILES IDX 5 1 4 2 3 3 1 4 2 5 31 7 32 8 93 9 33 10 92 11 34 12 35 13
REMARK SMILES IDX 36 14 86 15 37 16 91 17 85 18 87 19 38 20 90 21 84 22 83 23
REMARK SMILES IDX 39 25 71 26 51 27 70 28 52 29 55 30 69 31 88 32 53 33 54 34
REMARK SMILES IDX 68 36 89 37 56 38 40 39 41 40 49 41 42 42 43 43 47 44 50 45
REMARK SMILES IDX 44 46 45 47 48 48 46 49 72 50 73 51 81 52 74 53 75 54 79 55
REMARK SMILES IDX 82 56 76 57 77 58 80 59 78 60 57 61 58 62 66 63 59 64 60 65
REMARK SMILES IDX 64 66 67 67 61 68 62 69 65 70 63 71 6 72 7 73 8 74 9 75
REMARK SMILES IDX 10 77 11 78 12 79 30 80 13 81 22 82 15 83 16 84 21 85 17 86
REMARK SMILES IDX 20 87 18 88 19 89 14 90 23 92 24 93 29 94 25 95 28 96 26 97
REMARK SMILES IDX 27 98
REMARK H PARENT 3 6 87 24 55 35 8 76 14 91
REMARK Flexibility Score: inf
ROOT
ATOM      1  C   UNL A   1      33.786  33.990  28.439  1.00  0.00     0.023 C 
ENDROOT
BRANCH   1   2
ATOM      2  C   UNL A   1      33.995  35.383  29.021  1.00  0.00     0.116 C 
BRANCH   2   3
ATOM      3  N   UNL A   1      32.945  35.819  29.928  1.00  0.00    -0.352 N 
ATOM      4  O   UNL A   1      31.943  35.993  31.958  1.00  0.00    -0.269 OA
ATOM      5  C   UNL A   1      32.895  35.632  31.299  1.00  0.00     0.251 C 
ATOM      6  H   UNL A   1      32.188  36.299  29.522  1.00  0.00     0.163 HD
BRANCH   5   7
ATOM      7  C   UNL A   1      34.031  34.925  31.936  1.00  0.00     0.039 A 
ATOM      8  C   UNL A   1      35.232  35.599  32.166  1.00  0.00     0.014 A 
ATOM      9  C   UNL A   1      33.921  33.557  32.195  1.00  0.00     0.014 A 
ATOM     10  C   UNL A   1      36.367  34.873  32.511  1.00  0.00     0.010 A 
ATOM     11  C   UNL A   1      35.047  32.844  32.618  1.00  0.00     0.010 A 
ATOM     12  C   UNL A   1      36.287  33.488  32.740  1.00  0.00    -0.014 A 
BRANCH  12  13
ATOM     13  C   UNL A   1      37.505  32.746  33.150  1.00  0.00     0.031 A 
ATOM     14  C   UNL A   1      38.137  31.720  32.252  1.00  0.00     0.074 A 
ATOM     15  C   UNL A   1      38.064  33.035  34.340  1.00  0.00     0.049 A 
ATOM     16  N   UNL A   1      39.196  30.978  32.466  1.00  0.00    -0.248 NA
ATOM     17  C   UNL A   1      37.503  31.489  30.944  1.00  0.00     0.031 C 
ATOM     18  C   UNL A   1      37.542  34.018  35.292  1.00  0.00     0.029 A 
ATOM     19  N   UNL A   1      39.196  32.554  34.944  1.00  0.00    -0.354 N 
ATOM     20  C   UNL A   1      39.342  30.182  31.338  1.00  0.00     0.074 A 
ATOM     21  C   UNL A   1      38.256  30.518  30.441  1.00  0.00     0.031 C 
ATOM     22  C   UNL A   1      38.378  34.104  36.336  1.00  0.00     0.029 A 
ATOM     23  C   UNL A   1      39.457  33.138  36.159  1.00  0.00     0.049 A 
ATOM     24  H   UNL A   1      39.766  31.858  34.546  1.00  0.00     0.167 HD
ATOM     25  C   UNL A   1      40.300  29.260  31.076  1.00  0.00     0.037 A 
ATOM     26  C   UNL A   1      40.446  32.912  37.043  1.00  0.00     0.037 A 
ATOM     27  C   UNL A   1      41.394  28.948  31.961  1.00  0.00     0.049 A 
ATOM     28  C   UNL A   1      41.478  31.869  36.737  1.00  0.00     0.074 A 
ATOM     29  C   UNL A   1      42.429  28.047  31.768  1.00  0.00     0.029 A 
ATOM     30  N   UNL A   1      41.598  29.529  33.204  1.00  0.00    -0.354 N 
ATOM     31  N   UNL A   1      41.601  31.121  35.668  1.00  0.00    -0.248 NA
ATOM     32  C   UNL A   1      42.502  31.629  37.763  1.00  0.00     0.031 C 
ATOM     33  C   UNL A   1      43.237  28.057  32.909  1.00  0.00     0.029 A 
ATOM     34  C   UNL A   1      42.730  28.992  33.796  1.00  0.00     0.049 A 
ATOM     35  H   UNL A   1      41.023  30.220  33.606  1.00  0.00     0.167 HD
ATOM     36  C   UNL A   1      42.714  30.323  35.889  1.00  0.00     0.074 A 
ATOM     37  C   UNL A   1      43.244  30.694  37.185  1.00  0.00     0.031 C 
ATOM     38  C   UNL A   1      43.241  29.366  35.090  1.00  0.00     0.037 A 
BRANCH  25  39
ATOM     39  C   UNL A   1      40.219  28.503  29.784  1.00  0.00     0.064 A 
ATOM     40  C   UNL A   1      39.533  27.281  29.719  1.00  0.00     0.173 A 
ATOM     41  C   UNL A   1      40.900  28.935  28.636  1.00  0.00     0.173 A 
ATOM     42  F   UNL A   1      38.872  26.819  30.792  1.00  0.00    -0.203 F 
ATOM     43  C   UNL A   1      39.544  26.512  28.559  1.00  0.00     0.198 A 
ATOM     44  C   UNL A   1      40.892  28.172  27.470  1.00  0.00     0.198 A 
ATOM     45  F   UNL A   1      41.564  30.100  28.645  1.00  0.00    -0.203 F 
ATOM     46  F   UNL A   1      38.907  25.331  28.531  1.00  0.00    -0.200 F 
ATOM     47  C   UNL A   1      40.222  26.958  27.435  1.00  0.00     0.200 A 
ATOM     48  F   UNL A   1      41.533  28.613  26.379  1.00  0.00    -0.200 F 
ATOM     49  F   UNL A   1      40.231  26.217  26.318  1.00  0.00    -0.200 F 
ENDBRANCH  25  39
BRANCH  26  50
ATOM     50  C   UNL A   1      40.487  33.701  38.298  1.00  0.00     0.064 A 
ATOM     51  C   UNL A   1      39.673  33.371  39.392  1.00  0.00     0.173 A 
ATOM     52  C   UNL A   1      41.297  34.839  38.404  1.00  0.00     0.173 A 
ATOM     53  F   UNL A   1      38.876  32.294  39.334  1.00  0.00    -0.203 F 
ATOM     54  C   UNL A   1      39.646  34.167  40.533  1.00  0.00     0.198 A 
ATOM     55  C   UNL A   1      41.289  35.620  39.557  1.00  0.00     0.198 A 
ATOM     56  F   UNL A   1      42.105  35.182  37.389  1.00  0.00    -0.203 F 
ATOM     57  F   UNL A   1      38.826  33.855  41.547  1.00  0.00    -0.200 F 
ATOM     58  C   UNL A   1      40.455  35.290  40.616  1.00  0.00     0.200 A 
ATOM     59  F   UNL A   1      42.086  36.694  39.642  1.00  0.00    -0.200 F 
ATOM     60  F   UNL A   1      40.433  36.055  41.716  1.00  0.00    -0.200 F 
ENDBRANCH  26  50
BRANCH  38  61
ATOM     61  C   UNL A   1      44.458  28.649  35.590  1.00  0.00     0.064 A 
ATOM     62  C   UNL A   1      44.332  27.488  36.366  1.00  0.00     0.173 A 
ATOM     63  C   UNL A   1      45.746  29.148  35.349  1.00  0.00     0.173 A 
ATOM     64  F   UNL A   1      43.119  26.977  36.627  1.00  0.00    -0.203 F 
ATOM     65  C   UNL A   1      45.454  26.855  36.891  1.00  0.00     0.198 A 
ATOM     66  C   UNL A   1      46.868  28.499  35.857  1.00  0.00     0.198 A 
ATOM     67  F   UNL A   1      45.915  30.247  34.600  1.00  0.00    -0.203 F 
ATOM     68  F   UNL A   1      45.311  25.759  37.649  1.00  0.00    -0.200 F 
ATOM     69  C   UNL A   1      46.720  27.359  36.633  1.00  0.00     0.200 A 
ATOM     70  F   UNL A   1      48.092  28.974  35.590  1.00  0.00    -0.200 F 
ATOM     71  F   UNL A   1      47.802  26.741  37.131  1.00  0.00    -0.200 F 
ENDBRANCH  38  61
ENDBRANCH  12  13
ENDBRANCH   5   7
ENDBRANCH   2   3
ENDBRANCH   1   2
BRANCH   1  72
ATOM     72  C   UNL A   1      35.065  33.186  28.221  1.00  0.00     0.023 C 
BRANCH  72  73
ATOM     73  C   UNL A   1      34.815  31.749  27.757  1.00  0.00     0.116 C 
BRANCH  73  74
ATOM     74  N   UNL A   1      33.413  31.398  27.717  1.00  0.00    -0.354 N 
ATOM     75  C   UNL A   1      32.748  30.403  27.072  1.00  0.00     0.249 C 
ATOM     76  H   UNL A   1      32.835  31.986  28.256  1.00  0.00     0.163 HD
ATOM     77  O   UNL A   1      31.554  30.268  27.369  1.00  0.00    -0.272 OA
BRANCH  75  78
ATOM     78  C   UNL A   1      33.393  29.456  26.029  1.00  0.00     0.211 C 
ATOM     79  C   UNL A   1      33.330  27.980  26.337  1.00  0.00     0.085 C 
ATOM     80  O   UNL A   1      33.019  29.662  24.678  1.00  0.00    -0.357 OA
ATOM     81  C   UNL A   1      32.641  27.303  25.143  1.00  0.00     0.123 C 
ATOM     82  C   UNL A   1      32.395  28.485  24.132  1.00  0.00     0.186 C 
BRANCH  81  83
ATOM     83  C   UNL A   1      33.489  26.090  24.733  1.00  0.00    -0.013 A 
ATOM     84  C   UNL A   1      33.416  25.664  23.381  1.00  0.00     0.010 A 
ATOM     85  C   UNL A   1      34.319  25.365  25.598  1.00  0.00     0.010 A 
ATOM     86  C   UNL A   1      34.106  24.542  22.924  1.00  0.00     0.039 A 
ATOM     87  C   UNL A   1      35.018  24.241  25.134  1.00  0.00     0.039 A 
ATOM     88  C   UNL A   1      34.899  23.836  23.811  1.00  0.00     0.123 A 
ATOM     89  F   UNL A   1      35.559  22.751  23.386  1.00  0.00    -0.207 F 
ENDBRANCH  81  83
BRANCH  81  90
ATOM     90  O   UNL A   1      31.403  26.736  25.608  1.00  0.00    -0.382 OA
ATOM     91  H   UNL A   1      31.566  26.214  26.408  1.00  0.00     0.212 HD
ENDBRANCH  81  90
BRANCH  82  92
ATOM     92  C   UNL A   1      30.946  28.844  23.780  1.00  0.00    -0.016 A 
ATOM     93  C   UNL A   1      30.064  27.889  23.228  1.00  0.00     0.009 A 
ATOM     94  C   UNL A   1      30.452  30.140  24.002  1.00  0.00     0.009 A 
ATOM     95  C   UNL A   1      28.776  28.236  22.822  1.00  0.00     0.039 A 
ATOM     96  C   UNL A   1      29.155  30.486  23.604  1.00  0.00     0.039 A 
ATOM     97  C   UNL A   1      28.338  29.536  23.002  1.00  0.00     0.123 A 
ATOM     98  F   UNL A   1      27.110  29.881  22.590  1.00  0.00    -0.207 F 
ENDBRANCH  82  92
ENDBRANCH  75  78
ENDBRANCH  73  74
ENDBRANCH  72  73
ENDBRANCH   1  72
TORSDOF 14
ENDMDL
