MODEL 1
REMARK VINA RESULT:     -12.4      0.000      0.000
REMARK SMILES COc1ccc(-n2c(SCC(=O)NCCCCNC(=O)c3ccc(-c4c5nc(c(-c6c(F)c(F)c(F)c(F)c6F)c6ccc([nH]6)c(-c6c(F)c(F)c(F)c(F)c6F)c6nc(c(-c7c(F)c(F)c(F)c(F)c7F)c7ccc4[nH]7)C=C6)C=C5)cc3)nc3sc4c(c3c2=O)CC[N@H+](C)C4)cc1
REMARK SMILES IDX 14 1 13 2 11 3 12 4 10 6 9 7 8 8 7 9 90 10 84 11 89 12 91 13
REMARK SMILES IDX 85 14 88 15 86 16 87 17 92 18 96 19 93 20 94 21 95 22 6 24
REMARK SMILES IDX 3 25 4 26 98 27 5 28 97 29 2 30 1 31 15 32 16 33 17 34 18 35
REMARK SMILES IDX 19 36 20 38 21 39 22 40 83 41 23 42 82 43 24 44 25 45 26 46
REMARK SMILES IDX 76 47 27 48 81 49 75 50 77 51 28 52 80 53 74 54 73 55 29 57
REMARK SMILES IDX 61 58 41 59 60 60 42 61 45 62 59 63 78 64 43 65 44 66 58 68
REMARK SMILES IDX 79 69 46 70 30 71 31 72 39 73 32 74 33 75 37 76 40 77 34 78
REMARK SMILES IDX 35 79 38 80 36 81 62 82 63 83 71 84 64 85 65 86 69 87 72 88
REMARK SMILES IDX 66 89 67 90 70 91 68 92 47 93 48 94 56 95 49 96 50 97 54 98
REMARK SMILES IDX 57 99 51 100 52 101 55 102 53 103
REMARK H PARENT 13 5 94 23 18 37 77 56 45 67
REMARK Flexibility Score: inf
ROOT
ATOM      1  C   UNL A   1      34.790  29.221  27.330  1.00  0.00     0.116 C 
ENDROOT
BRANCH   1   2
ATOM      2  N   UNL A   1      33.395  29.017  27.658  1.00  0.00    -0.355 N 
ATOM      3  C   UNL A   1      32.507  28.097  27.208  1.00  0.00     0.230 C 
ATOM      4  O   UNL A   1      31.596  27.828  28.001  1.00  0.00    -0.274 OA
ATOM      5  H   UNL A   1      33.033  29.650  28.318  1.00  0.00     0.163 HD
BRANCH   3   6
ATOM      6  C   UNL A   1      32.628  27.334  25.903  1.00  0.00     0.178 C 
BRANCH   6   7
ATOM      7  S   UNL A   1      33.919  26.131  25.719  1.00  0.00    -0.077 SA
BRANCH   7   8
ATOM      8  C   UNL A   1      33.487  24.600  24.987  1.00  0.00     0.177 A 
ATOM      9  N   UNL A   1      32.366  24.322  24.194  1.00  0.00    -0.255 N 
ATOM     10  C   UNL A   1      32.114  23.018  23.705  1.00  0.00     0.267 A 
ATOM     11  N   UNL A   1      34.341  23.686  25.357  1.00  0.00    -0.212 NA
ATOM     12  C   UNL A   1      33.059  22.017  24.153  1.00  0.00     0.081 A 
ATOM     13  O   UNL A   1      31.185  22.712  22.969  1.00  0.00    -0.268 OA
ATOM     14  C   UNL A   1      34.091  22.422  24.957  1.00  0.00     0.132 A 
ATOM     15  C   UNL A   1      33.088  20.614  23.892  1.00  0.00    -0.008 A 
ATOM     16  S   UNL A   1      35.052  21.107  25.472  1.00  0.00    -0.114 S 
ATOM     17  C   UNL A   1      34.091  19.995  24.612  1.00  0.00     0.065 A 
ATOM     18  C   UNL A   1      32.153  19.814  23.034  1.00  0.00     0.099 C 
ATOM     19  C   UNL A   1      34.348  18.513  24.626  1.00  0.00     0.310 C 
ATOM     20  C   UNL A   1      32.659  18.361  22.871  1.00  0.00     0.267 C 
ATOM     21  N   UNL A   1      33.194  17.737  24.103  1.00  0.00    -0.333 N 
ATOM     22  C   UNL A   1      32.153  17.569  25.118  1.00  0.00     0.333 C 
ATOM     23  H   UNL A   1      33.528  16.805  23.863  1.00  0.00     0.348 HD
BRANCH   9  24
ATOM     24  C   UNL A   1      31.413  25.274  23.778  1.00  0.00     0.052 A 
ATOM     25  C   UNL A   1      29.630  27.337  23.149  1.00  0.00     0.119 A 
ATOM     26  C   UNL A   1      30.817  27.189  22.430  1.00  0.00     0.048 A 
ATOM     27  C   UNL A   1      29.378  26.497  24.233  1.00  0.00     0.048 A 
ATOM     28  C   UNL A   1      31.713  26.162  22.740  1.00  0.00     0.030 A 
ATOM     29  C   UNL A   1      30.276  25.479  24.559  1.00  0.00     0.030 A 
BRANCH  25  30
ATOM     30  O   UNL A   1      28.807  28.344  22.723  1.00  0.00    -0.497 OA
ATOM     31  C   UNL A   1      29.454  29.565  22.376  1.00  0.00     0.278 C 
ENDBRANCH  25  30
ENDBRANCH   9  24
ENDBRANCH   7   8
ENDBRANCH   6   7
ENDBRANCH   3   6
ENDBRANCH   1   2
BRANCH   1  32
ATOM     32  C   UNL A   1      35.323  30.548  27.867  1.00  0.00     0.023 C 
BRANCH  32  33
ATOM     33  C   UNL A   1      34.290  31.683  28.010  1.00  0.00     0.023 C 
BRANCH  33  34
ATOM     34  C   UNL A   1      34.815  33.117  27.843  1.00  0.00     0.116 C 
BRANCH  34  35
ATOM     35  N   UNL A   1      34.711  33.867  29.079  1.00  0.00    -0.352 N 
ATOM     36  C   UNL A   1      35.229  33.642  30.325  1.00  0.00     0.251 C 
ATOM     37  H   UNL A   1      34.172  34.687  29.009  1.00  0.00     0.163 HD
ATOM     38  O   UNL A   1      34.782  34.301  31.264  1.00  0.00    -0.269 OA
BRANCH  36  39
ATOM     39  C   UNL A   1      36.303  32.659  30.592  1.00  0.00     0.039 A 
ATOM     40  C   UNL A   1      36.109  31.781  31.666  1.00  0.00     0.014 A 
ATOM     41  C   UNL A   1      37.542  32.698  29.948  1.00  0.00     0.014 A 
ATOM     42  C   UNL A   1      37.141  30.944  32.091  1.00  0.00     0.010 A 
ATOM     43  C   UNL A   1      38.578  31.855  30.374  1.00  0.00     0.010 A 
ATOM     44  C   UNL A   1      38.386  30.978  31.451  1.00  0.00    -0.014 A 
BRANCH  44  45
ATOM     45  C   UNL A   1      39.432  30.041  31.909  1.00  0.00     0.031 A 
ATOM     46  C   UNL A   1      39.490  28.714  31.237  1.00  0.00     0.074 A 
ATOM     47  C   UNL A   1      40.539  30.447  32.566  1.00  0.00     0.049 A 
ATOM     48  N   UNL A   1      40.126  28.521  30.119  1.00  0.00    -0.248 NA
ATOM     49  C   UNL A   1      38.691  27.570  31.672  1.00  0.00     0.031 C 
ATOM     50  C   UNL A   1      41.116  31.791  32.465  1.00  0.00     0.029 A 
ATOM     51  N   UNL A   1      41.479  29.725  33.266  1.00  0.00    -0.354 N 
ATOM     52  C   UNL A   1      39.774  27.267  29.662  1.00  0.00     0.074 A 
ATOM     53  C   UNL A   1      38.903  26.703  30.669  1.00  0.00     0.031 C 
ATOM     54  C   UNL A   1      42.382  31.754  32.932  1.00  0.00     0.029 A 
ATOM     55  C   UNL A   1      42.649  30.439  33.511  1.00  0.00     0.049 A 
ATOM     56  H   UNL A   1      41.339  28.798  33.563  1.00  0.00     0.167 HD
ATOM     57  C   UNL A   1      40.203  26.773  28.471  1.00  0.00     0.037 A 
ATOM     58  C   UNL A   1      43.895  29.906  33.624  1.00  0.00     0.037 A 
ATOM     59  C   UNL A   1      41.065  27.624  27.710  1.00  0.00     0.049 A 
ATOM     60  C   UNL A   1      44.074  29.264  32.275  1.00  0.00     0.074 A 
ATOM     61  C   UNL A   1      40.932  28.564  26.711  1.00  0.00     0.029 A 
ATOM     62  N   UNL A   1      42.404  27.636  28.017  1.00  0.00    -0.354 N 
ATOM     63  N   UNL A   1      44.383  29.892  31.173  1.00  0.00    -0.248 NA
ATOM     64  C   UNL A   1      43.581  27.900  32.082  1.00  0.00     0.031 C 
ATOM     65  C   UNL A   1      42.091  29.397  26.814  1.00  0.00     0.029 A 
ATOM     66  C   UNL A   1      42.816  28.941  27.914  1.00  0.00     0.049 A 
ATOM     67  H   UNL A   1      42.959  26.862  28.264  1.00  0.00     0.167 HD
ATOM     68  C   UNL A   1      43.886  29.097  30.139  1.00  0.00     0.074 A 
ATOM     69  C   UNL A   1      43.444  27.867  30.764  1.00  0.00     0.031 C 
ATOM     70  C   UNL A   1      43.696  29.566  28.872  1.00  0.00     0.037 A 
BRANCH  57  71
ATOM     71  C   UNL A   1      39.940  25.407  27.990  1.00  0.00     0.064 A 
ATOM     72  C   UNL A   1      40.926  24.432  28.183  1.00  0.00     0.173 A 
ATOM     73  C   UNL A   1      38.861  25.111  27.155  1.00  0.00     0.173 A 
ATOM     74  F   UNL A   1      41.987  24.698  28.966  1.00  0.00    -0.203 F 
ATOM     75  C   UNL A   1      40.861  23.210  27.527  1.00  0.00     0.198 A 
ATOM     76  C   UNL A   1      38.795  23.881  26.501  1.00  0.00     0.198 A 
ATOM     77  F   UNL A   1      37.905  26.024  26.933  1.00  0.00    -0.203 F 
ATOM     78  F   UNL A   1      41.844  22.313  27.689  1.00  0.00    -0.200 F 
ATOM     79  C   UNL A   1      39.801  22.939  26.675  1.00  0.00     0.200 A 
ATOM     80  F   UNL A   1      37.775  23.620  25.671  1.00  0.00    -0.200 F 
ATOM     81  F   UNL A   1      39.759  21.778  26.009  1.00  0.00    -0.200 F 
ENDBRANCH  57  71
BRANCH  58  82
ATOM     82  C   UNL A   1      44.195  29.194  34.911  1.00  0.00     0.064 A 
ATOM     83  C   UNL A   1      45.347  29.549  35.645  1.00  0.00     0.173 A 
ATOM     84  C   UNL A   1      43.423  28.154  35.452  1.00  0.00     0.173 A 
ATOM     85  F   UNL A   1      46.219  30.442  35.148  1.00  0.00    -0.203 F 
ATOM     86  C   UNL A   1      45.630  28.996  36.896  1.00  0.00     0.198 A 
ATOM     87  C   UNL A   1      43.689  27.621  36.717  1.00  0.00     0.198 A 
ATOM     88  F   UNL A   1      42.388  27.637  34.776  1.00  0.00    -0.203 F 
ATOM     89  F   UNL A   1      46.719  29.390  37.570  1.00  0.00    -0.200 F 
ATOM     90  C   UNL A   1      44.781  28.054  37.445  1.00  0.00     0.200 A 
ATOM     91  F   UNL A   1      42.868  26.695  37.232  1.00  0.00    -0.200 F 
ATOM     92  F   UNL A   1      45.019  27.559  38.668  1.00  0.00    -0.200 F 
ENDBRANCH  58  82
BRANCH  70  93
ATOM     93  C   UNL A   1      44.203  30.950  28.639  1.00  0.00     0.064 A 
ATOM     94  C   UNL A   1      45.482  31.159  28.104  1.00  0.00     0.173 A 
ATOM     95  C   UNL A   1      43.433  32.077  28.964  1.00  0.00     0.173 A 
ATOM     96  F   UNL A   1      46.257  30.115  27.771  1.00  0.00    -0.203 F 
ATOM     97  C   UNL A   1      45.967  32.448  27.898  1.00  0.00     0.198 A 
ATOM     98  C   UNL A   1      43.909  33.362  28.727  1.00  0.00     0.198 A 
ATOM     99  F   UNL A   1      42.210  31.943  29.501  1.00  0.00    -0.203 F 
ATOM    100  F   UNL A   1      47.196  32.628  27.394  1.00  0.00    -0.200 F 
ATOM    101  C   UNL A   1      45.177  33.547  28.199  1.00  0.00     0.200 A 
ATOM    102  F   UNL A   1      43.136  34.423  29.001  1.00  0.00    -0.200 F 
ATOM    103  F   UNL A   1      45.634  34.787  27.972  1.00  0.00    -0.200 F 
ENDBRANCH  70  93
ENDBRANCH  44  45
ENDBRANCH  36  39
ENDBRANCH  34  35
ENDBRANCH  33  34
ENDBRANCH  32  33
ENDBRANCH   1  32
TORSDOF 15
ENDMDL
MODEL 2
REMARK VINA RESULT:     -12.3      8.572     14.437
REMARK SMILES COc1ccc(-n2c(SCC(=O)NCCCCNC(=O)c3ccc(-c4c5nc(c(-c6c(F)c(F)c(F)c(F)c6F)c6ccc([nH]6)c(-c6c(F)c(F)c(F)c(F)c6F)c6nc(c(-c7c(F)c(F)c(F)c(F)c7F)c7ccc4[nH]7)C=C6)C=C5)cc3)nc3sc4c(c3c2=O)CC[N@H+](C)C4)cc1
REMARK SMILES IDX 14 1 13 2 11 3 12 4 10 6 9 7 8 8 7 9 90 10 84 11 89 12 91 13
REMARK SMILES IDX 85 14 88 15 86 16 87 17 92 18 96 19 93 20 94 21 95 22 6 24
REMARK SMILES IDX 3 25 4 26 98 27 5 28 97 29 2 30 1 31 15 32 16 33 17 34 18 35
REMARK SMILES IDX 19 36 20 38 21 39 22 40 83 41 23 42 82 43 24 44 25 45 26 46
REMARK SMILES IDX 76 47 27 48 81 49 75 50 77 51 28 52 80 53 74 54 73 55 29 57
REMARK SMILES IDX 61 58 41 59 60 60 42 61 45 62 59 63 78 64 43 65 44 66 58 68
REMARK SMILES IDX 79 69 46 70 30 71 31 72 39 73 32 74 33 75 37 76 40 77 34 78
REMARK SMILES IDX 35 79 38 80 36 81 62 82 63 83 71 84 64 85 65 86 69 87 72 88
REMARK SMILES IDX 66 89 67 90 70 91 68 92 47 93 48 94 56 95 49 96 50 97 54 98
REMARK SMILES IDX 57 99 51 100 52 101 55 102 53 103
REMARK H PARENT 13 5 94 23 18 37 77 56 45 67
REMARK Flexibility Score: inf
ROOT
ATOM      1  C   UNL A   1      46.510  21.375  37.662  1.00  0.00     0.116 C 
ENDROOT
BRANCH   1   2
ATOM      2  N   UNL A   1      46.133  20.041  37.245  1.00  0.00    -0.355 N 
ATOM      3  C   UNL A   1      45.988  18.900  37.962  1.00  0.00     0.230 C 
ATOM      4  O   UNL A   1      45.188  18.086  37.481  1.00  0.00    -0.274 OA
ATOM      5  H   UNL A   1      45.951  19.948  36.282  1.00  0.00     0.163 HD
BRANCH   3   6
ATOM      6  C   UNL A   1      46.628  18.628  39.309  1.00  0.00     0.178 C 
BRANCH   6   7
ATOM      7  S   UNL A   1      45.774  19.112  40.788  1.00  0.00    -0.077 SA
BRANCH   7   8
ATOM      8  C   UNL A   1      44.765  17.906  41.558  1.00  0.00     0.177 A 
ATOM      9  N   UNL A   1      44.656  17.637  42.929  1.00  0.00    -0.255 N 
ATOM     10  C   UNL A   1      43.830  16.594  43.412  1.00  0.00     0.267 A 
ATOM     11  N   UNL A   1      44.156  17.202  40.645  1.00  0.00    -0.212 NA
ATOM     12  C   UNL A   1      43.190  15.809  42.378  1.00  0.00     0.081 A 
ATOM     13  O   UNL A   1      43.649  16.334  44.595  1.00  0.00    -0.268 OA
ATOM     14  C   UNL A   1      43.412  16.161  41.074  1.00  0.00     0.132 A 
ATOM     15  C   UNL A   1      42.334  14.673  42.500  1.00  0.00    -0.008 A 
ATOM     16  S   UNL A   1      42.664  15.078  39.985  1.00  0.00    -0.114 S 
ATOM     17  C   UNL A   1      42.034  14.142  41.260  1.00  0.00     0.065 A 
ATOM     18  C   UNL A   1      41.838  14.019  43.755  1.00  0.00     0.099 C 
ATOM     19  C   UNL A   1      41.219  12.899  41.034  1.00  0.00     0.310 C 
ATOM     20  C   UNL A   1      40.779  12.937  43.435  1.00  0.00     0.267 C 
ATOM     21  N   UNL A   1      41.088  12.080  42.267  1.00  0.00    -0.333 N 
ATOM     22  C   UNL A   1      42.278  11.260  42.499  1.00  0.00     0.333 C 
ATOM     23  H   UNL A   1      40.307  11.438  42.134  1.00  0.00     0.348 HD
BRANCH   9  24
ATOM     24  C   UNL A   1      45.302  18.364  43.950  1.00  0.00     0.052 A 
ATOM     25  C   UNL A   1      46.718  19.949  45.770  1.00  0.00     0.119 A 
ATOM     26  C   UNL A   1      45.434  20.318  45.366  1.00  0.00     0.048 A 
ATOM     27  C   UNL A   1      47.318  18.827  45.200  1.00  0.00     0.048 A 
ATOM     28  C   UNL A   1      44.721  19.532  44.456  1.00  0.00     0.030 A 
ATOM     29  C   UNL A   1      46.619  18.046  44.278  1.00  0.00     0.030 A 
BRANCH  25  30
ATOM     30  O   UNL A   1      47.297  20.765  46.704  1.00  0.00    -0.497 OA
ATOM     31  C   UNL A   1      48.596  21.251  46.378  1.00  0.00     0.278 C 
ENDBRANCH  25  30
ENDBRANCH   9  24
ENDBRANCH   7   8
ENDBRANCH   6   7
ENDBRANCH   3   6
ENDBRANCH   1   2
BRANCH   1  32
ATOM     32  C   UNL A   1      45.743  22.457  36.904  1.00  0.00     0.023 C 
BRANCH  32  33
ATOM     33  C   UNL A   1      46.161  23.911  37.196  1.00  0.00     0.023 C 
BRANCH  33  34
ATOM     34  C   UNL A   1      45.028  24.939  37.336  1.00  0.00     0.116 C 
BRANCH  34  35
ATOM     35  N   UNL A   1      43.745  24.365  36.981  1.00  0.00    -0.352 N 
ATOM     36  C   UNL A   1      42.981  24.477  35.852  1.00  0.00     0.251 C 
ATOM     37  H   UNL A   1      43.355  23.790  37.677  1.00  0.00     0.163 HD
ATOM     38  O   UNL A   1      41.813  24.089  35.904  1.00  0.00    -0.269 OA
BRANCH  36  39
ATOM     39  C   UNL A   1      43.492  25.026  34.576  1.00  0.00     0.039 A 
ATOM     40  C   UNL A   1      43.126  26.340  34.256  1.00  0.00     0.014 A 
ATOM     41  C   UNL A   1      44.152  24.243  33.626  1.00  0.00     0.014 A 
ATOM     42  C   UNL A   1      43.421  26.871  33.001  1.00  0.00     0.010 A 
ATOM     43  C   UNL A   1      44.449  24.778  32.365  1.00  0.00     0.010 A 
ATOM     44  C   UNL A   1      44.081  26.092  32.042  1.00  0.00    -0.014 A 
BRANCH  44  45
ATOM     45  C   UNL A   1      44.409  26.715  30.744  1.00  0.00     0.031 A 
ATOM     46  C   UNL A   1      44.438  25.819  29.555  1.00  0.00     0.074 A 
ATOM     47  C   UNL A   1      44.276  28.039  30.514  1.00  0.00     0.049 A 
ATOM     48  N   UNL A   1      43.368  25.514  28.880  1.00  0.00    -0.248 NA
ATOM     49  C   UNL A   1      45.626  25.067  29.159  1.00  0.00     0.031 C 
ATOM     50  C   UNL A   1      43.357  28.918  31.245  1.00  0.00     0.029 A 
ATOM     51  N   UNL A   1      44.744  28.819  29.482  1.00  0.00    -0.354 N 
ATOM     52  C   UNL A   1      43.710  24.492  28.018  1.00  0.00     0.074 A 
ATOM     53  C   UNL A   1      45.126  24.265  28.205  1.00  0.00     0.031 C 
ATOM     54  C   UNL A   1      43.202  30.060  30.542  1.00  0.00     0.029 A 
ATOM     55  C   UNL A   1      44.124  30.063  29.409  1.00  0.00     0.049 A 
ATOM     56  H   UNL A   1      45.448  28.528  28.859  1.00  0.00     0.167 HD
ATOM     57  C   UNL A   1      42.805  23.878  27.212  1.00  0.00     0.037 A 
ATOM     58  C   UNL A   1      43.916  30.781  28.273  1.00  0.00     0.037 A 
ATOM     59  C   UNL A   1      41.460  24.361  27.293  1.00  0.00     0.049 A 
ATOM     60  C   UNL A   1      43.057  29.839  27.472  1.00  0.00     0.074 A 
ATOM     61  C   UNL A   1      40.315  24.048  27.991  1.00  0.00     0.029 A 
ATOM     62  N   UNL A   1      41.126  25.478  26.566  1.00  0.00    -0.354 N 
ATOM     63  N   UNL A   1      41.779  29.645  27.650  1.00  0.00    -0.248 NA
ATOM     64  C   UNL A   1      43.717  28.833  26.638  1.00  0.00     0.031 C 
ATOM     65  C   UNL A   1      39.534  25.248  28.001  1.00  0.00     0.029 A 
ATOM     66  C   UNL A   1      40.294  26.226  27.361  1.00  0.00     0.049 A 
ATOM     67  H   UNL A   1      41.425  25.700  25.655  1.00  0.00     0.167 HD
ATOM     68  C   UNL A   1      41.525  28.363  27.162  1.00  0.00     0.074 A 
ATOM     69  C   UNL A   1      42.748  27.936  26.515  1.00  0.00     0.031 C 
ATOM     70  C   UNL A   1      40.399  27.660  27.479  1.00  0.00     0.037 A 
BRANCH  57  71
ATOM     71  C   UNL A   1      43.138  22.859  26.204  1.00  0.00     0.064 A 
ATOM     72  C   UNL A   1      42.981  21.510  26.544  1.00  0.00     0.173 A 
ATOM     73  C   UNL A   1      43.814  23.177  25.024  1.00  0.00     0.173 A 
ATOM     74  F   UNL A   1      42.352  21.175  27.685  1.00  0.00    -0.203 F 
ATOM     75  C   UNL A   1      43.522  20.506  25.752  1.00  0.00     0.198 A 
ATOM     76  C   UNL A   1      44.352  22.167  24.228  1.00  0.00     0.198 A 
ATOM     77  F   UNL A   1      43.998  24.458  24.673  1.00  0.00    -0.203 F 
ATOM     78  F   UNL A   1      43.402  19.225  26.126  1.00  0.00    -0.200 F 
ATOM     79  C   UNL A   1      44.219  20.835  24.600  1.00  0.00     0.200 A 
ATOM     80  F   UNL A   1      45.032  22.484  23.117  1.00  0.00    -0.200 F 
ATOM     81  F   UNL A   1      44.777  19.870  23.857  1.00  0.00    -0.200 F 
ENDBRANCH  57  71
BRANCH  58  82
ATOM     82  C   UNL A   1      45.118  31.473  27.698  1.00  0.00     0.064 A 
ATOM     83  C   UNL A   1      44.986  32.788  27.201  1.00  0.00     0.173 A 
ATOM     84  C   UNL A   1      46.395  30.902  27.583  1.00  0.00     0.173 A 
ATOM     85  F   UNL A   1      43.779  33.374  27.149  1.00  0.00    -0.203 F 
ATOM     86  C   UNL A   1      46.083  33.523  26.746  1.00  0.00     0.198 A 
ATOM     87  C   UNL A   1      47.498  31.646  27.155  1.00  0.00     0.198 A 
ATOM     88  F   UNL A   1      46.607  29.615  27.890  1.00  0.00    -0.203 F 
ATOM     89  F   UNL A   1      45.912  34.780  26.315  1.00  0.00    -0.200 F 
ATOM     90  C   UNL A   1      47.345  32.960  26.754  1.00  0.00     0.200 A 
ATOM     91  F   UNL A   1      48.715  31.085  27.151  1.00  0.00    -0.200 F 
ATOM     92  F   UNL A   1      48.409  33.679  26.369  1.00  0.00    -0.200 F 
ENDBRANCH  58  82
BRANCH  70  93
ATOM     93  C   UNL A   1      39.388  28.428  28.264  1.00  0.00     0.064 A 
ATOM     94  C   UNL A   1      38.528  29.333  27.627  1.00  0.00     0.173 A 
ATOM     95  C   UNL A   1      39.280  28.286  29.657  1.00  0.00     0.173 A 
ATOM     96  F   UNL A   1      38.587  29.501  26.296  1.00  0.00    -0.203 F 
ATOM     97  C   UNL A   1      37.593  30.063  28.356  1.00  0.00     0.198 A 
ATOM     98  C   UNL A   1      38.324  28.994  30.376  1.00  0.00     0.198 A 
ATOM     99  F   UNL A   1      40.090  27.453  30.328  1.00  0.00    -0.203 F 
ATOM    100  F   UNL A   1      36.787  30.931  27.730  1.00  0.00    -0.200 F 
ATOM    101  C   UNL A   1      37.484  29.885  29.726  1.00  0.00     0.200 A 
ATOM    102  F   UNL A   1      38.207  28.806  31.699  1.00  0.00    -0.200 F 
ATOM    103  F   UNL A   1      36.564  30.567  30.422  1.00  0.00    -0.200 F 
ENDBRANCH  70  93
ENDBRANCH  44  45
ENDBRANCH  36  39
ENDBRANCH  34  35
ENDBRANCH  33  34
ENDBRANCH  32  33
ENDBRANCH   1  32
TORSDOF 15
ENDMDL
MODEL 3
REMARK VINA RESULT:     -11.8      2.960      5.676
REMARK SMILES COc1ccc(-n2c(SCC(=O)NCCCCNC(=O)c3ccc(-c4c5nc(c(-c6c(F)c(F)c(F)c(F)c6F)c6ccc([nH]6)c(-c6c(F)c(F)c(F)c(F)c6F)c6nc(c(-c7c(F)c(F)c(F)c(F)c7F)c7ccc4[nH]7)C=C6)C=C5)cc3)nc3sc4c(c3c2=O)CC[N@H+](C)C4)cc1
REMARK SMILES IDX 14 1 13 2 11 3 12 4 10 6 9 7 8 8 7 9 90 10 84 11 89 12 91 13
REMARK SMILES IDX 85 14 88 15 86 16 87 17 92 18 96 19 93 20 94 21 95 22 6 24
REMARK SMILES IDX 3 25 4 26 98 27 5 28 97 29 2 30 1 31 15 32 16 33 17 34 18 35
REMARK SMILES IDX 19 36 20 38 21 39 22 40 83 41 23 42 82 43 24 44 25 45 26 46
REMARK SMILES IDX 76 47 27 48 81 49 75 50 77 51 28 52 80 53 74 54 73 55 29 57
REMARK SMILES IDX 61 58 41 59 60 60 42 61 45 62 59 63 78 64 43 65 44 66 58 68
REMARK SMILES IDX 79 69 46 70 30 71 31 72 39 73 32 74 33 75 37 76 40 77 34 78
REMARK SMILES IDX 35 79 38 80 36 81 62 82 63 83 71 84 64 85 65 86 69 87 72 88
REMARK SMILES IDX 66 89 67 90 70 91 68 92 47 93 48 94 56 95 49 96 50 97 54 98
REMARK SMILES IDX 57 99 51 100 52 101 55 102 53 103
REMARK H PARENT 13 5 94 23 18 37 77 56 45 67
REMARK Flexibility Score: inf
ROOT
ATOM      1  C   UNL A   1      34.819  29.801  27.273  1.00  0.00     0.116 C 
ENDROOT
BRANCH   1   2
ATOM      2  N   UNL A   1      33.723  29.885  26.331  1.00  0.00    -0.355 N 
ATOM      3  C   UNL A   1      32.748  28.993  26.029  1.00  0.00     0.230 C 
ATOM      4  O   UNL A   1      31.697  29.497  25.611  1.00  0.00    -0.274 OA
ATOM      5  H   UNL A   1      33.677  30.729  25.829  1.00  0.00     0.163 HD
BRANCH   3   6
ATOM      6  C   UNL A   1      32.827  27.498  26.271  1.00  0.00     0.178 C 
BRANCH   6   7
ATOM      7  S   UNL A   1      34.073  26.549  25.436  1.00  0.00    -0.077 SA
BRANCH   7   8
ATOM      8  C   UNL A   1      33.615  24.962  24.856  1.00  0.00     0.177 A 
ATOM      9  N   UNL A   1      32.423  24.601  24.215  1.00  0.00    -0.255 N 
ATOM     10  C   UNL A   1      32.163  23.261  23.840  1.00  0.00     0.267 A 
ATOM     11  N   UNL A   1      34.536  24.098  25.183  1.00  0.00    -0.212 NA
ATOM     12  C   UNL A   1      33.186  22.319  24.240  1.00  0.00     0.081 A 
ATOM     13  O   UNL A   1      31.168  22.883  23.236  1.00  0.00    -0.268 OA
ATOM     14  C   UNL A   1      34.287  22.803  24.895  1.00  0.00     0.132 A 
ATOM     15  C   UNL A   1      33.233  20.903  24.066  1.00  0.00    -0.008 A 
ATOM     16  S   UNL A   1      35.344  21.552  25.379  1.00  0.00    -0.114 S 
ATOM     17  C   UNL A   1      34.332  20.360  24.705  1.00  0.00     0.065 A 
ATOM     18  C   UNL A   1      32.237  20.022  23.372  1.00  0.00     0.099 C 
ATOM     19  C   UNL A   1      34.639  18.890  24.783  1.00  0.00     0.310 C 
ATOM     20  C   UNL A   1      32.771  18.576  23.244  1.00  0.00     0.267 C 
ATOM     21  N   UNL A   1      33.462  18.050  24.444  1.00  0.00    -0.333 N 
ATOM     22  C   UNL A   1      32.547  17.921  25.579  1.00  0.00     0.333 C 
ATOM     23  H   UNL A   1      33.799  17.113  24.226  1.00  0.00     0.348 HD
BRANCH   9  24
ATOM     24  C   UNL A   1      31.397  25.498  23.851  1.00  0.00     0.052 A 
ATOM     25  C   UNL A   1      29.469  27.455  23.321  1.00  0.00     0.119 A 
ATOM     26  C   UNL A   1      30.626  27.378  22.543  1.00  0.00     0.048 A 
ATOM     27  C   UNL A   1      29.320  26.600  24.411  1.00  0.00     0.048 A 
ATOM     28  C   UNL A   1      31.594  26.403  22.804  1.00  0.00     0.030 A 
ATOM     29  C   UNL A   1      30.290  25.634  24.688  1.00  0.00     0.030 A 
BRANCH  25  30
ATOM     30  O   UNL A   1      28.570  28.414  22.940  1.00  0.00    -0.497 OA
ATOM     31  C   UNL A   1      29.043  29.757  22.984  1.00  0.00     0.278 C 
ENDBRANCH  25  30
ENDBRANCH   9  24
ENDBRANCH   7   8
ENDBRANCH   6   7
ENDBRANCH   3   6
ENDBRANCH   1   2
BRANCH   1  32
ATOM     32  C   UNL A   1      35.266  31.175  27.764  1.00  0.00     0.023 C 
BRANCH  32  33
ATOM     33  C   UNL A   1      34.141  32.143  28.182  1.00  0.00     0.023 C 
BRANCH  33  34
ATOM     34  C   UNL A   1      34.576  33.466  28.831  1.00  0.00     0.116 C 
BRANCH  34  35
ATOM     35  N   UNL A   1      34.122  33.556  30.204  1.00  0.00    -0.352 N 
ATOM     36  C   UNL A   1      34.621  33.028  31.363  1.00  0.00     0.251 C 
ATOM     37  H   UNL A   1      33.308  34.096  30.325  1.00  0.00     0.163 HD
ATOM     38  O   UNL A   1      33.904  33.048  32.364  1.00  0.00    -0.269 OA
BRANCH  36  39
ATOM     39  C   UNL A   1      35.979  32.451  31.473  1.00  0.00     0.039 A 
ATOM     40  C   UNL A   1      36.080  31.053  31.462  1.00  0.00     0.014 A 
ATOM     41  C   UNL A   1      37.108  33.221  31.763  1.00  0.00     0.014 A 
ATOM     42  C   UNL A   1      37.298  30.429  31.732  1.00  0.00     0.010 A 
ATOM     43  C   UNL A   1      38.332  32.593  32.033  1.00  0.00     0.010 A 
ATOM     44  C   UNL A   1      38.433  31.194  32.025  1.00  0.00    -0.014 A 
BRANCH  44  45
ATOM     45  C   UNL A   1      39.708  30.488  32.261  1.00  0.00     0.031 A 
ATOM     46  C   UNL A   1      40.817  30.759  31.304  1.00  0.00     0.074 A 
ATOM     47  C   UNL A   1      40.045  29.969  33.461  1.00  0.00     0.049 A 
ATOM     48  N   UNL A   1      41.619  31.775  31.429  1.00  0.00    -0.248 NA
ATOM     49  C   UNL A   1      40.981  30.022  30.053  1.00  0.00     0.031 C 
ATOM     50  C   UNL A   1      39.519  30.443  34.746  1.00  0.00     0.029 A 
ATOM     51  N   UNL A   1      41.048  29.092  33.807  1.00  0.00    -0.354 N 
ATOM     52  C   UNL A   1      42.350  31.862  30.262  1.00  0.00     0.074 A 
ATOM     53  C   UNL A   1      41.941  30.739  29.448  1.00  0.00     0.031 C 
ATOM     54  C   UNL A   1      40.314  29.981  35.734  1.00  0.00     0.029 A 
ATOM     55  C   UNL A   1      41.296  29.054  35.176  1.00  0.00     0.049 A 
ATOM     56  H   UNL A   1      41.539  28.545  33.152  1.00  0.00     0.167 HD
ATOM     57  C   UNL A   1      43.236  32.864  30.024  1.00  0.00     0.037 A 
ATOM     58  C   UNL A   1      42.497  28.792  35.758  1.00  0.00     0.037 A 
ATOM     59  C   UNL A   1      43.387  33.832  31.066  1.00  0.00     0.049 A 
ATOM     60  C   UNL A   1      43.349  29.905  35.210  1.00  0.00     0.074 A 
ATOM     61  C   UNL A   1      42.846  35.055  31.396  1.00  0.00     0.029 A 
ATOM     62  N   UNL A   1      44.230  33.537  32.111  1.00  0.00    -0.354 N 
ATOM     63  N   UNL A   1      43.349  31.138  35.637  1.00  0.00    -0.248 NA
ATOM     64  C   UNL A   1      44.007  29.707  33.917  1.00  0.00     0.031 C 
ATOM     65  C   UNL A   1      43.033  35.188  32.809  1.00  0.00     0.029 A 
ATOM     66  C   UNL A   1      43.619  34.002  33.248  1.00  0.00     0.049 A 
ATOM     67  H   UNL A   1      45.101  33.080  32.055  1.00  0.00     0.167 HD
ATOM     68  C   UNL A   1      43.781  31.908  34.556  1.00  0.00     0.074 A 
ATOM     69  C   UNL A   1      44.210  30.964  33.545  1.00  0.00     0.031 C 
ATOM     70  C   UNL A   1      43.585  33.256  34.483  1.00  0.00     0.037 A 
BRANCH  57  71
ATOM     71  C   UNL A   1      44.112  32.942  28.844  1.00  0.00     0.064 A 
ATOM     72  C   UNL A   1      45.301  32.202  28.847  1.00  0.00     0.173 A 
ATOM     73  C   UNL A   1      43.919  33.891  27.839  1.00  0.00     0.173 A 
ATOM     74  F   UNL A   1      45.523  31.295  29.815  1.00  0.00    -0.203 F 
ATOM     75  C   UNL A   1      46.289  32.434  27.899  1.00  0.00     0.198 A 
ATOM     76  C   UNL A   1      44.910  34.119  26.885  1.00  0.00     0.198 A 
ATOM     77  F   UNL A   1      42.800  34.631  27.811  1.00  0.00    -0.203 F 
ATOM     78  F   UNL A   1      47.439  31.748  27.955  1.00  0.00    -0.200 F 
ATOM     79  C   UNL A   1      46.099  33.401  26.925  1.00  0.00     0.200 A 
ATOM     80  F   UNL A   1      44.731  35.060  25.947  1.00  0.00    -0.200 F 
ATOM     81  F   UNL A   1      47.069  33.655  26.037  1.00  0.00    -0.200 F 
ENDBRANCH  57  71
BRANCH  58  82
ATOM     82  C   UNL A   1      42.934  27.356  35.754  1.00  0.00     0.064 A 
ATOM     83  C   UNL A   1      44.223  27.025  36.225  1.00  0.00     0.173 A 
ATOM     84  C   UNL A   1      42.162  26.282  35.285  1.00  0.00     0.173 A 
ATOM     85  F   UNL A   1      45.086  27.993  36.576  1.00  0.00    -0.203 F 
ATOM     86  C   UNL A   1      44.654  25.702  36.342  1.00  0.00     0.198 A 
ATOM     87  C   UNL A   1      42.580  24.956  35.429  1.00  0.00     0.198 A 
ATOM     88  F   UNL A   1      40.981  26.490  34.687  1.00  0.00    -0.203 F 
ATOM     89  F   UNL A   1      45.874  25.436  36.826  1.00  0.00    -0.200 F 
ATOM     90  C   UNL A   1      43.817  24.665  35.972  1.00  0.00     0.200 A 
ATOM     91  F   UNL A   1      41.766  23.960  35.051  1.00  0.00    -0.200 F 
ATOM     92  F   UNL A   1      44.204  23.393  36.132  1.00  0.00    -0.200 F 
ENDBRANCH  58  82
BRANCH  70  93
ATOM     93  C   UNL A   1      43.012  33.869  35.717  1.00  0.00     0.064 A 
ATOM     94  C   UNL A   1      41.623  33.942  35.897  1.00  0.00     0.173 A 
ATOM     95  C   UNL A   1      43.835  34.405  36.720  1.00  0.00     0.173 A 
ATOM     96  F   UNL A   1      40.792  33.439  34.971  1.00  0.00    -0.203 F 
ATOM     97  C   UNL A   1      41.082  34.526  37.040  1.00  0.00     0.198 A 
ATOM     98  C   UNL A   1      43.290  34.959  37.874  1.00  0.00     0.198 A 
ATOM     99  F   UNL A   1      45.171  34.386  36.596  1.00  0.00    -0.203 F 
ATOM    100  F   UNL A   1      39.752  34.596  37.189  1.00  0.00    -0.200 F 
ATOM    101  C   UNL A   1      41.914  35.023  38.031  1.00  0.00     0.200 A 
ATOM    102  F   UNL A   1      44.097  35.422  38.839  1.00  0.00    -0.200 F 
ATOM    103  F   UNL A   1      41.392  35.558  39.143  1.00  0.00    -0.200 F 
ENDBRANCH  70  93
ENDBRANCH  44  45
ENDBRANCH  36  39
ENDBRANCH  34  35
ENDBRANCH  33  34
ENDBRANCH  32  33
ENDBRANCH   1  32
TORSDOF 15
ENDMDL
