MODEL 1
REMARK VINA RESULT:     -13.0      0.000      0.000
REMARK SMILES CNc1nc(C(=O)N2C[C@@H](C(=O)NCCCCNC(=O)c3ccc(-c4c5nc(c(-c6c(F)c(F)c(F)c(F)c6F)c6ccc([nH]6)c(-c6c(F)c(F)c(F)c(F)c6F)c6nc(c(-c7c(F)c(F)c(F)c(F)c7F)c7ccc4[nH]7)C=C6)C=C5)cc3)[C@H](c3ccccc3C)C2)cs1
REMARK SMILES IDX 15 1 14 2 13 3 11 4 12 5 10 7 8 8 9 9 92 10 84 11 6 12 7 13
REMARK SMILES IDX 5 14 3 15 4 16 94 17 93 18 2 19 1 20 85 22 86 23 90 24 87 25
REMARK SMILES IDX 89 26 91 27 88 28 16 29 17 30 18 31 19 32 20 34 21 35 22 36
REMARK SMILES IDX 83 37 23 38 82 39 24 40 25 41 26 42 76 43 27 44 81 45 75 46
REMARK SMILES IDX 77 47 28 48 80 49 74 50 73 51 29 53 61 54 41 55 60 56 42 57
REMARK SMILES IDX 45 58 59 59 78 60 43 61 44 62 58 64 79 65 46 66 30 67 31 68
REMARK SMILES IDX 39 69 32 70 33 71 37 72 40 73 34 74 35 75 38 76 36 77 62 78
REMARK SMILES IDX 63 79 71 80 64 81 65 82 69 83 72 84 66 85 67 86 70 87 68 88
REMARK SMILES IDX 47 89 48 90 56 91 49 92 50 93 54 94 57 95 51 96 52 97 55 98
REMARK SMILES IDX 53 99
REMARK H PARENT 13 6 2 21 18 33 77 52 45 63
REMARK Flexibility Score: inf
ROOT
ATOM      1  C   UNL A   1      31.764  30.394  26.789  1.00  0.00     0.023 C 
ENDROOT
BRANCH   1   2
ATOM      2  C   UNL A   1      31.456  29.686  25.472  1.00  0.00     0.116 C 
BRANCH   2   3
ATOM      3  N   UNL A   1      32.606  29.721  24.587  1.00  0.00    -0.356 N 
ATOM      4  C   UNL A   1      33.114  28.728  23.803  1.00  0.00     0.225 C 
ATOM      5  O   UNL A   1      34.208  28.907  23.271  1.00  0.00    -0.275 OA
ATOM      6  H   UNL A   1      33.084  30.581  24.546  1.00  0.00     0.163 HD
BRANCH   4   7
ATOM      7  C   UNL A   1      32.335  27.443  23.668  1.00  0.00     0.107 C 
ATOM      8  N   UNL A   1      32.616  25.331  22.773  1.00  0.00    -0.336 N 
ATOM      9  C   UNL A   1      33.367  26.353  23.445  1.00  0.00     0.134 C 
ATOM     10  C   UNL A   1      31.717  25.954  21.822  1.00  0.00     0.129 C 
ATOM     11  C   UNL A   1      31.382  27.356  22.434  1.00  0.00     0.053 C 
BRANCH   8  12
ATOM     12  C   UNL A   1      32.690  23.969  22.988  1.00  0.00     0.273 C 
ATOM     13  O   UNL A   1      33.124  23.196  22.138  1.00  0.00    -0.267 OA
BRANCH  12  14
ATOM     14  C   UNL A   1      32.143  23.480  24.265  1.00  0.00     0.141 A 
ATOM     15  C   UNL A   1      32.265  22.434  26.236  1.00  0.00     0.183 A 
ATOM     16  N   UNL A   1      32.878  22.623  25.093  1.00  0.00    -0.215 NA
ATOM     17  S   UNL A   1      30.713  23.170  26.346  1.00  0.00    -0.105 S 
ATOM     18  C   UNL A   1      30.943  23.894  24.810  1.00  0.00     0.102 A 
BRANCH  15  19
ATOM     19  N   UNL A   1      32.777  21.755  27.280  1.00  0.00    -0.365 N 
ATOM     20  C   UNL A   1      34.200  21.697  27.503  1.00  0.00     0.142 C 
ATOM     21  H   UNL A   1      32.170  21.291  27.900  1.00  0.00     0.162 HD
ENDBRANCH  15  19
ENDBRANCH  12  14
ENDBRANCH   8  12
BRANCH  11  22
ATOM     22  C   UNL A   1      29.918  27.652  22.826  1.00  0.00    -0.039 A 
ATOM     23  C   UNL A   1      29.135  26.697  23.508  1.00  0.00     0.004 A 
ATOM     24  C   UNL A   1      29.285  28.885  22.504  1.00  0.00    -0.048 A 
ATOM     25  C   UNL A   1      27.800  26.940  23.855  1.00  0.00     0.000 A 
ATOM     26  C   UNL A   1      27.954  29.127  22.905  1.00  0.00     0.004 A 
ATOM     27  C   UNL A   1      29.953  30.011  21.763  1.00  0.00     0.044 C 
ATOM     28  C   UNL A   1      27.211  28.159  23.565  1.00  0.00     0.000 A 
ENDBRANCH  11  22
ENDBRANCH   4   7
ENDBRANCH   2   3
ENDBRANCH   1   2
BRANCH   1  29
ATOM     29  C   UNL A   1      31.559  31.911  26.754  1.00  0.00     0.023 C 
BRANCH  29  30
ATOM     30  C   UNL A   1      32.788  32.733  27.126  1.00  0.00     0.116 C 
BRANCH  30  31
ATOM     31  N   UNL A   1      32.450  34.086  27.540  1.00  0.00    -0.352 N 
ATOM     32  C   UNL A   1      32.976  34.836  28.562  1.00  0.00     0.251 C 
ATOM     33  H   UNL A   1      31.746  34.526  27.011  1.00  0.00     0.163 HD
ATOM     34  O   UNL A   1      32.463  35.907  28.871  1.00  0.00    -0.269 OA
BRANCH  32  35
ATOM     35  C   UNL A   1      34.147  34.335  29.312  1.00  0.00     0.039 A 
ATOM     36  C   UNL A   1      33.936  33.603  30.482  1.00  0.00     0.014 A 
ATOM     37  C   UNL A   1      35.445  34.578  28.856  1.00  0.00     0.014 A 
ATOM     38  C   UNL A   1      35.027  33.057  31.162  1.00  0.00     0.010 A 
ATOM     39  C   UNL A   1      36.526  33.975  29.494  1.00  0.00     0.010 A 
ATOM     40  C   UNL A   1      36.327  33.210  30.654  1.00  0.00    -0.014 A 
BRANCH  40  41
ATOM     41  C   UNL A   1      37.493  32.575  31.318  1.00  0.00     0.031 A 
ATOM     42  C   UNL A   1      38.219  31.443  30.648  1.00  0.00     0.074 A 
ATOM     43  C   UNL A   1      37.853  32.970  32.553  1.00  0.00     0.049 A 
ATOM     44  N   UNL A   1      39.213  30.717  31.094  1.00  0.00    -0.248 NA
ATOM     45  C   UNL A   1      37.746  31.058  29.310  1.00  0.00     0.031 C 
ATOM     46  C   UNL A   1      37.199  34.025  33.328  1.00  0.00     0.029 A 
ATOM     47  N   UNL A   1      38.854  32.523  33.380  1.00  0.00    -0.354 N 
ATOM     48  C   UNL A   1      39.472  29.781  30.101  1.00  0.00     0.074 A 
ATOM     49  C   UNL A   1      38.497  29.996  29.053  1.00  0.00     0.031 C 
ATOM     50  C   UNL A   1      37.828  34.161  34.504  1.00  0.00     0.029 A 
ATOM     51  C   UNL A   1      38.906  33.179  34.584  1.00  0.00     0.049 A 
ATOM     52  H   UNL A   1      39.474  31.801  33.132  1.00  0.00     0.167 HD
ATOM     53  C   UNL A   1      40.450  28.844  30.056  1.00  0.00     0.037 A 
ATOM     54  C   UNL A   1      39.729  33.006  35.636  1.00  0.00     0.037 A 
ATOM     55  C   UNL A   1      41.432  28.648  31.089  1.00  0.00     0.049 A 
ATOM     56  C   UNL A   1      40.800  31.952  35.567  1.00  0.00     0.074 A 
ATOM     57  C   UNL A   1      42.502  27.771  31.109  1.00  0.00     0.029 A 
ATOM     58  N   UNL A   1      41.460  29.340  32.292  1.00  0.00    -0.354 N 
ATOM     59  N   UNL A   1      41.082  31.121  34.594  1.00  0.00    -0.248 NA
ATOM     60  C   UNL A   1      41.671  31.816  36.743  1.00  0.00     0.031 C 
ATOM     61  C   UNL A   1      43.149  27.898  32.343  1.00  0.00     0.029 A 
ATOM     62  C   UNL A   1      42.514  28.891  33.073  1.00  0.00     0.049 A 
ATOM     63  H   UNL A   1      40.824  30.045  32.553  1.00  0.00     0.167 HD
ATOM     64  C   UNL A   1      42.176  30.384  35.025  1.00  0.00     0.074 A 
ATOM     65  C   UNL A   1      42.515  30.876  36.345  1.00  0.00     0.031 C 
ATOM     66  C   UNL A   1      42.841  29.391  34.384  1.00  0.00     0.037 A 
BRANCH  53  67
ATOM     67  C   UNL A   1      40.497  27.956  28.846  1.00  0.00     0.064 A 
ATOM     68  C   UNL A   1      41.255  28.292  27.713  1.00  0.00     0.173 A 
ATOM     69  C   UNL A   1      39.785  26.747  28.822  1.00  0.00     0.173 A 
ATOM     70  F   UNL A   1      41.944  29.443  27.680  1.00  0.00    -0.203 F 
ATOM     71  C   UNL A   1      41.266  27.472  26.588  1.00  0.00     0.198 A 
ATOM     72  C   UNL A   1      39.825  25.913  27.706  1.00  0.00     0.198 A 
ATOM     73  F   UNL A   1      39.050  26.373  29.879  1.00  0.00    -0.203 F 
ATOM     74  F   UNL A   1      41.949  27.845  25.496  1.00  0.00    -0.200 F 
ATOM     75  C   UNL A   1      40.557  26.281  26.587  1.00  0.00     0.200 A 
ATOM     76  F   UNL A   1      39.149  24.756  27.712  1.00  0.00    -0.200 F 
ATOM     77  F   UNL A   1      40.569  25.493  25.504  1.00  0.00    -0.200 F 
ENDBRANCH  53  67
BRANCH  54  78
ATOM     78  C   UNL A   1      39.592  33.878  36.830  1.00  0.00     0.064 A 
ATOM     79  C   UNL A   1      40.231  35.124  36.883  1.00  0.00     0.173 A 
ATOM     80  C   UNL A   1      38.812  33.496  37.931  1.00  0.00     0.173 A 
ATOM     81  F   UNL A   1      41.003  35.524  35.863  1.00  0.00    -0.203 F 
ATOM     82  C   UNL A   1      40.106  35.950  37.999  1.00  0.00     0.198 A 
ATOM     83  C   UNL A   1      38.667  34.334  39.035  1.00  0.00     0.198 A 
ATOM     84  F   UNL A   1      38.177  32.315  37.927  1.00  0.00    -0.203 F 
ATOM     85  F   UNL A   1      40.756  37.121  38.038  1.00  0.00    -0.200 F 
ATOM     86  C   UNL A   1      39.319  35.558  39.070  1.00  0.00     0.200 A 
ATOM     87  F   UNL A   1      37.894  33.958  40.062  1.00  0.00    -0.200 F 
ATOM     88  F   UNL A   1      39.191  36.356  40.139  1.00  0.00    -0.200 F 
ENDBRANCH  54  78
BRANCH  66  89
ATOM     89  C   UNL A   1      44.024  28.791  35.086  1.00  0.00     0.064 A 
ATOM     90  C   UNL A   1      45.320  29.297  34.911  1.00  0.00     0.173 A 
ATOM     91  C   UNL A   1      43.851  27.721  35.977  1.00  0.00     0.173 A 
ATOM     92  F   UNL A   1      45.540  30.308  34.057  1.00  0.00    -0.203 F 
ATOM     93  C   UNL A   1      46.404  28.737  35.584  1.00  0.00     0.198 A 
ATOM     94  C   UNL A   1      44.931  27.184  36.672  1.00  0.00     0.198 A 
ATOM     95  F   UNL A   1      42.631  27.204  36.186  1.00  0.00    -0.203 F 
ATOM     96  F   UNL A   1      47.640  29.206  35.366  1.00  0.00    -0.200 F 
ATOM     97  C   UNL A   1      46.207  27.687  36.469  1.00  0.00     0.200 A 
ATOM     98  F   UNL A   1      44.738  26.178  37.536  1.00  0.00    -0.200 F 
ATOM     99  F   UNL A   1      47.250  27.156  37.121  1.00  0.00    -0.200 F 
ENDBRANCH  66  89
ENDBRANCH  40  41
ENDBRANCH  32  35
ENDBRANCH  30  31
ENDBRANCH  29  30
ENDBRANCH   1  29
TORSDOF 15
ENDMDL
MODEL 2
REMARK VINA RESULT:     -13.0      1.109      2.001
REMARK SMILES CNc1nc(C(=O)N2C[C@@H](C(=O)NCCCCNC(=O)c3ccc(-c4c5nc(c(-c6c(F)c(F)c(F)c(F)c6F)c6ccc([nH]6)c(-c6c(F)c(F)c(F)c(F)c6F)c6nc(c(-c7c(F)c(F)c(F)c(F)c7F)c7ccc4[nH]7)C=C6)C=C5)cc3)[C@H](c3ccccc3C)C2)cs1
REMARK SMILES IDX 15 1 14 2 13 3 11 4 12 5 10 7 8 8 9 9 92 10 84 11 6 12 7 13
REMARK SMILES IDX 5 14 3 15 4 16 94 17 93 18 2 19 1 20 85 22 86 23 90 24 87 25
REMARK SMILES IDX 89 26 91 27 88 28 16 29 17 30 18 31 19 32 20 34 21 35 22 36
REMARK SMILES IDX 83 37 23 38 82 39 24 40 25 41 26 42 76 43 27 44 81 45 75 46
REMARK SMILES IDX 77 47 28 48 80 49 74 50 73 51 29 53 61 54 41 55 60 56 42 57
REMARK SMILES IDX 45 58 59 59 78 60 43 61 44 62 58 64 79 65 46 66 30 67 31 68
REMARK SMILES IDX 39 69 32 70 33 71 37 72 40 73 34 74 35 75 38 76 36 77 62 78
REMARK SMILES IDX 63 79 71 80 64 81 65 82 69 83 72 84 66 85 67 86 70 87 68 88
REMARK SMILES IDX 47 89 48 90 56 91 49 92 50 93 54 94 57 95 51 96 52 97 55 98
REMARK SMILES IDX 53 99
REMARK H PARENT 13 6 2 21 18 33 77 52 45 63
REMARK Flexibility Score: inf
ROOT
ATOM      1  C   UNL A   1      31.403  30.663  26.467  1.00  0.00     0.023 C 
ENDROOT
BRANCH   1   2
ATOM      2  C   UNL A   1      32.773  30.012  26.639  1.00  0.00     0.116 C 
BRANCH   2   3
ATOM      3  N   UNL A   1      33.393  29.767  25.349  1.00  0.00    -0.356 N 
ATOM      4  C   UNL A   1      33.334  28.651  24.568  1.00  0.00     0.225 C 
ATOM      5  O   UNL A   1      34.086  28.578  23.598  1.00  0.00    -0.275 OA
ATOM      6  H   UNL A   1      33.930  30.510  24.989  1.00  0.00     0.163 HD
BRANCH   4   7
ATOM      7  C   UNL A   1      32.386  27.544  24.960  1.00  0.00     0.107 C 
ATOM      8  N   UNL A   1      32.468  25.288  25.454  1.00  0.00    -0.336 N 
ATOM      9  C   UNL A   1      33.242  26.484  25.628  1.00  0.00     0.134 C 
ATOM     10  C   UNL A   1      31.881  25.294  24.128  1.00  0.00     0.129 C 
ATOM     11  C   UNL A   1      31.681  26.807  23.778  1.00  0.00     0.053 C 
BRANCH   8  12
ATOM     12  C   UNL A   1      32.267  24.285  26.382  1.00  0.00     0.273 C 
ATOM     13  O   UNL A   1      31.403  24.363  27.251  1.00  0.00    -0.267 OA
BRANCH  12  14
ATOM     14  C   UNL A   1      33.200  23.147  26.325  1.00  0.00     0.141 A 
ATOM     15  C   UNL A   1      33.737  20.999  26.020  1.00  0.00     0.183 A 
ATOM     16  N   UNL A   1      32.739  21.831  26.197  1.00  0.00    -0.215 NA
ATOM     17  S   UNL A   1      35.297  21.721  26.116  1.00  0.00    -0.105 S 
ATOM     18  C   UNL A   1      34.575  23.267  26.276  1.00  0.00     0.102 A 
BRANCH  15  19
ATOM     19  N   UNL A   1      33.605  19.686  25.750  1.00  0.00    -0.365 N 
ATOM     20  C   UNL A   1      32.928  19.237  24.560  1.00  0.00     0.142 C 
ATOM     21  H   UNL A   1      33.976  19.024  26.376  1.00  0.00     0.162 HD
ENDBRANCH  15  19
ENDBRANCH  12  14
ENDBRANCH   8  12
BRANCH  11  22
ATOM     22  C   UNL A   1      30.241  27.324  23.565  1.00  0.00    -0.039 A 
ATOM     23  C   UNL A   1      29.129  26.622  24.074  1.00  0.00     0.004 A 
ATOM     24  C   UNL A   1      29.966  28.515  22.836  1.00  0.00    -0.048 A 
ATOM     25  C   UNL A   1      27.815  27.064  23.876  1.00  0.00     0.000 A 
ATOM     26  C   UNL A   1      28.638  28.968  22.690  1.00  0.00     0.004 A 
ATOM     27  C   UNL A   1      31.020  29.382  22.204  1.00  0.00     0.044 C 
ATOM     28  C   UNL A   1      27.568  28.244  23.194  1.00  0.00     0.000 A 
ENDBRANCH  11  22
ENDBRANCH   4   7
ENDBRANCH   2   3
ENDBRANCH   1   2
BRANCH   1  29
ATOM     29  C   UNL A   1      31.422  32.193  26.501  1.00  0.00     0.023 C 
BRANCH  29  30
ATOM     30  C   UNL A   1      32.566  32.803  27.302  1.00  0.00     0.116 C 
BRANCH  30  31
ATOM     31  N   UNL A   1      32.338  34.203  27.625  1.00  0.00    -0.352 N 
ATOM     32  C   UNL A   1      32.954  34.985  28.570  1.00  0.00     0.251 C 
ATOM     33  H   UNL A   1      31.645  34.652  27.090  1.00  0.00     0.163 HD
ATOM     34  O   UNL A   1      32.527  36.110  28.815  1.00  0.00    -0.269 OA
BRANCH  32  35
ATOM     35  C   UNL A   1      34.116  34.458  29.314  1.00  0.00     0.039 A 
ATOM     36  C   UNL A   1      33.902  33.827  30.542  1.00  0.00     0.014 A 
ATOM     37  C   UNL A   1      35.410  34.576  28.799  1.00  0.00     0.014 A 
ATOM     38  C   UNL A   1      34.979  33.257  31.223  1.00  0.00     0.010 A 
ATOM     39  C   UNL A   1      36.471  33.947  29.442  1.00  0.00     0.010 A 
ATOM     40  C   UNL A   1      36.266  33.281  30.661  1.00  0.00    -0.014 A 
BRANCH  40  41
ATOM     41  C   UNL A   1      37.411  32.615  31.330  1.00  0.00     0.031 A 
ATOM     42  C   UNL A   1      38.125  31.479  30.653  1.00  0.00     0.074 A 
ATOM     43  C   UNL A   1      37.763  32.985  32.576  1.00  0.00     0.049 A 
ATOM     44  N   UNL A   1      39.100  30.728  31.100  1.00  0.00    -0.248 NA
ATOM     45  C   UNL A   1      37.662  31.122  29.303  1.00  0.00     0.031 C 
ATOM     46  C   UNL A   1      37.118  34.041  33.358  1.00  0.00     0.029 A 
ATOM     47  N   UNL A   1      38.745  32.507  33.408  1.00  0.00    -0.354 N 
ATOM     48  C   UNL A   1      39.354  29.802  30.097  1.00  0.00     0.074 A 
ATOM     49  C   UNL A   1      38.396  30.051  29.041  1.00  0.00     0.031 C 
ATOM     50  C   UNL A   1      37.735  34.148  34.544  1.00  0.00     0.029 A 
ATOM     51  C   UNL A   1      38.793  33.144  34.623  1.00  0.00     0.049 A 
ATOM     52  H   UNL A   1      39.354  31.777  33.158  1.00  0.00     0.167 HD
ATOM     53  C   UNL A   1      40.314  28.848  30.050  1.00  0.00     0.037 A 
ATOM     54  C   UNL A   1      39.599  32.941  35.682  1.00  0.00     0.037 A 
ATOM     55  C   UNL A   1      41.279  28.619  31.093  1.00  0.00     0.049 A 
ATOM     56  C   UNL A   1      40.651  31.868  35.611  1.00  0.00     0.074 A 
ATOM     57  C   UNL A   1      42.333  27.722  31.113  1.00  0.00     0.029 A 
ATOM     58  N   UNL A   1      41.305  29.292  32.306  1.00  0.00    -0.354 N 
ATOM     59  N   UNL A   1      40.930  31.046  34.629  1.00  0.00    -0.248 NA
ATOM     60  C   UNL A   1      41.505  31.699  36.795  1.00  0.00     0.031 C 
ATOM     61  C   UNL A   1      42.966  27.818  32.357  1.00  0.00     0.029 A 
ATOM     62  C   UNL A   1      42.340  28.812  33.093  1.00  0.00     0.049 A 
ATOM     63  H   UNL A   1      40.679  30.005  32.570  1.00  0.00     0.167 HD
ATOM     64  C   UNL A   1      42.005  30.282  35.063  1.00  0.00     0.074 A 
ATOM     65  C   UNL A   1      42.336  30.748  36.394  1.00  0.00     0.031 C 
ATOM     66  C   UNL A   1      42.659  29.287  34.415  1.00  0.00     0.037 A 
BRANCH  53  67
ATOM     67  C   UNL A   1      40.360  27.977  28.828  1.00  0.00     0.064 A 
ATOM     68  C   UNL A   1      39.653  26.766  28.758  1.00  0.00     0.173 A 
ATOM     69  C   UNL A   1      41.112  28.361  27.707  1.00  0.00     0.173 A 
ATOM     70  F   UNL A   1      38.927  26.347  29.807  1.00  0.00    -0.203 F 
ATOM     71  C   UNL A   1      39.728  25.955  27.629  1.00  0.00     0.198 A 
ATOM     72  C   UNL A   1      41.159  27.562  26.567  1.00  0.00     0.198 A 
ATOM     73  F   UNL A   1      41.803  29.510  27.717  1.00  0.00    -0.203 F 
ATOM     74  F   UNL A   1      39.092  24.775  27.610  1.00  0.00    -0.200 F 
ATOM     75  C   UNL A   1      40.475  26.356  26.533  1.00  0.00     0.200 A 
ATOM     76  F   UNL A   1      41.872  27.956  25.503  1.00  0.00    -0.200 F 
ATOM     77  F   UNL A   1      40.546  25.574  25.446  1.00  0.00    -0.200 F 
ENDBRANCH  53  67
BRANCH  54  78
ATOM     78  C   UNL A   1      39.463  33.797  36.888  1.00  0.00     0.064 A 
ATOM     79  C   UNL A   1      40.094  35.047  36.952  1.00  0.00     0.173 A 
ATOM     80  C   UNL A   1      38.692  33.397  37.988  1.00  0.00     0.173 A 
ATOM     81  F   UNL A   1      40.859  35.464  35.932  1.00  0.00    -0.203 F 
ATOM     82  C   UNL A   1      39.970  35.859  38.078  1.00  0.00     0.198 A 
ATOM     83  C   UNL A   1      38.547  34.221  39.102  1.00  0.00     0.198 A 
ATOM     84  F   UNL A   1      38.064  32.213  37.973  1.00  0.00    -0.203 F 
ATOM     85  F   UNL A   1      40.613  37.034  38.128  1.00  0.00    -0.200 F 
ATOM     86  C   UNL A   1      39.191  35.449  39.149  1.00  0.00     0.200 A 
ATOM     87  F   UNL A   1      37.782  33.828  40.129  1.00  0.00    -0.200 F 
ATOM     88  F   UNL A   1      39.064  36.234  40.227  1.00  0.00    -0.200 F 
ENDBRANCH  54  78
BRANCH  66  89
ATOM     89  C   UNL A   1      43.822  28.654  35.124  1.00  0.00     0.064 A 
ATOM     90  C   UNL A   1      43.663  27.521  35.934  1.00  0.00     0.173 A 
ATOM     91  C   UNL A   1      45.118  29.167  34.957  1.00  0.00     0.173 A 
ATOM     92  F   UNL A   1      42.442  27.003  36.139  1.00  0.00    -0.203 F 
ATOM     93  C   UNL A   1      44.756  26.938  36.571  1.00  0.00     0.198 A 
ATOM     94  C   UNL A   1      46.212  28.563  35.570  1.00  0.00     0.198 A 
ATOM     95  F   UNL A   1      45.325  30.246  34.188  1.00  0.00    -0.203 F 
ATOM     96  F   UNL A   1      44.574  25.883  37.377  1.00  0.00    -0.200 F 
ATOM     97  C   UNL A   1      46.029  27.454  36.382  1.00  0.00     0.200 A 
ATOM     98  F   UNL A   1      47.443  29.055  35.377  1.00  0.00    -0.200 F 
ATOM     99  F   UNL A   1      47.080  26.886  36.990  1.00  0.00    -0.200 F 
ENDBRANCH  66  89
ENDBRANCH  40  41
ENDBRANCH  32  35
ENDBRANCH  30  31
ENDBRANCH  29  30
ENDBRANCH   1  29
TORSDOF 15
ENDMDL
MODEL 3
REMARK VINA RESULT:     -12.8      5.831     10.822
REMARK SMILES CNc1nc(C(=O)N2C[C@@H](C(=O)NCCCCNC(=O)c3ccc(-c4c5nc(c(-c6c(F)c(F)c(F)c(F)c6F)c6ccc([nH]6)c(-c6c(F)c(F)c(F)c(F)c6F)c6nc(c(-c7c(F)c(F)c(F)c(F)c7F)c7ccc4[nH]7)C=C6)C=C5)cc3)[C@H](c3ccccc3C)C2)cs1
REMARK SMILES IDX 15 1 14 2 13 3 11 4 12 5 10 7 8 8 9 9 92 10 84 11 6 12 7 13
REMARK SMILES IDX 5 14 3 15 4 16 94 17 93 18 2 19 1 20 85 22 86 23 90 24 87 25
REMARK SMILES IDX 89 26 91 27 88 28 16 29 17 30 18 31 19 32 20 34 21 35 22 36
REMARK SMILES IDX 83 37 23 38 82 39 24 40 25 41 26 42 76 43 27 44 81 45 75 46
REMARK SMILES IDX 77 47 28 48 80 49 74 50 73 51 29 53 61 54 41 55 60 56 42 57
REMARK SMILES IDX 45 58 59 59 78 60 43 61 44 62 58 64 79 65 46 66 30 67 31 68
REMARK SMILES IDX 39 69 32 70 33 71 37 72 40 73 34 74 35 75 38 76 36 77 62 78
REMARK SMILES IDX 63 79 71 80 64 81 65 82 69 83 72 84 66 85 67 86 70 87 68 88
REMARK SMILES IDX 47 89 48 90 56 91 49 92 50 93 54 94 57 95 51 96 52 97 55 98
REMARK SMILES IDX 53 99
REMARK H PARENT 13 6 2 21 18 33 77 52 45 63
REMARK Flexibility Score: inf
ROOT
ATOM      1  C   UNL A   1      38.948  22.653  26.242  1.00  0.00     0.023 C 
ENDROOT
BRANCH   1   2
ATOM      2  C   UNL A   1      37.592  23.168  25.766  1.00  0.00     0.116 C 
BRANCH   2   3
ATOM      3  N   UNL A   1      37.536  23.211  24.316  1.00  0.00    -0.356 N 
ATOM      4  C   UNL A   1      36.456  23.072  23.496  1.00  0.00     0.225 C 
ATOM      5  O   UNL A   1      36.653  22.953  22.288  1.00  0.00    -0.275 OA
ATOM      6  H   UNL A   1      38.397  23.363  23.863  1.00  0.00     0.163 HD
BRANCH   4   7
ATOM      7  C   UNL A   1      35.080  23.022  24.114  1.00  0.00     0.107 C 
ATOM      8  N   UNL A   1      33.196  21.685  24.042  1.00  0.00    -0.336 N 
ATOM      9  C   UNL A   1      34.628  21.578  24.000  1.00  0.00     0.134 C 
ATOM     10  C   UNL A   1      32.786  22.841  23.270  1.00  0.00     0.129 C 
ATOM     11  C   UNL A   1      33.979  23.850  23.380  1.00  0.00     0.053 C 
BRANCH   8  12
ATOM     12  C   UNL A   1      32.321  20.859  24.720  1.00  0.00     0.273 C 
ATOM     13  O   UNL A   1      31.426  21.302  25.435  1.00  0.00    -0.267 OA
BRANCH  12  14
ATOM     14  C   UNL A   1      32.568  19.412  24.605  1.00  0.00     0.141 A 
ATOM     15  C   UNL A   1      32.640  17.316  25.376  1.00  0.00     0.183 A 
ATOM     16  N   UNL A   1      32.541  18.575  25.727  1.00  0.00    -0.215 NA
ATOM     17  S   UNL A   1      32.894  17.059  23.693  1.00  0.00    -0.105 S 
ATOM     18  C   UNL A   1      32.729  18.740  23.408  1.00  0.00     0.102 A 
BRANCH  15  19
ATOM     19  N   UNL A   1      32.528  16.272  26.219  1.00  0.00    -0.365 N 
ATOM     20  C   UNL A   1      32.527  14.917  25.727  1.00  0.00     0.142 C 
ATOM     21  H   UNL A   1      32.445  16.436  27.185  1.00  0.00     0.162 HD
ENDBRANCH  15  19
ENDBRANCH  12  14
ENDBRANCH   8  12
BRANCH  11  22
ATOM     22  C   UNL A   1      33.728  25.205  24.078  1.00  0.00    -0.039 A 
ATOM     23  C   UNL A   1      33.893  25.352  25.471  1.00  0.00     0.004 A 
ATOM     24  C   UNL A   1      33.304  26.357  23.360  1.00  0.00    -0.048 A 
ATOM     25  C   UNL A   1      33.653  26.566  26.126  1.00  0.00     0.000 A 
ATOM     26  C   UNL A   1      33.113  27.584  24.032  1.00  0.00     0.004 A 
ATOM     27  C   UNL A   1      33.056  26.386  21.877  1.00  0.00     0.044 C 
ATOM     28  C   UNL A   1      33.274  27.687  25.406  1.00  0.00     0.000 A 
ENDBRANCH  11  22
ENDBRANCH   4   7
ENDBRANCH   2   3
ENDBRANCH   1   2
BRANCH   1  29
ATOM     29  C   UNL A   1      38.982  21.153  26.549  1.00  0.00     0.023 C 
BRANCH  29  30
ATOM     30  C   UNL A   1      39.367  20.266  25.371  1.00  0.00     0.116 C 
BRANCH  30  31
ATOM     31  N   UNL A   1      40.281  19.200  25.751  1.00  0.00    -0.352 N 
ATOM     32  C   UNL A   1      41.586  19.285  26.169  1.00  0.00     0.251 C 
ATOM     33  H   UNL A   1      39.911  18.289  25.702  1.00  0.00     0.163 HD
ATOM     34  O   UNL A   1      42.262  18.269  26.300  1.00  0.00    -0.269 OA
BRANCH  32  35
ATOM     35  C   UNL A   1      42.186  20.610  26.433  1.00  0.00     0.039 A 
ATOM     36  C   UNL A   1      42.574  21.403  25.351  1.00  0.00     0.014 A 
ATOM     37  C   UNL A   1      42.356  21.070  27.741  1.00  0.00     0.014 A 
ATOM     38  C   UNL A   1      43.073  22.687  25.579  1.00  0.00     0.010 A 
ATOM     39  C   UNL A   1      42.786  22.374  27.964  1.00  0.00     0.010 A 
ATOM     40  C   UNL A   1      43.150  23.195  26.885  1.00  0.00    -0.014 A 
BRANCH  40  41
ATOM     41  C   UNL A   1      43.605  24.584  27.145  1.00  0.00     0.031 A 
ATOM     42  C   UNL A   1      42.636  25.613  27.655  1.00  0.00     0.074 A 
ATOM     43  C   UNL A   1      44.872  24.935  26.856  1.00  0.00     0.049 A 
ATOM     44  N   UNL A   1      42.824  26.889  27.879  1.00  0.00    -0.248 NA
ATOM     45  C   UNL A   1      41.266  25.151  27.923  1.00  0.00     0.031 C 
ATOM     46  C   UNL A   1      45.894  24.041  26.312  1.00  0.00     0.029 A 
ATOM     47  N   UNL A   1      45.513  26.144  26.969  1.00  0.00    -0.354 N 
ATOM     48  C   UNL A   1      41.595  27.384  28.295  1.00  0.00     0.074 A 
ATOM     49  C   UNL A   1      40.656  26.283  28.242  1.00  0.00     0.031 C 
ATOM     50  C   UNL A   1      47.040  24.723  26.162  1.00  0.00     0.029 A 
ATOM     51  C   UNL A   1      46.824  26.110  26.562  1.00  0.00     0.049 A 
ATOM     52  H   UNL A   1      45.075  26.957  27.309  1.00  0.00     0.167 HD
ATOM     53  C   UNL A   1      41.283  28.636  28.709  1.00  0.00     0.037 A 
ATOM     54  C   UNL A   1      47.747  27.090  26.515  1.00  0.00     0.037 A 
ATOM     55  C   UNL A   1      42.224  29.722  28.782  1.00  0.00     0.049 A 
ATOM     56  C   UNL A   1      47.374  28.475  26.969  1.00  0.00     0.074 A 
ATOM     57  C   UNL A   1      42.024  31.009  29.249  1.00  0.00     0.029 A 
ATOM     58  N   UNL A   1      43.548  29.649  28.371  1.00  0.00    -0.354 N 
ATOM     59  N   UNL A   1      46.230  28.915  27.430  1.00  0.00    -0.248 NA
ATOM     60  C   UNL A   1      48.427  29.498  26.901  1.00  0.00     0.031 C 
ATOM     61  C   UNL A   1      43.212  31.728  29.076  1.00  0.00     0.029 A 
ATOM     62  C   UNL A   1      44.169  30.875  28.549  1.00  0.00     0.049 A 
ATOM     63  H   UNL A   1      43.982  28.843  28.006  1.00  0.00     0.167 HD
ATOM     64  C   UNL A   1      46.428  30.255  27.732  1.00  0.00     0.074 A 
ATOM     65  C   UNL A   1      47.810  30.553  27.413  1.00  0.00     0.031 C 
ATOM     66  C   UNL A   1      45.546  31.156  28.230  1.00  0.00     0.037 A 
BRANCH  53  67
ATOM     67  C   UNL A   1      39.859  28.895  29.108  1.00  0.00     0.064 A 
ATOM     68  C   UNL A   1      39.425  28.740  30.434  1.00  0.00     0.173 A 
ATOM     69  C   UNL A   1      38.918  29.315  28.157  1.00  0.00     0.173 A 
ATOM     70  F   UNL A   1      40.283  28.329  31.381  1.00  0.00    -0.203 F 
ATOM     71  C   UNL A   1      38.095  28.957  30.784  1.00  0.00     0.198 A 
ATOM     72  C   UNL A   1      37.594  29.563  28.517  1.00  0.00     0.198 A 
ATOM     73  F   UNL A   1      39.278  29.485  26.876  1.00  0.00    -0.203 F 
ATOM     74  F   UNL A   1      37.692  28.743  32.045  1.00  0.00    -0.200 F 
ATOM     75  C   UNL A   1      37.183  29.373  29.828  1.00  0.00     0.200 A 
ATOM     76  F   UNL A   1      36.717  29.977  27.594  1.00  0.00    -0.200 F 
ATOM     77  F   UNL A   1      35.903  29.582  30.166  1.00  0.00    -0.200 F 
ENDBRANCH  53  67
BRANCH  54  78
ATOM     78  C   UNL A   1      49.124  26.783  26.052  1.00  0.00     0.064 A 
ATOM     79  C   UNL A   1      49.492  26.991  24.715  1.00  0.00     0.173 A 
ATOM     80  C   UNL A   1      50.101  26.294  26.930  1.00  0.00     0.173 A 
ATOM     81  F   UNL A   1      48.585  27.438  23.834  1.00  0.00    -0.203 F 
ATOM     82  C   UNL A   1      50.782  26.709  24.271  1.00  0.00     0.198 A 
ATOM     83  C   UNL A   1      51.399  26.037  26.490  1.00  0.00     0.198 A 
ATOM     84  F   UNL A   1      49.801  26.084  28.219  1.00  0.00    -0.203 F 
ATOM     85  F   UNL A   1      51.096  26.883  22.980  1.00  0.00    -0.200 F 
ATOM     86  C   UNL A   1      51.736  26.239  25.160  1.00  0.00     0.200 A 
ATOM     87  F   UNL A   1      52.322  25.597  27.355  1.00  0.00    -0.200 F 
ATOM     88  F   UNL A   1      52.979  25.977  24.735  1.00  0.00    -0.200 F 
ENDBRANCH  54  78
BRANCH  66  89
ATOM     89  C   UNL A   1      46.056  32.544  28.494  1.00  0.00     0.064 A 
ATOM     90  C   UNL A   1      45.969  33.556  27.528  1.00  0.00     0.173 A 
ATOM     91  C   UNL A   1      46.601  32.872  29.744  1.00  0.00     0.173 A 
ATOM     92  F   UNL A   1      45.471  33.287  26.311  1.00  0.00    -0.203 F 
ATOM     93  C   UNL A   1      46.432  34.842  27.796  1.00  0.00     0.198 A 
ATOM     94  C   UNL A   1      47.035  34.166  30.019  1.00  0.00     0.198 A 
ATOM     95  F   UNL A   1      46.701  31.942  30.705  1.00  0.00    -0.203 F 
ATOM     96  F   UNL A   1      46.382  35.782  26.842  1.00  0.00    -0.200 F 
ATOM     97  C   UNL A   1      46.957  35.147  29.042  1.00  0.00     0.200 A 
ATOM     98  F   UNL A   1      47.530  34.464  31.228  1.00  0.00    -0.200 F 
ATOM     99  F   UNL A   1      47.395  36.388  29.300  1.00  0.00    -0.200 F 
ENDBRANCH  66  89
ENDBRANCH  40  41
ENDBRANCH  32  35
ENDBRANCH  30  31
ENDBRANCH  29  30
ENDBRANCH   1  29
TORSDOF 15
ENDMDL
