MODEL 1
REMARK VINA RESULT:     -13.0      0.000      0.000
REMARK SMILES Cc1cc2c(c(C)c1Br)C=C(C(=O)NCCCCNC(=O)c1ccc(-c3c4nc(c(-c5c(F)c(F)c(F)c(F)c5F)c5ccc([nH]5)c(-c5c(F)c(F)c(F)c(F)c5F)c5nc(c(-c6c(F)c(F)c(F)c(F)c6F)c6ccc3[nH]6)C=C5)C=C4)cc1)[C@@H](C(F)(F)F)O2
REMARK SMILES IDX 17 1 16 2 15 3 14 4 12 5 13 6 11 8 1 9 2 10 3 11 8 12 4 13
REMARK SMILES IDX 6 14 9 15 5 16 90 17 7 18 10 19 85 20 86 21 87 22 88 23
REMARK SMILES IDX 89 24 18 25 19 26 20 27 21 29 22 30 23 31 84 32 24 33 83 34
REMARK SMILES IDX 25 35 26 36 27 37 77 38 28 39 82 40 76 41 78 42 29 43 81 44
REMARK SMILES IDX 75 45 74 46 30 48 62 49 42 50 61 51 43 52 46 53 60 54 79 55
REMARK SMILES IDX 44 56 45 57 59 59 80 60 47 61 31 62 32 63 40 64 33 65 34 66
REMARK SMILES IDX 38 67 41 68 35 69 36 70 39 71 37 72 63 73 64 74 72 75 65 76
REMARK SMILES IDX 66 77 70 78 73 79 67 80 68 81 71 82 69 83 48 84 49 85 57 86
REMARK SMILES IDX 50 87 51 88 55 89 58 90 52 91 53 92 56 93 54 94
REMARK H PARENT 14 7 19 28 78 47 46 58
REMARK Flexibility Score: inf
ROOT
ATOM      1  C   UNL A   1      31.487  32.038  26.745  1.00  0.00     0.023 C 
ENDROOT
BRANCH   1   2
ATOM      2  C   UNL A   1      31.729  30.547  26.495  1.00  0.00     0.023 C 
BRANCH   2   3
ATOM      3  C   UNL A   1      33.169  30.201  26.130  1.00  0.00     0.116 C 
BRANCH   3   4
ATOM      4  N   UNL A   1      33.277  29.703  24.771  1.00  0.00    -0.352 N 
ATOM      5  C   UNL A   1      33.237  28.500  24.152  1.00  0.00     0.251 C 
ATOM      6  O   UNL A   1      33.390  28.540  22.926  1.00  0.00    -0.270 OA
ATOM      7  H   UNL A   1      33.417  30.435  24.128  1.00  0.00     0.163 HD
BRANCH   5   8
ATOM      8  C   UNL A   1      33.026  27.183  24.826  1.00  0.00     0.067 C 
ATOM      9  C   UNL A   1      33.278  21.142  27.250  1.00  0.00     0.046 C 
ATOM     10  C   UNL A   1      33.520  22.439  26.523  1.00  0.00    -0.033 A 
ATOM     11  C   UNL A   1      32.680  23.519  26.811  1.00  0.00     0.051 A 
ATOM     12  C   UNL A   1      34.553  22.613  25.577  1.00  0.00     0.024 A 
ATOM     13  C   UNL A   1      32.847  24.739  26.167  1.00  0.00     0.128 A 
ATOM     14  C   UNL A   1      34.741  23.856  24.919  1.00  0.00    -0.026 A 
ATOM     15  Br  UNL A   1      35.704  21.126  25.216  1.00  0.00    -0.050 Br
ATOM     16  C   UNL A   1      33.869  24.930  25.232  1.00  0.00     0.021 A 
ATOM     17  O   UNL A   1      31.985  25.725  26.550  1.00  0.00    -0.475 OA
ATOM     18  C   UNL A   1      35.838  24.077  23.903  1.00  0.00     0.046 C 
ATOM     19  C   UNL A   1      34.000  26.272  24.648  1.00  0.00     0.026 C 
ATOM     20  C   UNL A   1      31.809  26.829  25.627  1.00  0.00     0.314 C 
BRANCH  20  21
ATOM     21  C   UNL A   1      30.571  26.570  24.750  1.00  0.00     0.429 C 
ATOM     22  F   UNL A   1      30.892  25.769  23.703  1.00  0.00    -0.167 F 
ATOM     23  F   UNL A   1      29.582  25.935  25.424  1.00  0.00    -0.167 F 
ATOM     24  F   UNL A   1      30.038  27.705  24.246  1.00  0.00    -0.167 F 
ENDBRANCH  20  21
ENDBRANCH   5   8
ENDBRANCH   3   4
ENDBRANCH   2   3
ENDBRANCH   1   2
BRANCH   1  25
ATOM     25  C   UNL A   1      32.699  32.826  27.241  1.00  0.00     0.116 C 
BRANCH  25  26
ATOM     26  N   UNL A   1      32.391  34.196  27.626  1.00  0.00    -0.352 N 
ATOM     27  C   UNL A   1      32.989  34.957  28.601  1.00  0.00     0.251 C 
ATOM     28  H   UNL A   1      31.665  34.632  27.124  1.00  0.00     0.163 HD
ATOM     29  O   UNL A   1      32.570  36.077  28.870  1.00  0.00    -0.269 OA
BRANCH  27  30
ATOM     30  C   UNL A   1      34.119  34.385  29.355  1.00  0.00     0.039 A 
ATOM     31  C   UNL A   1      33.853  33.645  30.509  1.00  0.00     0.014 A 
ATOM     32  C   UNL A   1      35.427  34.532  28.886  1.00  0.00     0.014 A 
ATOM     33  C   UNL A   1      34.896  32.984  31.156  1.00  0.00     0.010 A 
ATOM     34  C   UNL A   1      36.456  33.829  29.499  1.00  0.00     0.010 A 
ATOM     35  C   UNL A   1      36.198  33.042  30.633  1.00  0.00    -0.014 A 
BRANCH  35  36
ATOM     36  C   UNL A   1      37.312  32.286  31.248  1.00  0.00     0.031 A 
ATOM     37  C   UNL A   1      37.797  32.657  32.618  1.00  0.00     0.074 A 
ATOM     38  C   UNL A   1      37.935  31.323  30.541  1.00  0.00     0.049 A 
ATOM     39  N   UNL A   1      38.834  32.210  33.277  1.00  0.00    -0.248 NA
ATOM     40  C   UNL A   1      37.026  33.688  33.329  1.00  0.00     0.031 C 
ATOM     41  C   UNL A   1      37.568  30.896  29.190  1.00  0.00     0.029 A 
ATOM     42  N   UNL A   1      39.016  30.542  30.857  1.00  0.00    -0.354 N 
ATOM     43  C   UNL A   1      38.849  32.915  34.473  1.00  0.00     0.074 A 
ATOM     44  C   UNL A   1      37.744  33.850  34.430  1.00  0.00     0.031 C 
ATOM     45  C   UNL A   1      38.400  29.916  28.801  1.00  0.00     0.029 A 
ATOM     46  C   UNL A   1      39.380  29.676  29.856  1.00  0.00     0.049 A 
ATOM     47  H   UNL A   1      39.488  30.596  31.719  1.00  0.00     0.167 HD
ATOM     48  C   UNL A   1      39.698  32.779  35.519  1.00  0.00     0.037 A 
ATOM     49  C   UNL A   1      40.396  28.796  29.794  1.00  0.00     0.037 A 
ATOM     50  C   UNL A   1      40.781  31.834  35.564  1.00  0.00     0.049 A 
ATOM     51  C   UNL A   1      41.331  28.670  30.966  1.00  0.00     0.074 A 
ATOM     52  C   UNL A   1      41.678  31.598  36.590  1.00  0.00     0.029 A 
ATOM     53  N   UNL A   1      41.110  30.963  34.536  1.00  0.00    -0.354 N 
ATOM     54  N   UNL A   1      41.324  29.325  32.101  1.00  0.00    -0.248 NA
ATOM     55  C   UNL A   1      42.413  27.682  30.848  1.00  0.00     0.031 C 
ATOM     56  C   UNL A   1      42.570  30.605  36.171  1.00  0.00     0.029 A 
ATOM     57  C   UNL A   1      42.202  30.192  34.899  1.00  0.00     0.049 A 
ATOM     58  H   UNL A   1      40.636  30.900  33.674  1.00  0.00     0.167 HD
ATOM     59  C   UNL A   1      42.383  28.817  32.840  1.00  0.00     0.074 A 
ATOM     60  C   UNL A   1      43.004  27.790  32.030  1.00  0.00     0.031 C 
ATOM     61  C   UNL A   1      42.803  29.173  34.080  1.00  0.00     0.037 A 
BRANCH  48  62
ATOM     62  C   UNL A   1      39.482  33.674  36.703  1.00  0.00     0.064 A 
ATOM     63  C   UNL A   1      38.715  33.260  37.802  1.00  0.00     0.173 A 
ATOM     64  C   UNL A   1      40.073  34.945  36.754  1.00  0.00     0.173 A 
ATOM     65  F   UNL A   1      38.115  32.060  37.793  1.00  0.00    -0.203 F 
ATOM     66  C   UNL A   1      38.528  34.095  38.900  1.00  0.00     0.198 A 
ATOM     67  C   UNL A   1      39.906  35.766  37.866  1.00  0.00     0.198 A 
ATOM     68  F   UNL A   1      40.817  35.388  35.730  1.00  0.00    -0.203 F 
ATOM     69  F   UNL A   1      37.756  33.695  39.919  1.00  0.00    -0.200 F 
ATOM     70  C   UNL A   1      39.130  35.344  38.935  1.00  0.00     0.200 A 
ATOM     71  F   UNL A   1      40.497  36.969  37.903  1.00  0.00    -0.200 F 
ATOM     72  F   UNL A   1      38.956  36.143  39.996  1.00  0.00    -0.200 F 
ENDBRANCH  48  62
BRANCH  49  73
ATOM     73  C   UNL A   1      40.557  27.942  28.591  1.00  0.00     0.064 A 
ATOM     74  C   UNL A   1      39.916  26.697  28.509  1.00  0.00     0.173 A 
ATOM     75  C   UNL A   1      41.321  28.357  27.491  1.00  0.00     0.173 A 
ATOM     76  F   UNL A   1      39.190  26.249  29.544  1.00  0.00    -0.203 F 
ATOM     77  C   UNL A   1      40.039  25.899  27.375  1.00  0.00     0.198 A 
ATOM     78  C   UNL A   1      41.424  27.568  26.349  1.00  0.00     0.198 A 
ATOM     79  F   UNL A   1      41.949  29.542  27.520  1.00  0.00    -0.203 F 
ATOM     80  F   UNL A   1      39.437  24.702  27.332  1.00  0.00    -0.200 F 
ATOM     81  C   UNL A   1      40.786  26.338  26.292  1.00  0.00     0.200 A 
ATOM     82  F   UNL A   1      42.137  28.001  25.300  1.00  0.00    -0.200 F 
ATOM     83  F   UNL A   1      40.894  25.575  25.196  1.00  0.00    -0.200 F 
ENDBRANCH  49  73
BRANCH  61  84
ATOM     84  C   UNL A   1      43.975  28.429  34.647  1.00  0.00     0.064 A 
ATOM     85  C   UNL A   1      45.284  28.909  34.510  1.00  0.00     0.173 A 
ATOM     86  C   UNL A   1      43.777  27.252  35.387  1.00  0.00     0.173 A 
ATOM     87  F   UNL A   1      45.525  30.022  33.801  1.00  0.00    -0.203 F 
ATOM     88  C   UNL A   1      46.358  28.227  35.078  1.00  0.00     0.198 A 
ATOM     89  C   UNL A   1      44.850  26.588  35.975  1.00  0.00     0.198 A 
ATOM     90  F   UNL A   1      42.541  26.757  35.552  1.00  0.00    -0.203 F 
ATOM     91  F   UNL A   1      47.606  28.684  34.905  1.00  0.00    -0.200 F 
ATOM     92  C   UNL A   1      46.139  27.073  35.816  1.00  0.00     0.200 A 
ATOM     93  F   UNL A   1      44.635  25.480  36.697  1.00  0.00    -0.200 F 
ATOM     94  F   UNL A   1      47.173  26.425  36.370  1.00  0.00    -0.200 F 
ENDBRANCH  61  84
ENDBRANCH  35  36
ENDBRANCH  27  30
ENDBRANCH  25  26
ENDBRANCH   1  25
TORSDOF 12
ENDMDL
MODEL 2
REMARK VINA RESULT:     -13.0      0.852      7.241
REMARK SMILES Cc1cc2c(c(C)c1Br)C=C(C(=O)NCCCCNC(=O)c1ccc(-c3c4nc(c(-c5c(F)c(F)c(F)c(F)c5F)c5ccc([nH]5)c(-c5c(F)c(F)c(F)c(F)c5F)c5nc(c(-c6c(F)c(F)c(F)c(F)c6F)c6ccc3[nH]6)C=C5)C=C4)cc1)[C@@H](C(F)(F)F)O2
REMARK SMILES IDX 17 1 16 2 15 3 14 4 12 5 13 6 11 8 1 9 2 10 3 11 8 12 4 13
REMARK SMILES IDX 6 14 9 15 5 16 90 17 7 18 10 19 85 20 86 21 87 22 88 23
REMARK SMILES IDX 89 24 18 25 19 26 20 27 21 29 22 30 23 31 84 32 24 33 83 34
REMARK SMILES IDX 25 35 26 36 27 37 77 38 28 39 82 40 76 41 78 42 29 43 81 44
REMARK SMILES IDX 75 45 74 46 30 48 62 49 42 50 61 51 43 52 46 53 60 54 79 55
REMARK SMILES IDX 44 56 45 57 59 59 80 60 47 61 31 62 32 63 40 64 33 65 34 66
REMARK SMILES IDX 38 67 41 68 35 69 36 70 39 71 37 72 63 73 64 74 72 75 65 76
REMARK SMILES IDX 66 77 70 78 73 79 67 80 68 81 71 82 69 83 48 84 49 85 57 86
REMARK SMILES IDX 50 87 51 88 55 89 58 90 52 91 53 92 56 93 54 94
REMARK H PARENT 14 7 19 28 78 47 46 58
REMARK Flexibility Score: inf
ROOT
ATOM      1  C   UNL A   1      31.772  31.475  26.645  1.00  0.00     0.023 C 
ENDROOT
BRANCH   1   2
ATOM      2  C   UNL A   1      31.906  29.968  26.879  1.00  0.00     0.023 C 
BRANCH   2   3
ATOM      3  C   UNL A   1      33.310  29.423  26.642  1.00  0.00     0.116 C 
BRANCH   3   4
ATOM      4  N   UNL A   1      33.660  29.423  25.233  1.00  0.00    -0.352 N 
ATOM      5  C   UNL A   1      33.623  28.544  24.205  1.00  0.00     0.251 C 
ATOM      6  O   UNL A   1      34.047  28.983  23.130  1.00  0.00    -0.270 OA
ATOM      7  H   UNL A   1      34.021  30.294  24.951  1.00  0.00     0.163 HD
BRANCH   5   8
ATOM      8  C   UNL A   1      33.120  27.139  24.281  1.00  0.00     0.067 C 
ATOM      9  C   UNL A   1      32.154  20.737  25.002  1.00  0.00     0.046 C 
ATOM     10  C   UNL A   1      32.717  22.131  24.906  1.00  0.00    -0.033 A 
ATOM     11  C   UNL A   1      31.821  23.190  24.734  1.00  0.00     0.051 A 
ATOM     12  C   UNL A   1      34.098  22.414  24.989  1.00  0.00     0.024 A 
ATOM     13  C   UNL A   1      32.280  24.498  24.631  1.00  0.00     0.128 A 
ATOM     14  C   UNL A   1      34.579  23.746  24.894  1.00  0.00    -0.026 A 
ATOM     15  Br  UNL A   1      35.304  20.949  25.246  1.00  0.00    -0.050 Br
ATOM     16  C   UNL A   1      33.643  24.796  24.716  1.00  0.00     0.021 A 
ATOM     17  O   UNL A   1      31.310  25.448  24.492  1.00  0.00    -0.475 OA
ATOM     18  C   UNL A   1      36.050  24.083  24.980  1.00  0.00     0.046 C 
ATOM     19  C   UNL A   1      34.024  26.214  24.653  1.00  0.00     0.026 C 
ATOM     20  C   UNL A   1      31.723  26.722  23.936  1.00  0.00     0.314 C 
BRANCH  20  21
ATOM     21  C   UNL A   1      31.453  26.728  22.420  1.00  0.00     0.429 C 
ATOM     22  F   UNL A   1      32.619  26.628  21.733  1.00  0.00    -0.167 F 
ATOM     23  F   UNL A   1      30.689  25.682  22.025  1.00  0.00    -0.167 F 
ATOM     24  F   UNL A   1      30.829  27.851  22.003  1.00  0.00    -0.167 F 
ENDBRANCH  20  21
ENDBRANCH   5   8
ENDBRANCH   3   4
ENDBRANCH   2   3
ENDBRANCH   1   2
BRANCH   1  25
ATOM     25  C   UNL A   1      32.879  32.335  27.253  1.00  0.00     0.116 C 
BRANCH  25  26
ATOM     26  N   UNL A   1      32.480  33.713  27.507  1.00  0.00    -0.352 N 
ATOM     27  C   UNL A   1      33.022  34.600  28.405  1.00  0.00     0.251 C 
ATOM     28  H   UNL A   1      31.729  34.050  26.966  1.00  0.00     0.163 HD
ATOM     29  O   UNL A   1      32.530  35.711  28.567  1.00  0.00    -0.269 OA
BRANCH  27  30
ATOM     30  C   UNL A   1      34.183  34.178  29.207  1.00  0.00     0.039 A 
ATOM     31  C   UNL A   1      33.963  33.455  30.382  1.00  0.00     0.014 A 
ATOM     32  C   UNL A   1      35.481  34.444  28.766  1.00  0.00     0.014 A 
ATOM     33  C   UNL A   1      35.050  32.932  31.080  1.00  0.00     0.010 A 
ATOM     34  C   UNL A   1      36.561  33.875  29.430  1.00  0.00     0.010 A 
ATOM     35  C   UNL A   1      36.353  33.107  30.587  1.00  0.00    -0.014 A 
BRANCH  35  36
ATOM     36  C   UNL A   1      37.522  32.494  31.259  1.00  0.00     0.031 A 
ATOM     37  C   UNL A   1      38.256  31.367  30.596  1.00  0.00     0.074 A 
ATOM     38  C   UNL A   1      37.867  32.900  32.496  1.00  0.00     0.049 A 
ATOM     39  N   UNL A   1      39.215  30.614  31.067  1.00  0.00    -0.248 NA
ATOM     40  C   UNL A   1      37.834  31.026  29.229  1.00  0.00     0.031 C 
ATOM     41  C   UNL A   1      37.210  33.968  33.250  1.00  0.00     0.029 A 
ATOM     42  N   UNL A   1      38.850  32.450  33.341  1.00  0.00    -0.354 N 
ATOM     43  C   UNL A   1      39.501  29.700  30.062  1.00  0.00     0.074 A 
ATOM     44  C   UNL A   1      38.585  29.965  28.973  1.00  0.00     0.031 C 
ATOM     45  C   UNL A   1      37.819  34.103  34.440  1.00  0.00     0.029 A 
ATOM     46  C   UNL A   1      38.881  33.107  34.546  1.00  0.00     0.049 A 
ATOM     47  H   UNL A   1      39.473  31.725  33.106  1.00  0.00     0.167 HD
ATOM     48  C   UNL A   1      40.456  28.741  30.045  1.00  0.00     0.037 A 
ATOM     49  C   UNL A   1      39.671  32.917  35.619  1.00  0.00     0.037 A 
ATOM     50  C   UNL A   1      41.377  28.497  31.122  1.00  0.00     0.049 A 
ATOM     51  C   UNL A   1      40.719  31.839  35.578  1.00  0.00     0.074 A 
ATOM     52  C   UNL A   1      42.401  27.569  31.189  1.00  0.00     0.029 A 
ATOM     53  N   UNL A   1      41.388  29.192  32.323  1.00  0.00    -0.354 N 
ATOM     54  N   UNL A   1      40.997  30.995  34.616  1.00  0.00    -0.248 NA
ATOM     55  C   UNL A   1      41.562  31.688  36.772  1.00  0.00     0.031 C 
ATOM     56  C   UNL A   1      43.012  27.681  32.442  1.00  0.00     0.029 A 
ATOM     57  C   UNL A   1      42.395  28.708  33.141  1.00  0.00     0.049 A 
ATOM     58  H   UNL A   1      40.771  29.923  32.559  1.00  0.00     0.167 HD
ATOM     59  C   UNL A   1      42.058  30.227  35.076  1.00  0.00     0.074 A 
ATOM     60  C   UNL A   1      42.382  30.714  36.401  1.00  0.00     0.031 C 
ATOM     61  C   UNL A   1      42.704  29.209  34.455  1.00  0.00     0.037 A 
BRANCH  48  62
ATOM     62  C   UNL A   1      40.553  27.888  28.816  1.00  0.00     0.064 A 
ATOM     63  C   UNL A   1      39.825  26.694  28.694  1.00  0.00     0.173 A 
ATOM     64  C   UNL A   1      41.356  28.281  27.735  1.00  0.00     0.173 A 
ATOM     65  F   UNL A   1      39.057  26.267  29.707  1.00  0.00    -0.203 F 
ATOM     66  C   UNL A   1      39.916  25.915  27.545  1.00  0.00     0.198 A 
ATOM     67  C   UNL A   1      41.423  27.512  26.577  1.00  0.00     0.198 A 
ATOM     68  F   UNL A   1      42.071  29.414  27.800  1.00  0.00    -0.203 F 
ATOM     69  F   UNL A   1      39.245  24.757  27.469  1.00  0.00    -0.200 F 
ATOM     70  C   UNL A   1      40.708  26.327  26.484  1.00  0.00     0.200 A 
ATOM     71  F   UNL A   1      42.181  27.917  25.548  1.00  0.00    -0.200 F 
ATOM     72  F   UNL A   1      40.788  25.579  25.376  1.00  0.00    -0.200 F 
ENDBRANCH  48  62
BRANCH  49  73
ATOM     73  C   UNL A   1      39.521  33.795  36.807  1.00  0.00     0.064 A 
ATOM     74  C   UNL A   1      38.721  33.401  37.888  1.00  0.00     0.173 A 
ATOM     75  C   UNL A   1      40.190  35.024  36.901  1.00  0.00     0.173 A 
ATOM     76  F   UNL A   1      38.046  32.243  37.834  1.00  0.00    -0.203 F 
ATOM     77  C   UNL A   1      38.592  34.205  39.018  1.00  0.00     0.198 A 
ATOM     78  C   UNL A   1      40.078  35.816  38.041  1.00  0.00     0.198 A 
ATOM     79  F   UNL A   1      40.970  35.442  35.894  1.00  0.00    -0.203 F 
ATOM     80  F   UNL A   1      37.801  33.817  40.028  1.00  0.00    -0.200 F 
ATOM     81  C   UNL A   1      39.277  35.408  39.097  1.00  0.00     0.200 A 
ATOM     82  F   UNL A   1      40.751  36.972  38.119  1.00  0.00    -0.200 F 
ATOM     83  F   UNL A   1      39.163  36.176  40.189  1.00  0.00    -0.200 F 
ENDBRANCH  49  73
BRANCH  61  84
ATOM     84  C   UNL A   1      43.843  28.569  35.190  1.00  0.00     0.064 A 
ATOM     85  C   UNL A   1      45.151  29.063  35.089  1.00  0.00     0.173 A 
ATOM     86  C   UNL A   1      43.611  27.485  36.051  1.00  0.00     0.173 A 
ATOM     87  F   UNL A   1      45.424  30.089  34.270  1.00  0.00    -0.203 F 
ATOM     88  C   UNL A   1      46.191  28.482  35.811  1.00  0.00     0.198 A 
ATOM     89  C   UNL A   1      44.649  26.923  36.790  1.00  0.00     0.198 A 
ATOM     90  F   UNL A   1      42.375  26.981  36.186  1.00  0.00    -0.203 F 
ATOM     91  F   UNL A   1      47.441  28.947  35.673  1.00  0.00    -0.200 F 
ATOM     92  C   UNL A   1      45.938  27.419  36.666  1.00  0.00     0.200 A 
ATOM     93  F   UNL A   1      44.400  25.904  37.623  1.00  0.00    -0.200 F 
ATOM     94  F   UNL A   1      46.939  26.869  37.366  1.00  0.00    -0.200 F 
ENDBRANCH  61  84
ENDBRANCH  35  36
ENDBRANCH  27  30
ENDBRANCH  25  26
ENDBRANCH   1  25
TORSDOF 12
ENDMDL
MODEL 3
REMARK VINA RESULT:     -13.0      0.840      7.417
REMARK SMILES Cc1cc2c(c(C)c1Br)C=C(C(=O)NCCCCNC(=O)c1ccc(-c3c4nc(c(-c5c(F)c(F)c(F)c(F)c5F)c5ccc([nH]5)c(-c5c(F)c(F)c(F)c(F)c5F)c5nc(c(-c6c(F)c(F)c(F)c(F)c6F)c6ccc3[nH]6)C=C5)C=C4)cc1)[C@@H](C(F)(F)F)O2
REMARK SMILES IDX 17 1 16 2 15 3 14 4 12 5 13 6 11 8 1 9 2 10 3 11 8 12 4 13
REMARK SMILES IDX 6 14 9 15 5 16 90 17 7 18 10 19 85 20 86 21 87 22 88 23
REMARK SMILES IDX 89 24 18 25 19 26 20 27 21 29 22 30 23 31 84 32 24 33 83 34
REMARK SMILES IDX 25 35 26 36 27 37 77 38 28 39 82 40 76 41 78 42 29 43 81 44
REMARK SMILES IDX 75 45 74 46 30 48 62 49 42 50 61 51 43 52 46 53 60 54 79 55
REMARK SMILES IDX 44 56 45 57 59 59 80 60 47 61 31 62 32 63 40 64 33 65 34 66
REMARK SMILES IDX 38 67 41 68 35 69 36 70 39 71 37 72 63 73 64 74 72 75 65 76
REMARK SMILES IDX 66 77 70 78 73 79 67 80 68 81 71 82 69 83 48 84 49 85 57 86
REMARK SMILES IDX 50 87 51 88 55 89 58 90 52 91 53 92 56 93 54 94
REMARK H PARENT 14 7 19 28 78 47 46 58
REMARK Flexibility Score: inf
ROOT
ATOM      1  C   UNL A   1      31.843  31.537  26.623  1.00  0.00     0.023 C 
ENDROOT
BRANCH   1   2
ATOM      2  C   UNL A   1      31.914  30.028  26.875  1.00  0.00     0.023 C 
BRANCH   2   3
ATOM      3  C   UNL A   1      33.296  29.423  26.650  1.00  0.00     0.116 C 
BRANCH   3   4
ATOM      4  N   UNL A   1      33.662  29.419  25.246  1.00  0.00    -0.352 N 
ATOM      5  C   UNL A   1      33.638  28.537  24.219  1.00  0.00     0.251 C 
ATOM      6  O   UNL A   1      34.075  28.973  23.148  1.00  0.00    -0.270 OA
ATOM      7  H   UNL A   1      34.027  30.288  24.965  1.00  0.00     0.163 HD
BRANCH   5   8
ATOM      8  C   UNL A   1      33.133  27.132  24.293  1.00  0.00     0.067 C 
ATOM      9  C   UNL A   1      32.154  20.735  25.030  1.00  0.00     0.046 C 
ATOM     10  C   UNL A   1      32.718  22.128  24.938  1.00  0.00    -0.033 A 
ATOM     11  C   UNL A   1      31.825  23.186  24.742  1.00  0.00     0.051 A 
ATOM     12  C   UNL A   1      34.097  22.411  25.047  1.00  0.00     0.024 A 
ATOM     13  C   UNL A   1      32.286  24.493  24.641  1.00  0.00     0.128 A 
ATOM     14  C   UNL A   1      34.580  23.743  24.954  1.00  0.00    -0.026 A 
ATOM     15  Br  UNL A   1      35.297  20.948  25.336  1.00  0.00    -0.050 Br
ATOM     16  C   UNL A   1      33.647  24.792  24.752  1.00  0.00     0.021 A 
ATOM     17  O   UNL A   1      31.319  25.442  24.478  1.00  0.00    -0.475 OA
ATOM     18  C   UNL A   1      36.049  24.081  25.068  1.00  0.00     0.046 C 
ATOM     19  C   UNL A   1      34.030  26.209  24.689  1.00  0.00     0.026 C 
ATOM     20  C   UNL A   1      31.743  26.713  23.922  1.00  0.00     0.314 C 
BRANCH  20  21
ATOM     21  C   UNL A   1      31.504  26.711  22.401  1.00  0.00     0.429 C 
ATOM     22  F   UNL A   1      30.824  25.596  22.032  1.00  0.00    -0.167 F 
ATOM     23  F   UNL A   1      30.756  27.764  21.994  1.00  0.00    -0.167 F 
ATOM     24  F   UNL A   1      32.651  26.744  21.690  1.00  0.00    -0.167 F 
ENDBRANCH  20  21
ENDBRANCH   5   8
ENDBRANCH   3   4
ENDBRANCH   2   3
ENDBRANCH   1   2
BRANCH   1  25
ATOM     25  C   UNL A   1      32.911  32.371  27.328  1.00  0.00     0.116 C 
BRANCH  25  26
ATOM     26  N   UNL A   1      32.502  33.742  27.600  1.00  0.00    -0.352 N 
ATOM     27  C   UNL A   1      33.044  34.625  28.501  1.00  0.00     0.251 C 
ATOM     28  H   UNL A   1      31.742  34.077  27.071  1.00  0.00     0.163 HD
ATOM     29  O   UNL A   1      32.542  35.729  28.680  1.00  0.00    -0.269 OA
BRANCH  27  30
ATOM     30  C   UNL A   1      34.217  34.207  29.288  1.00  0.00     0.039 A 
ATOM     31  C   UNL A   1      34.014  33.557  30.507  1.00  0.00     0.014 A 
ATOM     32  C   UNL A   1      35.508  34.405  28.790  1.00  0.00     0.014 A 
ATOM     33  C   UNL A   1      35.107  33.034  31.197  1.00  0.00     0.010 A 
ATOM     34  C   UNL A   1      36.590  33.835  29.449  1.00  0.00     0.010 A 
ATOM     35  C   UNL A   1      36.397  33.138  30.653  1.00  0.00    -0.014 A 
BRANCH  35  36
ATOM     36  C   UNL A   1      37.568  32.522  31.318  1.00  0.00     0.031 A 
ATOM     37  C   UNL A   1      38.305  31.404  30.644  1.00  0.00     0.074 A 
ATOM     38  C   UNL A   1      37.913  32.917  32.559  1.00  0.00     0.049 A 
ATOM     39  N   UNL A   1      39.267  30.649  31.108  1.00  0.00    -0.248 NA
ATOM     40  C   UNL A   1      37.885  31.075  29.274  1.00  0.00     0.031 C 
ATOM     41  C   UNL A   1      37.252  33.976  33.323  1.00  0.00     0.029 A 
ATOM     42  N   UNL A   1      38.896  32.462  33.400  1.00  0.00    -0.354 N 
ATOM     43  C   UNL A   1      39.556  29.746  30.094  1.00  0.00     0.074 A 
ATOM     44  C   UNL A   1      38.639  30.019  29.008  1.00  0.00     0.031 C 
ATOM     45  C   UNL A   1      37.861  34.100  34.514  1.00  0.00     0.029 A 
ATOM     46  C   UNL A   1      38.926  33.107  34.611  1.00  0.00     0.049 A 
ATOM     47  H   UNL A   1      39.522  31.741  33.158  1.00  0.00     0.167 HD
ATOM     48  C   UNL A   1      40.514  28.790  30.068  1.00  0.00     0.037 A 
ATOM     49  C   UNL A   1      39.717  32.909  35.682  1.00  0.00     0.037 A 
ATOM     50  C   UNL A   1      41.435  28.538  31.142  1.00  0.00     0.049 A 
ATOM     51  C   UNL A   1      40.768  31.835  35.631  1.00  0.00     0.074 A 
ATOM     52  C   UNL A   1      42.462  27.612  31.200  1.00  0.00     0.029 A 
ATOM     53  N   UNL A   1      41.444  29.222  32.350  1.00  0.00    -0.354 N 
ATOM     54  N   UNL A   1      41.048  31.001  34.660  1.00  0.00    -0.248 NA
ATOM     55  C   UNL A   1      41.611  31.674  36.823  1.00  0.00     0.031 C 
ATOM     56  C   UNL A   1      43.072  27.714  32.455  1.00  0.00     0.029 A 
ATOM     57  C   UNL A   1      42.453  28.733  33.163  1.00  0.00     0.049 A 
ATOM     58  H   UNL A   1      40.825  29.948  32.593  1.00  0.00     0.167 HD
ATOM     59  C   UNL A   1      42.111  30.232  35.113  1.00  0.00     0.074 A 
ATOM     60  C   UNL A   1      42.434  30.707  36.442  1.00  0.00     0.031 C 
ATOM     61  C   UNL A   1      42.760  29.222  34.482  1.00  0.00     0.037 A 
BRANCH  48  62
ATOM     62  C   UNL A   1      40.614  27.949  28.830  1.00  0.00     0.064 A 
ATOM     63  C   UNL A   1      39.882  26.759  28.693  1.00  0.00     0.173 A 
ATOM     64  C   UNL A   1      41.423  28.350  27.757  1.00  0.00     0.173 A 
ATOM     65  F   UNL A   1      39.107  26.324  29.698  1.00  0.00    -0.203 F 
ATOM     66  C   UNL A   1      39.975  25.991  27.536  1.00  0.00     0.198 A 
ATOM     67  C   UNL A   1      41.492  27.593  26.591  1.00  0.00     0.198 A 
ATOM     68  F   UNL A   1      42.141  29.479  27.837  1.00  0.00    -0.203 F 
ATOM     69  F   UNL A   1      39.300  24.836  27.446  1.00  0.00    -0.200 F 
ATOM     70  C   UNL A   1      40.773  26.412  26.484  1.00  0.00     0.200 A 
ATOM     71  F   UNL A   1      42.256  28.006  25.570  1.00  0.00    -0.200 F 
ATOM     72  F   UNL A   1      40.855  25.674  25.368  1.00  0.00    -0.200 F 
ENDBRANCH  48  62
BRANCH  49  73
ATOM     73  C   UNL A   1      39.564  33.775  36.878  1.00  0.00     0.064 A 
ATOM     74  C   UNL A   1      40.200  35.023  36.941  1.00  0.00     0.173 A 
ATOM     75  C   UNL A   1      38.761  33.394  37.963  1.00  0.00     0.173 A 
ATOM     76  F   UNL A   1      40.993  35.420  35.936  1.00  0.00    -0.203 F 
ATOM     77  C   UNL A   1      40.044  35.854  38.047  1.00  0.00     0.198 A 
ATOM     78  C   UNL A   1      38.588  34.237  39.058  1.00  0.00     0.198 A 
ATOM     79  F   UNL A   1      38.128  32.212  37.947  1.00  0.00    -0.203 F 
ATOM     80  F   UNL A   1      40.683  37.031  38.094  1.00  0.00    -0.200 F 
ATOM     81  C   UNL A   1      39.231  35.465  39.102  1.00  0.00     0.200 A 
ATOM     82  F   UNL A   1      37.792  33.862  40.069  1.00  0.00    -0.200 F 
ATOM     83  F   UNL A   1      39.070  36.270  40.160  1.00  0.00    -0.200 F 
ENDBRANCH  49  73
BRANCH  61  84
ATOM     84  C   UNL A   1      43.902  28.578  35.211  1.00  0.00     0.064 A 
ATOM     85  C   UNL A   1      43.706  27.466  36.043  1.00  0.00     0.173 A 
ATOM     86  C   UNL A   1      45.213  29.044  35.029  1.00  0.00     0.173 A 
ATOM     87  F   UNL A   1      42.470  26.993  36.258  1.00  0.00    -0.203 F 
ATOM     88  C   UNL A   1      44.783  26.855  36.681  1.00  0.00     0.198 A 
ATOM     89  C   UNL A   1      46.289  28.414  35.648  1.00  0.00     0.198 A 
ATOM     90  F   UNL A   1      45.451  30.101  34.237  1.00  0.00    -0.203 F 
ATOM     91  F   UNL A   1      44.570  25.815  37.500  1.00  0.00    -0.200 F 
ATOM     92  C   UNL A   1      46.072  27.323  36.477  1.00  0.00     0.200 A 
ATOM     93  F   UNL A   1      47.535  28.861  35.441  1.00  0.00    -0.200 F 
ATOM     94  F   UNL A   1      47.107  26.726  37.084  1.00  0.00    -0.200 F 
ENDBRANCH  61  84
ENDBRANCH  35  36
ENDBRANCH  27  30
ENDBRANCH  25  26
ENDBRANCH   1  25
TORSDOF 12
ENDMDL
