MODEL 1
REMARK VINA RESULT:     -12.3      0.000      0.000
REMARK SMILES Cc1cc(C)n2ncc(C(=O)N(C)CCCC(=O)NCCCCNC(=O)c3ccc(-c4c5nc(c(-c6c(F)c(F)c(F)c(F)c6F)c6ccc([nH]6)c(-c6c(F)c(F)c(F)c(F)c6F)c6nc(c(-c7c(F)c(F)c(F)c(F)c7F)c7ccc4[nH]7)C=C6)C=C5)cc3)c2n1
REMARK SMILES IDX 20 1 19 2 17 3 18 4 16 6 15 7 14 8 12 9 13 10 10 11 11 12
REMARK SMILES IDX 9 13 1 14 2 15 3 16 91 17 4 18 90 19 5 20 6 21 7 22 8 23
REMARK SMILES IDX 21 24 22 25 23 26 24 27 25 28 26 30 27 31 28 32 89 33 29 34
REMARK SMILES IDX 88 35 30 36 31 37 32 38 82 39 33 40 87 41 81 42 83 43 34 44
REMARK SMILES IDX 86 45 80 46 79 47 35 49 67 50 47 51 66 52 48 53 51 54 65 55
REMARK SMILES IDX 84 56 49 57 50 58 64 60 85 61 52 62 36 63 37 64 45 65 38 66
REMARK SMILES IDX 39 67 43 68 46 69 40 70 41 71 44 72 42 73 68 74 69 75 77 76
REMARK SMILES IDX 70 77 71 78 75 79 78 80 72 81 73 82 76 83 74 84 53 85 54 86
REMARK SMILES IDX 62 87 55 88 56 89 60 90 63 91 57 92 58 93 61 94 59 95
REMARK H PARENT 19 5 24 29 83 48 51 59
REMARK Flexibility Score: inf
ROOT
ATOM      1  C   UNL A   1      39.600  21.447  26.270  1.00  0.00     0.116 C 
ENDROOT
BRANCH   1   2
ATOM      2  N   UNL A   1      38.693  22.568  26.365  1.00  0.00    -0.356 N 
ATOM      3  C   UNL A   1      37.651  22.992  25.613  1.00  0.00     0.220 C 
ATOM      4  O   UNL A   1      37.036  23.961  26.081  1.00  0.00    -0.275 OA
ATOM      5  H   UNL A   1      38.871  23.147  27.142  1.00  0.00     0.163 HD
BRANCH   3   6
ATOM      6  C   UNL A   1      37.119  22.334  24.348  1.00  0.00     0.102 C 
BRANCH   6   7
ATOM      7  C   UNL A   1      36.039  22.915  23.427  1.00  0.00     0.031 C 
BRANCH   7   8
ATOM      8  C   UNL A   1      34.524  22.764  23.618  1.00  0.00     0.120 C 
BRANCH   8   9
ATOM      9  N   UNL A   1      33.477  23.705  23.153  1.00  0.00    -0.342 N 
ATOM     10  C   UNL A   1      32.182  23.051  23.005  1.00  0.00     0.147 C 
BRANCH   9  11
ATOM     11  C   UNL A   1      33.711  25.086  23.029  1.00  0.00     0.259 C 
ATOM     12  O   UNL A   1      34.032  25.535  21.934  1.00  0.00    -0.269 OA
BRANCH  11  13
ATOM     13  C   UNL A   1      33.604  26.044  24.134  1.00  0.00     0.104 A 
ATOM     14  C   UNL A   1      30.365  29.286  22.295  1.00  0.00     0.067 C 
ATOM     15  C   UNL A   1      31.258  28.717  23.372  1.00  0.00     0.042 A 
ATOM     16  C   UNL A   1      31.162  29.341  24.726  1.00  0.00     0.047 A 
ATOM     17  N   UNL A   1      32.062  27.742  23.062  1.00  0.00    -0.233 NA
ATOM     18  C   UNL A   1      31.974  28.837  25.672  1.00  0.00     0.043 A 
ATOM     19  C   UNL A   1      32.818  27.199  24.072  1.00  0.00     0.168 A 
ATOM     20  C   UNL A   1      31.988  29.349  27.078  1.00  0.00     0.067 C 
ATOM     21  N   UNL A   1      32.817  27.761  25.353  1.00  0.00    -0.219 N 
ATOM     22  N   UNL A   1      33.665  27.102  26.176  1.00  0.00    -0.174 NA
ATOM     23  C   UNL A   1      34.068  26.050  25.464  1.00  0.00     0.151 A 
ENDBRANCH  11  13
ENDBRANCH   9  11
ENDBRANCH   8   9
ENDBRANCH   7   8
ENDBRANCH   6   7
ENDBRANCH   3   6
ENDBRANCH   1   2
BRANCH   1  24
ATOM     24  C   UNL A   1      40.666  21.479  27.377  1.00  0.00     0.023 C 
BRANCH  24  25
ATOM     25  C   UNL A   1      41.892  20.583  27.163  1.00  0.00     0.023 C 
BRANCH  25  26
ATOM     26  C   UNL A   1      42.073  20.074  25.737  1.00  0.00     0.116 C 
BRANCH  26  27
ATOM     27  N   UNL A   1      43.432  19.618  25.440  1.00  0.00    -0.352 N 
ATOM     28  C   UNL A   1      44.496  20.391  24.997  1.00  0.00     0.251 C 
ATOM     29  H   UNL A   1      43.611  18.658  25.570  1.00  0.00     0.163 HD
ATOM     30  O   UNL A   1      45.433  19.911  24.394  1.00  0.00    -0.269 OA
BRANCH  28  31
ATOM     31  C   UNL A   1      44.454  21.834  25.302  1.00  0.00     0.039 A 
ATOM     32  C   UNL A   1      43.642  22.711  24.584  1.00  0.00     0.014 A 
ATOM     33  C   UNL A   1      45.183  22.264  26.408  1.00  0.00     0.014 A 
ATOM     34  C   UNL A   1      43.489  24.011  25.063  1.00  0.00     0.010 A 
ATOM     35  C   UNL A   1      44.906  23.488  26.963  1.00  0.00     0.010 A 
ATOM     36  C   UNL A   1      44.095  24.384  26.280  1.00  0.00    -0.014 A 
BRANCH  36  37
ATOM     37  C   UNL A   1      43.771  25.663  26.911  1.00  0.00     0.031 A 
ATOM     38  C   UNL A   1      44.714  26.760  26.567  1.00  0.00     0.074 A 
ATOM     39  C   UNL A   1      42.644  25.898  27.621  1.00  0.00     0.049 A 
ATOM     40  N   UNL A   1      45.615  27.270  27.339  1.00  0.00    -0.248 NA
ATOM     41  C   UNL A   1      44.783  27.249  25.181  1.00  0.00     0.031 C 
ATOM     42  C   UNL A   1      41.480  25.019  27.796  1.00  0.00     0.029 A 
ATOM     43  N   UNL A   1      42.264  27.024  28.298  1.00  0.00    -0.354 N 
ATOM     44  C   UNL A   1      46.209  28.300  26.616  1.00  0.00     0.074 A 
ATOM     45  C   UNL A   1      45.794  28.119  25.251  1.00  0.00     0.031 C 
ATOM     46  C   UNL A   1      40.451  25.714  28.330  1.00  0.00     0.029 A 
ATOM     47  C   UNL A   1      40.937  27.022  28.720  1.00  0.00     0.049 A 
ATOM     48  H   UNL A   1      42.878  27.774  28.472  1.00  0.00     0.167 HD
ATOM     49  C   UNL A   1      46.751  29.363  27.275  1.00  0.00     0.037 A 
ATOM     50  C   UNL A   1      40.290  28.009  29.386  1.00  0.00     0.037 A 
ATOM     51  C   UNL A   1      46.854  29.074  28.684  1.00  0.00     0.049 A 
ATOM     52  C   UNL A   1      41.323  28.809  30.074  1.00  0.00     0.074 A 
ATOM     53  C   UNL A   1      47.700  28.367  29.509  1.00  0.00     0.029 A 
ATOM     54  N   UNL A   1      45.681  29.261  29.363  1.00  0.00    -0.354 N 
ATOM     55  N   UNL A   1      42.031  28.358  31.069  1.00  0.00    -0.248 NA
ATOM     56  C   UNL A   1      41.807  30.036  29.453  1.00  0.00     0.031 C 
ATOM     57  C   UNL A   1      46.933  28.013  30.660  1.00  0.00     0.029 A 
ATOM     58  C   UNL A   1      45.656  28.553  30.532  1.00  0.00     0.049 A 
ATOM     59  H   UNL A   1      44.946  29.835  29.049  1.00  0.00     0.167 HD
ATOM     60  C   UNL A   1      43.251  28.975  30.909  1.00  0.00     0.074 A 
ATOM     61  C   UNL A   1      43.003  30.119  30.041  1.00  0.00     0.031 C 
ATOM     62  C   UNL A   1      44.403  28.313  31.205  1.00  0.00     0.037 A 
BRANCH  49  63
ATOM     63  C   UNL A   1      46.729  30.803  26.803  1.00  0.00     0.064 A 
ATOM     64  C   UNL A   1      47.914  31.568  26.890  1.00  0.00     0.173 A 
ATOM     65  C   UNL A   1      45.550  31.546  26.582  1.00  0.00     0.173 A 
ATOM     66  F   UNL A   1      49.096  30.974  27.115  1.00  0.00    -0.203 F 
ATOM     67  C   UNL A   1      47.905  32.965  26.836  1.00  0.00     0.198 A 
ATOM     68  C   UNL A   1      45.552  32.939  26.481  1.00  0.00     0.198 A 
ATOM     69  F   UNL A   1      44.341  30.977  26.571  1.00  0.00    -0.203 F 
ATOM     70  F   UNL A   1      49.038  33.649  27.044  1.00  0.00    -0.200 F 
ATOM     71  C   UNL A   1      46.722  33.650  26.638  1.00  0.00     0.200 A 
ATOM     72  F   UNL A   1      44.389  33.586  26.312  1.00  0.00    -0.200 F 
ATOM     73  F   UNL A   1      46.698  34.990  26.643  1.00  0.00    -0.200 F 
ENDBRANCH  49  63
BRANCH  50  74
ATOM     74  C   UNL A   1      38.878  28.447  29.376  1.00  0.00     0.064 A 
ATOM     75  C   UNL A   1      38.151  28.535  30.577  1.00  0.00     0.173 A 
ATOM     76  C   UNL A   1      38.349  29.129  28.267  1.00  0.00     0.173 A 
ATOM     77  F   UNL A   1      38.594  27.915  31.680  1.00  0.00    -0.203 F 
ATOM     78  C   UNL A   1      37.012  29.335  30.688  1.00  0.00     0.198 A 
ATOM     79  C   UNL A   1      37.209  29.929  28.380  1.00  0.00     0.198 A 
ATOM     80  F   UNL A   1      38.993  29.119  27.091  1.00  0.00    -0.203 F 
ATOM     81  F   UNL A   1      36.404  29.470  31.875  1.00  0.00    -0.200 F 
ATOM     82  C   UNL A   1      36.558  30.053  29.596  1.00  0.00     0.200 A 
ATOM     83  F   UNL A   1      36.790  30.643  27.325  1.00  0.00    -0.200 F 
ATOM     84  F   UNL A   1      35.524  30.896  29.725  1.00  0.00    -0.200 F 
ENDBRANCH  50  74
BRANCH  62  85
ATOM     85  C   UNL A   1      44.314  27.181  32.177  1.00  0.00     0.064 A 
ATOM     86  C   UNL A   1      44.244  25.824  31.825  1.00  0.00     0.173 A 
ATOM     87  C   UNL A   1      44.365  27.499  33.539  1.00  0.00     0.173 A 
ATOM     88  F   UNL A   1      44.248  25.441  30.542  1.00  0.00    -0.203 F 
ATOM     89  C   UNL A   1      44.203  24.832  32.804  1.00  0.00     0.198 A 
ATOM     90  C   UNL A   1      44.357  26.507  34.513  1.00  0.00     0.198 A 
ATOM     91  F   UNL A   1      44.457  28.781  33.926  1.00  0.00    -0.203 F 
ATOM     92  F   UNL A   1      44.120  23.540  32.452  1.00  0.00    -0.200 F 
ATOM     93  C   UNL A   1      44.268  25.174  34.146  1.00  0.00     0.200 A 
ATOM     94  F   UNL A   1      44.454  26.845  35.805  1.00  0.00    -0.200 F 
ATOM     95  F   UNL A   1      44.263  24.220  35.087  1.00  0.00    -0.200 F 
ENDBRANCH  62  85
ENDBRANCH  36  37
ENDBRANCH  28  31
ENDBRANCH  26  27
ENDBRANCH  25  26
ENDBRANCH  24  25
ENDBRANCH   1  24
TORSDOF 16
ENDMDL
MODEL 2
REMARK VINA RESULT:     -12.2      1.072      1.896
REMARK SMILES Cc1cc(C)n2ncc(C(=O)N(C)CCCC(=O)NCCCCNC(=O)c3ccc(-c4c5nc(c(-c6c(F)c(F)c(F)c(F)c6F)c6ccc([nH]6)c(-c6c(F)c(F)c(F)c(F)c6F)c6nc(c(-c7c(F)c(F)c(F)c(F)c7F)c7ccc4[nH]7)C=C6)C=C5)cc3)c2n1
REMARK SMILES IDX 20 1 19 2 17 3 18 4 16 6 15 7 14 8 12 9 13 10 10 11 11 12
REMARK SMILES IDX 9 13 1 14 2 15 3 16 91 17 4 18 90 19 5 20 6 21 7 22 8 23
REMARK SMILES IDX 21 24 22 25 23 26 24 27 25 28 26 30 27 31 28 32 89 33 29 34
REMARK SMILES IDX 88 35 30 36 31 37 32 38 82 39 33 40 87 41 81 42 83 43 34 44
REMARK SMILES IDX 86 45 80 46 79 47 35 49 67 50 47 51 66 52 48 53 51 54 65 55
REMARK SMILES IDX 84 56 49 57 50 58 64 60 85 61 52 62 36 63 37 64 45 65 38 66
REMARK SMILES IDX 39 67 43 68 46 69 40 70 41 71 44 72 42 73 68 74 69 75 77 76
REMARK SMILES IDX 70 77 71 78 75 79 78 80 72 81 73 82 76 83 74 84 53 85 54 86
REMARK SMILES IDX 62 87 55 88 56 89 60 90 63 91 57 92 58 93 61 94 59 95
REMARK H PARENT 19 5 24 29 83 48 51 59
REMARK Flexibility Score: inf
ROOT
ATOM      1  C   UNL A   1      39.352  21.143  25.930  1.00  0.00     0.116 C 
ENDROOT
BRANCH   1   2
ATOM      2  N   UNL A   1      38.751  22.391  26.342  1.00  0.00    -0.356 N 
ATOM      3  C   UNL A   1      37.775  23.173  25.823  1.00  0.00     0.220 C 
ATOM      4  O   UNL A   1      37.455  24.138  26.531  1.00  0.00    -0.275 OA
ATOM      5  H   UNL A   1      39.132  22.750  27.176  1.00  0.00     0.163 HD
BRANCH   3   6
ATOM      6  C   UNL A   1      36.988  22.913  24.546  1.00  0.00     0.102 C 
BRANCH   6   7
ATOM      7  C   UNL A   1      35.932  21.817  24.356  1.00  0.00     0.031 C 
BRANCH   7   8
ATOM      8  C   UNL A   1      34.777  21.511  25.318  1.00  0.00     0.120 C 
BRANCH   8   9
ATOM      9  N   UNL A   1      33.794  22.482  25.854  1.00  0.00    -0.342 N 
ATOM     10  C   UNL A   1      34.061  22.817  27.248  1.00  0.00     0.147 C 
BRANCH   9  11
ATOM     11  C   UNL A   1      32.828  23.099  25.040  1.00  0.00     0.259 C 
ATOM     12  O   UNL A   1      31.684  22.656  25.040  1.00  0.00    -0.269 OA
BRANCH  11  13
ATOM     13  C   UNL A   1      33.094  24.248  24.168  1.00  0.00     0.104 A 
ATOM     14  C   UNL A   1      32.202  28.015  27.234  1.00  0.00     0.067 C 
ATOM     15  C   UNL A   1      32.639  27.400  25.926  1.00  0.00     0.042 A 
ATOM     16  C   UNL A   1      33.225  28.324  24.909  1.00  0.00     0.047 A 
ATOM     17  N   UNL A   1      32.467  26.122  25.752  1.00  0.00    -0.233 NA
ATOM     18  C   UNL A   1      33.595  27.768  23.742  1.00  0.00     0.043 A 
ATOM     19  C   UNL A   1      32.931  25.574  24.580  1.00  0.00     0.168 A 
ATOM     20  C   UNL A   1      34.206  28.561  22.629  1.00  0.00     0.067 C 
ATOM     21  N   UNL A   1      33.446  26.384  23.563  1.00  0.00    -0.219 N 
ATOM     22  N   UNL A   1      33.796  25.648  22.483  1.00  0.00    -0.174 NA
ATOM     23  C   UNL A   1      33.649  24.385  22.881  1.00  0.00     0.151 A 
ENDBRANCH  11  13
ENDBRANCH   9  11
ENDBRANCH   8   9
ENDBRANCH   7   8
ENDBRANCH   6   7
ENDBRANCH   3   6
ENDBRANCH   1   2
BRANCH   1  24
ATOM     24  C   UNL A   1      40.805  21.021  26.416  1.00  0.00     0.023 C 
BRANCH  24  25
ATOM     25  C   UNL A   1      41.498  19.679  26.151  1.00  0.00     0.023 C 
BRANCH  25  26
ATOM     26  C   UNL A   1      42.893  19.549  26.751  1.00  0.00     0.116 C 
BRANCH  26  27
ATOM     27  N   UNL A   1      43.932  19.233  25.768  1.00  0.00    -0.352 N 
ATOM     28  C   UNL A   1      44.505  20.101  24.848  1.00  0.00     0.251 C 
ATOM     29  H   UNL A   1      44.261  18.306  25.760  1.00  0.00     0.163 HD
ATOM     30  O   UNL A   1      45.029  19.703  23.828  1.00  0.00    -0.269 OA
BRANCH  28  31
ATOM     31  C   UNL A   1      44.465  21.541  25.165  1.00  0.00     0.039 A 
ATOM     32  C   UNL A   1      43.578  22.408  24.527  1.00  0.00     0.014 A 
ATOM     33  C   UNL A   1      45.281  21.978  26.206  1.00  0.00     0.014 A 
ATOM     34  C   UNL A   1      43.446  23.703  25.026  1.00  0.00     0.010 A 
ATOM     35  C   UNL A   1      45.034  23.194  26.791  1.00  0.00     0.010 A 
ATOM     36  C   UNL A   1      44.151  24.080  26.188  1.00  0.00    -0.014 A 
BRANCH  36  37
ATOM     37  C   UNL A   1      43.863  25.350  26.852  1.00  0.00     0.031 A 
ATOM     38  C   UNL A   1      44.826  26.434  26.524  1.00  0.00     0.074 A 
ATOM     39  C   UNL A   1      42.749  25.592  27.582  1.00  0.00     0.049 A 
ATOM     40  N   UNL A   1      45.746  26.905  27.297  1.00  0.00    -0.248 NA
ATOM     41  C   UNL A   1      44.889  26.955  25.150  1.00  0.00     0.031 C 
ATOM     42  C   UNL A   1      41.568  24.734  27.750  1.00  0.00     0.029 A 
ATOM     43  N   UNL A   1      42.402  26.710  28.290  1.00  0.00    -0.354 N 
ATOM     44  C   UNL A   1      46.354  27.940  26.592  1.00  0.00     0.074 A 
ATOM     45  C   UNL A   1      45.920  27.801  25.228  1.00  0.00     0.031 C 
ATOM     46  C   UNL A   1      40.561  25.438  28.313  1.00  0.00     0.029 A 
ATOM     47  C   UNL A   1      41.080  26.726  28.728  1.00  0.00     0.049 A 
ATOM     48  H   UNL A   1      43.034  27.441  28.475  1.00  0.00     0.167 HD
ATOM     49  C   UNL A   1      46.927  28.975  27.270  1.00  0.00     0.037 A 
ATOM     50  C   UNL A   1      40.463  27.710  29.425  1.00  0.00     0.037 A 
ATOM     51  C   UNL A   1      47.040  28.649  28.671  1.00  0.00     0.049 A 
ATOM     52  C   UNL A   1      41.520  28.471  30.119  1.00  0.00     0.074 A 
ATOM     53  C   UNL A   1      47.879  27.905  29.468  1.00  0.00     0.029 A 
ATOM     54  N   UNL A   1      45.879  28.845  29.368  1.00  0.00    -0.354 N 
ATOM     55  N   UNL A   1      42.230  27.980  31.095  1.00  0.00    -0.248 NA
ATOM     56  C   UNL A   1      42.025  29.702  29.523  1.00  0.00     0.031 C 
ATOM     57  C   UNL A   1      47.118  27.539  30.619  1.00  0.00     0.029 A 
ATOM     58  C   UNL A   1      45.852  28.110  30.520  1.00  0.00     0.049 A 
ATOM     59  H   UNL A   1      45.153  29.442  29.076  1.00  0.00     0.167 HD
ATOM     60  C   UNL A   1      43.462  28.575  30.935  1.00  0.00     0.074 A 
ATOM     61  C   UNL A   1      43.228  29.744  30.098  1.00  0.00     0.031 C 
ATOM     62  C   UNL A   1      44.602  27.880  31.201  1.00  0.00     0.037 A 
BRANCH  49  63
ATOM     63  C   UNL A   1      46.931  30.426  26.832  1.00  0.00     0.064 A 
ATOM     64  C   UNL A   1      48.128  31.170  26.949  1.00  0.00     0.173 A 
ATOM     65  C   UNL A   1      45.766  31.192  26.619  1.00  0.00     0.173 A 
ATOM     66  F   UNL A   1      49.298  30.553  27.170  1.00  0.00    -0.203 F 
ATOM     67  C   UNL A   1      48.140  32.568  26.929  1.00  0.00     0.198 A 
ATOM     68  C   UNL A   1      45.790  32.586  26.552  1.00  0.00     0.198 A 
ATOM     69  F   UNL A   1      44.549  30.642  26.584  1.00  0.00    -0.203 F 
ATOM     70  F   UNL A   1      49.281  33.229  27.165  1.00  0.00    -0.200 F 
ATOM     71  C   UNL A   1      46.969  33.275  26.737  1.00  0.00     0.200 A 
ATOM     72  F   UNL A   1      44.639  33.255  26.389  1.00  0.00    -0.200 F 
ATOM     73  F   UNL A   1      46.965  34.615  26.775  1.00  0.00    -0.200 F 
ENDBRANCH  49  63
BRANCH  50  74
ATOM     74  C   UNL A   1      39.060  28.179  29.442  1.00  0.00     0.064 A 
ATOM     75  C   UNL A   1      38.355  28.270  30.656  1.00  0.00     0.173 A 
ATOM     76  C   UNL A   1      38.529  28.884  28.350  1.00  0.00     0.173 A 
ATOM     77  F   UNL A   1      38.802  27.629  31.746  1.00  0.00    -0.203 F 
ATOM     78  C   UNL A   1      37.236  29.093  30.794  1.00  0.00     0.198 A 
ATOM     79  C   UNL A   1      37.409  29.707  28.489  1.00  0.00     0.198 A 
ATOM     80  F   UNL A   1      39.154  28.873  27.164  1.00  0.00    -0.203 F 
ATOM     81  F   UNL A   1      36.650  29.229  31.992  1.00  0.00    -0.200 F 
ATOM     82  C   UNL A   1      36.780  29.833  29.717  1.00  0.00     0.200 A 
ATOM     83  F   UNL A   1      36.989  30.441  27.449  1.00  0.00    -0.200 F 
ATOM     84  F   UNL A   1      35.767  30.697  29.872  1.00  0.00    -0.200 F 
ENDBRANCH  50  74
BRANCH  62  85
ATOM     85  C   UNL A   1      44.500  26.727  32.147  1.00  0.00     0.064 A 
ATOM     86  C   UNL A   1      44.398  26.840  33.542  1.00  0.00     0.173 A 
ATOM     87  C   UNL A   1      44.441  25.444  31.590  1.00  0.00     0.173 A 
ATOM     88  F   UNL A   1      44.391  28.036  34.142  1.00  0.00    -0.203 F 
ATOM     89  C   UNL A   1      44.268  25.706  34.344  1.00  0.00     0.198 A 
ATOM     90  C   UNL A   1      44.278  24.318  32.388  1.00  0.00     0.198 A 
ATOM     91  F   UNL A   1      44.509  25.287  30.259  1.00  0.00    -0.203 F 
ATOM     92  F   UNL A   1      44.189  25.829  35.678  1.00  0.00    -0.200 F 
ATOM     93  C   UNL A   1      44.199  24.447  33.765  1.00  0.00     0.200 A 
ATOM     94  F   UNL A   1      44.180  23.110  31.819  1.00  0.00    -0.200 F 
ATOM     95  F   UNL A   1      44.040  23.360  34.532  1.00  0.00    -0.200 F 
ENDBRANCH  62  85
ENDBRANCH  36  37
ENDBRANCH  28  31
ENDBRANCH  26  27
ENDBRANCH  25  26
ENDBRANCH  24  25
ENDBRANCH   1  24
TORSDOF 16
ENDMDL
MODEL 3
REMARK VINA RESULT:     -11.8      4.719     10.574
REMARK SMILES Cc1cc(C)n2ncc(C(=O)N(C)CCCC(=O)NCCCCNC(=O)c3ccc(-c4c5nc(c(-c6c(F)c(F)c(F)c(F)c6F)c6ccc([nH]6)c(-c6c(F)c(F)c(F)c(F)c6F)c6nc(c(-c7c(F)c(F)c(F)c(F)c7F)c7ccc4[nH]7)C=C6)C=C5)cc3)c2n1
REMARK SMILES IDX 20 1 19 2 17 3 18 4 16 6 15 7 14 8 12 9 13 10 10 11 11 12
REMARK SMILES IDX 9 13 1 14 2 15 3 16 91 17 4 18 90 19 5 20 6 21 7 22 8 23
REMARK SMILES IDX 21 24 22 25 23 26 24 27 25 28 26 30 27 31 28 32 89 33 29 34
REMARK SMILES IDX 88 35 30 36 31 37 32 38 82 39 33 40 87 41 81 42 83 43 34 44
REMARK SMILES IDX 86 45 80 46 79 47 35 49 67 50 47 51 66 52 48 53 51 54 65 55
REMARK SMILES IDX 84 56 49 57 50 58 64 60 85 61 52 62 36 63 37 64 45 65 38 66
REMARK SMILES IDX 39 67 43 68 46 69 40 70 41 71 44 72 42 73 68 74 69 75 77 76
REMARK SMILES IDX 70 77 71 78 75 79 78 80 72 81 73 82 76 83 74 84 53 85 54 86
REMARK SMILES IDX 62 87 55 88 56 89 60 90 63 91 57 92 58 93 61 94 59 95
REMARK H PARENT 19 5 24 29 83 48 51 59
REMARK Flexibility Score: inf
ROOT
ATOM      1  C   UNL A   1      45.409  31.612  26.745  1.00  0.00     0.116 C 
ENDROOT
BRANCH   1   2
ATOM      2  N   UNL A   1      46.032  30.722  25.792  1.00  0.00    -0.356 N 
ATOM      3  C   UNL A   1      46.093  29.375  25.675  1.00  0.00     0.220 C 
ATOM      4  O   UNL A   1      46.647  28.971  24.643  1.00  0.00    -0.275 OA
ATOM      5  H   UNL A   1      46.516  31.195  25.077  1.00  0.00     0.163 HD
BRANCH   3   6
ATOM      6  C   UNL A   1      45.462  28.353  26.610  1.00  0.00     0.102 C 
BRANCH   6   7
ATOM      7  C   UNL A   1      43.958  28.106  26.777  1.00  0.00     0.031 C 
BRANCH   7   8
ATOM      8  C   UNL A   1      43.315  26.802  27.266  1.00  0.00     0.120 C 
BRANCH   8   9
ATOM      9  N   UNL A   1      43.896  25.441  27.173  1.00  0.00    -0.342 N 
ATOM     10  C   UNL A   1      44.243  24.906  28.484  1.00  0.00     0.147 C 
BRANCH   9  11
ATOM     11  C   UNL A   1      43.945  24.728  25.963  1.00  0.00     0.259 C 
ATOM     12  O   UNL A   1      43.411  25.211  24.970  1.00  0.00    -0.269 OA
BRANCH  11  13
ATOM     13  C   UNL A   1      44.592  23.422  25.799  1.00  0.00     0.104 A 
ATOM     14  C   UNL A   1      40.772  20.360  26.450  1.00  0.00     0.067 C 
ATOM     15  C   UNL A   1      42.211  20.692  26.131  1.00  0.00     0.042 A 
ATOM     16  C   UNL A   1      43.074  19.567  25.660  1.00  0.00     0.047 A 
ATOM     17  N   UNL A   1      42.618  21.916  26.299  1.00  0.00    -0.233 NA
ATOM     18  C   UNL A   1      44.356  19.871  25.396  1.00  0.00     0.043 A 
ATOM     19  C   UNL A   1      43.912  22.208  25.942  1.00  0.00     0.168 A 
ATOM     20  C   UNL A   1      45.342  18.856  24.907  1.00  0.00     0.067 C 
ATOM     21  N   UNL A   1      44.792  21.198  25.540  1.00  0.00    -0.219 N 
ATOM     22  N   UNL A   1      46.024  21.696  25.284  1.00  0.00    -0.174 NA
ATOM     23  C   UNL A   1      45.872  23.017  25.372  1.00  0.00     0.151 A 
ENDBRANCH  11  13
ENDBRANCH   9  11
ENDBRANCH   8   9
ENDBRANCH   7   8
ENDBRANCH   6   7
ENDBRANCH   3   6
ENDBRANCH   1   2
BRANCH   1  24
ATOM     24  C   UNL A   1      44.051  32.127  26.242  1.00  0.00     0.023 C 
BRANCH  24  25
ATOM     25  C   UNL A   1      44.094  33.144  25.094  1.00  0.00     0.023 C 
BRANCH  25  26
ATOM     26  C   UNL A   1      43.867  34.592  25.512  1.00  0.00     0.116 C 
BRANCH  26  27
ATOM     27  N   UNL A   1      45.080  35.271  25.974  1.00  0.00    -0.352 N 
ATOM     28  C   UNL A   1      45.240  35.987  27.153  1.00  0.00     0.251 C 
ATOM     29  H   UNL A   1      45.867  35.211  25.387  1.00  0.00     0.163 HD
ATOM     30  O   UNL A   1      46.095  36.840  27.275  1.00  0.00    -0.269 OA
BRANCH  28  31
ATOM     31  C   UNL A   1      44.332  35.662  28.269  1.00  0.00     0.039 A 
ATOM     32  C   UNL A   1      43.245  36.475  28.590  1.00  0.00     0.014 A 
ATOM     33  C   UNL A   1      44.545  34.450  28.919  1.00  0.00     0.014 A 
ATOM     34  C   UNL A   1      42.312  35.998  29.508  1.00  0.00     0.010 A 
ATOM     35  C   UNL A   1      43.548  33.917  29.697  1.00  0.00     0.010 A 
ATOM     36  C   UNL A   1      42.448  34.695  30.031  1.00  0.00    -0.014 A 
BRANCH  36  37
ATOM     37  C   UNL A   1      41.372  34.094  30.818  1.00  0.00     0.031 A 
ATOM     38  C   UNL A   1      41.727  33.860  32.243  1.00  0.00     0.074 A 
ATOM     39  C   UNL A   1      40.113  33.897  30.363  1.00  0.00     0.049 A 
ATOM     40  N   UNL A   1      41.980  32.722  32.796  1.00  0.00    -0.248 NA
ATOM     41  C   UNL A   1      41.981  35.010  33.125  1.00  0.00     0.031 C 
ATOM     42  C   UNL A   1      39.526  34.346  29.093  1.00  0.00     0.029 A 
ATOM     43  N   UNL A   1      39.051  33.299  30.981  1.00  0.00    -0.354 N 
ATOM     44  C   UNL A   1      42.199  32.984  34.145  1.00  0.00     0.074 A 
ATOM     45  C   UNL A   1      42.371  34.407  34.252  1.00  0.00     0.031 C 
ATOM     46  C   UNL A   1      38.183  34.205  29.129  1.00  0.00     0.029 A 
ATOM     47  C   UNL A   1      37.832  33.477  30.331  1.00  0.00     0.049 A 
ATOM     48  H   UNL A   1      39.140  32.785  31.816  1.00  0.00     0.167 HD
ATOM     49  C   UNL A   1      41.928  32.022  35.073  1.00  0.00     0.037 A 
ATOM     50  C   UNL A   1      36.620  33.018  30.729  1.00  0.00     0.037 A 
ATOM     51  C   UNL A   1      41.712  30.752  34.424  1.00  0.00     0.049 A 
ATOM     52  C   UNL A   1      36.869  31.860  31.611  1.00  0.00     0.074 A 
ATOM     53  C   UNL A   1      42.487  29.751  33.884  1.00  0.00     0.029 A 
ATOM     54  N   UNL A   1      40.448  30.610  33.919  1.00  0.00    -0.354 N 
ATOM     55  N   UNL A   1      37.356  30.730  31.185  1.00  0.00    -0.248 NA
ATOM     56  C   UNL A   1      36.871  32.050  33.056  1.00  0.00     0.031 C 
ATOM     57  C   UNL A   1      41.669  29.087  32.920  1.00  0.00     0.029 A 
ATOM     58  C   UNL A   1      40.403  29.665  32.932  1.00  0.00     0.049 A 
ATOM     59  H   UNL A   1      39.668  31.123  34.228  1.00  0.00     0.167 HD
ATOM     60  C   UNL A   1      38.111  30.279  32.245  1.00  0.00     0.074 A 
ATOM     61  C   UNL A   1      37.629  31.010  33.410  1.00  0.00     0.031 C 
ATOM     62  C   UNL A   1      39.281  29.619  32.027  1.00  0.00     0.037 A 
BRANCH  49  63
ATOM     63  C   UNL A   1      41.366  32.263  36.460  1.00  0.00     0.064 A 
ATOM     64  C   UNL A   1      40.129  32.935  36.588  1.00  0.00     0.173 A 
ATOM     65  C   UNL A   1      42.120  32.162  37.647  1.00  0.00     0.173 A 
ATOM     66  F   UNL A   1      39.331  33.108  35.523  1.00  0.00    -0.203 F 
ATOM     67  C   UNL A   1      39.721  33.522  37.790  1.00  0.00     0.198 A 
ATOM     68  C   UNL A   1      41.687  32.708  38.857  1.00  0.00     0.198 A 
ATOM     69  F   UNL A   1      43.350  31.641  37.668  1.00  0.00    -0.203 F 
ATOM     70  F   UNL A   1      38.597  34.251  37.829  1.00  0.00    -0.200 F 
ATOM     71  C   UNL A   1      40.504  33.413  38.923  1.00  0.00     0.200 A 
ATOM     72  F   UNL A   1      42.472  32.613  39.940  1.00  0.00    -0.200 F 
ATOM     73  F   UNL A   1      40.147  34.022  40.062  1.00  0.00    -0.200 F 
ENDBRANCH  49  63
BRANCH  50  74
ATOM     74  C   UNL A   1      35.255  33.561  30.562  1.00  0.00     0.064 A 
ATOM     75  C   UNL A   1      34.756  34.519  31.463  1.00  0.00     0.173 A 
ATOM     76  C   UNL A   1      34.580  33.435  29.337  1.00  0.00     0.173 A 
ATOM     77  F   UNL A   1      35.350  34.702  32.652  1.00  0.00    -0.203 F 
ATOM     78  C   UNL A   1      33.701  35.368  31.121  1.00  0.00     0.198 A 
ATOM     79  C   UNL A   1      33.525  34.284  28.996  1.00  0.00     0.198 A 
ATOM     80  F   UNL A   1      35.007  32.564  28.411  1.00  0.00    -0.203 F 
ATOM     81  F   UNL A   1      33.319  36.334  31.968  1.00  0.00    -0.200 F 
ATOM     82  C   UNL A   1      33.104  35.268  29.876  1.00  0.00     0.200 A 
ATOM     83  F   UNL A   1      32.969  34.200  27.779  1.00  0.00    -0.200 F 
ATOM     84  F   UNL A   1      32.159  36.144  29.509  1.00  0.00    -0.200 F 
ENDBRANCH  50  74
BRANCH  62  85
ATOM     85  C   UNL A   1      39.448  28.935  30.709  1.00  0.00     0.064 A 
ATOM     86  C   UNL A   1      40.040  29.511  29.574  1.00  0.00     0.173 A 
ATOM     87  C   UNL A   1      39.036  27.600  30.621  1.00  0.00     0.173 A 
ATOM     88  F   UNL A   1      40.509  30.765  29.600  1.00  0.00    -0.203 F 
ATOM     89  C   UNL A   1      40.189  28.781  28.395  1.00  0.00     0.198 A 
ATOM     90  C   UNL A   1      39.214  26.864  29.456  1.00  0.00     0.198 A 
ATOM     91  F   UNL A   1      38.486  26.997  31.686  1.00  0.00    -0.203 F 
ATOM     92  F   UNL A   1      40.742  29.352  27.314  1.00  0.00    -0.200 F 
ATOM     93  C   UNL A   1      39.784  27.457  28.340  1.00  0.00     0.200 A 
ATOM     94  F   UNL A   1      38.851  25.576  29.421  1.00  0.00    -0.200 F 
ATOM     95  F   UNL A   1      39.957  26.745  27.218  1.00  0.00    -0.200 F 
ENDBRANCH  62  85
ENDBRANCH  36  37
ENDBRANCH  28  31
ENDBRANCH  26  27
ENDBRANCH  25  26
ENDBRANCH  24  25
ENDBRANCH   1  24
TORSDOF 16
ENDMDL
