MODEL 1
REMARK VINA RESULT:     -13.1      0.000      0.000
REMARK SMILES O=C(NCCCCNC(=O)[C@H]1CC2(CCN(S(=O)(=O)N3CCOCC3)CC2)C[NH2+]1)c1ccc(-c2c3nc(c(-c4c(F)c(F)c(F)c(F)c4F)c4ccc([nH]4)c(-c4c(F)c(F)c(F)c(F)c4F)c4nc(c(-c5c(F)c(F)c(F)c(F)c5F)c5ccc2[nH]5)C=C4)C=C3)cc1
REMARK SMILES IDX 5 1 4 2 3 3 1 4 2 5 30 7 31 8 92 9 32 10 91 11 33 12 34 13
REMARK SMILES IDX 35 14 85 15 36 16 90 17 84 18 86 19 37 20 89 21 83 22 82 23
REMARK SMILES IDX 38 25 70 26 50 27 69 28 51 29 54 30 68 31 87 32 52 33 53 34
REMARK SMILES IDX 67 36 88 37 55 38 39 39 40 40 48 41 41 42 42 43 46 44 49 45
REMARK SMILES IDX 43 46 44 47 47 48 45 49 71 50 72 51 80 52 73 53 74 54 78 55
REMARK SMILES IDX 81 56 75 57 76 58 79 59 77 60 56 61 57 62 65 63 58 64 59 65
REMARK SMILES IDX 63 66 66 67 60 68 61 69 64 70 62 71 6 72 7 73 8 74 9 75
REMARK SMILES IDX 10 77 11 78 12 79 29 80 13 81 28 82 14 85 27 86 15 87 26 88
REMARK SMILES IDX 16 89 17 90 18 91 19 92 20 93 21 94 25 95 22 96 24 97 23 98
REMARK H PARENT 3 6 86 24 54 35 8 76 29 83 29 84
REMARK Flexibility Score: inf
ROOT
ATOM      1  C   UNL A   1      37.793  19.941  25.068  1.00  0.00     0.023 C 
ENDROOT
BRANCH   1   2
ATOM      2  C   UNL A   1      39.071  20.394  25.753  1.00  0.00     0.116 C 
BRANCH   2   3
ATOM      3  N   UNL A   1      40.069  19.339  25.858  1.00  0.00    -0.352 N 
ATOM      4  O   UNL A   1      42.166  18.500  26.018  1.00  0.00    -0.269 OA
ATOM      5  C   UNL A   1      41.418  19.468  26.087  1.00  0.00     0.251 C 
ATOM      6  H   UNL A   1      39.736  18.419  25.752  1.00  0.00     0.163 HD
BRANCH   5   7
ATOM      7  C   UNL A   1      41.957  20.809  26.391  1.00  0.00     0.039 A 
ATOM      8  C   UNL A   1      42.104  21.213  27.719  1.00  0.00     0.014 A 
ATOM      9  C   UNL A   1      42.254  21.686  25.345  1.00  0.00     0.014 A 
ATOM     10  C   UNL A   1      42.388  22.539  28.004  1.00  0.00     0.010 A 
ATOM     11  C   UNL A   1      42.654  22.991  25.637  1.00  0.00     0.010 A 
ATOM     12  C   UNL A   1      42.697  23.436  26.968  1.00  0.00    -0.014 A 
BRANCH  12  13
ATOM     13  C   UNL A   1      43.158  24.802  27.321  1.00  0.00     0.031 A 
ATOM     14  C   UNL A   1      44.565  25.251  27.058  1.00  0.00     0.074 A 
ATOM     15  C   UNL A   1      42.262  25.647  27.867  1.00  0.00     0.049 A 
ATOM     16  N   UNL A   1      45.115  26.415  27.305  1.00  0.00    -0.248 NA
ATOM     17  C   UNL A   1      45.478  24.275  26.448  1.00  0.00     0.031 C 
ATOM     18  C   UNL A   1      40.868  25.310  28.174  1.00  0.00     0.029 A 
ATOM     19  N   UNL A   1      42.374  26.959  28.244  1.00  0.00    -0.354 N 
ATOM     20  C   UNL A   1      46.438  26.307  26.897  1.00  0.00     0.074 A 
ATOM     21  C   UNL A   1      46.618  24.954  26.413  1.00  0.00     0.031 C 
ATOM     22  C   UNL A   1      40.244  26.398  28.643  1.00  0.00     0.029 A 
ATOM     23  C   UNL A   1      41.211  27.483  28.751  1.00  0.00     0.049 A 
ATOM     24  H   UNL A   1      43.208  27.476  28.160  1.00  0.00     0.167 HD
ATOM     25  C   UNL A   1      47.407  27.254  26.921  1.00  0.00     0.037 A 
ATOM     26  C   UNL A   1      40.954  28.694  29.274  1.00  0.00     0.037 A 
ATOM     27  C   UNL A   1      47.211  28.600  27.404  1.00  0.00     0.049 A 
ATOM     28  C   UNL A   1      42.061  29.705  29.330  1.00  0.00     0.074 A 
ATOM     29  C   UNL A   1      48.118  29.644  27.440  1.00  0.00     0.029 A 
ATOM     30  N   UNL A   1      46.027  29.084  27.947  1.00  0.00    -0.354 N 
ATOM     31  N   UNL A   1      43.296  29.604  28.905  1.00  0.00    -0.248 NA
ATOM     32  C   UNL A   1      41.738  31.000  29.943  1.00  0.00     0.031 C 
ATOM     33  C   UNL A   1      47.506  30.738  28.062  1.00  0.00     0.029 A 
ATOM     34  C   UNL A   1      46.193  30.401  28.350  1.00  0.00     0.049 A 
ATOM     35  H   UNL A   1      45.194  28.569  28.032  1.00  0.00     0.167 HD
ATOM     36  C   UNL A   1      43.893  30.826  29.176  1.00  0.00     0.074 A 
ATOM     37  C   UNL A   1      42.874  31.661  29.780  1.00  0.00     0.031 C 
ATOM     38  C   UNL A   1      45.170  31.221  28.948  1.00  0.00     0.037 A 
BRANCH  25  39
ATOM     39  C   UNL A   1      48.777  26.874  26.434  1.00  0.00     0.064 A 
ATOM     40  C   UNL A   1      49.719  26.261  27.273  1.00  0.00     0.173 A 
ATOM     41  C   UNL A   1      49.133  27.074  25.089  1.00  0.00     0.173 A 
ATOM     42  F   UNL A   1      49.436  26.052  28.568  1.00  0.00    -0.203 F 
ATOM     43  C   UNL A   1      50.973  25.886  26.793  1.00  0.00     0.198 A 
ATOM     44  C   UNL A   1      50.374  26.669  24.606  1.00  0.00     0.198 A 
ATOM     45  F   UNL A   1      48.269  27.648  24.239  1.00  0.00    -0.203 F 
ATOM     46  F   UNL A   1      51.872  25.342  27.625  1.00  0.00    -0.200 F 
ATOM     47  C   UNL A   1      51.296  26.082  25.459  1.00  0.00     0.200 A 
ATOM     48  F   UNL A   1      50.677  26.842  23.312  1.00  0.00    -0.200 F 
ATOM     49  F   UNL A   1      52.497  25.709  24.997  1.00  0.00    -0.200 F 
ENDBRANCH  25  39
BRANCH  26  50
ATOM     50  C   UNL A   1      39.599  29.000  29.801  1.00  0.00     0.064 A 
ATOM     51  C   UNL A   1      38.622  29.590  28.987  1.00  0.00     0.173 A 
ATOM     52  C   UNL A   1      39.251  28.708  31.129  1.00  0.00     0.173 A 
ATOM     53  F   UNL A   1      38.908  29.901  27.715  1.00  0.00    -0.203 F 
ATOM     54  C   UNL A   1      37.360  29.900  29.490  1.00  0.00     0.198 A 
ATOM     55  C   UNL A   1      37.978  28.982  31.619  1.00  0.00     0.198 A 
ATOM     56  F   UNL A   1      40.146  28.133  31.947  1.00  0.00    -0.203 F 
ATOM     57  F   UNL A   1      36.463  30.513  28.707  1.00  0.00    -0.200 F 
ATOM     58  C   UNL A   1      37.037  29.590  30.803  1.00  0.00     0.200 A 
ATOM     59  F   UNL A   1      37.664  28.660  32.881  1.00  0.00    -0.200 F 
ATOM     60  F   UNL A   1      35.821  29.884  31.283  1.00  0.00    -0.200 F 
ENDBRANCH  26  50
BRANCH  38  61
ATOM     61  C   UNL A   1      45.523  32.632  29.320  1.00  0.00     0.064 A 
ATOM     62  C   UNL A   1      46.060  32.956  30.575  1.00  0.00     0.173 A 
ATOM     63  C   UNL A   1      45.338  33.674  28.398  1.00  0.00     0.173 A 
ATOM     64  F   UNL A   1      46.240  32.000  31.500  1.00  0.00    -0.203 F 
ATOM     65  C   UNL A   1      46.365  34.274  30.906  1.00  0.00     0.198 A 
ATOM     66  C   UNL A   1      45.679  34.986  28.719  1.00  0.00     0.198 A 
ATOM     67  F   UNL A   1      44.833  33.420  27.182  1.00  0.00    -0.203 F 
ATOM     68  F   UNL A   1      46.817  34.567  32.133  1.00  0.00    -0.200 F 
ATOM     69  C   UNL A   1      46.182  35.285  29.975  1.00  0.00     0.200 A 
ATOM     70  F   UNL A   1      45.517  35.959  27.811  1.00  0.00    -0.200 F 
ATOM     71  F   UNL A   1      46.481  36.553  30.293  1.00  0.00    -0.200 F 
ENDBRANCH  38  61
ENDBRANCH  12  13
ENDBRANCH   5   7
ENDBRANCH   2   3
ENDBRANCH   1   2
BRANCH   1  72
ATOM     72  C   UNL A   1      36.563  20.765  25.430  1.00  0.00     0.023 C 
BRANCH  72  73
ATOM     73  C   UNL A   1      35.323  20.437  24.598  1.00  0.00     0.116 C 
BRANCH  73  74
ATOM     74  N   UNL A   1      34.424  19.535  25.289  1.00  0.00    -0.351 N 
ATOM     75  C   UNL A   1      33.062  19.463  25.256  1.00  0.00     0.278 C 
ATOM     76  H   UNL A   1      34.864  18.874  25.872  1.00  0.00     0.163 HD
ATOM     77  O   UNL A   1      32.524  18.575  25.924  1.00  0.00    -0.268 OA
BRANCH  75  78
ATOM     78  C   UNL A   1      32.207  20.455  24.453  1.00  0.00     0.273 C 
ATOM     79  C   UNL A   1      32.501  21.920  24.742  1.00  0.00     0.088 C 
ATOM     80  N   UNL A   1      32.412  20.310  23.000  1.00  0.00    -0.336 N 
ATOM     81  C   UNL A   1      32.296  22.656  23.395  1.00  0.00     0.028 C 
ATOM     82  C   UNL A   1      31.885  21.539  22.417  1.00  0.00     0.268 C 
ATOM     83  H   UNL A   1      31.903  19.499  22.647  1.00  0.00     0.346 HD
ATOM     84  H   UNL A   1      33.394  20.165  22.765  1.00  0.00     0.346 HD
ATOM     85  C   UNL A   1      33.614  23.320  22.943  1.00  0.00     0.030 C 
ATOM     86  C   UNL A   1      31.171  23.714  23.490  1.00  0.00     0.030 C 
ATOM     87  C   UNL A   1      33.915  24.557  23.768  1.00  0.00     0.104 C 
ATOM     88  C   UNL A   1      31.582  24.983  24.241  1.00  0.00     0.104 C 
ATOM     89  N   UNL A   1      32.836  25.555  23.676  1.00  0.00    -0.189 NA
BRANCH  89  90
ATOM     90  S   UNL A   1      32.626  26.458  22.255  1.00  0.00     0.282 S 
ATOM     91  O   UNL A   1      33.790  26.282  21.416  1.00  0.00    -0.195 OA
ATOM     92  O   UNL A   1      31.309  26.145  21.760  1.00  0.00    -0.195 OA
BRANCH  90  93
ATOM     93  N   UNL A   1      32.601  28.016  22.810  1.00  0.00    -0.184 NA
ATOM     94  C   UNL A   1      31.368  28.813  22.782  1.00  0.00     0.132 C 
ATOM     95  C   UNL A   1      33.682  28.622  23.605  1.00  0.00     0.132 C 
ATOM     96  C   UNL A   1      30.913  29.049  24.219  1.00  0.00     0.177 C 
ATOM     97  C   UNL A   1      33.188  29.070  24.990  1.00  0.00     0.177 C 
ATOM     98  O   UNL A   1      31.920  29.744  24.974  1.00  0.00    -0.379 OA
ENDBRANCH  90  93
ENDBRANCH  89  90
ENDBRANCH  75  78
ENDBRANCH  73  74
ENDBRANCH  72  73
ENDBRANCH   1  72
TORSDOF 13
ENDMDL
MODEL 2
REMARK VINA RESULT:     -13.0      5.891     11.610
REMARK SMILES O=C(NCCCCNC(=O)[C@H]1CC2(CCN(S(=O)(=O)N3CCOCC3)CC2)C[NH2+]1)c1ccc(-c2c3nc(c(-c4c(F)c(F)c(F)c(F)c4F)c4ccc([nH]4)c(-c4c(F)c(F)c(F)c(F)c4F)c4nc(c(-c5c(F)c(F)c(F)c(F)c5F)c5ccc2[nH]5)C=C4)C=C3)cc1
REMARK SMILES IDX 5 1 4 2 3 3 1 4 2 5 30 7 31 8 92 9 32 10 91 11 33 12 34 13
REMARK SMILES IDX 35 14 85 15 36 16 90 17 84 18 86 19 37 20 89 21 83 22 82 23
REMARK SMILES IDX 38 25 70 26 50 27 69 28 51 29 54 30 68 31 87 32 52 33 53 34
REMARK SMILES IDX 67 36 88 37 55 38 39 39 40 40 48 41 41 42 42 43 46 44 49 45
REMARK SMILES IDX 43 46 44 47 47 48 45 49 71 50 72 51 80 52 73 53 74 54 78 55
REMARK SMILES IDX 81 56 75 57 76 58 79 59 77 60 56 61 57 62 65 63 58 64 59 65
REMARK SMILES IDX 63 66 66 67 60 68 61 69 64 70 62 71 6 72 7 73 8 74 9 75
REMARK SMILES IDX 10 77 11 78 12 79 29 80 13 81 28 82 14 85 27 86 15 87 26 88
REMARK SMILES IDX 16 89 17 90 18 91 19 92 20 93 21 94 25 95 22 96 24 97 23 98
REMARK H PARENT 3 6 86 24 54 35 8 76 29 83 29 84
REMARK Flexibility Score: inf
ROOT
ATOM      1  C   UNL A   1      33.300  34.535  28.987  1.00  0.00     0.023 C 
ENDROOT
BRANCH   1   2
ATOM      2  C   UNL A   1      33.478  35.886  29.660  1.00  0.00     0.116 C 
BRANCH   2   3
ATOM      3  N   UNL A   1      32.511  36.127  30.721  1.00  0.00    -0.352 N 
ATOM      4  O   UNL A   1      31.610  35.863  32.781  1.00  0.00    -0.269 OA
ATOM      5  C   UNL A   1      32.561  35.699  32.027  1.00  0.00     0.251 C 
ATOM      6  H   UNL A   1      31.724  36.665  30.474  1.00  0.00     0.163 HD
BRANCH   5   7
ATOM      7  C   UNL A   1      33.778  35.007  32.495  1.00  0.00     0.039 A 
ATOM      8  C   UNL A   1      35.008  35.666  32.456  1.00  0.00     0.014 A 
ATOM      9  C   UNL A   1      33.698  33.678  32.915  1.00  0.00     0.014 A 
ATOM     10  C   UNL A   1      36.175  34.951  32.675  1.00  0.00     0.010 A 
ATOM     11  C   UNL A   1      34.867  32.991  33.248  1.00  0.00     0.010 A 
ATOM     12  C   UNL A   1      36.117  33.615  33.105  1.00  0.00    -0.014 A 
BRANCH  12  13
ATOM     13  C   UNL A   1      37.378  32.934  33.489  1.00  0.00     0.031 A 
ATOM     14  C   UNL A   1      38.068  33.228  34.788  1.00  0.00     0.074 A 
ATOM     15  C   UNL A   1      37.880  32.013  32.643  1.00  0.00     0.049 A 
ATOM     16  N   UNL A   1      39.173  32.711  35.268  1.00  0.00    -0.248 NA
ATOM     17  C   UNL A   1      37.451  34.235  35.663  1.00  0.00     0.031 C 
ATOM     18  C   UNL A   1      37.294  31.655  31.347  1.00  0.00     0.029 A 
ATOM     19  N   UNL A   1      38.978  31.200  32.744  1.00  0.00    -0.354 N 
ATOM     20  C   UNL A   1      39.392  33.338  36.487  1.00  0.00     0.074 A 
ATOM     21  C   UNL A   1      38.321  34.296  36.663  1.00  0.00     0.031 C 
ATOM     22  C   UNL A   1      38.007  30.663  30.800  1.00  0.00     0.029 A 
ATOM     23  C   UNL A   1      39.146  30.373  31.661  1.00  0.00     0.049 A 
ATOM     24  H   UNL A   1      39.588  31.208  33.517  1.00  0.00     0.167 HD
ATOM     25  C   UNL A   1      40.392  33.124  37.376  1.00  0.00     0.037 A 
ATOM     26  C   UNL A   1      40.124  29.497  31.374  1.00  0.00     0.037 A 
ATOM     27  C   UNL A   1      41.452  32.162  37.187  1.00  0.00     0.049 A 
ATOM     28  C   UNL A   1      41.244  29.320  32.357  1.00  0.00     0.074 A 
ATOM     29  C   UNL A   1      42.492  31.847  38.043  1.00  0.00     0.029 A 
ATOM     30  N   UNL A   1      41.611  31.369  36.058  1.00  0.00    -0.354 N 
ATOM     31  N   UNL A   1      41.418  29.889  33.525  1.00  0.00    -0.248 NA
ATOM     32  C   UNL A   1      42.306  28.378  31.981  1.00  0.00     0.031 C 
ATOM     33  C   UNL A   1      43.317  30.913  37.406  1.00  0.00     0.029 A 
ATOM     34  C   UNL A   1      42.751  30.589  36.183  1.00  0.00     0.049 A 
ATOM     35  H   UNL A   1      41.003  31.360  35.285  1.00  0.00     0.167 HD
ATOM     36  C   UNL A   1      42.594  29.360  34.034  1.00  0.00     0.074 A 
ATOM     37  C   UNL A   1      43.077  28.404  33.058  1.00  0.00     0.031 C 
ATOM     38  C   UNL A   1      43.219  29.641  35.204  1.00  0.00     0.037 A 
BRANCH  25  39
ATOM     39  C   UNL A   1      40.412  33.957  38.628  1.00  0.00     0.064 A 
ATOM     40  C   UNL A   1      41.111  35.171  38.700  1.00  0.00     0.173 A 
ATOM     41  C   UNL A   1      39.673  33.561  39.755  1.00  0.00     0.173 A 
ATOM     42  F   UNL A   1      41.840  35.594  37.657  1.00  0.00    -0.203 F 
ATOM     43  C   UNL A   1      41.090  35.944  39.860  1.00  0.00     0.198 A 
ATOM     44  C   UNL A   1      39.627  34.352  40.900  1.00  0.00     0.198 A 
ATOM     45  F   UNL A   1      38.978  32.413  39.740  1.00  0.00    -0.203 F 
ATOM     46  F   UNL A   1      41.801  37.078  39.920  1.00  0.00    -0.200 F 
ATOM     47  C   UNL A   1      40.341  35.539  40.955  1.00  0.00     0.200 A 
ATOM     48  F   UNL A   1      38.889  33.967  41.949  1.00  0.00    -0.200 F 
ATOM     49  F   UNL A   1      40.312  36.290  42.064  1.00  0.00    -0.200 F 
ENDBRANCH  25  39
BRANCH  26  50
ATOM     50  C   UNL A   1      40.093  28.745  30.093  1.00  0.00     0.064 A 
ATOM     51  C   UNL A   1      39.461  27.497  30.002  1.00  0.00     0.173 A 
ATOM     52  C   UNL A   1      40.693  29.258  28.933  1.00  0.00     0.173 A 
ATOM     53  F   UNL A   1      38.885  26.958  31.086  1.00  0.00    -0.203 F 
ATOM     54  C   UNL A   1      39.454  26.781  28.807  1.00  0.00     0.198 A 
ATOM     55  C   UNL A   1      40.651  28.560  27.730  1.00  0.00     0.198 A 
ATOM     56  F   UNL A   1      41.302  30.453  28.963  1.00  0.00    -0.203 F 
ATOM     57  F   UNL A   1      38.890  25.566  28.761  1.00  0.00    -0.200 F 
ATOM     58  C   UNL A   1      40.043  27.316  27.671  1.00  0.00     0.200 A 
ATOM     59  F   UNL A   1      41.202  29.091  26.630  1.00  0.00    -0.200 F 
ATOM     60  F   UNL A   1      40.031  26.628  26.521  1.00  0.00    -0.200 F 
ENDBRANCH  26  50
BRANCH  38  61
ATOM     61  C   UNL A   1      44.476  28.876  35.506  1.00  0.00     0.064 A 
ATOM     62  C   UNL A   1      44.451  27.653  36.194  1.00  0.00     0.173 A 
ATOM     63  C   UNL A   1      45.722  29.365  35.084  1.00  0.00     0.173 A 
ATOM     64  F   UNL A   1      43.288  27.149  36.635  1.00  0.00    -0.203 F 
ATOM     65  C   UNL A   1      45.630  26.968  36.478  1.00  0.00     0.198 A 
ATOM     66  C   UNL A   1      46.894  28.659  35.337  1.00  0.00     0.198 A 
ATOM     67  F   UNL A   1      45.802  30.527  34.418  1.00  0.00    -0.203 F 
ATOM     68  F   UNL A   1      45.587  25.834  37.192  1.00  0.00    -0.200 F 
ATOM     69  C   UNL A   1      46.848  27.467  36.043  1.00  0.00     0.200 A 
ATOM     70  F   UNL A   1      48.068  29.136  34.901  1.00  0.00    -0.200 F 
ATOM     71  F   UNL A   1      47.981  26.803  36.313  1.00  0.00    -0.200 F 
ENDBRANCH  38  61
ENDBRANCH  12  13
ENDBRANCH   5   7
ENDBRANCH   2   3
ENDBRANCH   1   2
BRANCH   1  72
ATOM     72  C   UNL A   1      34.470  33.579  29.186  1.00  0.00     0.023 C 
BRANCH  72  73
ATOM     73  C   UNL A   1      34.865  32.804  27.929  1.00  0.00     0.116 C 
BRANCH  73  74
ATOM     74  N   UNL A   1      35.492  31.536  28.243  1.00  0.00    -0.351 N 
ATOM     75  C   UNL A   1      35.195  30.280  27.802  1.00  0.00     0.278 C 
ATOM     76  H   UNL A   1      36.250  31.590  28.871  1.00  0.00     0.163 HD
ATOM     77  O   UNL A   1      35.907  29.354  28.202  1.00  0.00    -0.268 OA
BRANCH  75  78
ATOM     78  C   UNL A   1      34.006  29.997  26.870  1.00  0.00     0.273 C 
ATOM     79  C   UNL A   1      34.118  28.702  26.079  1.00  0.00     0.088 C 
ATOM     80  N   UNL A   1      32.740  29.876  27.615  1.00  0.00    -0.336 N 
ATOM     81  C   UNL A   1      32.670  28.168  25.955  1.00  0.00     0.028 C 
ATOM     82  C   UNL A   1      31.819  29.219  26.693  1.00  0.00     0.268 C 
ATOM     83  H   UNL A   1      32.389  30.798  27.875  1.00  0.00     0.346 HD
ATOM     84  H   UNL A   1      32.853  29.349  28.480  1.00  0.00     0.346 HD
ATOM     85  C   UNL A   1      32.549  26.790  26.640  1.00  0.00     0.030 C 
ATOM     86  C   UNL A   1      32.223  28.070  24.477  1.00  0.00     0.030 C 
ATOM     87  C   UNL A   1      33.202  25.705  25.805  1.00  0.00     0.104 C 
ATOM     88  C   UNL A   1      32.836  26.885  23.726  1.00  0.00     0.104 C 
ATOM     89  N   UNL A   1      32.606  25.611  24.461  1.00  0.00    -0.189 NA
BRANCH  89  90
ATOM     90  S   UNL A   1      31.058  24.945  24.258  1.00  0.00     0.282 S 
ATOM     91  O   UNL A   1      30.225  25.357  25.365  1.00  0.00    -0.195 OA
ATOM     92  O   UNL A   1      30.666  25.225  22.899  1.00  0.00    -0.195 OA
BRANCH  90  93
ATOM     93  N   UNL A   1      31.339  23.320  24.379  1.00  0.00    -0.184 NA
ATOM     94  C   UNL A   1      31.982  22.576  23.289  1.00  0.00     0.132 C 
ATOM     95  C   UNL A   1      31.237  22.560  25.637  1.00  0.00     0.132 C 
ATOM     96  C   UNL A   1      33.362  22.125  23.759  1.00  0.00     0.177 C 
ATOM     97  C   UNL A   1      32.577  21.910  26.019  1.00  0.00     0.177 C 
ATOM     98  O   UNL A   1      33.264  21.287  24.923  1.00  0.00    -0.379 OA
ENDBRANCH  90  93
ENDBRANCH  89  90
ENDBRANCH  75  78
ENDBRANCH  73  74
ENDBRANCH  72  73
ENDBRANCH   1  72
TORSDOF 13
ENDMDL
MODEL 3
REMARK VINA RESULT:     -13.0      5.038     10.914
REMARK SMILES O=C(NCCCCNC(=O)[C@H]1CC2(CCN(S(=O)(=O)N3CCOCC3)CC2)C[NH2+]1)c1ccc(-c2c3nc(c(-c4c(F)c(F)c(F)c(F)c4F)c4ccc([nH]4)c(-c4c(F)c(F)c(F)c(F)c4F)c4nc(c(-c5c(F)c(F)c(F)c(F)c5F)c5ccc2[nH]5)C=C4)C=C3)cc1
REMARK SMILES IDX 5 1 4 2 3 3 1 4 2 5 30 7 31 8 92 9 32 10 91 11 33 12 34 13
REMARK SMILES IDX 35 14 85 15 36 16 90 17 84 18 86 19 37 20 89 21 83 22 82 23
REMARK SMILES IDX 38 25 70 26 50 27 69 28 51 29 54 30 68 31 87 32 52 33 53 34
REMARK SMILES IDX 67 36 88 37 55 38 39 39 40 40 48 41 41 42 42 43 46 44 49 45
REMARK SMILES IDX 43 46 44 47 47 48 45 49 71 50 72 51 80 52 73 53 74 54 78 55
REMARK SMILES IDX 81 56 75 57 76 58 79 59 77 60 56 61 57 62 65 63 58 64 59 65
REMARK SMILES IDX 63 66 66 67 60 68 61 69 64 70 62 71 6 72 7 73 8 74 9 75
REMARK SMILES IDX 10 77 11 78 12 79 29 80 13 81 28 82 14 85 27 86 15 87 26 88
REMARK SMILES IDX 16 89 17 90 18 91 19 92 20 93 21 94 25 95 22 96 24 97 23 98
REMARK H PARENT 3 6 86 24 54 35 8 76 29 83 29 84
REMARK Flexibility Score: inf
ROOT
ATOM      1  C   UNL A   1      31.403  31.938  26.856  1.00  0.00     0.023 C 
ENDROOT
BRANCH   1   2
ATOM      2  C   UNL A   1      32.635  32.826  26.877  1.00  0.00     0.116 C 
BRANCH   2   3
ATOM      3  N   UNL A   1      32.394  34.122  27.496  1.00  0.00    -0.352 N 
ATOM      4  O   UNL A   1      32.651  35.729  29.070  1.00  0.00    -0.269 OA
ATOM      5  C   UNL A   1      33.047  34.684  28.568  1.00  0.00     0.251 C 
ATOM      6  H   UNL A   1      31.677  34.664  27.096  1.00  0.00     0.163 HD
BRANCH   5   7
ATOM      7  C   UNL A   1      34.220  33.982  29.125  1.00  0.00     0.039 A 
ATOM      8  C   UNL A   1      34.037  32.946  30.042  1.00  0.00     0.014 A 
ATOM      9  C   UNL A   1      35.505  34.404  28.778  1.00  0.00     0.014 A 
ATOM     10  C   UNL A   1      35.128  32.444  30.735  1.00  0.00     0.010 A 
ATOM     11  C   UNL A   1      36.611  33.815  29.394  1.00  0.00     0.010 A 
ATOM     12  C   UNL A   1      36.429  32.849  30.397  1.00  0.00    -0.014 A 
BRANCH  12  13
ATOM     13  C   UNL A   1      37.579  32.169  31.044  1.00  0.00     0.031 A 
ATOM     14  C   UNL A   1      38.024  32.523  32.432  1.00  0.00     0.074 A 
ATOM     15  C   UNL A   1      38.203  31.194  30.355  1.00  0.00     0.049 A 
ATOM     16  N   UNL A   1      39.007  32.015  33.135  1.00  0.00    -0.248 NA
ATOM     17  C   UNL A   1      37.283  33.588  33.123  1.00  0.00     0.031 C 
ATOM     18  C   UNL A   1      37.858  30.775  28.993  1.00  0.00     0.029 A 
ATOM     19  N   UNL A   1      39.241  30.370  30.700  1.00  0.00    -0.354 N 
ATOM     20  C   UNL A   1      39.013  32.705  34.340  1.00  0.00     0.074 A 
ATOM     21  C   UNL A   1      37.954  33.690  34.264  1.00  0.00     0.031 C 
ATOM     22  C   UNL A   1      38.632  29.742  28.639  1.00  0.00     0.029 A 
ATOM     23  C   UNL A   1      39.584  29.481  29.711  1.00  0.00     0.049 A 
ATOM     24  H   UNL A   1      39.697  30.410  31.571  1.00  0.00     0.167 HD
ATOM     25  C   UNL A   1      39.825  32.524  35.409  1.00  0.00     0.037 A 
ATOM     26  C   UNL A   1      40.575  28.574  29.657  1.00  0.00     0.037 A 
ATOM     27  C   UNL A   1      40.875  31.535  35.471  1.00  0.00     0.049 A 
ATOM     28  C   UNL A   1      41.487  28.432  30.840  1.00  0.00     0.074 A 
ATOM     29  C   UNL A   1      41.730  31.251  36.520  1.00  0.00     0.029 A 
ATOM     30  N   UNL A   1      41.218  30.677  34.434  1.00  0.00    -0.354 N 
ATOM     31  N   UNL A   1      41.458  29.062  31.988  1.00  0.00    -0.248 NA
ATOM     32  C   UNL A   1      42.575  27.454  30.717  1.00  0.00     0.031 C 
ATOM     33  C   UNL A   1      42.632  30.268  36.098  1.00  0.00     0.029 A 
ATOM     34  C   UNL A   1      42.295  29.887  34.809  1.00  0.00     0.049 A 
ATOM     35  H   UNL A   1      40.764  30.636  33.562  1.00  0.00     0.167 HD
ATOM     36  C   UNL A   1      42.504  28.542  32.735  1.00  0.00     0.074 A 
ATOM     37  C   UNL A   1      43.134  27.526  31.916  1.00  0.00     0.031 C 
ATOM     38  C   UNL A   1      42.910  28.878  33.984  1.00  0.00     0.037 A 
BRANCH  25  39
ATOM     39  C   UNL A   1      39.636  33.424  36.599  1.00  0.00     0.064 A 
ATOM     40  C   UNL A   1      40.264  34.675  36.690  1.00  0.00     0.173 A 
ATOM     41  C   UNL A   1      38.765  33.054  37.637  1.00  0.00     0.173 A 
ATOM     42  F   UNL A   1      41.112  35.077  35.731  1.00  0.00    -0.203 F 
ATOM     43  C   UNL A   1      40.049  35.510  37.786  1.00  0.00     0.198 A 
ATOM     44  C   UNL A   1      38.528  33.904  38.715  1.00  0.00     0.198 A 
ATOM     45  F   UNL A   1      38.130  31.873  37.599  1.00  0.00    -0.203 F 
ATOM     46  F   UNL A   1      40.696  36.680  37.871  1.00  0.00    -0.200 F 
ATOM     47  C   UNL A   1      39.175  35.127  38.792  1.00  0.00     0.200 A 
ATOM     48  F   UNL A   1      37.669  33.540  39.676  1.00  0.00    -0.200 F 
ATOM     49  F   UNL A   1      38.960  35.936  39.838  1.00  0.00    -0.200 F 
ENDBRANCH  25  39
BRANCH  26  50
ATOM     50  C   UNL A   1      40.760  27.752  28.434  1.00  0.00     0.064 A 
ATOM     51  C   UNL A   1      41.540  28.211  27.364  1.00  0.00     0.173 A 
ATOM     52  C   UNL A   1      40.161  26.488  28.309  1.00  0.00     0.173 A 
ATOM     53  F   UNL A   1      42.122  29.417  27.430  1.00  0.00    -0.203 F 
ATOM     54  C   UNL A   1      41.692  27.450  26.207  1.00  0.00     0.198 A 
ATOM     55  C   UNL A   1      40.345  25.712  27.168  1.00  0.00     0.198 A 
ATOM     56  F   UNL A   1      39.413  25.997  29.308  1.00  0.00    -0.203 F 
ATOM     57  F   UNL A   1      42.398  27.937  25.178  1.00  0.00    -0.200 F 
ATOM     58  C   UNL A   1      41.100  26.199  26.113  1.00  0.00     0.200 A 
ATOM     59  F   UNL A   1      39.790  24.495  27.092  1.00  0.00    -0.200 F 
ATOM     60  F   UNL A   1      41.252  25.467  25.001  1.00  0.00    -0.200 F 
ENDBRANCH  26  50
BRANCH  38  61
ATOM     61  C   UNL A   1      44.067  28.109  34.554  1.00  0.00     0.064 A 
ATOM     62  C   UNL A   1      45.391  28.558  34.425  1.00  0.00     0.173 A 
ATOM     63  C   UNL A   1      43.847  26.914  35.254  1.00  0.00     0.173 A 
ATOM     64  F   UNL A   1      45.659  29.686  33.749  1.00  0.00    -0.203 F 
ATOM     65  C   UNL A   1      46.451  27.821  34.947  1.00  0.00     0.198 A 
ATOM     66  C   UNL A   1      44.906  26.199  35.807  1.00  0.00     0.198 A 
ATOM     67  F   UNL A   1      42.601  26.441  35.411  1.00  0.00    -0.203 F 
ATOM     68  F   UNL A   1      47.711  28.238  34.757  1.00  0.00    -0.200 F 
ATOM     69  C   UNL A   1      46.207  26.648  35.643  1.00  0.00     0.200 A 
ATOM     70  F   UNL A   1      44.666  25.073  36.494  1.00  0.00    -0.200 F 
ATOM     71  F   UNL A   1      47.229  25.942  36.149  1.00  0.00    -0.200 F 
ENDBRANCH  38  61
ENDBRANCH  12  13
ENDBRANCH   5   7
ENDBRANCH   2   3
ENDBRANCH   1   2
BRANCH   1  72
ATOM     72  C   UNL A   1      31.705  30.452  26.700  1.00  0.00     0.023 C 
BRANCH  72  73
ATOM     73  C   UNL A   1      32.379  30.086  25.378  1.00  0.00     0.116 C 
BRANCH  73  74
ATOM     74  N   UNL A   1      31.496  29.344  24.501  1.00  0.00    -0.351 N 
ATOM     75  C   UNL A   1      31.292  27.999  24.398  1.00  0.00     0.278 C 
ATOM     76  H   UNL A   1      30.961  29.896  23.884  1.00  0.00     0.163 HD
ATOM     77  O   UNL A   1      30.453  27.612  23.580  1.00  0.00    -0.268 OA
BRANCH  75  78
ATOM     78  C   UNL A   1      32.086  26.983  25.235  1.00  0.00     0.273 C 
ATOM     79  C   UNL A   1      31.538  25.564  25.192  1.00  0.00     0.088 C 
ATOM     80  N   UNL A   1      33.481  26.862  24.775  1.00  0.00    -0.336 N 
ATOM     81  C   UNL A   1      32.778  24.640  25.268  1.00  0.00     0.028 C 
ATOM     82  C   UNL A   1      33.967  25.616  25.358  1.00  0.00     0.268 C 
ATOM     83  H   UNL A   1      34.036  27.653  25.105  1.00  0.00     0.346 HD
ATOM     84  H   UNL A   1      33.551  26.860  23.758  1.00  0.00     0.346 HD
ATOM     85  C   UNL A   1      32.878  23.774  23.995  1.00  0.00     0.030 C 
ATOM     86  C   UNL A   1      32.740  23.739  26.525  1.00  0.00     0.030 C 
ATOM     87  C   UNL A   1      31.841  22.667  24.004  1.00  0.00     0.104 C 
ATOM     88  C   UNL A   1      31.750  22.576  26.418  1.00  0.00     0.104 C 
ATOM     89  N   UNL A   1      31.985  21.788  25.177  1.00  0.00    -0.189 NA
BRANCH  89  90
ATOM     90  S   UNL A   1      33.274  20.688  25.267  1.00  0.00     0.282 S 
ATOM     91  O   UNL A   1      34.246  21.025  24.252  1.00  0.00    -0.195 OA
ATOM     92  O   UNL A   1      33.656  20.618  26.656  1.00  0.00    -0.195 OA
BRANCH  90  93
ATOM     93  N   UNL A   1      32.560  19.252  24.866  1.00  0.00    -0.184 NA
ATOM     94  C   UNL A   1      32.153  18.964  23.485  1.00  0.00     0.132 C 
ATOM     95  C   UNL A   1      32.528  18.075  25.751  1.00  0.00     0.132 C 
ATOM     96  C   UNL A   1      33.046  17.854  22.938  1.00  0.00     0.177 C 
ATOM     97  C   UNL A   1      33.241  16.868  25.120  1.00  0.00     0.177 C 
ATOM     98  O   UNL A   1      32.934  16.661  23.733  1.00  0.00    -0.379 OA
ENDBRANCH  90  93
ENDBRANCH  89  90
ENDBRANCH  75  78
ENDBRANCH  73  74
ENDBRANCH  72  73
ENDBRANCH   1  72
TORSDOF 13
ENDMDL
