MODEL 1
REMARK VINA RESULT:     -12.3      0.000      0.000
REMARK SMILES CC(C)(C[S@@](=O)c1ccc(C(C)(C)C)cc1)C(=O)NCCCCNC(=O)c1ccc(-c2c3nc(c(-c4c(F)c(F)c(F)c(F)c4F)c4ccc([nH]4)c(-c4c(F)c(F)c(F)c(F)c4F)c4nc(c(-c5c(F)c(F)c(F)c(F)c5F)c5ccc2[nH]5)C=C4)C=C3)cc1
REMARK SMILES IDX 20 1 19 2 17 3 18 4 2 6 1 7 3 8 4 9 5 10 6 11 7 12 8 13
REMARK SMILES IDX 16 14 9 15 15 16 10 17 11 18 12 19 13 20 14 21 21 22 22 23
REMARK SMILES IDX 23 24 24 25 25 26 26 28 27 29 28 30 89 31 29 32 88 33 30 34
REMARK SMILES IDX 31 35 32 36 82 37 33 38 87 39 81 40 83 41 34 42 86 43 80 44
REMARK SMILES IDX 79 45 35 47 67 48 47 49 66 50 48 51 51 52 65 53 84 54 49 55
REMARK SMILES IDX 50 56 64 58 85 59 52 60 36 61 37 62 45 63 38 64 39 65 43 66
REMARK SMILES IDX 46 67 40 68 41 69 44 70 42 71 68 72 69 73 77 74 70 75 71 76
REMARK SMILES IDX 75 77 78 78 72 79 73 80 76 81 74 82 53 83 54 84 62 85 55 86
REMARK SMILES IDX 56 87 60 88 63 89 57 90 58 91 61 92 59 93
REMARK H PARENT 19 5 24 27 83 46 51 57
REMARK Flexibility Score: inf
ROOT
ATOM      1  C   UNL A   1      32.265  30.036  25.434  1.00  0.00     0.116 C 
ENDROOT
BRANCH   1   2
ATOM      2  N   UNL A   1      31.126  29.976  24.538  1.00  0.00    -0.356 N 
ATOM      3  C   UNL A   1      30.523  28.957  23.874  1.00  0.00     0.226 C 
ATOM      4  O   UNL A   1      29.565  29.278  23.162  1.00  0.00    -0.274 OA
ATOM      5  H   UNL A   1      30.706  30.852  24.377  1.00  0.00     0.163 HD
BRANCH   3   6
ATOM      6  C   UNL A   1      30.984  27.493  23.977  1.00  0.00     0.055 C 
ATOM      7  C   UNL A   1      29.929  26.590  23.292  1.00  0.00     0.022 C 
ATOM      8  C   UNL A   1      31.000  27.041  25.454  1.00  0.00     0.022 C 
BRANCH   6   9
ATOM      9  C   UNL A   1      32.367  27.262  23.342  1.00  0.00     0.126 C 
BRANCH   9  10
ATOM     10  S   UNL A   1      32.448  25.956  22.065  1.00  0.00     0.054 S 
ATOM     11  O   UNL A   1      33.650  26.268  21.222  1.00  0.00    -0.254 OA
BRANCH  10  12
ATOM     12  C   UNL A   1      32.939  24.536  23.057  1.00  0.00     0.039 A 
ATOM     13  C   UNL A   1      32.542  23.236  22.748  1.00  0.00     0.018 A 
ATOM     14  C   UNL A   1      33.749  24.748  24.175  1.00  0.00     0.018 A 
ATOM     15  C   UNL A   1      33.019  22.157  23.497  1.00  0.00     0.005 A 
ATOM     16  C   UNL A   1      34.200  23.667  24.943  1.00  0.00     0.005 A 
ATOM     17  C   UNL A   1      33.859  22.346  24.612  1.00  0.00    -0.043 A 
BRANCH  17  18
ATOM     18  C   UNL A   1      34.369  21.130  25.404  1.00  0.00    -0.013 C 
ATOM     19  C   UNL A   1      34.407  21.458  26.913  1.00  0.00     0.016 C 
ATOM     20  C   UNL A   1      33.420  19.937  25.166  1.00  0.00     0.016 C 
ATOM     21  C   UNL A   1      35.791  20.678  25.004  1.00  0.00     0.016 C 
ENDBRANCH  17  18
ENDBRANCH  10  12
ENDBRANCH   9  10
ENDBRANCH   6   9
ENDBRANCH   3   6
ENDBRANCH   1   2
BRANCH   1  22
ATOM     22  C   UNL A   1      31.870  30.501  26.833  1.00  0.00     0.023 C 
BRANCH  22  23
ATOM     23  C   UNL A   1      31.586  31.998  26.958  1.00  0.00     0.023 C 
BRANCH  23  24
ATOM     24  C   UNL A   1      32.806  32.871  27.226  1.00  0.00     0.116 C 
BRANCH  24  25
ATOM     25  N   UNL A   1      32.465  34.229  27.627  1.00  0.00    -0.352 N 
ATOM     26  C   UNL A   1      33.007  34.996  28.628  1.00  0.00     0.251 C 
ATOM     27  H   UNL A   1      31.747  34.656  27.106  1.00  0.00     0.163 HD
ATOM     28  O   UNL A   1      32.523  36.090  28.903  1.00  0.00    -0.269 OA
BRANCH  26  29
ATOM     29  C   UNL A   1      34.156  34.481  29.400  1.00  0.00     0.039 A 
ATOM     30  C   UNL A   1      33.910  33.740  30.560  1.00  0.00     0.014 A 
ATOM     31  C   UNL A   1      35.465  34.703  28.967  1.00  0.00     0.014 A 
ATOM     32  C   UNL A   1      34.980  33.162  31.247  1.00  0.00     0.010 A 
ATOM     33  C   UNL A   1      36.520  34.065  29.611  1.00  0.00     0.010 A 
ATOM     34  C   UNL A   1      36.289  33.289  30.758  1.00  0.00    -0.014 A 
BRANCH  34  35
ATOM     35  C   UNL A   1      37.432  32.626  31.433  1.00  0.00     0.031 A 
ATOM     36  C   UNL A   1      38.133  31.476  30.765  1.00  0.00     0.074 A 
ATOM     37  C   UNL A   1      37.792  33.011  32.671  1.00  0.00     0.049 A 
ATOM     38  N   UNL A   1      39.096  30.714  31.221  1.00  0.00    -0.248 NA
ATOM     39  C   UNL A   1      37.671  31.115  29.415  1.00  0.00     0.031 C 
ATOM     40  C   UNL A   1      37.158  34.080  33.444  1.00  0.00     0.029 A 
ATOM     41  N   UNL A   1      38.774  32.537  33.506  1.00  0.00    -0.354 N 
ATOM     42  C   UNL A   1      39.340  29.778  30.225  1.00  0.00     0.074 A 
ATOM     43  C   UNL A   1      38.390  30.032  29.164  1.00  0.00     0.031 C 
ATOM     44  C   UNL A   1      37.780  34.195  34.628  1.00  0.00     0.029 A 
ATOM     45  C   UNL A   1      38.830  33.185  34.716  1.00  0.00     0.049 A 
ATOM     46  H   UNL A   1      39.382  31.802  33.260  1.00  0.00     0.167 HD
ATOM     47  C   UNL A   1      40.288  28.813  30.187  1.00  0.00     0.037 A 
ATOM     48  C   UNL A   1      39.633  32.981  35.778  1.00  0.00     0.037 A 
ATOM     49  C   UNL A   1      41.251  28.583  31.232  1.00  0.00     0.049 A 
ATOM     50  C   UNL A   1      40.677  31.898  35.711  1.00  0.00     0.074 A 
ATOM     51  C   UNL A   1      42.290  27.670  31.263  1.00  0.00     0.029 A 
ATOM     52  N   UNL A   1      41.290  29.276  32.433  1.00  0.00    -0.354 N 
ATOM     53  N   UNL A   1      40.945  31.066  34.735  1.00  0.00    -0.248 NA
ATOM     54  C   UNL A   1      41.536  31.734  36.891  1.00  0.00     0.031 C 
ATOM     55  C   UNL A   1      42.931  27.779  32.502  1.00  0.00     0.029 A 
ATOM     56  C   UNL A   1      42.324  28.796  33.221  1.00  0.00     0.049 A 
ATOM     57  H   UNL A   1      40.676  30.001  32.689  1.00  0.00     0.167 HD
ATOM     58  C   UNL A   1      42.019  30.300  35.170  1.00  0.00     0.074 A 
ATOM     59  C   UNL A   1      42.363  30.778  36.493  1.00  0.00     0.031 C 
ATOM     60  C   UNL A   1      42.661  29.292  34.532  1.00  0.00     0.037 A 
BRANCH  47  61
ATOM     61  C   UNL A   1      40.336  27.933  28.971  1.00  0.00     0.064 A 
ATOM     62  C   UNL A   1      39.619  26.728  28.907  1.00  0.00     0.173 A 
ATOM     63  C   UNL A   1      41.078  28.315  27.844  1.00  0.00     0.173 A 
ATOM     64  F   UNL A   1      38.904  26.311  29.962  1.00  0.00    -0.203 F 
ATOM     65  C   UNL A   1      39.669  25.924  27.771  1.00  0.00     0.198 A 
ATOM     66  C   UNL A   1      41.101  27.524  26.698  1.00  0.00     0.198 A 
ATOM     67  F   UNL A   1      41.778  29.460  27.850  1.00  0.00    -0.203 F 
ATOM     68  F   UNL A   1      39.018  24.752  27.754  1.00  0.00    -0.200 F 
ATOM     69  C   UNL A   1      40.403  26.326  26.666  1.00  0.00     0.200 A 
ATOM     70  F   UNL A   1      41.800  27.920  25.626  1.00  0.00    -0.200 F 
ATOM     71  F   UNL A   1      40.444  25.554  25.571  1.00  0.00    -0.200 F 
ENDBRANCH  47  61
BRANCH  48  72
ATOM     72  C   UNL A   1      39.500  33.834  36.988  1.00  0.00     0.064 A 
ATOM     73  C   UNL A   1      40.181  35.057  37.083  1.00  0.00     0.173 A 
ATOM     74  C   UNL A   1      38.704  33.445  38.073  1.00  0.00     0.173 A 
ATOM     75  F   UNL A   1      40.973  35.461  36.079  1.00  0.00    -0.203 F 
ATOM     76  C   UNL A   1      40.090  35.844  38.228  1.00  0.00     0.198 A 
ATOM     77  C   UNL A   1      38.590  34.248  39.208  1.00  0.00     0.198 A 
ATOM     78  F   UNL A   1      38.028  32.288  38.031  1.00  0.00    -0.203 F 
ATOM     79  F   UNL A   1      40.792  36.982  38.313  1.00  0.00    -0.200 F 
ATOM     80  C   UNL A   1      39.291  35.442  39.288  1.00  0.00     0.200 A 
ATOM     81  F   UNL A   1      37.806  33.862  40.223  1.00  0.00    -0.200 F 
ATOM     82  F   UNL A   1      39.203  36.200  40.389  1.00  0.00    -0.200 F 
ENDBRANCH  48  72
BRANCH  60  83
ATOM     83  C   UNL A   1      43.828  28.662  35.237  1.00  0.00     0.064 A 
ATOM     84  C   UNL A   1      43.674  27.533  36.052  1.00  0.00     0.173 A 
ATOM     85  C   UNL A   1      45.122  29.173  35.058  1.00  0.00     0.173 A 
ATOM     86  F   UNL A   1      42.454  27.016  36.267  1.00  0.00    -0.203 F 
ATOM     87  C   UNL A   1      44.770  26.952  36.684  1.00  0.00     0.198 A 
ATOM     88  C   UNL A   1      46.220  28.571  35.665  1.00  0.00     0.198 A 
ATOM     89  F   UNL A   1      45.325  30.248  34.281  1.00  0.00    -0.203 F 
ATOM     90  F   UNL A   1      44.594  25.901  37.496  1.00  0.00    -0.200 F 
ATOM     91  C   UNL A   1      46.043  27.466  36.483  1.00  0.00     0.200 A 
ATOM     92  F   UNL A   1      47.450  29.061  35.459  1.00  0.00    -0.200 F 
ATOM     93  F   UNL A   1      47.098  26.900  37.085  1.00  0.00    -0.200 F 
ENDBRANCH  60  83
ENDBRANCH  34  35
ENDBRANCH  26  29
ENDBRANCH  24  25
ENDBRANCH  23  24
ENDBRANCH  22  23
ENDBRANCH   1  22
TORSDOF 15
ENDMDL
MODEL 2
REMARK VINA RESULT:     -12.2      2.114      8.343
REMARK SMILES CC(C)(C[S@@](=O)c1ccc(C(C)(C)C)cc1)C(=O)NCCCCNC(=O)c1ccc(-c2c3nc(c(-c4c(F)c(F)c(F)c(F)c4F)c4ccc([nH]4)c(-c4c(F)c(F)c(F)c(F)c4F)c4nc(c(-c5c(F)c(F)c(F)c(F)c5F)c5ccc2[nH]5)C=C4)C=C3)cc1
REMARK SMILES IDX 20 1 19 2 17 3 18 4 2 6 1 7 3 8 4 9 5 10 6 11 7 12 8 13
REMARK SMILES IDX 16 14 9 15 15 16 10 17 11 18 12 19 13 20 14 21 21 22 22 23
REMARK SMILES IDX 23 24 24 25 25 26 26 28 27 29 28 30 89 31 29 32 88 33 30 34
REMARK SMILES IDX 31 35 32 36 82 37 33 38 87 39 81 40 83 41 34 42 86 43 80 44
REMARK SMILES IDX 79 45 35 47 67 48 47 49 66 50 48 51 51 52 65 53 84 54 49 55
REMARK SMILES IDX 50 56 64 58 85 59 52 60 36 61 37 62 45 63 38 64 39 65 43 66
REMARK SMILES IDX 46 67 40 68 41 69 44 70 42 71 68 72 69 73 77 74 70 75 71 76
REMARK SMILES IDX 75 77 78 78 72 79 73 80 76 81 74 82 53 83 54 84 62 85 55 86
REMARK SMILES IDX 56 87 60 88 63 89 57 90 58 91 61 92 59 93
REMARK H PARENT 19 5 24 27 83 46 51 57
REMARK Flexibility Score: inf
ROOT
ATOM      1  C   UNL A   1      32.361  26.808  26.728  1.00  0.00     0.116 C 
ENDROOT
BRANCH   1   2
ATOM      2  N   UNL A   1      31.614  25.571  26.854  1.00  0.00    -0.356 N 
ATOM      3  C   UNL A   1      31.734  24.352  26.267  1.00  0.00     0.226 C 
ATOM      4  O   UNL A   1      30.891  23.514  26.602  1.00  0.00    -0.274 OA
ATOM      5  H   UNL A   1      30.867  25.626  27.493  1.00  0.00     0.163 HD
BRANCH   3   6
ATOM      6  C   UNL A   1      32.833  24.013  25.246  1.00  0.00     0.055 C 
ATOM      7  C   UNL A   1      33.117  22.491  25.307  1.00  0.00     0.022 C 
ATOM      8  C   UNL A   1      34.164  24.685  25.651  1.00  0.00     0.022 C 
BRANCH   6   9
ATOM      9  C   UNL A   1      32.455  24.421  23.810  1.00  0.00     0.126 C 
BRANCH   9  10
ATOM     10  S   UNL A   1      33.328  25.882  23.143  1.00  0.00     0.054 S 
ATOM     11  O   UNL A   1      33.628  25.570  21.705  1.00  0.00    -0.254 OA
BRANCH  10  12
ATOM     12  C   UNL A   1      31.989  27.084  23.083  1.00  0.00     0.039 A 
ATOM     13  C   UNL A   1      32.188  28.403  22.679  1.00  0.00     0.018 A 
ATOM     14  C   UNL A   1      30.706  26.676  23.452  1.00  0.00     0.018 A 
ATOM     15  C   UNL A   1      31.103  29.276  22.566  1.00  0.00     0.005 A 
ATOM     16  C   UNL A   1      29.625  27.563  23.367  1.00  0.00     0.005 A 
ATOM     17  C   UNL A   1      29.796  28.878  22.907  1.00  0.00    -0.043 A 
BRANCH  17  18
ATOM     18  C   UNL A   1      28.628  29.868  22.759  1.00  0.00    -0.013 C 
ATOM     19  C   UNL A   1      28.848  31.089  23.678  1.00  0.00     0.016 C 
ATOM     20  C   UNL A   1      28.550  30.341  21.292  1.00  0.00     0.016 C 
ATOM     21  C   UNL A   1      27.252  29.268  23.126  1.00  0.00     0.016 C 
ENDBRANCH  17  18
ENDBRANCH  10  12
ENDBRANCH   9  10
ENDBRANCH   6   9
ENDBRANCH   3   6
ENDBRANCH   1   2
BRANCH   1  22
ATOM     22  C   UNL A   1      31.551  28.016  27.189  1.00  0.00     0.023 C 
BRANCH  22  23
ATOM     23  C   UNL A   1      31.540  29.193  26.213  1.00  0.00     0.023 C 
BRANCH  23  24
ATOM     24  C   UNL A   1      32.840  29.986  26.136  1.00  0.00     0.116 C 
BRANCH  24  25
ATOM     25  N   UNL A   1      32.683  31.386  26.505  1.00  0.00    -0.352 N 
ATOM     26  C   UNL A   1      33.457  32.150  27.343  1.00  0.00     0.251 C 
ATOM     27  H   UNL A   1      31.916  31.848  26.096  1.00  0.00     0.163 HD
ATOM     28  O   UNL A   1      33.116  33.294  27.631  1.00  0.00    -0.269 OA
BRANCH  26  29
ATOM     29  C   UNL A   1      34.685  31.576  27.928  1.00  0.00     0.039 A 
ATOM     30  C   UNL A   1      35.802  32.399  28.092  1.00  0.00     0.014 A 
ATOM     31  C   UNL A   1      34.724  30.241  28.338  1.00  0.00     0.014 A 
ATOM     32  C   UNL A   1      36.938  31.900  28.732  1.00  0.00     0.010 A 
ATOM     33  C   UNL A   1      35.827  29.769  29.042  1.00  0.00     0.010 A 
ATOM     34  C   UNL A   1      36.946  30.593  29.245  1.00  0.00    -0.014 A 
BRANCH  34  35
ATOM     35  C   UNL A   1      38.116  30.065  29.990  1.00  0.00     0.031 A 
ATOM     36  C   UNL A   1      38.377  30.522  31.398  1.00  0.00     0.074 A 
ATOM     37  C   UNL A   1      38.977  29.230  29.379  1.00  0.00     0.049 A 
ATOM     38  N   UNL A   1      39.383  30.243  32.187  1.00  0.00    -0.248 NA
ATOM     39  C   UNL A   1      37.389  31.441  31.988  1.00  0.00     0.031 C 
ATOM     40  C   UNL A   1      38.860  28.752  28.000  1.00  0.00     0.029 A 
ATOM     41  N   UNL A   1      40.133  28.645  29.835  1.00  0.00    -0.354 N 
ATOM     42  C   UNL A   1      39.159  30.962  33.354  1.00  0.00     0.074 A 
ATOM     43  C   UNL A   1      37.952  31.732  33.151  1.00  0.00     0.031 C 
ATOM     44  C   UNL A   1      39.887  27.931  27.730  1.00  0.00     0.029 A 
ATOM     45  C   UNL A   1      40.757  27.854  28.901  1.00  0.00     0.049 A 
ATOM     46  H   UNL A   1      40.481  28.779  30.746  1.00  0.00     0.167 HD
ATOM     47  C   UNL A   1      39.880  30.959  34.500  1.00  0.00     0.037 A 
ATOM     48  C   UNL A   1      41.903  27.153  28.979  1.00  0.00     0.037 A 
ATOM     49  C   UNL A   1      41.064  30.168  34.708  1.00  0.00     0.049 A 
ATOM     50  C   UNL A   1      42.688  27.169  30.264  1.00  0.00     0.074 A 
ATOM     51  C   UNL A   1      41.832  30.048  35.853  1.00  0.00     0.029 A 
ATOM     52  N   UNL A   1      41.653  29.361  33.745  1.00  0.00    -0.354 N 
ATOM     53  N   UNL A   1      42.428  27.797  31.384  1.00  0.00    -0.248 NA
ATOM     54  C   UNL A   1      43.921  26.372  30.296  1.00  0.00     0.031 C 
ATOM     55  C   UNL A   1      42.911  29.203  35.570  1.00  0.00     0.029 A 
ATOM     56  C   UNL A   1      42.786  28.756  34.265  1.00  0.00     0.049 A 
ATOM     57  H   UNL A   1      41.316  29.235  32.829  1.00  0.00     0.167 HD
ATOM     58  C   UNL A   1      43.446  27.449  32.263  1.00  0.00     0.074 A 
ATOM     59  C   UNL A   1      44.320  26.542  31.548  1.00  0.00     0.031 C 
ATOM     60  C   UNL A   1      43.639  27.845  33.544  1.00  0.00     0.037 A 
BRANCH  47  61
ATOM     61  C   UNL A   1      39.403  31.834  35.623  1.00  0.00     0.064 A 
ATOM     62  C   UNL A   1      39.822  33.169  35.743  1.00  0.00     0.173 A 
ATOM     63  C   UNL A   1      38.492  31.345  36.570  1.00  0.00     0.173 A 
ATOM     64  F   UNL A   1      40.703  33.681  34.871  1.00  0.00    -0.203 F 
ATOM     65  C   UNL A   1      39.368  33.971  36.787  1.00  0.00     0.198 A 
ATOM     66  C   UNL A   1      38.016  32.159  37.594  1.00  0.00     0.198 A 
ATOM     67  F   UNL A   1      38.055  30.078  36.499  1.00  0.00    -0.203 F 
ATOM     68  F   UNL A   1      39.822  35.226  36.910  1.00  0.00    -0.200 F 
ATOM     69  C   UNL A   1      38.461  33.468  37.707  1.00  0.00     0.200 A 
ATOM     70  F   UNL A   1      37.129  31.677  38.475  1.00  0.00    -0.200 F 
ATOM     71  F   UNL A   1      38.020  34.244  38.706  1.00  0.00    -0.200 F 
ENDBRANCH  47  61
BRANCH  48  72
ATOM     72  C   UNL A   1      42.370  26.357  27.814  1.00  0.00     0.064 A 
ATOM     73  C   UNL A   1      41.860  25.072  27.571  1.00  0.00     0.173 A 
ATOM     74  C   UNL A   1      43.338  26.851  26.930  1.00  0.00     0.173 A 
ATOM     75  F   UNL A   1      40.948  24.547  28.402  1.00  0.00    -0.203 F 
ATOM     76  C   UNL A   1      42.319  24.305  26.503  1.00  0.00     0.198 A 
ATOM     77  C   UNL A   1      43.776  26.094  25.843  1.00  0.00     0.198 A 
ATOM     78  F   UNL A   1      43.855  28.075  27.114  1.00  0.00    -0.203 F 
ATOM     79  F   UNL A   1      41.852  23.063  26.325  1.00  0.00    -0.200 F 
ATOM     80  C   UNL A   1      43.273  24.818  25.637  1.00  0.00     0.200 A 
ATOM     81  F   UNL A   1      44.688  26.599  25.001  1.00  0.00    -0.200 F 
ATOM     82  F   UNL A   1      43.714  24.080  24.608  1.00  0.00    -0.200 F 
ENDBRANCH  48  72
BRANCH  60  83
ATOM     83  C   UNL A   1      44.819  27.270  34.272  1.00  0.00     0.064 A 
ATOM     84  C   UNL A   1      44.735  26.057  34.970  1.00  0.00     0.173 A 
ATOM     85  C   UNL A   1      46.060  27.922  34.234  1.00  0.00     0.173 A 
ATOM     86  F   UNL A   1      43.566  25.403  35.049  1.00  0.00    -0.203 F 
ATOM     87  C   UNL A   1      45.845  25.530  35.625  1.00  0.00     0.198 A 
ATOM     88  C   UNL A   1      47.176  27.377  34.863  1.00  0.00     0.198 A 
ATOM     89  F   UNL A   1      46.196  29.082  33.573  1.00  0.00    -0.203 F 
ATOM     90  F   UNL A   1      45.731  24.393  36.325  1.00  0.00    -0.200 F 
ATOM     91  C   UNL A   1      47.066  26.185  35.564  1.00  0.00     0.200 A 
ATOM     92  F   UNL A   1      48.358  28.005  34.791  1.00  0.00    -0.200 F 
ATOM     93  F   UNL A   1      48.135  25.671  36.187  1.00  0.00    -0.200 F 
ENDBRANCH  60  83
ENDBRANCH  34  35
ENDBRANCH  26  29
ENDBRANCH  24  25
ENDBRANCH  23  24
ENDBRANCH  22  23
ENDBRANCH   1  22
TORSDOF 15
ENDMDL
MODEL 3
REMARK VINA RESULT:     -12.2      0.591      7.349
REMARK SMILES CC(C)(C[S@@](=O)c1ccc(C(C)(C)C)cc1)C(=O)NCCCCNC(=O)c1ccc(-c2c3nc(c(-c4c(F)c(F)c(F)c(F)c4F)c4ccc([nH]4)c(-c4c(F)c(F)c(F)c(F)c4F)c4nc(c(-c5c(F)c(F)c(F)c(F)c5F)c5ccc2[nH]5)C=C4)C=C3)cc1
REMARK SMILES IDX 20 1 19 2 17 3 18 4 2 6 1 7 3 8 4 9 5 10 6 11 7 12 8 13
REMARK SMILES IDX 16 14 9 15 15 16 10 17 11 18 12 19 13 20 14 21 21 22 22 23
REMARK SMILES IDX 23 24 24 25 25 26 26 28 27 29 28 30 89 31 29 32 88 33 30 34
REMARK SMILES IDX 31 35 32 36 82 37 33 38 87 39 81 40 83 41 34 42 86 43 80 44
REMARK SMILES IDX 79 45 35 47 67 48 47 49 66 50 48 51 51 52 65 53 84 54 49 55
REMARK SMILES IDX 50 56 64 58 85 59 52 60 36 61 37 62 45 63 38 64 39 65 43 66
REMARK SMILES IDX 46 67 40 68 41 69 44 70 42 71 68 72 69 73 77 74 70 75 71 76
REMARK SMILES IDX 75 77 78 78 72 79 73 80 76 81 74 82 53 83 54 84 62 85 55 86
REMARK SMILES IDX 56 87 60 88 63 89 57 90 58 91 61 92 59 93
REMARK H PARENT 19 5 24 27 83 46 51 57
REMARK Flexibility Score: inf
ROOT
ATOM      1  C   UNL A   1      32.268  30.027  25.530  1.00  0.00     0.116 C 
ENDROOT
BRANCH   1   2
ATOM      2  N   UNL A   1      31.197  29.919  24.557  1.00  0.00    -0.356 N 
ATOM      3  C   UNL A   1      30.640  28.866  23.905  1.00  0.00     0.226 C 
ATOM      4  O   UNL A   1      29.738  29.149  23.110  1.00  0.00    -0.274 OA
ATOM      5  H   UNL A   1      30.794  30.785  24.320  1.00  0.00     0.163 HD
BRANCH   3   6
ATOM      6  C   UNL A   1      31.086  27.410  24.120  1.00  0.00     0.055 C 
ATOM      7  C   UNL A   1      30.034  26.468  23.483  1.00  0.00     0.022 C 
ATOM      8  C   UNL A   1      31.074  27.064  25.625  1.00  0.00     0.022 C 
BRANCH   6   9
ATOM      9  C   UNL A   1      32.478  27.124  23.526  1.00  0.00     0.126 C 
BRANCH   9  10
ATOM     10  S   UNL A   1      32.520  25.934  22.138  1.00  0.00     0.054 S 
ATOM     11  O   UNL A   1      33.644  26.372  21.245  1.00  0.00    -0.254 OA
BRANCH  10  12
ATOM     12  C   UNL A   1      33.140  24.461  22.969  1.00  0.00     0.039 A 
ATOM     13  C   UNL A   1      34.345  24.452  23.670  1.00  0.00     0.018 A 
ATOM     14  C   UNL A   1      32.384  23.289  22.908  1.00  0.00     0.018 A 
ATOM     15  C   UNL A   1      34.743  23.310  24.370  1.00  0.00     0.005 A 
ATOM     16  C   UNL A   1      32.801  22.137  23.585  1.00  0.00     0.005 A 
ATOM     17  C   UNL A   1      33.982  22.125  24.345  1.00  0.00    -0.043 A 
BRANCH  17  18
ATOM     18  C   UNL A   1      34.451  20.893  25.138  1.00  0.00    -0.013 C 
ATOM     19  C   UNL A   1      34.164  21.092  26.643  1.00  0.00     0.016 C 
ATOM     20  C   UNL A   1      33.691  19.648  24.634  1.00  0.00     0.016 C 
ATOM     21  C   UNL A   1      35.962  20.602  25.000  1.00  0.00     0.016 C 
ENDBRANCH  17  18
ENDBRANCH  10  12
ENDBRANCH   9  10
ENDBRANCH   6   9
ENDBRANCH   3   6
ENDBRANCH   1   2
BRANCH   1  22
ATOM     22  C   UNL A   1      31.778  30.584  26.863  1.00  0.00     0.023 C 
BRANCH  22  23
ATOM     23  C   UNL A   1      31.523  32.092  26.876  1.00  0.00     0.023 C 
BRANCH  23  24
ATOM     24  C   UNL A   1      32.760  32.959  27.082  1.00  0.00     0.116 C 
BRANCH  24  25
ATOM     25  N   UNL A   1      32.454  34.284  27.601  1.00  0.00    -0.352 N 
ATOM     26  C   UNL A   1      33.030  34.955  28.651  1.00  0.00     0.251 C 
ATOM     27  H   UNL A   1      31.733  34.766  27.134  1.00  0.00     0.163 HD
ATOM     28  O   UNL A   1      32.574  36.031  29.027  1.00  0.00    -0.269 OA
BRANCH  26  29
ATOM     29  C   UNL A   1      34.184  34.356  29.353  1.00  0.00     0.039 A 
ATOM     30  C   UNL A   1      33.947  33.519  30.447  1.00  0.00     0.014 A 
ATOM     31  C   UNL A   1      35.489  34.597  28.917  1.00  0.00     0.014 A 
ATOM     32  C   UNL A   1      35.018  32.867  31.060  1.00  0.00     0.010 A 
ATOM     33  C   UNL A   1      36.545  33.889  29.481  1.00  0.00     0.010 A 
ATOM     34  C   UNL A   1      36.321  33.018  30.559  1.00  0.00    -0.014 A 
BRANCH  34  35
ATOM     35  C   UNL A   1      37.464  32.280  31.151  1.00  0.00     0.031 A 
ATOM     36  C   UNL A   1      37.963  32.644  32.521  1.00  0.00     0.074 A 
ATOM     37  C   UNL A   1      38.095  31.334  30.430  1.00  0.00     0.049 A 
ATOM     38  N   UNL A   1      38.994  32.176  33.179  1.00  0.00    -0.248 NA
ATOM     39  C   UNL A   1      37.221  33.694  33.238  1.00  0.00     0.031 C 
ATOM     40  C   UNL A   1      37.737  30.925  29.071  1.00  0.00     0.029 A 
ATOM     41  N   UNL A   1      39.181  30.551  30.736  1.00  0.00    -0.354 N 
ATOM     42  C   UNL A   1      39.034  32.886  34.372  1.00  0.00     0.074 A 
ATOM     43  C   UNL A   1      37.958  33.852  34.326  1.00  0.00     0.031 C 
ATOM     44  C   UNL A   1      38.572  29.954  28.669  1.00  0.00     0.029 A 
ATOM     45  C   UNL A   1      39.548  29.697  29.724  1.00  0.00     0.049 A 
ATOM     46  H   UNL A   1      39.651  30.596  31.600  1.00  0.00     0.167 HD
ATOM     47  C   UNL A   1      39.874  32.727  35.422  1.00  0.00     0.037 A 
ATOM     48  C   UNL A   1      40.561  28.813  29.655  1.00  0.00     0.037 A 
ATOM     49  C   UNL A   1      40.924  31.745  35.476  1.00  0.00     0.049 A 
ATOM     50  C   UNL A   1      41.483  28.659  30.835  1.00  0.00     0.074 A 
ATOM     51  C   UNL A   1      41.790  31.464  36.518  1.00  0.00     0.029 A 
ATOM     52  N   UNL A   1      41.250  30.881  34.440  1.00  0.00    -0.354 N 
ATOM     53  N   UNL A   1      41.467  29.286  31.985  1.00  0.00    -0.248 NA
ATOM     54  C   UNL A   1      42.559  27.667  30.708  1.00  0.00     0.031 C 
ATOM     55  C   UNL A   1      42.670  30.461  36.097  1.00  0.00     0.029 A 
ATOM     56  C   UNL A   1      42.319  30.081  34.812  1.00  0.00     0.049 A 
ATOM     57  H   UNL A   1      40.791  30.842  33.570  1.00  0.00     0.167 HD
ATOM     58  C   UNL A   1      42.507  28.746  32.730  1.00  0.00     0.074 A 
ATOM     59  C   UNL A   1      43.126  27.729  31.904  1.00  0.00     0.031 C 
ATOM     60  C   UNL A   1      42.915  29.064  33.982  1.00  0.00     0.037 A 
BRANCH  47  61
ATOM     61  C   UNL A   1      39.687  33.634  36.604  1.00  0.00     0.064 A 
ATOM     62  C   UNL A   1      38.843  33.288  37.671  1.00  0.00     0.173 A 
ATOM     63  C   UNL A   1      40.386  34.847  36.689  1.00  0.00     0.173 A 
ATOM     64  F   UNL A   1      38.141  32.145  37.633  1.00  0.00    -0.203 F 
ATOM     65  C   UNL A   1      38.683  34.137  38.763  1.00  0.00     0.198 A 
ATOM     66  C   UNL A   1      40.248  35.679  37.797  1.00  0.00     0.198 A 
ATOM     67  F   UNL A   1      41.210  35.225  35.699  1.00  0.00    -0.203 F 
ATOM     68  F   UNL A   1      37.831  33.808  39.744  1.00  0.00    -0.200 F 
ATOM     69  C   UNL A   1      39.390  35.327  38.828  1.00  0.00     0.200 A 
ATOM     70  F   UNL A   1      40.942  36.823  37.866  1.00  0.00    -0.200 F 
ATOM     71  F   UNL A   1      39.241  36.139  39.884  1.00  0.00    -0.200 F 
ENDBRANCH  47  61
BRANCH  48  72
ATOM     72  C   UNL A   1      40.746  27.987  28.433  1.00  0.00     0.064 A 
ATOM     73  C   UNL A   1      40.150  26.721  28.325  1.00  0.00     0.173 A 
ATOM     74  C   UNL A   1      41.526  28.434  27.358  1.00  0.00     0.173 A 
ATOM     75  F   UNL A   1      39.412  26.241  29.336  1.00  0.00    -0.203 F 
ATOM     76  C   UNL A   1      40.349  25.925  27.199  1.00  0.00     0.198 A 
ATOM     77  C   UNL A   1      41.701  27.649  26.219  1.00  0.00     0.198 A 
ATOM     78  F   UNL A   1      42.114  29.638  27.409  1.00  0.00    -0.203 F 
ATOM     79  F   UNL A   1      39.810  24.701  27.144  1.00  0.00    -0.200 F 
ATOM     80  C   UNL A   1      41.120  26.392  26.144  1.00  0.00     0.200 A 
ATOM     81  F   UNL A   1      42.435  28.109  25.197  1.00  0.00    -0.200 F 
ATOM     82  F   UNL A   1      41.310  25.627  25.061  1.00  0.00    -0.200 F 
ENDBRANCH  48  72
BRANCH  60  83
ATOM     83  C   UNL A   1      44.058  28.278  34.556  1.00  0.00     0.064 A 
ATOM     84  C   UNL A   1      43.850  27.101  35.287  1.00  0.00     0.173 A 
ATOM     85  C   UNL A   1      45.381  28.689  34.332  1.00  0.00     0.173 A 
ATOM     86  F   UNL A   1      42.604  26.675  35.541  1.00  0.00    -0.203 F 
ATOM     87  C   UNL A   1      44.925  26.376  35.796  1.00  0.00     0.198 A 
ATOM     88  C   UNL A   1      46.453  27.945  34.814  1.00  0.00     0.198 A 
ATOM     89  F   UNL A   1      45.635  29.805  33.631  1.00  0.00    -0.203 F 
ATOM     90  F   UNL A   1      44.702  25.278  36.532  1.00  0.00    -0.200 F 
ATOM     91  C   UNL A   1      46.225  26.793  35.552  1.00  0.00     0.200 A 
ATOM     92  F   UNL A   1      47.709  28.343  34.566  1.00  0.00    -0.200 F 
ATOM     93  F   UNL A   1      47.258  26.089  36.035  1.00  0.00    -0.200 F 
ENDBRANCH  60  83
ENDBRANCH  34  35
ENDBRANCH  26  29
ENDBRANCH  24  25
ENDBRANCH  23  24
ENDBRANCH  22  23
ENDBRANCH   1  22
TORSDOF 15
ENDMDL
