MODEL 1
REMARK VINA RESULT:     -12.6      0.000      0.000
REMARK SMILES CC(=O)N1[C@@H](c2c(F)cccc2Cl)SC[C@H]1C(=O)NCCCCNC(=O)c1ccc(-c2c3nc(c(-c4c(F)c(F)c(F)c(F)c4F)c4ccc([nH]4)c(-c4c(F)c(F)c(F)c(F)c4F)c4nc(c(-c5c(F)c(F)c(F)c(F)c5F)c5ccc2[nH]5)C=C4)C=C3)cc1
REMARK SMILES IDX 22 1 21 2 20 3 19 4 17 5 18 6 16 8 4 9 5 10 14 11 15 12 2 13
REMARK SMILES IDX 1 14 3 15 6 16 7 17 12 18 8 19 9 20 11 21 13 22 10 23 23 24
REMARK SMILES IDX 24 25 25 26 26 28 27 29 28 30 89 31 29 32 88 33 30 34 31 35
REMARK SMILES IDX 32 36 82 37 33 38 87 39 81 40 83 41 34 42 86 43 80 44 79 45
REMARK SMILES IDX 35 47 67 48 47 49 66 50 48 51 51 52 65 53 84 54 49 55 50 56
REMARK SMILES IDX 64 58 85 59 52 60 36 61 37 62 45 63 38 64 39 65 43 66 46 67
REMARK SMILES IDX 40 68 41 69 44 70 42 71 68 72 69 73 77 74 70 75 71 76 75 77
REMARK SMILES IDX 78 78 72 79 73 80 76 81 74 82 53 83 54 84 62 85 55 86 56 87
REMARK SMILES IDX 60 88 63 89 57 90 58 91 61 92 59 93
REMARK H PARENT 19 7 24 27 83 46 51 57
REMARK Flexibility Score: inf
ROOT
ATOM      1  C   UNL A   1      31.576  32.024  26.907  1.00  0.00     0.023 C 
ENDROOT
BRANCH   1   2
ATOM      2  C   UNL A   1      31.780  30.528  26.651  1.00  0.00     0.023 C 
BRANCH   2   3
ATOM      3  C   UNL A   1      31.823  30.093  25.190  1.00  0.00     0.116 C 
BRANCH   3   4
ATOM      4  N   UNL A   1      33.103  29.598  24.756  1.00  0.00    -0.354 N 
ATOM      5  C   UNL A   1      33.423  28.361  24.280  1.00  0.00     0.243 C 
ATOM      6  O   UNL A   1      34.440  28.292  23.579  1.00  0.00    -0.273 OA
ATOM      7  H   UNL A   1      33.848  30.238  24.812  1.00  0.00     0.163 HD
BRANCH   5   8
ATOM      8  C   UNL A   1      32.493  27.126  24.403  1.00  0.00     0.185 C 
ATOM      9  N   UNL A   1      32.791  25.895  23.639  1.00  0.00    -0.314 N 
ATOM     10  C   UNL A   1      32.635  24.631  24.380  1.00  0.00     0.179 C 
ATOM     11  S   UNL A   1      31.614  25.079  25.824  1.00  0.00    -0.129 SA
ATOM     12  C   UNL A   1      32.232  26.787  25.865  1.00  0.00     0.107 C 
BRANCH   9  13
ATOM     13  C   UNL A   1      32.553  26.049  22.278  1.00  0.00     0.221 C 
ATOM     14  C   UNL A   1      31.257  26.693  21.849  1.00  0.00     0.114 C 
ATOM     15  O   UNL A   1      33.439  25.838  21.449  1.00  0.00    -0.275 OA
ENDBRANCH   9  13
BRANCH  10  16
ATOM     16  C   UNL A   1      33.966  23.928  24.679  1.00  0.00     0.039 A 
ATOM     17  C   UNL A   1      35.040  24.555  25.345  1.00  0.00     0.130 A 
ATOM     18  C   UNL A   1      34.226  22.609  24.246  1.00  0.00     0.050 A 
ATOM     19  F   UNL A   1      34.952  25.816  25.786  1.00  0.00    -0.207 F 
ATOM     20  C   UNL A   1      36.289  23.952  25.517  1.00  0.00     0.040 A 
ATOM     21  C   UNL A   1      35.491  22.011  24.387  1.00  0.00     0.021 A 
ATOM     22  Cl  UNL A   1      33.034  21.582  23.549  1.00  0.00    -0.084 Cl
ATOM     23  C   UNL A   1      36.524  22.681  25.019  1.00  0.00     0.005 A 
ENDBRANCH  10  16
ENDBRANCH   5   8
ENDBRANCH   3   4
ENDBRANCH   2   3
ENDBRANCH   1   2
BRANCH   1  24
ATOM     24  C   UNL A   1      32.783  32.834  27.372  1.00  0.00     0.116 C 
BRANCH  24  25
ATOM     25  N   UNL A   1      32.477  34.215  27.709  1.00  0.00    -0.352 N 
ATOM     26  C   UNL A   1      33.023  35.033  28.677  1.00  0.00     0.251 C 
ATOM     27  H   UNL A   1      31.771  34.631  27.163  1.00  0.00     0.163 HD
ATOM     28  O   UNL A   1      32.560  36.144  28.892  1.00  0.00    -0.269 OA
BRANCH  26  29
ATOM     29  C   UNL A   1      34.165  34.546  29.476  1.00  0.00     0.039 A 
ATOM     30  C   UNL A   1      33.935  33.957  30.723  1.00  0.00     0.014 A 
ATOM     31  C   UNL A   1      35.461  34.639  28.968  1.00  0.00     0.014 A 
ATOM     32  C   UNL A   1      35.002  33.387  31.418  1.00  0.00     0.010 A 
ATOM     33  C   UNL A   1      36.494  33.966  29.598  1.00  0.00     0.010 A 
ATOM     34  C   UNL A   1      36.280  33.348  30.837  1.00  0.00    -0.014 A 
BRANCH  34  35
ATOM     35  C   UNL A   1      37.417  32.674  31.504  1.00  0.00     0.031 A 
ATOM     36  C   UNL A   1      38.092  31.511  30.831  1.00  0.00     0.074 A 
ATOM     37  C   UNL A   1      37.770  33.053  32.746  1.00  0.00     0.049 A 
ATOM     38  N   UNL A   1      39.055  30.743  31.268  1.00  0.00    -0.248 NA
ATOM     39  C   UNL A   1      37.577  31.126  29.505  1.00  0.00     0.031 C 
ATOM     40  C   UNL A   1      37.113  34.105  33.525  1.00  0.00     0.029 A 
ATOM     41  N   UNL A   1      38.756  32.592  33.579  1.00  0.00    -0.354 N 
ATOM     42  C   UNL A   1      39.247  29.784  30.282  1.00  0.00     0.074 A 
ATOM     43  C   UNL A   1      38.240  30.007  29.270  1.00  0.00     0.031 C 
ATOM     44  C   UNL A   1      37.738  34.235  34.706  1.00  0.00     0.029 A 
ATOM     45  C   UNL A   1      38.813  33.253  34.782  1.00  0.00     0.049 A 
ATOM     46  H   UNL A   1      39.366  31.858  33.339  1.00  0.00     0.167 HD
ATOM     47  C   UNL A   1      40.204  28.828  30.210  1.00  0.00     0.037 A 
ATOM     48  C   UNL A   1      39.648  33.084  35.824  1.00  0.00     0.037 A 
ATOM     49  C   UNL A   1      41.205  28.638  31.225  1.00  0.00     0.049 A 
ATOM     50  C   UNL A   1      40.729  32.045  35.710  1.00  0.00     0.074 A 
ATOM     51  C   UNL A   1      42.258  27.742  31.249  1.00  0.00     0.029 A 
ATOM     52  N   UNL A   1      41.269  29.366  32.407  1.00  0.00    -0.354 N 
ATOM     53  N   UNL A   1      40.958  31.196  34.736  1.00  0.00    -0.248 NA
ATOM     54  C   UNL A   1      41.678  31.952  36.826  1.00  0.00     0.031 C 
ATOM     55  C   UNL A   1      42.929  27.895  32.466  1.00  0.00     0.029 A 
ATOM     56  C   UNL A   1      42.336  28.929  33.175  1.00  0.00     0.049 A 
ATOM     57  H   UNL A   1      40.648  30.086  32.661  1.00  0.00     0.167 HD
ATOM     58  C   UNL A   1      42.089  30.484  35.106  1.00  0.00     0.074 A 
ATOM     59  C   UNL A   1      42.509  31.016  36.389  1.00  0.00     0.031 C 
ATOM     60  C   UNL A   1      42.725  29.482  34.449  1.00  0.00     0.037 A 
BRANCH  47  61
ATOM     61  C   UNL A   1      40.204  27.941  28.994  1.00  0.00     0.064 A 
ATOM     62  C   UNL A   1      39.520  26.714  28.977  1.00  0.00     0.173 A 
ATOM     63  C   UNL A   1      40.905  28.310  27.836  1.00  0.00     0.173 A 
ATOM     64  F   UNL A   1      38.843  26.302  30.059  1.00  0.00    -0.203 F 
ATOM     65  C   UNL A   1      39.584  25.867  27.871  1.00  0.00     0.198 A 
ATOM     66  C   UNL A   1      40.934  27.480  26.717  1.00  0.00     0.198 A 
ATOM     67  F   UNL A   1      41.573  29.473  27.790  1.00  0.00    -0.203 F 
ATOM     68  F   UNL A   1      38.991  24.667  27.914  1.00  0.00    -0.200 F 
ATOM     69  C   UNL A   1      40.287  26.254  26.741  1.00  0.00     0.200 A 
ATOM     70  F   UNL A   1      41.602  27.861  25.619  1.00  0.00    -0.200 F 
ATOM     71  F   UNL A   1      40.351  25.438  25.679  1.00  0.00    -0.200 F 
ENDBRANCH  47  61
BRANCH  48  72
ATOM     72  C   UNL A   1      39.515  33.957  37.021  1.00  0.00     0.064 A 
ATOM     73  C   UNL A   1      40.077  35.241  37.046  1.00  0.00     0.173 A 
ATOM     74  C   UNL A   1      38.780  33.548  38.144  1.00  0.00     0.173 A 
ATOM     75  F   UNL A   1      40.797  35.676  36.001  1.00  0.00    -0.203 F 
ATOM     76  C   UNL A   1      39.920  36.077  38.150  1.00  0.00     0.198 A 
ATOM     77  C   UNL A   1      38.600  34.396  39.236  1.00  0.00     0.198 A 
ATOM     78  F   UNL A   1      38.209  32.335  38.168  1.00  0.00    -0.203 F 
ATOM     79  F   UNL A   1      40.493  37.288  38.157  1.00  0.00    -0.200 F 
ATOM     80  C   UNL A   1      39.174  35.658  39.240  1.00  0.00     0.200 A 
ATOM     81  F   UNL A   1      37.858  33.994  40.278  1.00  0.00    -0.200 F 
ATOM     82  F   UNL A   1      39.006  36.469  40.293  1.00  0.00    -0.200 F 
ENDBRANCH  48  72
BRANCH  60  83
ATOM     83  C   UNL A   1      43.959  28.922  35.094  1.00  0.00     0.064 A 
ATOM     84  C   UNL A   1      43.902  27.833  35.975  1.00  0.00     0.173 A 
ATOM     85  C   UNL A   1      45.219  29.458  34.788  1.00  0.00     0.173 A 
ATOM     86  F   UNL A   1      42.719  27.293  36.307  1.00  0.00    -0.203 F 
ATOM     87  C   UNL A   1      45.060  27.322  36.553  1.00  0.00     0.198 A 
ATOM     88  C   UNL A   1      46.378  28.921  35.340  1.00  0.00     0.198 A 
ATOM     89  F   UNL A   1      45.328  30.494  33.944  1.00  0.00    -0.203 F 
ATOM     90  F   UNL A   1      44.978  26.316  37.436  1.00  0.00    -0.200 F 
ATOM     91  C   UNL A   1      46.297  27.860  36.229  1.00  0.00     0.200 A 
ATOM     92  F   UNL A   1      47.573  29.430  35.011  1.00  0.00    -0.200 F 
ATOM     93  F   UNL A   1      47.412  27.360  36.779  1.00  0.00    -0.200 F 
ENDBRANCH  60  83
ENDBRANCH  34  35
ENDBRANCH  26  29
ENDBRANCH  24  25
ENDBRANCH   1  24
TORSDOF 13
ENDMDL
MODEL 2
REMARK VINA RESULT:     -12.6      0.556      7.452
REMARK SMILES CC(=O)N1[C@@H](c2c(F)cccc2Cl)SC[C@H]1C(=O)NCCCCNC(=O)c1ccc(-c2c3nc(c(-c4c(F)c(F)c(F)c(F)c4F)c4ccc([nH]4)c(-c4c(F)c(F)c(F)c(F)c4F)c4nc(c(-c5c(F)c(F)c(F)c(F)c5F)c5ccc2[nH]5)C=C4)C=C3)cc1
REMARK SMILES IDX 22 1 21 2 20 3 19 4 17 5 18 6 16 8 4 9 5 10 14 11 15 12 2 13
REMARK SMILES IDX 1 14 3 15 6 16 7 17 12 18 8 19 9 20 11 21 13 22 10 23 23 24
REMARK SMILES IDX 24 25 25 26 26 28 27 29 28 30 89 31 29 32 88 33 30 34 31 35
REMARK SMILES IDX 32 36 82 37 33 38 87 39 81 40 83 41 34 42 86 43 80 44 79 45
REMARK SMILES IDX 35 47 67 48 47 49 66 50 48 51 51 52 65 53 84 54 49 55 50 56
REMARK SMILES IDX 64 58 85 59 52 60 36 61 37 62 45 63 38 64 39 65 43 66 46 67
REMARK SMILES IDX 40 68 41 69 44 70 42 71 68 72 69 73 77 74 70 75 71 76 75 77
REMARK SMILES IDX 78 78 72 79 73 80 76 81 74 82 53 83 54 84 62 85 55 86 56 87
REMARK SMILES IDX 60 88 63 89 57 90 58 91 61 92 59 93
REMARK H PARENT 19 7 24 27 83 46 51 57
REMARK Flexibility Score: inf
ROOT
ATOM      1  C   UNL A   1      31.505  32.077  26.758  1.00  0.00     0.023 C 
ENDROOT
BRANCH   1   2
ATOM      2  C   UNL A   1      31.622  30.558  26.608  1.00  0.00     0.023 C 
BRANCH   2   3
ATOM      3  C   UNL A   1      31.694  30.024  25.180  1.00  0.00     0.116 C 
BRANCH   3   4
ATOM      4  N   UNL A   1      32.997  29.555  24.788  1.00  0.00    -0.354 N 
ATOM      5  C   UNL A   1      33.352  28.330  24.304  1.00  0.00     0.243 C 
ATOM      6  O   UNL A   1      34.396  28.287  23.641  1.00  0.00    -0.273 OA
ATOM      7  H   UNL A   1      33.729  30.204  24.883  1.00  0.00     0.163 HD
BRANCH   5   8
ATOM      8  C   UNL A   1      32.437  27.080  24.372  1.00  0.00     0.185 C 
ATOM      9  N   UNL A   1      32.789  25.862  23.611  1.00  0.00    -0.314 N 
ATOM     10  C   UNL A   1      32.617  24.588  24.333  1.00  0.00     0.179 C 
ATOM     11  S   UNL A   1      31.522  25.007  25.731  1.00  0.00    -0.129 SA
ATOM     12  C   UNL A   1      32.111  26.723  25.816  1.00  0.00     0.107 C 
BRANCH   9  13
ATOM     13  C   UNL A   1      32.613  26.025  22.242  1.00  0.00     0.221 C 
ATOM     14  C   UNL A   1      31.265  26.489  21.746  1.00  0.00     0.114 C 
ATOM     15  O   UNL A   1      33.569  25.974  21.468  1.00  0.00    -0.275 OA
ENDBRANCH   9  13
BRANCH  10  16
ATOM     16  C   UNL A   1      33.943  23.902  24.688  1.00  0.00     0.039 A 
ATOM     17  C   UNL A   1      35.004  24.561  25.343  1.00  0.00     0.130 A 
ATOM     18  C   UNL A   1      34.211  22.564  24.323  1.00  0.00     0.050 A 
ATOM     19  F   UNL A   1      34.908  25.841  25.722  1.00  0.00    -0.207 F 
ATOM     20  C   UNL A   1      36.250  23.968  25.566  1.00  0.00     0.040 A 
ATOM     21  C   UNL A   1      35.473  21.975  24.514  1.00  0.00     0.021 A 
ATOM     22  Cl  UNL A   1      33.031  21.503  23.653  1.00  0.00    -0.084 Cl
ATOM     23  C   UNL A   1      36.495  22.676  25.132  1.00  0.00     0.005 A 
ENDBRANCH  10  16
ENDBRANCH   5   8
ENDBRANCH   3   4
ENDBRANCH   2   3
ENDBRANCH   1   2
BRANCH   1  24
ATOM     24  C   UNL A   1      32.735  32.838  27.244  1.00  0.00     0.116 C 
BRANCH  24  25
ATOM     25  N   UNL A   1      32.461  34.205  27.661  1.00  0.00    -0.352 N 
ATOM     26  C   UNL A   1      33.037  34.958  28.664  1.00  0.00     0.251 C 
ATOM     27  H   UNL A   1      31.757  34.664  27.147  1.00  0.00     0.163 HD
ATOM     28  O   UNL A   1      32.599  36.064  28.946  1.00  0.00    -0.269 OA
BRANCH  26  29
ATOM     29  C   UNL A   1      34.178  34.404  29.419  1.00  0.00     0.039 A 
ATOM     30  C   UNL A   1      33.944  33.644  30.568  1.00  0.00     0.014 A 
ATOM     31  C   UNL A   1      35.480  34.610  28.962  1.00  0.00     0.014 A 
ATOM     32  C   UNL A   1      35.016  33.021  31.207  1.00  0.00     0.010 A 
ATOM     33  C   UNL A   1      36.524  33.892  29.521  1.00  0.00     0.010 A 
ATOM     34  C   UNL A   1      36.307  33.104  30.659  1.00  0.00    -0.014 A 
BRANCH  34  35
ATOM     35  C   UNL A   1      37.454  32.385  31.258  1.00  0.00     0.031 A 
ATOM     36  C   UNL A   1      37.950  32.779  32.622  1.00  0.00     0.074 A 
ATOM     37  C   UNL A   1      38.098  31.452  30.532  1.00  0.00     0.049 A 
ATOM     38  N   UNL A   1      38.975  32.327  33.295  1.00  0.00    -0.248 NA
ATOM     39  C   UNL A   1      37.223  33.867  33.300  1.00  0.00     0.031 C 
ATOM     40  C   UNL A   1      37.756  31.067  29.161  1.00  0.00     0.029 A 
ATOM     41  N   UNL A   1      39.178  30.666  30.836  1.00  0.00    -0.354 N 
ATOM     42  C   UNL A   1      39.021  33.083  34.460  1.00  0.00     0.074 A 
ATOM     43  C   UNL A   1      37.983  34.082  34.360  1.00  0.00     0.031 C 
ATOM     44  C   UNL A   1      38.586  30.093  28.756  1.00  0.00     0.029 A 
ATOM     45  C   UNL A   1      39.539  29.810  29.823  1.00  0.00     0.049 A 
ATOM     46  H   UNL A   1      39.652  30.709  31.698  1.00  0.00     0.167 HD
ATOM     47  C   UNL A   1      39.832  32.928  35.534  1.00  0.00     0.037 A 
ATOM     48  C   UNL A   1      40.526  28.898  29.771  1.00  0.00     0.037 A 
ATOM     49  C   UNL A   1      40.847  31.913  35.615  1.00  0.00     0.049 A 
ATOM     50  C   UNL A   1      41.391  28.713  30.987  1.00  0.00     0.074 A 
ATOM     51  C   UNL A   1      41.700  31.620  36.663  1.00  0.00     0.029 A 
ATOM     52  N   UNL A   1      41.148  31.023  34.590  1.00  0.00    -0.354 N 
ATOM     53  N   UNL A   1      41.374  29.375  32.120  1.00  0.00    -0.248 NA
ATOM     54  C   UNL A   1      42.396  27.645  30.928  1.00  0.00     0.031 C 
ATOM     55  C   UNL A   1      42.547  30.584  36.255  1.00  0.00     0.029 A 
ATOM     56  C   UNL A   1      42.182  30.188  34.976  1.00  0.00     0.049 A 
ATOM     57  H   UNL A   1      40.692  30.991  33.719  1.00  0.00     0.167 HD
ATOM     58  C   UNL A   1      42.346  28.792  32.919  1.00  0.00     0.074 A 
ATOM     59  C   UNL A   1      42.921  27.709  32.144  1.00  0.00     0.031 C 
ATOM     60  C   UNL A   1      42.731  29.119  34.178  1.00  0.00     0.037 A 
BRANCH  47  61
ATOM     61  C   UNL A   1      39.634  33.872  36.689  1.00  0.00     0.064 A 
ATOM     62  C   UNL A   1      40.265  35.127  36.734  1.00  0.00     0.173 A 
ATOM     63  C   UNL A   1      38.818  33.517  37.774  1.00  0.00     0.173 A 
ATOM     64  F   UNL A   1      41.067  35.516  35.731  1.00  0.00    -0.203 F 
ATOM     65  C   UNL A   1      40.131  35.963  37.841  1.00  0.00     0.198 A 
ATOM     66  C   UNL A   1      38.654  34.373  38.862  1.00  0.00     0.198 A 
ATOM     67  F   UNL A   1      38.185  32.334  37.788  1.00  0.00    -0.203 F 
ATOM     68  F   UNL A   1      40.810  37.118  37.891  1.00  0.00    -0.200 F 
ATOM     69  C   UNL A   1      39.322  35.588  38.901  1.00  0.00     0.200 A 
ATOM     70  F   UNL A   1      37.860  34.015  39.881  1.00  0.00    -0.200 F 
ATOM     71  F   UNL A   1      39.196  36.391  39.966  1.00  0.00    -0.200 F 
ENDBRANCH  47  61
BRANCH  48  72
ATOM     72  C   UNL A   1      40.696  28.068  28.549  1.00  0.00     0.064 A 
ATOM     73  C   UNL A   1      40.038  26.837  28.412  1.00  0.00     0.173 A 
ATOM     74  C   UNL A   1      41.475  28.510  27.469  1.00  0.00     0.173 A 
ATOM     75  F   UNL A   1      39.289  26.364  29.420  1.00  0.00    -0.203 F 
ATOM     76  C   UNL A   1      40.163  26.076  27.252  1.00  0.00     0.198 A 
ATOM     77  C   UNL A   1      41.576  27.762  26.297  1.00  0.00     0.198 A 
ATOM     78  F   UNL A   1      42.114  29.687  27.540  1.00  0.00    -0.203 F 
ATOM     79  F   UNL A   1      39.546  24.890  27.161  1.00  0.00    -0.200 F 
ATOM     80  C   UNL A   1      40.924  26.543  26.191  1.00  0.00     0.200 A 
ATOM     81  F   UNL A   1      42.294  28.228  25.266  1.00  0.00    -0.200 F 
ATOM     82  F   UNL A   1      41.027  25.820  25.068  1.00  0.00    -0.200 F 
ENDBRANCH  48  72
BRANCH  60  83
ATOM     83  C   UNL A   1      43.802  28.273  34.803  1.00  0.00     0.064 A 
ATOM     84  C   UNL A   1      43.498  27.100  35.509  1.00  0.00     0.173 A 
ATOM     85  C   UNL A   1      45.152  28.623  34.655  1.00  0.00     0.173 A 
ATOM     86  F   UNL A   1      42.221  26.730  35.687  1.00  0.00    -0.203 F 
ATOM     87  C   UNL A   1      44.507  26.325  36.071  1.00  0.00     0.198 A 
ATOM     88  C   UNL A   1      46.160  27.826  35.188  1.00  0.00     0.198 A 
ATOM     89  F   UNL A   1      45.495  29.731  33.982  1.00  0.00    -0.203 F 
ATOM     90  F   UNL A   1      44.192  25.237  36.788  1.00  0.00    -0.200 F 
ATOM     91  C   UNL A   1      45.837  26.683  35.903  1.00  0.00     0.200 A 
ATOM     92  F   UNL A   1      47.444  28.164  35.010  1.00  0.00    -0.200 F 
ATOM     93  F   UNL A   1      46.808  25.930  36.438  1.00  0.00    -0.200 F 
ENDBRANCH  60  83
ENDBRANCH  34  35
ENDBRANCH  26  29
ENDBRANCH  24  25
ENDBRANCH   1  24
TORSDOF 13
ENDMDL
MODEL 3
REMARK VINA RESULT:     -12.5      0.673      7.373
REMARK SMILES CC(=O)N1[C@@H](c2c(F)cccc2Cl)SC[C@H]1C(=O)NCCCCNC(=O)c1ccc(-c2c3nc(c(-c4c(F)c(F)c(F)c(F)c4F)c4ccc([nH]4)c(-c4c(F)c(F)c(F)c(F)c4F)c4nc(c(-c5c(F)c(F)c(F)c(F)c5F)c5ccc2[nH]5)C=C4)C=C3)cc1
REMARK SMILES IDX 22 1 21 2 20 3 19 4 17 5 18 6 16 8 4 9 5 10 14 11 15 12 2 13
REMARK SMILES IDX 1 14 3 15 6 16 7 17 12 18 8 19 9 20 11 21 13 22 10 23 23 24
REMARK SMILES IDX 24 25 25 26 26 28 27 29 28 30 89 31 29 32 88 33 30 34 31 35
REMARK SMILES IDX 32 36 82 37 33 38 87 39 81 40 83 41 34 42 86 43 80 44 79 45
REMARK SMILES IDX 35 47 67 48 47 49 66 50 48 51 51 52 65 53 84 54 49 55 50 56
REMARK SMILES IDX 64 58 85 59 52 60 36 61 37 62 45 63 38 64 39 65 43 66 46 67
REMARK SMILES IDX 40 68 41 69 44 70 42 71 68 72 69 73 77 74 70 75 71 76 75 77
REMARK SMILES IDX 78 78 72 79 73 80 76 81 74 82 53 83 54 84 62 85 55 86 56 87
REMARK SMILES IDX 60 88 63 89 57 90 58 91 61 92 59 93
REMARK H PARENT 19 7 24 27 83 46 51 57
REMARK Flexibility Score: inf
ROOT
ATOM      1  C   UNL A   1      31.564  32.209  26.537  1.00  0.00     0.023 C 
ENDROOT
BRANCH   1   2
ATOM      2  C   UNL A   1      31.490  30.679  26.530  1.00  0.00     0.023 C 
BRANCH   2   3
ATOM      3  C   UNL A   1      31.597  30.004  25.166  1.00  0.00     0.116 C 
BRANCH   3   4
ATOM      4  N   UNL A   1      32.923  29.555  24.830  1.00  0.00    -0.354 N 
ATOM      5  C   UNL A   1      33.318  28.334  24.370  1.00  0.00     0.243 C 
ATOM      6  O   UNL A   1      34.389  28.304  23.750  1.00  0.00    -0.273 OA
ATOM      7  H   UNL A   1      33.640  30.217  24.949  1.00  0.00     0.163 HD
BRANCH   5   8
ATOM      8  C   UNL A   1      32.423  27.068  24.411  1.00  0.00     0.185 C 
ATOM      9  N   UNL A   1      32.802  25.867  23.636  1.00  0.00    -0.314 N 
ATOM     10  C   UNL A   1      32.644  24.579  24.337  1.00  0.00     0.179 C 
ATOM     11  S   UNL A   1      31.529  24.961  25.730  1.00  0.00    -0.129 SA
ATOM     12  C   UNL A   1      32.090  26.684  25.847  1.00  0.00     0.107 C 
BRANCH   9  13
ATOM     13  C   UNL A   1      32.636  26.047  22.268  1.00  0.00     0.221 C 
ATOM     14  C   UNL A   1      31.307  26.564  21.772  1.00  0.00     0.114 C 
ATOM     15  O   UNL A   1      33.592  25.967  21.495  1.00  0.00    -0.275 OA
ENDBRANCH   9  13
BRANCH  10  16
ATOM     16  C   UNL A   1      33.977  23.910  24.695  1.00  0.00     0.039 A 
ATOM     17  C   UNL A   1      35.029  24.582  25.351  1.00  0.00     0.130 A 
ATOM     18  C   UNL A   1      34.262  22.576  24.330  1.00  0.00     0.050 A 
ATOM     19  F   UNL A   1      34.916  25.861  25.730  1.00  0.00    -0.207 F 
ATOM     20  C   UNL A   1      36.282  24.004  25.576  1.00  0.00     0.040 A 
ATOM     21  C   UNL A   1      35.531  22.001  24.524  1.00  0.00     0.021 A 
ATOM     22  Cl  UNL A   1      33.097  21.500  23.659  1.00  0.00    -0.084 Cl
ATOM     23  C   UNL A   1      36.543  22.715  25.143  1.00  0.00     0.005 A 
ENDBRANCH  10  16
ENDBRANCH   5   8
ENDBRANCH   3   4
ENDBRANCH   2   3
ENDBRANCH   1   2
BRANCH   1  24
ATOM     24  C   UNL A   1      32.730  32.858  27.277  1.00  0.00     0.116 C 
BRANCH  24  25
ATOM     25  N   UNL A   1      32.466  34.216  27.725  1.00  0.00    -0.352 N 
ATOM     26  C   UNL A   1      33.055  34.945  28.738  1.00  0.00     0.251 C 
ATOM     27  H   UNL A   1      31.759  34.688  27.229  1.00  0.00     0.163 HD
ATOM     28  O   UNL A   1      32.624  36.047  29.048  1.00  0.00    -0.269 OA
BRANCH  26  29
ATOM     29  C   UNL A   1      34.202  34.372  29.470  1.00  0.00     0.039 A 
ATOM     30  C   UNL A   1      33.975  33.553  30.579  1.00  0.00     0.014 A 
ATOM     31  C   UNL A   1      35.502  34.619  29.029  1.00  0.00     0.014 A 
ATOM     32  C   UNL A   1      35.054  32.914  31.191  1.00  0.00     0.010 A 
ATOM     33  C   UNL A   1      36.555  33.890  29.556  1.00  0.00     0.010 A 
ATOM     34  C   UNL A   1      36.345  33.043  30.653  1.00  0.00    -0.014 A 
BRANCH  34  35
ATOM     35  C   UNL A   1      37.501  32.312  31.220  1.00  0.00     0.031 A 
ATOM     36  C   UNL A   1      38.019  32.680  32.583  1.00  0.00     0.074 A 
ATOM     37  C   UNL A   1      38.132  31.392  30.467  1.00  0.00     0.049 A 
ATOM     38  N   UNL A   1      39.054  32.215  33.232  1.00  0.00    -0.248 NA
ATOM     39  C   UNL A   1      37.304  33.756  33.292  1.00  0.00     0.031 C 
ATOM     40  C   UNL A   1      37.768  31.033  29.094  1.00  0.00     0.029 A 
ATOM     41  N   UNL A   1      39.217  30.600  30.739  1.00  0.00    -0.354 N 
ATOM     42  C   UNL A   1      39.119  32.949  34.409  1.00  0.00     0.074 A 
ATOM     43  C   UNL A   1      38.081  33.952  34.344  1.00  0.00     0.031 C 
ATOM     44  C   UNL A   1      38.590  30.066  28.658  1.00  0.00     0.029 A 
ATOM     45  C   UNL A   1      39.560  29.763  29.705  1.00  0.00     0.049 A 
ATOM     46  H   UNL A   1      39.703  30.627  31.594  1.00  0.00     0.167 HD
ATOM     47  C   UNL A   1      39.946  32.774  35.467  1.00  0.00     0.037 A 
ATOM     48  C   UNL A   1      40.545  28.851  29.620  1.00  0.00     0.037 A 
ATOM     49  C   UNL A   1      40.962  31.757  35.513  1.00  0.00     0.049 A 
ATOM     50  C   UNL A   1      41.429  28.643  30.819  1.00  0.00     0.074 A 
ATOM     51  C   UNL A   1      41.831  31.443  36.542  1.00  0.00     0.029 A 
ATOM     52  N   UNL A   1      41.246  30.886  34.468  1.00  0.00    -0.354 N 
ATOM     53  N   UNL A   1      41.431  29.283  31.964  1.00  0.00    -0.248 NA
ATOM     54  C   UNL A   1      42.432  27.575  30.724  1.00  0.00     0.031 C 
ATOM     55  C   UNL A   1      42.670  30.415  36.101  1.00  0.00     0.029 A 
ATOM     56  C   UNL A   1      42.285  30.042  34.822  1.00  0.00     0.049 A 
ATOM     57  H   UNL A   1      40.776  30.870  33.603  1.00  0.00     0.167 HD
ATOM     58  C   UNL A   1      42.415  28.685  32.737  1.00  0.00     0.074 A 
ATOM     59  C   UNL A   1      42.976  27.616  31.932  1.00  0.00     0.031 C 
ATOM     60  C   UNL A   1      42.820  28.988  33.995  1.00  0.00     0.037 A 
BRANCH  47  61
ATOM     61  C   UNL A   1      39.768  33.696  36.643  1.00  0.00     0.064 A 
ATOM     62  C   UNL A   1      38.946  33.355  37.730  1.00  0.00     0.173 A 
ATOM     63  C   UNL A   1      40.413  34.941  36.683  1.00  0.00     0.173 A 
ATOM     64  F   UNL A   1      38.293  32.183  37.742  1.00  0.00    -0.203 F 
ATOM     65  C   UNL A   1      38.732  34.246  38.781  1.00  0.00     0.198 A 
ATOM     66  C   UNL A   1      40.229  35.814  37.755  1.00  0.00     0.198 A 
ATOM     67  F   UNL A   1      41.215  35.322  35.677  1.00  0.00    -0.203 F 
ATOM     68  F   UNL A   1      37.878  33.927  39.763  1.00  0.00    -0.200 F 
ATOM     69  C   UNL A   1      39.378  35.471  38.794  1.00  0.00     0.200 A 
ATOM     70  F   UNL A   1      40.865  36.993  37.774  1.00  0.00    -0.200 F 
ATOM     71  F   UNL A   1      39.170  36.328  39.804  1.00  0.00    -0.200 F 
ENDBRANCH  47  61
BRANCH  48  72
ATOM     72  C   UNL A   1      40.695  28.043  28.380  1.00  0.00     0.064 A 
ATOM     73  C   UNL A   1      41.507  28.482  27.325  1.00  0.00     0.173 A 
ATOM     74  C   UNL A   1      40.075  26.791  28.245  1.00  0.00     0.173 A 
ATOM     75  F   UNL A   1      42.114  29.676  27.401  1.00  0.00    -0.203 F 
ATOM     76  C   UNL A   1      41.683  27.710  26.178  1.00  0.00     0.198 A 
ATOM     77  C   UNL A   1      40.276  26.006  27.110  1.00  0.00     0.198 A 
ATOM     78  F   UNL A   1      39.301  26.316  29.231  1.00  0.00    -0.203 F 
ATOM     79  F   UNL A   1      42.441  28.169  25.173  1.00  0.00    -0.200 F 
ATOM     80  C   UNL A   1      41.075  26.469  26.076  1.00  0.00     0.200 A 
ATOM     81  F   UNL A   1      39.704  24.797  27.026  1.00  0.00    -0.200 F 
ATOM     82  F   UNL A   1      41.260  25.717  24.982  1.00  0.00    -0.200 F 
ENDBRANCH  48  72
BRANCH  60  83
ATOM     83  C   UNL A   1      43.900  28.130  34.588  1.00  0.00     0.064 A 
ATOM     84  C   UNL A   1      45.254  28.482  34.499  1.00  0.00     0.173 A 
ATOM     85  C   UNL A   1      43.565  26.963  35.291  1.00  0.00     0.173 A 
ATOM     86  F   UNL A   1      45.624  29.583  33.827  1.00  0.00    -0.203 F 
ATOM     87  C   UNL A   1      46.238  27.678  35.066  1.00  0.00     0.198 A 
ATOM     88  C   UNL A   1      44.550  26.181  35.887  1.00  0.00     0.198 A 
ATOM     89  F   UNL A   1      42.283  26.588  35.412  1.00  0.00    -0.203 F 
ATOM     90  F   UNL A   1      47.530  28.003  34.922  1.00  0.00    -0.200 F 
ATOM     91  C   UNL A   1      45.885  26.533  35.766  1.00  0.00     0.200 A 
ATOM     92  F   UNL A   1      44.205  25.086  36.578  1.00  0.00    -0.200 F 
ATOM     93  F   UNL A   1      46.834  25.765  36.318  1.00  0.00    -0.200 F 
ENDBRANCH  60  83
ENDBRANCH  34  35
ENDBRANCH  26  29
ENDBRANCH  24  25
ENDBRANCH   1  24
TORSDOF 13
ENDMDL
