MODEL 1
REMARK VINA RESULT:     -13.5      0.000      0.000
REMARK SMILES Cc1c(NC(=O)c2ccc(Br)cc2N)cccc1C(=O)NCCCCNC(=O)c1ccc(-c2c3nc(c(-c4c(F)c(F)c(F)c(F)c4F)c4ccc([nH]4)c(-c4c(F)c(F)c(F)c(F)c4F)c4nc(c(-c5c(F)c(F)c(F)c(F)c5F)c5ccc2[nH]5)C=C4)C=C3)cc1
REMARK SMILES IDX 23 1 22 2 21 3 19 4 20 5 18 7 1 8 2 9 3 10 15 11 17 12 16 13
REMARK SMILES IDX 4 14 5 15 6 17 7 18 8 19 13 20 9 21 12 22 10 23 11 24 14 25
REMARK SMILES IDX 24 28 25 29 26 30 27 31 28 33 29 34 30 35 91 36 31 37 90 38
REMARK SMILES IDX 32 39 33 40 34 41 84 42 35 43 89 44 83 45 85 46 36 47 88 48
REMARK SMILES IDX 82 49 81 50 37 52 69 53 49 54 68 55 50 56 53 57 67 58 86 59
REMARK SMILES IDX 51 60 52 61 66 63 87 64 54 65 38 66 39 67 47 68 40 69 41 70
REMARK SMILES IDX 45 71 48 72 42 73 43 74 46 75 44 76 70 77 71 78 79 79 72 80
REMARK SMILES IDX 73 81 77 82 80 83 74 84 75 85 78 86 76 87 55 88 56 89 64 90
REMARK SMILES IDX 57 91 58 92 62 93 65 94 59 95 60 96 63 97 61 98
REMARK H PARENT 21 6 4 16 14 26 14 27 26 32 85 51 53 62
REMARK Flexibility Score: inf
ROOT
ATOM      1  C   UNL A   1      32.322  30.845  26.605  1.00  0.00     0.023 C 
ENDROOT
BRANCH   1   2
ATOM      2  C   UNL A   1      31.784  30.064  25.390  1.00  0.00     0.116 C 
BRANCH   2   3
ATOM      3  N   UNL A   1      32.865  29.719  24.491  1.00  0.00    -0.352 N 
ATOM      4  C   UNL A   1      33.522  28.577  24.121  1.00  0.00     0.251 C 
ATOM      5  O   UNL A   1      34.460  28.774  23.337  1.00  0.00    -0.269 OA
ATOM      6  H   UNL A   1      33.218  30.511  24.024  1.00  0.00     0.163 HD
BRANCH   4   7
ATOM      7  C   UNL A   1      33.217  27.148  24.497  1.00  0.00     0.044 A 
ATOM      8  C   UNL A   1      32.638  26.145  22.206  1.00  0.00     0.047 C 
ATOM      9  C   UNL A   1      32.871  26.043  23.684  1.00  0.00    -0.015 A 
ATOM     10  C   UNL A   1      32.514  24.806  24.295  1.00  0.00     0.045 A 
ATOM     11  C   UNL A   1      32.414  24.679  25.678  1.00  0.00     0.026 A 
ATOM     12  C   UNL A   1      33.133  26.966  25.901  1.00  0.00     0.014 A 
ATOM     13  C   UNL A   1      32.720  25.765  26.482  1.00  0.00     0.003 A 
BRANCH  10  14
ATOM     14  N   UNL A   1      32.260  23.709  23.455  1.00  0.00    -0.322 N 
ATOM     15  C   UNL A   1      33.042  22.642  23.085  1.00  0.00     0.257 C 
ATOM     16  H   UNL A   1      31.359  23.704  23.060  1.00  0.00     0.170 HD
ATOM     17  O   UNL A   1      32.637  21.908  22.182  1.00  0.00    -0.269 OA
BRANCH  15  18
ATOM     18  C   UNL A   1      34.313  22.295  23.774  1.00  0.00     0.063 A 
ATOM     19  C   UNL A   1      35.417  23.085  23.404  1.00  0.00     0.017 A 
ATOM     20  C   UNL A   1      34.487  21.211  24.662  1.00  0.00     0.045 A 
ATOM     21  C   UNL A   1      36.680  22.837  23.935  1.00  0.00     0.016 A 
ATOM     22  C   UNL A   1      35.765  20.990  25.198  1.00  0.00     0.042 A 
ATOM     23  C   UNL A   1      36.845  21.798  24.843  1.00  0.00     0.020 A 
ATOM     24  Br  UNL A   1      38.555  21.443  25.564  1.00  0.00    -0.051 Br
BRANCH  20  25
ATOM     25  N   UNL A   1      33.525  20.234  24.905  1.00  0.00    -0.398 N 
ATOM     26  H   UNL A   1      33.252  19.622  24.184  1.00  0.00     0.156 HD
ATOM     27  H   UNL A   1      33.119  20.154  25.799  1.00  0.00     0.156 HD
ENDBRANCH  20  25
ENDBRANCH  15  18
ENDBRANCH  10  14
ENDBRANCH   4   7
ENDBRANCH   2   3
ENDBRANCH   1   2
BRANCH   1  28
ATOM     28  C   UNL A   1      33.804  30.646  26.907  1.00  0.00     0.023 C 
BRANCH  28  29
ATOM     29  C   UNL A   1      34.149  30.939  28.354  1.00  0.00     0.116 C 
BRANCH  29  30
ATOM     30  N   UNL A   1      35.276  31.846  28.548  1.00  0.00    -0.352 N 
ATOM     31  C   UNL A   1      36.603  31.546  28.811  1.00  0.00     0.251 C 
ATOM     32  H   UNL A   1      35.064  32.805  28.483  1.00  0.00     0.163 HD
ATOM     33  O   UNL A   1      37.405  32.448  29.036  1.00  0.00    -0.269 OA
BRANCH  31  34
ATOM     34  C   UNL A   1      37.085  30.151  28.654  1.00  0.00     0.039 A 
ATOM     35  C   UNL A   1      37.278  29.396  29.818  1.00  0.00     0.014 A 
ATOM     36  C   UNL A   1      37.634  29.725  27.451  1.00  0.00     0.014 A 
ATOM     37  C   UNL A   1      38.272  28.424  29.835  1.00  0.00     0.010 A 
ATOM     38  C   UNL A   1      38.721  28.878  27.502  1.00  0.00     0.010 A 
ATOM     39  C   UNL A   1      39.089  28.290  28.716  1.00  0.00    -0.014 A 
BRANCH  39  40
ATOM     40  C   UNL A   1      40.422  27.698  28.762  1.00  0.00     0.031 A 
ATOM     41  C   UNL A   1      40.606  26.252  28.519  1.00  0.00     0.074 A 
ATOM     42  C   UNL A   1      41.496  28.513  28.876  1.00  0.00     0.049 A 
ATOM     43  N   UNL A   1      41.665  25.587  28.834  1.00  0.00    -0.248 NA
ATOM     44  C   UNL A   1      39.561  25.418  27.944  1.00  0.00     0.031 C 
ATOM     45  C   UNL A   1      42.895  28.183  28.609  1.00  0.00     0.029 A 
ATOM     46  N   UNL A   1      41.549  29.795  29.454  1.00  0.00    -0.354 N 
ATOM     47  C   UNL A   1      41.570  24.340  28.256  1.00  0.00     0.074 A 
ATOM     48  C   UNL A   1      40.205  24.257  27.800  1.00  0.00     0.031 C 
ATOM     49  C   UNL A   1      43.679  29.055  29.261  1.00  0.00     0.029 A 
ATOM     50  C   UNL A   1      42.811  29.874  30.087  1.00  0.00     0.049 A 
ATOM     51  H   UNL A   1      40.853  30.490  29.424  1.00  0.00     0.167 HD
ATOM     52  C   UNL A   1      42.708  23.595  28.118  1.00  0.00     0.037 A 
ATOM     53  C   UNL A   1      42.918  29.996  31.443  1.00  0.00     0.037 A 
ATOM     54  C   UNL A   1      43.819  24.218  28.846  1.00  0.00     0.049 A 
ATOM     55  C   UNL A   1      43.659  28.857  32.107  1.00  0.00     0.074 A 
ATOM     56  C   UNL A   1      44.904  24.982  28.445  1.00  0.00     0.029 A 
ATOM     57  N   UNL A   1      43.741  24.349  30.231  1.00  0.00    -0.354 N 
ATOM     58  N   UNL A   1      43.873  27.703  31.539  1.00  0.00    -0.248 NA
ATOM     59  C   UNL A   1      44.176  28.912  33.471  1.00  0.00     0.031 C 
ATOM     60  C   UNL A   1      45.435  25.629  29.590  1.00  0.00     0.029 A 
ATOM     61  C   UNL A   1      44.690  25.241  30.691  1.00  0.00     0.049 A 
ATOM     62  H   UNL A   1      43.097  23.871  30.803  1.00  0.00     0.167 HD
ATOM     63  C   UNL A   1      44.499  26.866  32.424  1.00  0.00     0.074 A 
ATOM     64  C   UNL A   1      44.689  27.677  33.612  1.00  0.00     0.031 C 
ATOM     65  C   UNL A   1      44.787  25.570  32.106  1.00  0.00     0.037 A 
BRANCH  52  66
ATOM     66  C   UNL A   1      42.907  22.482  27.095  1.00  0.00     0.064 A 
ATOM     67  C   UNL A   1      42.198  21.264  27.217  1.00  0.00     0.173 A 
ATOM     68  C   UNL A   1      43.837  22.492  26.037  1.00  0.00     0.173 A 
ATOM     69  F   UNL A   1      41.193  21.123  28.091  1.00  0.00    -0.203 F 
ATOM     70  C   UNL A   1      42.488  20.133  26.442  1.00  0.00     0.198 A 
ATOM     71  C   UNL A   1      44.153  21.355  25.285  1.00  0.00     0.198 A 
ATOM     72  F   UNL A   1      44.441  23.610  25.633  1.00  0.00    -0.203 F 
ATOM     73  F   UNL A   1      41.794  19.002  26.631  1.00  0.00    -0.200 F 
ATOM     74  C   UNL A   1      43.490  20.169  25.498  1.00  0.00     0.200 A 
ATOM     75  F   UNL A   1      45.109  21.428  24.346  1.00  0.00    -0.200 F 
ATOM     76  F   UNL A   1      43.796  19.079  24.781  1.00  0.00    -0.200 F 
ENDBRANCH  52  66
BRANCH  53  77
ATOM     77  C   UNL A   1      41.796  30.757  32.052  1.00  0.00     0.064 A 
ATOM     78  C   UNL A   1      41.781  32.157  31.898  1.00  0.00     0.173 A 
ATOM     79  C   UNL A   1      40.597  30.133  32.416  1.00  0.00     0.173 A 
ATOM     80  F   UNL A   1      42.902  32.802  31.541  1.00  0.00    -0.203 F 
ATOM     81  C   UNL A   1      40.596  32.884  31.988  1.00  0.00     0.198 A 
ATOM     82  C   UNL A   1      39.412  30.868  32.517  1.00  0.00     0.198 A 
ATOM     83  F   UNL A   1      40.539  28.800  32.548  1.00  0.00    -0.203 F 
ATOM     84  F   UNL A   1      40.597  34.198  31.720  1.00  0.00    -0.200 F 
ATOM     85  C   UNL A   1      39.407  32.233  32.269  1.00  0.00     0.200 A 
ATOM     86  F   UNL A   1      38.254  30.234  32.750  1.00  0.00    -0.200 F 
ATOM     87  F   UNL A   1      38.250  32.911  32.255  1.00  0.00    -0.200 F 
ENDBRANCH  53  77
BRANCH  65  88
ATOM     88  C   UNL A   1      45.260  24.508  33.069  1.00  0.00     0.064 A 
ATOM     89  C   UNL A   1      44.499  23.385  33.432  1.00  0.00     0.173 A 
ATOM     90  C   UNL A   1      46.593  24.521  33.545  1.00  0.00     0.173 A 
ATOM     91  F   UNL A   1      43.261  23.197  32.954  1.00  0.00    -0.203 F 
ATOM     92  C   UNL A   1      45.014  22.379  34.254  1.00  0.00     0.198 A 
ATOM     93  C   UNL A   1      47.121  23.488  34.317  1.00  0.00     0.198 A 
ATOM     94  F   UNL A   1      47.431  25.527  33.251  1.00  0.00    -0.203 F 
ATOM     95  F   UNL A   1      44.235  21.345  34.604  1.00  0.00    -0.200 F 
ATOM     96  C   UNL A   1      46.326  22.423  34.686  1.00  0.00     0.200 A 
ATOM     97  F   UNL A   1      48.411  23.522  34.683  1.00  0.00    -0.200 F 
ATOM     98  F   UNL A   1      46.830  21.432  35.434  1.00  0.00    -0.200 F 
ENDBRANCH  65  88
ENDBRANCH  39  40
ENDBRANCH  31  34
ENDBRANCH  29  30
ENDBRANCH  28  29
ENDBRANCH   1  28
TORSDOF 14
ENDMDL
MODEL 2
REMARK VINA RESULT:     -13.5      3.845     10.082
REMARK SMILES Cc1c(NC(=O)c2ccc(Br)cc2N)cccc1C(=O)NCCCCNC(=O)c1ccc(-c2c3nc(c(-c4c(F)c(F)c(F)c(F)c4F)c4ccc([nH]4)c(-c4c(F)c(F)c(F)c(F)c4F)c4nc(c(-c5c(F)c(F)c(F)c(F)c5F)c5ccc2[nH]5)C=C4)C=C3)cc1
REMARK SMILES IDX 23 1 22 2 21 3 19 4 20 5 18 7 1 8 2 9 3 10 15 11 17 12 16 13
REMARK SMILES IDX 4 14 5 15 6 17 7 18 8 19 13 20 9 21 12 22 10 23 11 24 14 25
REMARK SMILES IDX 24 28 25 29 26 30 27 31 28 33 29 34 30 35 91 36 31 37 90 38
REMARK SMILES IDX 32 39 33 40 34 41 84 42 35 43 89 44 83 45 85 46 36 47 88 48
REMARK SMILES IDX 82 49 81 50 37 52 69 53 49 54 68 55 50 56 53 57 67 58 86 59
REMARK SMILES IDX 51 60 52 61 66 63 87 64 54 65 38 66 39 67 47 68 40 69 41 70
REMARK SMILES IDX 45 71 48 72 42 73 43 74 46 75 44 76 70 77 71 78 79 79 72 80
REMARK SMILES IDX 73 81 77 82 80 83 74 84 75 85 78 86 76 87 55 88 56 89 64 90
REMARK SMILES IDX 57 91 58 92 62 93 65 94 59 95 60 96 63 97 61 98
REMARK H PARENT 21 6 4 16 14 26 14 27 26 32 85 51 53 62
REMARK Flexibility Score: inf
ROOT
ATOM      1  C   UNL A   1      37.422  21.205  24.661  1.00  0.00     0.023 C 
ENDROOT
BRANCH   1   2
ATOM      2  C   UNL A   1      36.154  20.438  25.087  1.00  0.00     0.116 C 
BRANCH   2   3
ATOM      3  N   UNL A   1      35.529  21.082  26.222  1.00  0.00    -0.352 N 
ATOM      4  C   UNL A   1      34.548  22.017  26.417  1.00  0.00     0.251 C 
ATOM      5  O   UNL A   1      34.382  22.322  27.606  1.00  0.00    -0.269 OA
ATOM      6  H   UNL A   1      35.905  20.765  27.075  1.00  0.00     0.163 HD
BRANCH   4   7
ATOM      7  C   UNL A   1      33.638  22.659  25.399  1.00  0.00     0.044 A 
ATOM      8  C   UNL A   1      35.340  23.858  23.898  1.00  0.00     0.047 C 
ATOM      9  C   UNL A   1      33.947  23.434  24.257  1.00  0.00    -0.015 A 
ATOM     10  C   UNL A   1      32.894  24.032  23.507  1.00  0.00     0.045 A 
ATOM     11  C   UNL A   1      31.567  23.945  23.920  1.00  0.00     0.026 A 
ATOM     12  C   UNL A   1      32.272  22.570  25.766  1.00  0.00     0.014 A 
ATOM     13  C   UNL A   1      31.256  23.215  25.056  1.00  0.00     0.003 A 
BRANCH  10  14
ATOM     14  N   UNL A   1      33.234  24.722  22.333  1.00  0.00    -0.322 N 
ATOM     15  C   UNL A   1      33.154  26.053  21.999  1.00  0.00     0.257 C 
ATOM     16  H   UNL A   1      33.595  24.149  21.618  1.00  0.00     0.170 HD
ATOM     17  O   UNL A   1      33.349  26.372  20.825  1.00  0.00    -0.269 OA
BRANCH  15  18
ATOM     18  C   UNL A   1      32.916  27.123  23.002  1.00  0.00     0.063 A 
ATOM     19  C   UNL A   1      33.800  27.111  24.096  1.00  0.00     0.017 A 
ATOM     20  C   UNL A   1      31.848  28.047  22.968  1.00  0.00     0.045 A 
ATOM     21  C   UNL A   1      33.661  28.028  25.135  1.00  0.00     0.016 A 
ATOM     22  C   UNL A   1      31.737  28.973  24.017  1.00  0.00     0.042 A 
ATOM     23  C   UNL A   1      32.637  28.966  25.082  1.00  0.00     0.020 A 
ATOM     24  Br  UNL A   1      32.429  30.210  26.489  1.00  0.00    -0.051 Br
BRANCH  20  25
ATOM     25  N   UNL A   1      30.791  27.990  22.064  1.00  0.00    -0.398 N 
ATOM     26  H   UNL A   1      30.970  27.889  21.101  1.00  0.00     0.156 HD
ATOM     27  H   UNL A   1      29.863  28.050  22.388  1.00  0.00     0.156 HD
ENDBRANCH  20  25
ENDBRANCH  15  18
ENDBRANCH  10  14
ENDBRANCH   4   7
ENDBRANCH   2   3
ENDBRANCH   1   2
BRANCH   1  28
ATOM     28  C   UNL A   1      38.547  21.231  25.692  1.00  0.00     0.023 C 
BRANCH  28  29
ATOM     29  C   UNL A   1      38.915  22.637  26.119  1.00  0.00     0.116 C 
BRANCH  29  30
ATOM     30  N   UNL A   1      40.324  22.836  26.442  1.00  0.00    -0.352 N 
ATOM     31  C   UNL A   1      41.017  24.020  26.639  1.00  0.00     0.251 C 
ATOM     32  H   UNL A   1      40.857  22.013  26.533  1.00  0.00     0.163 HD
ATOM     33  O   UNL A   1      42.232  24.000  26.816  1.00  0.00    -0.269 OA
BRANCH  31  34
ATOM     34  C   UNL A   1      40.267  25.290  26.802  1.00  0.00     0.039 A 
ATOM     35  C   UNL A   1      40.760  26.424  26.143  1.00  0.00     0.014 A 
ATOM     36  C   UNL A   1      39.326  25.429  27.814  1.00  0.00     0.014 A 
ATOM     37  C   UNL A   1      40.562  27.676  26.714  1.00  0.00     0.010 A 
ATOM     38  C   UNL A   1      39.258  26.641  28.468  1.00  0.00     0.010 A 
ATOM     39  C   UNL A   1      39.945  27.747  27.960  1.00  0.00    -0.014 A 
BRANCH  39  40
ATOM     40  C   UNL A   1      40.106  28.875  28.872  1.00  0.00     0.031 A 
ATOM     41  C   UNL A   1      39.063  29.918  28.960  1.00  0.00     0.074 A 
ATOM     42  C   UNL A   1      41.143  28.872  29.740  1.00  0.00     0.049 A 
ATOM     43  N   UNL A   1      39.237  31.084  29.483  1.00  0.00    -0.248 NA
ATOM     44  C   UNL A   1      37.731  29.741  28.400  1.00  0.00     0.031 C 
ATOM     45  C   UNL A   1      41.305  29.698  30.934  1.00  0.00     0.029 A 
ATOM     46  N   UNL A   1      42.383  28.222  29.600  1.00  0.00    -0.354 N 
ATOM     47  C   UNL A   1      38.004  31.688  29.596  1.00  0.00     0.074 A 
ATOM     48  C   UNL A   1      37.122  30.851  28.821  1.00  0.00     0.031 C 
ATOM     49  C   UNL A   1      42.608  29.752  31.252  1.00  0.00     0.029 A 
ATOM     50  C   UNL A   1      43.335  29.089  30.184  1.00  0.00     0.049 A 
ATOM     51  H   UNL A   1      42.552  27.346  29.182  1.00  0.00     0.167 HD
ATOM     52  C   UNL A   1      37.870  32.746  30.452  1.00  0.00     0.037 A 
ATOM     53  C   UNL A   1      44.318  29.671  29.436  1.00  0.00     0.037 A 
ATOM     54  C   UNL A   1      39.184  33.181  30.937  1.00  0.00     0.049 A 
ATOM     55  C   UNL A   1      44.274  31.182  29.430  1.00  0.00     0.074 A 
ATOM     56  C   UNL A   1      39.865  32.986  32.129  1.00  0.00     0.029 A 
ATOM     57  N   UNL A   1      40.118  33.676  30.030  1.00  0.00    -0.354 N 
ATOM     58  N   UNL A   1      43.230  31.878  29.787  1.00  0.00    -0.248 NA
ATOM     59  C   UNL A   1      45.379  32.024  28.983  1.00  0.00     0.031 C 
ATOM     60  C   UNL A   1      41.231  33.300  31.912  1.00  0.00     0.029 A 
ATOM     61  C   UNL A   1      41.377  33.710  30.598  1.00  0.00     0.049 A 
ATOM     62  H   UNL A   1      39.910  33.962  29.111  1.00  0.00     0.167 HD
ATOM     63  C   UNL A   1      43.482  33.211  29.597  1.00  0.00     0.074 A 
ATOM     64  C   UNL A   1      44.850  33.253  29.115  1.00  0.00     0.031 C 
ATOM     65  C   UNL A   1      42.532  34.163  29.834  1.00  0.00     0.037 A 
BRANCH  52  66
ATOM     66  C   UNL A   1      36.559  33.197  31.087  1.00  0.00     0.064 A 
ATOM     67  C   UNL A   1      35.638  33.977  30.348  1.00  0.00     0.173 A 
ATOM     68  C   UNL A   1      36.180  32.993  32.428  1.00  0.00     0.173 A 
ATOM     69  F   UNL A   1      35.780  34.168  29.030  1.00  0.00    -0.203 F 
ATOM     70  C   UNL A   1      34.525  34.597  30.932  1.00  0.00     0.198 A 
ATOM     71  C   UNL A   1      35.090  33.638  33.022  1.00  0.00     0.198 A 
ATOM     72  F   UNL A   1      36.803  32.116  33.216  1.00  0.00    -0.203 F 
ATOM     73  F   UNL A   1      33.710  35.347  30.178  1.00  0.00    -0.200 F 
ATOM     74  C   UNL A   1      34.270  34.455  32.278  1.00  0.00     0.200 A 
ATOM     75  F   UNL A   1      34.843  33.452  34.328  1.00  0.00    -0.200 F 
ATOM     76  F   UNL A   1      33.229  35.076  32.848  1.00  0.00    -0.200 F 
ENDBRANCH  52  66
BRANCH  53  77
ATOM     77  C   UNL A   1      44.768  28.823  28.301  1.00  0.00     0.064 A 
ATOM     78  C   UNL A   1      45.582  27.709  28.585  1.00  0.00     0.173 A 
ATOM     79  C   UNL A   1      44.121  28.853  27.061  1.00  0.00     0.173 A 
ATOM     80  F   UNL A   1      46.217  27.628  29.765  1.00  0.00    -0.203 F 
ATOM     81  C   UNL A   1      45.651  26.622  27.717  1.00  0.00     0.198 A 
ATOM     82  C   UNL A   1      44.203  27.765  26.188  1.00  0.00     0.198 A 
ATOM     83  F   UNL A   1      43.309  29.871  26.744  1.00  0.00    -0.203 F 
ATOM     84  F   UNL A   1      46.341  25.528  28.072  1.00  0.00    -0.200 F 
ATOM     85  C   UNL A   1      44.937  26.639  26.532  1.00  0.00     0.200 A 
ATOM     86  F   UNL A   1      43.482  27.763  25.058  1.00  0.00    -0.200 F 
ATOM     87  F   UNL A   1      44.918  25.555  25.743  1.00  0.00    -0.200 F 
ENDBRANCH  53  77
BRANCH  65  88
ATOM     88  C   UNL A   1      42.623  35.618  29.446  1.00  0.00     0.064 A 
ATOM     89  C   UNL A   1      43.406  36.563  30.129  1.00  0.00     0.173 A 
ATOM     90  C   UNL A   1      42.023  36.074  28.248  1.00  0.00     0.173 A 
ATOM     91  F   UNL A   1      44.117  36.227  31.214  1.00  0.00    -0.203 F 
ATOM     92  C   UNL A   1      43.534  37.880  29.678  1.00  0.00     0.198 A 
ATOM     93  C   UNL A   1      42.200  37.372  27.771  1.00  0.00     0.198 A 
ATOM     94  F   UNL A   1      41.269  35.264  27.491  1.00  0.00    -0.203 F 
ATOM     95  F   UNL A   1      44.262  38.756  30.386  1.00  0.00    -0.200 F 
ATOM     96  C   UNL A   1      42.943  38.281  28.495  1.00  0.00     0.200 A 
ATOM     97  F   UNL A   1      41.663  37.729  26.595  1.00  0.00    -0.200 F 
ATOM     98  F   UNL A   1      43.108  39.531  28.042  1.00  0.00    -0.200 F 
ENDBRANCH  65  88
ENDBRANCH  39  40
ENDBRANCH  31  34
ENDBRANCH  29  30
ENDBRANCH  28  29
ENDBRANCH   1  28
TORSDOF 14
ENDMDL
MODEL 3
REMARK VINA RESULT:     -13.3      1.440      2.113
REMARK SMILES Cc1c(NC(=O)c2ccc(Br)cc2N)cccc1C(=O)NCCCCNC(=O)c1ccc(-c2c3nc(c(-c4c(F)c(F)c(F)c(F)c4F)c4ccc([nH]4)c(-c4c(F)c(F)c(F)c(F)c4F)c4nc(c(-c5c(F)c(F)c(F)c(F)c5F)c5ccc2[nH]5)C=C4)C=C3)cc1
REMARK SMILES IDX 23 1 22 2 21 3 19 4 20 5 18 7 1 8 2 9 3 10 15 11 17 12 16 13
REMARK SMILES IDX 4 14 5 15 6 17 7 18 8 19 13 20 9 21 12 22 10 23 11 24 14 25
REMARK SMILES IDX 24 28 25 29 26 30 27 31 28 33 29 34 30 35 91 36 31 37 90 38
REMARK SMILES IDX 32 39 33 40 34 41 84 42 35 43 89 44 83 45 85 46 36 47 88 48
REMARK SMILES IDX 82 49 81 50 37 52 69 53 49 54 68 55 50 56 53 57 67 58 86 59
REMARK SMILES IDX 51 60 52 61 66 63 87 64 54 65 38 66 39 67 47 68 40 69 41 70
REMARK SMILES IDX 45 71 48 72 42 73 43 74 46 75 44 76 70 77 71 78 79 79 72 80
REMARK SMILES IDX 73 81 77 82 80 83 74 84 75 85 78 86 76 87 55 88 56 89 64 90
REMARK SMILES IDX 57 91 58 92 62 93 65 94 59 95 60 96 63 97 61 98
REMARK H PARENT 21 6 4 16 14 26 14 27 26 32 85 51 53 62
REMARK Flexibility Score: inf
ROOT
ATOM      1  C   UNL A   1      33.657  29.324  26.243  1.00  0.00     0.023 C 
ENDROOT
BRANCH   1   2
ATOM      2  C   UNL A   1      33.513  29.329  24.708  1.00  0.00     0.116 C 
BRANCH   2   3
ATOM      3  N   UNL A   1      32.154  29.649  24.327  1.00  0.00    -0.352 N 
ATOM      4  C   UNL A   1      31.016  28.950  24.027  1.00  0.00     0.251 C 
ATOM      5  O   UNL A   1      30.068  29.668  23.683  1.00  0.00    -0.269 OA
ATOM      6  H   UNL A   1      32.011  30.622  24.269  1.00  0.00     0.163 HD
BRANCH   4   7
ATOM      7  C   UNL A   1      30.768  27.465  24.117  1.00  0.00     0.044 A 
ATOM      8  C   UNL A   1      31.029  27.070  26.640  1.00  0.00     0.047 C 
ATOM      9  C   UNL A   1      30.721  26.613  25.245  1.00  0.00    -0.015 A 
ATOM     10  C   UNL A   1      30.582  25.207  25.060  1.00  0.00     0.045 A 
ATOM     11  C   UNL A   1      30.579  24.638  23.789  1.00  0.00     0.026 A 
ATOM     12  C   UNL A   1      30.730  26.847  22.842  1.00  0.00     0.014 A 
ATOM     13  C   UNL A   1      30.657  25.462  22.677  1.00  0.00     0.003 A 
BRANCH  10  14
ATOM     14  N   UNL A   1      30.453  24.403  26.204  1.00  0.00    -0.322 N 
ATOM     15  C   UNL A   1      31.221  23.371  26.687  1.00  0.00     0.257 C 
ATOM     16  H   UNL A   1      29.670  24.618  26.761  1.00  0.00     0.170 HD
ATOM     17  O   UNL A   1      30.780  22.707  27.626  1.00  0.00    -0.269 OA
BRANCH  15  18
ATOM     18  C   UNL A   1      32.584  23.072  26.175  1.00  0.00     0.063 A 
ATOM     19  C   UNL A   1      33.456  24.175  26.145  1.00  0.00     0.017 A 
ATOM     20  C   UNL A   1      33.002  21.826  25.656  1.00  0.00     0.045 A 
ATOM     21  C   UNL A   1      34.749  24.047  25.643  1.00  0.00     0.016 A 
ATOM     22  C   UNL A   1      34.315  21.716  25.171  1.00  0.00     0.042 A 
ATOM     23  C   UNL A   1      35.177  22.812  25.172  1.00  0.00     0.020 A 
ATOM     24  Br  UNL A   1      36.925  22.626  24.479  1.00  0.00    -0.051 Br
BRANCH  20  25
ATOM     25  N   UNL A   1      32.152  20.749  25.421  1.00  0.00    -0.398 N 
ATOM     26  H   UNL A   1      31.222  20.777  25.743  1.00  0.00     0.156 HD
ATOM     27  H   UNL A   1      32.480  19.961  24.932  1.00  0.00     0.156 HD
ENDBRANCH  20  25
ENDBRANCH  15  18
ENDBRANCH  10  14
ENDBRANCH   4   7
ENDBRANCH   2   3
ENDBRANCH   1   2
BRANCH   1  28
ATOM     28  C   UNL A   1      34.026  30.665  26.869  1.00  0.00     0.023 C 
BRANCH  28  29
ATOM     29  C   UNL A   1      34.026  30.621  28.384  1.00  0.00     0.116 C 
BRANCH  29  30
ATOM     30  N   UNL A   1      34.984  31.515  29.027  1.00  0.00    -0.352 N 
ATOM     31  C   UNL A   1      36.235  31.225  29.548  1.00  0.00     0.251 C 
ATOM     32  H   UNL A   1      34.702  32.455  29.101  1.00  0.00     0.163 HD
ATOM     33  O   UNL A   1      36.872  32.094  30.139  1.00  0.00    -0.269 OA
BRANCH  31  34
ATOM     34  C   UNL A   1      36.872  29.919  29.245  1.00  0.00     0.039 A 
ATOM     35  C   UNL A   1      37.120  29.054  30.319  1.00  0.00     0.014 A 
ATOM     36  C   UNL A   1      37.492  29.703  28.021  1.00  0.00     0.014 A 
ATOM     37  C   UNL A   1      38.216  28.199  30.257  1.00  0.00     0.010 A 
ATOM     38  C   UNL A   1      38.664  28.978  28.011  1.00  0.00     0.010 A 
ATOM     39  C   UNL A   1      39.068  28.290  29.160  1.00  0.00    -0.014 A 
BRANCH  39  40
ATOM     40  C   UNL A   1      40.457  27.843  29.184  1.00  0.00     0.031 A 
ATOM     41  C   UNL A   1      40.815  26.494  28.699  1.00  0.00     0.074 A 
ATOM     42  C   UNL A   1      41.424  28.730  29.509  1.00  0.00     0.049 A 
ATOM     43  N   UNL A   1      41.929  25.896  28.957  1.00  0.00    -0.248 NA
ATOM     44  C   UNL A   1      39.899  25.674  27.920  1.00  0.00     0.031 C 
ATOM     45  C   UNL A   1      42.861  28.604  29.276  1.00  0.00     0.029 A 
ATOM     46  N   UNL A   1      41.305  29.882  30.308  1.00  0.00    -0.354 N 
ATOM     47  C   UNL A   1      42.002  24.774  28.161  1.00  0.00     0.074 A 
ATOM     48  C   UNL A   1      40.676  24.634  27.612  1.00  0.00     0.031 C 
ATOM     49  C   UNL A   1      43.512  29.418  30.121  1.00  0.00     0.029 A 
ATOM     50  C   UNL A   1      42.521  29.975  31.024  1.00  0.00     0.049 A 
ATOM     51  H   UNL A   1      40.535  30.495  30.359  1.00  0.00     0.167 HD
ATOM     52  C   UNL A   1      43.223  24.191  27.965  1.00  0.00     0.037 A 
ATOM     53  C   UNL A   1      42.554  29.856  32.383  1.00  0.00     0.037 A 
ATOM     54  C   UNL A   1      44.223  24.783  28.861  1.00  0.00     0.049 A 
ATOM     55  C   UNL A   1      43.392  28.699  32.879  1.00  0.00     0.074 A 
ATOM     56  C   UNL A   1      45.229  25.717  28.671  1.00  0.00     0.029 A 
ATOM     57  N   UNL A   1      44.071  24.647  30.239  1.00  0.00    -0.354 N 
ATOM     58  N   UNL A   1      43.762  27.698  32.129  1.00  0.00    -0.248 NA
ATOM     59  C   UNL A   1      43.841  28.555  34.261  1.00  0.00     0.031 C 
ATOM     60  C   UNL A   1      45.633  26.194  29.944  1.00  0.00     0.029 A 
ATOM     61  C   UNL A   1      44.891  25.534  30.909  1.00  0.00     0.049 A 
ATOM     62  H   UNL A   1      43.462  24.008  30.675  1.00  0.00     0.167 HD
ATOM     63  C   UNL A   1      44.440  26.783  32.889  1.00  0.00     0.074 A 
ATOM     64  C   UNL A   1      44.485  27.377  34.212  1.00  0.00     0.031 C 
ATOM     65  C   UNL A   1      44.889  25.605  32.364  1.00  0.00     0.037 A 
BRANCH  52  66
ATOM     66  C   UNL A   1      43.592  23.312  26.774  1.00  0.00     0.064 A 
ATOM     67  C   UNL A   1      43.141  21.974  26.707  1.00  0.00     0.173 A 
ATOM     68  C   UNL A   1      44.456  23.672  25.721  1.00  0.00     0.173 A 
ATOM     69  F   UNL A   1      42.222  21.500  27.559  1.00  0.00    -0.203 F 
ATOM     70  C   UNL A   1      43.613  21.057  25.758  1.00  0.00     0.198 A 
ATOM     71  C   UNL A   1      44.956  22.751  24.793  1.00  0.00     0.198 A 
ATOM     72  F   UNL A   1      44.812  24.937  25.495  1.00  0.00    -0.203 F 
ATOM     73  F   UNL A   1      43.163  19.795  25.771  1.00  0.00    -0.200 F 
ATOM     74  C   UNL A   1      44.548  21.438  24.821  1.00  0.00     0.200 A 
ATOM     75  F   UNL A   1      45.838  23.159  23.867  1.00  0.00    -0.200 F 
ATOM     76  F   UNL A   1      45.030  20.556  23.935  1.00  0.00    -0.200 F 
ENDBRANCH  52  66
BRANCH  53  77
ATOM     77  C   UNL A   1      41.328  30.370  33.046  1.00  0.00     0.064 A 
ATOM     78  C   UNL A   1      41.145  31.765  33.119  1.00  0.00     0.173 A 
ATOM     79  C   UNL A   1      40.203  29.560  33.240  1.00  0.00     0.173 A 
ATOM     80  F   UNL A   1      42.191  32.586  32.930  1.00  0.00    -0.203 F 
ATOM     81  C   UNL A   1      39.878  32.324  33.261  1.00  0.00     0.198 A 
ATOM     82  C   UNL A   1      38.935  30.126  33.395  1.00  0.00     0.198 A 
ATOM     83  F   UNL A   1      40.306  28.226  33.153  1.00  0.00    -0.203 F 
ATOM     84  F   UNL A   1      39.726  33.656  33.208  1.00  0.00    -0.200 F 
ATOM     85  C   UNL A   1      38.770  31.503  33.370  1.00  0.00     0.200 A 
ATOM     86  F   UNL A   1      37.856  29.332  33.461  1.00  0.00    -0.200 F 
ATOM     87  F   UNL A   1      37.539  32.035  33.404  1.00  0.00    -0.200 F 
ENDBRANCH  53  77
BRANCH  65  88
ATOM     88  C   UNL A   1      45.439  24.439  33.150  1.00  0.00     0.064 A 
ATOM     89  C   UNL A   1      46.722  24.416  33.720  1.00  0.00     0.173 A 
ATOM     90  C   UNL A   1      44.601  23.349  33.485  1.00  0.00     0.173 A 
ATOM     91  F   UNL A   1      47.570  25.442  33.573  1.00  0.00    -0.203 F 
ATOM     92  C   UNL A   1      47.154  23.353  34.520  1.00  0.00     0.198 A 
ATOM     93  C   UNL A   1      45.016  22.320  34.329  1.00  0.00     0.198 A 
ATOM     94  F   UNL A   1      43.345  23.264  33.024  1.00  0.00    -0.203 F 
ATOM     95  F   UNL A   1      48.402  23.358  35.010  1.00  0.00    -0.200 F 
ATOM     96  C   UNL A   1      46.299  22.314  34.835  1.00  0.00     0.200 A 
ATOM     97  F   UNL A   1      44.157  21.347  34.667  1.00  0.00    -0.200 F 
ATOM     98  F   UNL A   1      46.702  21.322  35.641  1.00  0.00    -0.200 F 
ENDBRANCH  65  88
ENDBRANCH  39  40
ENDBRANCH  31  34
ENDBRANCH  29  30
ENDBRANCH  28  29
ENDBRANCH   1  28
TORSDOF 14
ENDMDL
