MODEL 1
REMARK VINA RESULT:     -13.1      0.000      0.000
REMARK SMILES CS(=O)(=O)c1ccc(C2=NN(c3ccc(C(=O)NCCCCNC(=O)c4ccc(-c5c6nc(c(-c7c(F)c(F)c(F)c(F)c7F)c7ccc([nH]7)c(-c7c(F)c(F)c(F)c(F)c7F)c7nc(c(-c8c(F)c(F)c(F)c(F)c8F)c8ccc5[nH]8)C=C7)C=C6)cc4)cc3)[C@H](c3cccs3)C2)cc1
REMARK SMILES IDX 20 1 19 2 18 3 16 4 17 5 15 7 12 8 13 9 90 10 14 11 89 12
REMARK SMILES IDX 11 13 9 14 10 15 97 16 91 17 8 18 5 19 6 20 99 21 7 22 98 23
REMARK SMILES IDX 2 24 1 25 3 26 4 27 92 28 93 29 96 30 94 31 95 32 21 33
REMARK SMILES IDX 22 34 23 35 24 36 25 38 26 39 27 40 88 41 28 42 87 43 29 44
REMARK SMILES IDX 30 45 31 46 81 47 32 48 86 49 80 50 82 51 33 52 85 53 79 54
REMARK SMILES IDX 78 55 34 57 66 58 46 59 65 60 47 61 50 62 64 63 83 64 48 65
REMARK SMILES IDX 49 66 63 68 84 69 51 70 35 71 36 72 44 73 37 74 38 75 42 76
REMARK SMILES IDX 45 77 39 78 40 79 43 80 41 81 67 82 68 83 76 84 69 85 70 86
REMARK SMILES IDX 74 87 77 88 71 89 72 90 75 91 73 92 52 93 53 94 61 95 54 96
REMARK SMILES IDX 55 97 59 98 62 99 56 100 57 101 60 102 58 103
REMARK H PARENT 18 6 23 37 82 56 50 67
REMARK Flexibility Score: inf
ROOT
ATOM      1  C   UNL A   1      32.193  30.246  26.629  1.00  0.00     0.023 C 
ENDROOT
BRANCH   1   2
ATOM      2  C   UNL A   1      31.379  29.506  25.566  1.00  0.00     0.116 C 
BRANCH   2   3
ATOM      3  N   UNL A   1      31.863  29.824  24.237  1.00  0.00    -0.352 N 
ATOM      4  C   UNL A   1      32.668  29.117  23.379  1.00  0.00     0.251 C 
ATOM      5  O   UNL A   1      32.887  29.593  22.266  1.00  0.00    -0.269 OA
ATOM      6  H   UNL A   1      31.563  30.695  23.891  1.00  0.00     0.163 HD
BRANCH   4   7
ATOM      7  C   UNL A   1      33.221  27.781  23.726  1.00  0.00     0.039 A 
ATOM      8  C   UNL A   1      34.139  25.173  24.283  1.00  0.00     0.060 A 
ATOM      9  C   UNL A   1      33.715  25.517  22.996  1.00  0.00     0.029 A 
ATOM     10  C   UNL A   1      34.166  26.164  25.263  1.00  0.00     0.029 A 
ATOM     11  C   UNL A   1      33.253  26.808  22.719  1.00  0.00     0.016 A 
ATOM     12  C   UNL A   1      33.737  27.460  24.982  1.00  0.00     0.016 A 
BRANCH   8  13
ATOM     13  N   UNL A   1      34.578  23.902  24.581  1.00  0.00    -0.257 N 
ATOM     14  C   UNL A   1      36.053  22.422  24.877  1.00  0.00     0.071 C 
ATOM     15  N   UNL A   1      35.881  23.703  24.858  1.00  0.00    -0.176 NA
ATOM     16  C   UNL A   1      34.850  21.587  24.534  1.00  0.00     0.091 C 
ATOM     17  C   UNL A   1      33.771  22.685  24.479  1.00  0.00     0.154 C 
BRANCH  14  18
ATOM     18  C   UNL A   1      37.356  21.836  25.206  1.00  0.00    -0.002 A 
ATOM     19  C   UNL A   1      39.711  20.579  25.965  1.00  0.00     0.067 A 
ATOM     20  C   UNL A   1      38.739  19.850  25.279  1.00  0.00     0.021 A 
ATOM     21  C   UNL A   1      39.513  21.936  26.264  1.00  0.00     0.021 A 
ATOM     22  C   UNL A   1      37.553  20.482  24.910  1.00  0.00     0.011 A 
ATOM     23  C   UNL A   1      38.332  22.572  25.878  1.00  0.00     0.011 A 
BRANCH  19  24
ATOM     24  S   UNL A   1      41.233  19.839  26.507  1.00  0.00     0.175 S 
ATOM     25  C   UNL A   1      42.535  20.987  26.160  1.00  0.00     0.163 C 
ATOM     26  O   UNL A   1      41.439  18.673  25.668  1.00  0.00    -0.224 OA
ATOM     27  O   UNL A   1      41.131  19.719  27.948  1.00  0.00    -0.224 OA
ENDBRANCH  19  24
ENDBRANCH  14  18
BRANCH  17  28
ATOM     28  C   UNL A   1      32.637  22.585  25.491  1.00  0.00     0.030 A 
ATOM     29  C   UNL A   1      31.282  22.542  25.195  1.00  0.00     0.017 A 
ATOM     30  S   UNL A   1      32.876  22.575  27.190  1.00  0.00    -0.147 S 
ATOM     31  C   UNL A   1      30.455  22.491  26.353  1.00  0.00     0.012 A 
ATOM     32  C   UNL A   1      31.200  22.473  27.509  1.00  0.00     0.065 A 
ENDBRANCH  17  28
ENDBRANCH   8  13
ENDBRANCH   4   7
ENDBRANCH   2   3
ENDBRANCH   1   2
BRANCH   1  33
ATOM     33  C   UNL A   1      31.847  31.730  26.762  1.00  0.00     0.023 C 
BRANCH  33  34
ATOM     34  C   UNL A   1      32.983  32.602  27.276  1.00  0.00     0.116 C 
BRANCH  34  35
ATOM     35  N   UNL A   1      32.561  33.952  27.619  1.00  0.00    -0.352 N 
ATOM     36  C   UNL A   1      33.052  34.774  28.604  1.00  0.00     0.251 C 
ATOM     37  H   UNL A   1      31.829  34.324  27.076  1.00  0.00     0.163 HD
ATOM     38  O   UNL A   1      32.516  35.849  28.847  1.00  0.00    -0.269 OA
BRANCH  36  39
ATOM     39  C   UNL A   1      34.214  34.325  29.396  1.00  0.00     0.039 A 
ATOM     40  C   UNL A   1      33.990  33.717  30.633  1.00  0.00     0.014 A 
ATOM     41  C   UNL A   1      35.511  34.460  28.895  1.00  0.00     0.014 A 
ATOM     42  C   UNL A   1      35.067  33.182  31.340  1.00  0.00     0.010 A 
ATOM     43  C   UNL A   1      36.571  33.858  29.562  1.00  0.00     0.010 A 
ATOM     44  C   UNL A   1      36.360  33.214  30.791  1.00  0.00    -0.014 A 
BRANCH  44  45
ATOM     45  C   UNL A   1      37.505  32.577  31.488  1.00  0.00     0.031 A 
ATOM     46  C   UNL A   1      38.204  31.401  30.868  1.00  0.00     0.074 A 
ATOM     47  C   UNL A   1      37.868  33.015  32.709  1.00  0.00     0.049 A 
ATOM     48  N   UNL A   1      39.179  30.670  31.346  1.00  0.00    -0.248 NA
ATOM     49  C   UNL A   1      37.726  30.972  29.544  1.00  0.00     0.031 C 
ATOM     50  C   UNL A   1      37.230  34.113  33.438  1.00  0.00     0.029 A 
ATOM     51  N   UNL A   1      38.855  32.582  33.558  1.00  0.00    -0.354 N 
ATOM     52  C   UNL A   1      39.419  29.691  30.392  1.00  0.00     0.074 A 
ATOM     53  C   UNL A   1      38.452  29.884  29.334  1.00  0.00     0.031 C 
ATOM     54  C   UNL A   1      37.857  34.283  34.613  1.00  0.00     0.029 A 
ATOM     55  C   UNL A   1      38.912  33.283  34.738  1.00  0.00     0.049 A 
ATOM     56  H   UNL A   1      39.465  31.841  33.342  1.00  0.00     0.167 HD
ATOM     57  C   UNL A   1      40.376  28.733  30.388  1.00  0.00     0.037 A 
ATOM     58  C   UNL A   1      39.720  33.129  35.805  1.00  0.00     0.037 A 
ATOM     59  C   UNL A   1      41.350  28.561  31.433  1.00  0.00     0.049 A 
ATOM     60  C   UNL A   1      40.772  32.053  35.777  1.00  0.00     0.074 A 
ATOM     61  C   UNL A   1      42.400  27.662  31.493  1.00  0.00     0.029 A 
ATOM     62  N   UNL A   1      41.389  29.301  32.606  1.00  0.00    -0.354 N 
ATOM     63  N   UNL A   1      41.041  31.181  34.835  1.00  0.00    -0.248 NA
ATOM     64  C   UNL A   1      41.638  31.944  36.959  1.00  0.00     0.031 C 
ATOM     65  C   UNL A   1      43.043  27.823  32.725  1.00  0.00     0.029 A 
ATOM     66  C   UNL A   1      42.430  28.862  33.408  1.00  0.00     0.049 A 
ATOM     67  H   UNL A   1      40.768  30.031  32.835  1.00  0.00     0.167 HD
ATOM     68  C   UNL A   1      42.122  30.443  35.295  1.00  0.00     0.074 A 
ATOM     69  C   UNL A   1      42.470  30.978  36.595  1.00  0.00     0.031 C 
ATOM     70  C   UNL A   1      42.768  29.411  34.696  1.00  0.00     0.037 A 
BRANCH  57  71
ATOM     71  C   UNL A   1      40.417  27.797  29.214  1.00  0.00     0.064 A 
ATOM     72  C   UNL A   1      41.264  28.026  28.118  1.00  0.00     0.173 A 
ATOM     73  C   UNL A   1      39.628  26.636  29.201  1.00  0.00     0.173 A 
ATOM     74  F   UNL A   1      42.030  29.127  28.075  1.00  0.00    -0.203 F 
ATOM     75  C   UNL A   1      41.295  27.147  27.039  1.00  0.00     0.198 A 
ATOM     76  C   UNL A   1      39.687  25.742  28.135  1.00  0.00     0.198 A 
ATOM     77  F   UNL A   1      38.806  26.365  30.225  1.00  0.00    -0.203 F 
ATOM     78  F   UNL A   1      42.071  27.415  25.981  1.00  0.00    -0.200 F 
ATOM     79  C   UNL A   1      40.513  26.002  27.052  1.00  0.00     0.200 A 
ATOM     80  F   UNL A   1      38.941  24.628  28.155  1.00  0.00    -0.200 F 
ATOM     81  F   UNL A   1      40.550  25.151  26.017  1.00  0.00    -0.200 F 
ENDBRANCH  57  71
BRANCH  58  82
ATOM     82  C   UNL A   1      39.584  34.032  36.978  1.00  0.00     0.064 A 
ATOM     83  C   UNL A   1      38.827  33.652  38.095  1.00  0.00     0.173 A 
ATOM     84  C   UNL A   1      40.199  35.292  37.006  1.00  0.00     0.173 A 
ATOM     85  F   UNL A   1      38.203  32.465  38.108  1.00  0.00    -0.203 F 
ATOM     86  C   UNL A   1      38.670  34.508  39.184  1.00  0.00     0.198 A 
ATOM     87  C   UNL A   1      40.067  36.134  38.108  1.00  0.00     0.198 A 
ATOM     88  F   UNL A   1      40.940  35.702  35.965  1.00  0.00    -0.203 F 
ATOM     89  F   UNL A   1      37.899  34.139  40.216  1.00  0.00    -0.200 F 
ATOM     90  C   UNL A   1      39.294  35.745  39.192  1.00  0.00     0.200 A 
ATOM     91  F   UNL A   1      40.685  37.323  38.119  1.00  0.00    -0.200 F 
ATOM     92  F   UNL A   1      39.146  36.565  40.241  1.00  0.00    -0.200 F 
ENDBRANCH  58  82
BRANCH  70  93
ATOM     93  C   UNL A   1      43.942  28.819  35.422  1.00  0.00     0.064 A 
ATOM     94  C   UNL A   1      45.247  29.288  35.223  1.00  0.00     0.173 A 
ATOM     95  C   UNL A   1      43.748  27.795  36.362  1.00  0.00     0.173 A 
ATOM     96  F   UNL A   1      45.487  30.256  34.325  1.00  0.00    -0.203 F 
ATOM     97  C   UNL A   1      46.320  28.735  35.917  1.00  0.00     0.198 A 
ATOM     98  C   UNL A   1      44.819  27.268  37.079  1.00  0.00     0.198 A 
ATOM     99  F   UNL A   1      42.517  27.314  36.597  1.00  0.00    -0.203 F 
ATOM    100  F   UNL A   1      47.566  29.166  35.673  1.00  0.00    -0.200 F 
ATOM    101  C   UNL A   1      46.104  27.733  36.851  1.00  0.00     0.200 A 
ATOM    102  F   UNL A   1      44.604  26.310  37.992  1.00  0.00    -0.200 F 
ATOM    103  F   UNL A   1      47.137  27.208  37.524  1.00  0.00    -0.200 F 
ENDBRANCH  70  93
ENDBRANCH  44  45
ENDBRANCH  36  39
ENDBRANCH  34  35
ENDBRANCH  33  34
ENDBRANCH   1  33
TORSDOF 15
ENDMDL
MODEL 2
REMARK VINA RESULT:     -12.9      3.628     11.726
REMARK SMILES CS(=O)(=O)c1ccc(C2=NN(c3ccc(C(=O)NCCCCNC(=O)c4ccc(-c5c6nc(c(-c7c(F)c(F)c(F)c(F)c7F)c7ccc([nH]7)c(-c7c(F)c(F)c(F)c(F)c7F)c7nc(c(-c8c(F)c(F)c(F)c(F)c8F)c8ccc5[nH]8)C=C7)C=C6)cc4)cc3)[C@H](c3cccs3)C2)cc1
REMARK SMILES IDX 20 1 19 2 18 3 16 4 17 5 15 7 12 8 13 9 90 10 14 11 89 12
REMARK SMILES IDX 11 13 9 14 10 15 97 16 91 17 8 18 5 19 6 20 99 21 7 22 98 23
REMARK SMILES IDX 2 24 1 25 3 26 4 27 92 28 93 29 96 30 94 31 95 32 21 33
REMARK SMILES IDX 22 34 23 35 24 36 25 38 26 39 27 40 88 41 28 42 87 43 29 44
REMARK SMILES IDX 30 45 31 46 81 47 32 48 86 49 80 50 82 51 33 52 85 53 79 54
REMARK SMILES IDX 78 55 34 57 66 58 46 59 65 60 47 61 50 62 64 63 83 64 48 65
REMARK SMILES IDX 49 66 63 68 84 69 51 70 35 71 36 72 44 73 37 74 38 75 42 76
REMARK SMILES IDX 45 77 39 78 40 79 43 80 41 81 67 82 68 83 76 84 69 85 70 86
REMARK SMILES IDX 74 87 77 88 71 89 72 90 75 91 73 92 52 93 53 94 61 95 54 96
REMARK SMILES IDX 55 97 59 98 62 99 56 100 57 101 60 102 58 103
REMARK H PARENT 18 6 23 37 82 56 50 67
REMARK Flexibility Score: inf
ROOT
ATOM      1  C   UNL A   1      45.308  22.954  33.647  1.00  0.00     0.023 C 
ENDROOT
BRANCH   1   2
ATOM      2  C   UNL A   1      44.569  24.087  32.934  1.00  0.00     0.116 C 
BRANCH   2   3
ATOM      3  N   UNL A   1      45.471  24.827  32.074  1.00  0.00    -0.352 N 
ATOM      4  C   UNL A   1      45.497  24.973  30.709  1.00  0.00     0.251 C 
ATOM      5  O   UNL A   1      46.350  25.715  30.223  1.00  0.00    -0.269 OA
ATOM      6  H   UNL A   1      46.187  25.306  32.550  1.00  0.00     0.163 HD
BRANCH   4   7
ATOM      7  C   UNL A   1      44.498  24.323  29.819  1.00  0.00     0.039 A 
ATOM      8  C   UNL A   1      42.662  22.929  28.196  1.00  0.00     0.060 A 
ATOM      9  C   UNL A   1      42.889  22.529  29.516  1.00  0.00     0.029 A 
ATOM     10  C   UNL A   1      43.307  24.071  27.725  1.00  0.00     0.029 A 
ATOM     11  C   UNL A   1      43.804  23.215  30.322  1.00  0.00     0.016 A 
ATOM     12  C   UNL A   1      44.195  24.776  28.535  1.00  0.00     0.016 A 
BRANCH   8  13
ATOM     13  N   UNL A   1      41.779  22.255  27.380  1.00  0.00    -0.257 N 
ATOM     14  C   UNL A   1      39.897  21.913  26.489  1.00  0.00     0.071 C 
ATOM     15  N   UNL A   1      40.606  22.832  27.061  1.00  0.00    -0.176 NA
ATOM     16  C   UNL A   1      40.519  20.546  26.420  1.00  0.00     0.091 C 
ATOM     17  C   UNL A   1      41.934  20.870  26.933  1.00  0.00     0.154 C 
BRANCH  14  18
ATOM     18  C   UNL A   1      38.564  22.206  25.955  1.00  0.00    -0.002 A 
ATOM     19  C   UNL A   1      36.127  22.724  24.734  1.00  0.00     0.067 A 
ATOM     20  C   UNL A   1      36.703  21.461  24.597  1.00  0.00     0.021 A 
ATOM     21  C   UNL A   1      36.761  23.725  25.486  1.00  0.00     0.021 A 
ATOM     22  C   UNL A   1      37.933  21.209  25.203  1.00  0.00     0.011 A 
ATOM     23  C   UNL A   1      37.983  23.465  26.106  1.00  0.00     0.011 A 
BRANCH  19  24
ATOM     24  S   UNL A   1      34.582  23.141  23.960  1.00  0.00     0.175 S 
ATOM     25  C   UNL A   1      33.529  21.723  24.077  1.00  0.00     0.163 C 
ATOM     26  O   UNL A   1      34.876  23.355  22.555  1.00  0.00    -0.224 OA
ATOM     27  O   UNL A   1      33.994  24.187  24.773  1.00  0.00    -0.224 OA
ENDBRANCH  19  24
ENDBRANCH  14  18
BRANCH  17  28
ATOM     28  C   UNL A   1      43.086  20.637  25.964  1.00  0.00     0.030 A 
ATOM     29  C   UNL A   1      43.830  21.624  25.331  1.00  0.00     0.017 A 
ATOM     30  S   UNL A   1      43.601  19.083  25.453  1.00  0.00    -0.147 S 
ATOM     31  C   UNL A   1      44.817  21.103  24.447  1.00  0.00     0.012 A 
ATOM     32  C   UNL A   1      44.819  19.728  24.442  1.00  0.00     0.065 A 
ENDBRANCH  17  28
ENDBRANCH   8  13
ENDBRANCH   4   7
ENDBRANCH   2   3
ENDBRANCH   1   2
BRANCH   1  33
ATOM     33  C   UNL A   1      46.041  23.386  34.917  1.00  0.00     0.023 C 
BRANCH  33  34
ATOM     34  C   UNL A   1      47.066  24.492  34.712  1.00  0.00     0.116 C 
BRANCH  34  35
ATOM     35  N   UNL A   1      47.528  25.086  35.959  1.00  0.00    -0.352 N 
ATOM     36  C   UNL A   1      47.081  26.230  36.574  1.00  0.00     0.251 C 
ATOM     37  H   UNL A   1      48.252  24.606  36.420  1.00  0.00     0.163 HD
ATOM     38  O   UNL A   1      47.647  26.667  37.569  1.00  0.00    -0.269 OA
BRANCH  36  39
ATOM     39  C   UNL A   1      45.931  26.951  35.994  1.00  0.00     0.039 A 
ATOM     40  C   UNL A   1      46.164  28.141  35.301  1.00  0.00     0.014 A 
ATOM     41  C   UNL A   1      44.640  26.427  36.091  1.00  0.00     0.014 A 
ATOM     42  C   UNL A   1      45.106  28.773  34.648  1.00  0.00     0.010 A 
ATOM     43  C   UNL A   1      43.604  27.015  35.376  1.00  0.00     0.010 A 
ATOM     44  C   UNL A   1      43.826  28.193  34.648  1.00  0.00    -0.014 A 
BRANCH  44  45
ATOM     45  C   UNL A   1      42.707  28.805  33.889  1.00  0.00     0.031 A 
ATOM     46  C   UNL A   1      41.684  29.643  34.602  1.00  0.00     0.074 A 
ATOM     47  C   UNL A   1      42.576  28.549  32.574  1.00  0.00     0.049 A 
ATOM     48  N   UNL A   1      40.602  30.209  34.130  1.00  0.00    -0.248 NA
ATOM     49  C   UNL A   1      41.889  29.851  36.045  1.00  0.00     0.031 C 
ATOM     50  C   UNL A   1      43.474  27.706  31.783  1.00  0.00     0.029 A 
ATOM     51  N   UNL A   1      41.628  28.962  31.671  1.00  0.00    -0.354 N 
ATOM     52  C   UNL A   1      39.994  30.825  35.215  1.00  0.00     0.074 A 
ATOM     53  C   UNL A   1      40.794  30.516  36.380  1.00  0.00     0.031 C 
ATOM     54  C   UNL A   1      43.049  27.684  30.509  1.00  0.00     0.029 A 
ATOM     55  C   UNL A   1      41.828  28.476  30.402  1.00  0.00     0.049 A 
ATOM     56  H   UNL A   1      40.877  29.552  31.910  1.00  0.00     0.167 HD
ATOM     57  C   UNL A   1      38.883  31.598  35.234  1.00  0.00     0.037 A 
ATOM     58  C   UNL A   1      41.103  28.645  29.280  1.00  0.00     0.037 A 
ATOM     59  C   UNL A   1      38.104  31.920  34.068  1.00  0.00     0.049 A 
ATOM     60  C   UNL A   1      39.868  29.505  29.329  1.00  0.00     0.074 A 
ATOM     61  C   UNL A   1      36.999  32.746  33.970  1.00  0.00     0.029 A 
ATOM     62  N   UNL A   1      38.347  31.424  32.794  1.00  0.00    -0.354 N 
ATOM     63  N   UNL A   1      39.345  30.146  30.346  1.00  0.00    -0.248 NA
ATOM     64  C   UNL A   1      39.126  29.669  28.071  1.00  0.00     0.031 C 
ATOM     65  C   UNL A   1      36.541  32.710  32.649  1.00  0.00     0.029 A 
ATOM     66  C   UNL A   1      37.396  31.907  31.910  1.00  0.00     0.049 A 
ATOM     67  H   UNL A   1      39.086  30.819  32.555  1.00  0.00     0.167 HD
ATOM     68  C   UNL A   1      38.235  30.812  29.848  1.00  0.00     0.074 A 
ATOM     69  C   UNL A   1      38.167  30.510  28.433  1.00  0.00     0.031 C 
ATOM     70  C   UNL A   1      37.348  31.603  30.502  1.00  0.00     0.037 A 
BRANCH  57  71
ATOM     71  C   UNL A   1      38.444  32.151  36.559  1.00  0.00     0.064 A 
ATOM     72  C   UNL A   1      37.753  31.365  37.495  1.00  0.00     0.173 A 
ATOM     73  C   UNL A   1      38.751  33.474  36.916  1.00  0.00     0.173 A 
ATOM     74  F   UNL A   1      37.424  30.098  37.200  1.00  0.00    -0.203 F 
ATOM     75  C   UNL A   1      37.357  31.891  38.721  1.00  0.00     0.198 A 
ATOM     76  C   UNL A   1      38.382  33.986  38.157  1.00  0.00     0.198 A 
ATOM     77  F   UNL A   1      39.415  34.268  36.062  1.00  0.00    -0.203 F 
ATOM     78  F   UNL A   1      36.651  31.137  39.575  1.00  0.00    -0.200 F 
ATOM     79  C   UNL A   1      37.679  33.197  39.055  1.00  0.00     0.200 A 
ATOM     80  F   UNL A   1      38.706  35.245  38.483  1.00  0.00    -0.200 F 
ATOM     81  F   UNL A   1      37.304  33.700  40.239  1.00  0.00    -0.200 F 
ENDBRANCH  57  71
BRANCH  58  82
ATOM     82  C   UNL A   1      41.537  28.007  28.010  1.00  0.00     0.064 A 
ATOM     83  C   UNL A   1      40.788  26.975  27.428  1.00  0.00     0.173 A 
ATOM     84  C   UNL A   1      42.711  28.408  27.355  1.00  0.00     0.173 A 
ATOM     85  F   UNL A   1      39.668  26.542  28.026  1.00  0.00    -0.203 F 
ATOM     86  C   UNL A   1      41.208  26.352  26.254  1.00  0.00     0.198 A 
ATOM     87  C   UNL A   1      43.114  27.806  26.165  1.00  0.00     0.198 A 
ATOM     88  F   UNL A   1      43.462  29.395  27.866  1.00  0.00    -0.203 F 
ATOM     89  F   UNL A   1      40.498  25.335  25.748  1.00  0.00    -0.200 F 
ATOM     90  C   UNL A   1      42.367  26.772  25.621  1.00  0.00     0.200 A 
ATOM     91  F   UNL A   1      44.226  28.225  25.547  1.00  0.00    -0.200 F 
ATOM     92  F   UNL A   1      42.768  26.176  24.490  1.00  0.00    -0.200 F 
ENDBRANCH  58  82
BRANCH  70  93
ATOM     93  C   UNL A   1      36.251  32.229  29.689  1.00  0.00     0.064 A 
ATOM     94  C   UNL A   1      36.245  33.598  29.387  1.00  0.00     0.173 A 
ATOM     95  C   UNL A   1      35.216  31.436  29.171  1.00  0.00     0.173 A 
ATOM     96  F   UNL A   1      37.205  34.400  29.871  1.00  0.00    -0.203 F 
ATOM     97  C   UNL A   1      35.226  34.156  28.619  1.00  0.00     0.198 A 
ATOM     98  C   UNL A   1      34.217  31.992  28.376  1.00  0.00     0.198 A 
ATOM     99  F   UNL A   1      35.178  30.119  29.424  1.00  0.00    -0.203 F 
ATOM    100  F   UNL A   1      35.213  35.476  28.385  1.00  0.00    -0.200 F 
ATOM    101  C   UNL A   1      34.220  33.352  28.107  1.00  0.00     0.200 A 
ATOM    102  F   UNL A   1      33.254  31.210  27.868  1.00  0.00    -0.200 F 
ATOM    103  F   UNL A   1      33.245  33.889  27.360  1.00  0.00    -0.200 F 
ENDBRANCH  70  93
ENDBRANCH  44  45
ENDBRANCH  36  39
ENDBRANCH  34  35
ENDBRANCH  33  34
ENDBRANCH   1  33
TORSDOF 15
ENDMDL
MODEL 3
REMARK VINA RESULT:     -12.8      5.709     11.168
REMARK SMILES CS(=O)(=O)c1ccc(C2=NN(c3ccc(C(=O)NCCCCNC(=O)c4ccc(-c5c6nc(c(-c7c(F)c(F)c(F)c(F)c7F)c7ccc([nH]7)c(-c7c(F)c(F)c(F)c(F)c7F)c7nc(c(-c8c(F)c(F)c(F)c(F)c8F)c8ccc5[nH]8)C=C7)C=C6)cc4)cc3)[C@H](c3cccs3)C2)cc1
REMARK SMILES IDX 20 1 19 2 18 3 16 4 17 5 15 7 12 8 13 9 90 10 14 11 89 12
REMARK SMILES IDX 11 13 9 14 10 15 97 16 91 17 8 18 5 19 6 20 99 21 7 22 98 23
REMARK SMILES IDX 2 24 1 25 3 26 4 27 92 28 93 29 96 30 94 31 95 32 21 33
REMARK SMILES IDX 22 34 23 35 24 36 25 38 26 39 27 40 88 41 28 42 87 43 29 44
REMARK SMILES IDX 30 45 31 46 81 47 32 48 86 49 80 50 82 51 33 52 85 53 79 54
REMARK SMILES IDX 78 55 34 57 66 58 46 59 65 60 47 61 50 62 64 63 83 64 48 65
REMARK SMILES IDX 49 66 63 68 84 69 51 70 35 71 36 72 44 73 37 74 38 75 42 76
REMARK SMILES IDX 45 77 39 78 40 79 43 80 41 81 67 82 68 83 76 84 69 85 70 86
REMARK SMILES IDX 74 87 77 88 71 89 72 90 75 91 73 92 52 93 53 94 61 95 54 96
REMARK SMILES IDX 55 97 59 98 62 99 56 100 57 101 60 102 58 103
REMARK H PARENT 18 6 23 37 82 56 50 67
REMARK Flexibility Score: inf
ROOT
ATOM      1  C   UNL A   1      40.800  21.476  26.190  1.00  0.00     0.023 C 
ENDROOT
BRANCH   1   2
ATOM      2  C   UNL A   1      39.326  21.879  26.119  1.00  0.00     0.116 C 
BRANCH   2   3
ATOM      3  N   UNL A   1      38.511  20.763  25.681  1.00  0.00    -0.352 N 
ATOM      4  C   UNL A   1      37.187  20.701  25.322  1.00  0.00     0.251 C 
ATOM      5  O   UNL A   1      36.744  19.623  24.928  1.00  0.00    -0.269 OA
ATOM      6  H   UNL A   1      38.988  19.903  25.633  1.00  0.00     0.163 HD
BRANCH   4   7
ATOM      7  C   UNL A   1      36.303  21.896  25.334  1.00  0.00     0.039 A 
ATOM      8  C   UNL A   1      34.769  24.262  25.305  1.00  0.00     0.060 A 
ATOM      9  C   UNL A   1      35.708  24.012  24.299  1.00  0.00     0.029 A 
ATOM     10  C   UNL A   1      34.558  23.288  26.278  1.00  0.00     0.029 A 
ATOM     11  C   UNL A   1      36.474  22.842  24.315  1.00  0.00     0.016 A 
ATOM     12  C   UNL A   1      35.297  22.106  26.278  1.00  0.00     0.016 A 
BRANCH   8  13
ATOM     13  N   UNL A   1      34.018  25.418  25.319  1.00  0.00    -0.257 N 
ATOM     14  C   UNL A   1      33.491  27.334  26.030  1.00  0.00     0.071 C 
ATOM     15  N   UNL A   1      34.471  26.489  25.997  1.00  0.00    -0.176 NA
ATOM     16  C   UNL A   1      32.200  26.874  25.411  1.00  0.00     0.091 C 
ATOM     17  C   UNL A   1      32.666  25.552  24.773  1.00  0.00     0.154 C 
BRANCH  14  18
ATOM     18  C   UNL A   1      33.648  28.653  26.650  1.00  0.00    -0.002 A 
ATOM     19  C   UNL A   1      33.922  31.241  27.613  1.00  0.00     0.067 A 
ATOM     20  C   UNL A   1      32.732  30.869  26.986  1.00  0.00     0.021 A 
ATOM     21  C   UNL A   1      34.971  30.320  27.768  1.00  0.00     0.021 A 
ATOM     22  C   UNL A   1      32.603  29.571  26.494  1.00  0.00     0.011 A 
ATOM     23  C   UNL A   1      34.832  29.017  27.290  1.00  0.00     0.011 A 
BRANCH  19  24
ATOM     24  S   UNL A   1      34.184  32.886  28.232  1.00  0.00     0.175 S 
ATOM     25  C   UNL A   1      34.515  32.755  29.966  1.00  0.00     0.163 C 
ATOM     26  O   UNL A   1      32.921  33.584  28.077  1.00  0.00    -0.224 OA
ATOM     27  O   UNL A   1      35.393  33.369  27.594  1.00  0.00    -0.224 OA
ENDBRANCH  19  24
ENDBRANCH  14  18
BRANCH  17  28
ATOM     28  C   UNL A   1      32.578  25.452  23.256  1.00  0.00     0.030 A 
ATOM     29  C   UNL A   1      32.581  24.278  22.515  1.00  0.00     0.017 A 
ATOM     30  S   UNL A   1      32.524  26.814  22.214  1.00  0.00    -0.147 S 
ATOM     31  C   UNL A   1      32.529  24.501  21.110  1.00  0.00     0.012 A 
ATOM     32  C   UNL A   1      32.464  25.841  20.810  1.00  0.00     0.065 A 
ENDBRANCH  17  28
ENDBRANCH   8  13
ENDBRANCH   4   7
ENDBRANCH   2   3
ENDBRANCH   1   2
BRANCH   1  33
ATOM     33  C   UNL A   1      41.047  19.975  26.036  1.00  0.00     0.023 C 
BRANCH  33  34
ATOM     34  C   UNL A   1      42.427  19.511  26.477  1.00  0.00     0.116 C 
BRANCH  34  35
ATOM     35  N   UNL A   1      43.219  18.950  25.392  1.00  0.00    -0.352 N 
ATOM     36  C   UNL A   1      44.181  19.569  24.632  1.00  0.00     0.251 C 
ATOM     37  H   UNL A   1      43.042  18.007  25.175  1.00  0.00     0.163 HD
ATOM     38  O   UNL A   1      44.685  18.996  23.673  1.00  0.00    -0.269 OA
BRANCH  36  39
ATOM     39  C   UNL A   1      44.570  20.955  24.961  1.00  0.00     0.039 A 
ATOM     40  C   UNL A   1      44.162  21.987  24.114  1.00  0.00     0.014 A 
ATOM     41  C   UNL A   1      45.291  21.233  26.125  1.00  0.00     0.014 A 
ATOM     42  C   UNL A   1      44.420  23.310  24.472  1.00  0.00     0.010 A 
ATOM     43  C   UNL A   1      45.478  22.553  26.517  1.00  0.00     0.010 A 
ATOM     44  C   UNL A   1      45.046  23.604  25.695  1.00  0.00    -0.014 A 
BRANCH  44  45
ATOM     45  C   UNL A   1      45.255  25.007  26.132  1.00  0.00     0.031 A 
ATOM     46  C   UNL A   1      46.621  25.625  26.051  1.00  0.00     0.074 A 
ATOM     47  C   UNL A   1      44.228  25.698  26.664  1.00  0.00     0.049 A 
ATOM     48  N   UNL A   1      47.019  26.810  26.441  1.00  0.00    -0.248 NA
ATOM     49  C   UNL A   1      47.691  24.791  25.481  1.00  0.00     0.031 C 
ATOM     50  C   UNL A   1      42.868  25.187  26.845  1.00  0.00     0.029 A 
ATOM     51  N   UNL A   1      44.172  26.975  27.162  1.00  0.00    -0.354 N 
ATOM     52  C   UNL A   1      48.381  26.856  26.178  1.00  0.00     0.074 A 
ATOM     53  C   UNL A   1      48.754  25.563  25.648  1.00  0.00     0.031 C 
ATOM     54  C   UNL A   1      42.107  26.148  27.391  1.00  0.00     0.029 A 
ATOM     55  C   UNL A   1      42.931  27.327  27.635  1.00  0.00     0.049 A 
ATOM     56  H   UNL A   1      44.946  27.583  27.178  1.00  0.00     0.167 HD
ATOM     57  C   UNL A   1      49.238  27.892  26.339  1.00  0.00     0.037 A 
ATOM     58  C   UNL A   1      42.509  28.470  28.209  1.00  0.00     0.037 A 
ATOM     59  C   UNL A   1      48.855  29.184  26.845  1.00  0.00     0.049 A 
ATOM     60  C   UNL A   1      43.483  29.605  28.382  1.00  0.00     0.074 A 
ATOM     61  C   UNL A   1      49.633  30.319  26.986  1.00  0.00     0.029 A 
ATOM     62  N   UNL A   1      47.585  29.510  27.298  1.00  0.00    -0.354 N 
ATOM     63  N   UNL A   1      44.752  29.665  28.058  1.00  0.00    -0.248 NA
ATOM     64  C   UNL A   1      42.963  30.835  28.996  1.00  0.00     0.031 C 
ATOM     65  C   UNL A   1      48.847  31.317  27.573  1.00  0.00     0.029 A 
ATOM     66  C   UNL A   1      47.564  30.822  27.744  1.00  0.00     0.049 A 
ATOM     67  H   UNL A   1      46.812  28.900  27.302  1.00  0.00     0.167 HD
ATOM     68  C   UNL A   1      45.174  30.942  28.398  1.00  0.00     0.074 A 
ATOM     69  C   UNL A   1      44.022  31.631  28.941  1.00  0.00     0.031 C 
ATOM     70  C   UNL A   1      46.406  31.496  28.274  1.00  0.00     0.037 A 
BRANCH  57  71
ATOM     71  C   UNL A   1      50.674  27.671  25.963  1.00  0.00     0.064 A 
ATOM     72  C   UNL A   1      51.640  27.312  26.916  1.00  0.00     0.173 A 
ATOM     73  C   UNL A   1      51.085  27.782  24.625  1.00  0.00     0.173 A 
ATOM     74  F   UNL A   1      51.303  27.204  28.211  1.00  0.00    -0.203 F 
ATOM     75  C   UNL A   1      52.967  27.106  26.551  1.00  0.00     0.198 A 
ATOM     76  C   UNL A   1      52.407  27.542  24.259  1.00  0.00     0.198 A 
ATOM     77  F   UNL A   1      50.202  28.116  23.672  1.00  0.00    -0.203 F 
ATOM     78  F   UNL A   1      53.881  26.817  27.487  1.00  0.00    -0.200 F 
ATOM     79  C   UNL A   1      53.348  27.212  25.222  1.00  0.00     0.200 A 
ATOM     80  F   UNL A   1      52.770  27.631  22.971  1.00  0.00    -0.200 F 
ATOM     81  F   UNL A   1      54.624  27.005  24.870  1.00  0.00    -0.200 F 
ENDBRANCH  57  71
BRANCH  58  82
ATOM     82  C   UNL A   1      41.093  28.609  28.639  1.00  0.00     0.064 A 
ATOM     83  C   UNL A   1      40.702  28.284  29.946  1.00  0.00     0.173 A 
ATOM     84  C   UNL A   1      40.101  29.060  27.756  1.00  0.00     0.173 A 
ATOM     85  F   UNL A   1      41.609  27.830  30.823  1.00  0.00    -0.203 F 
ATOM     86  C   UNL A   1      39.370  28.382  30.344  1.00  0.00     0.198 A 
ATOM     87  C   UNL A   1      38.776  29.186  28.164  1.00  0.00     0.198 A 
ATOM     88  F   UNL A   1      40.423  29.389  26.496  1.00  0.00    -0.203 F 
ATOM     89  F   UNL A   1      39.017  28.017  31.585  1.00  0.00    -0.200 F 
ATOM     90  C   UNL A   1      38.410  28.838  29.456  1.00  0.00     0.200 A 
ATOM     91  F   UNL A   1      37.853  29.643  27.307  1.00  0.00    -0.200 F 
ATOM     92  F   UNL A   1      37.130  28.936  29.841  1.00  0.00    -0.200 F 
ENDBRANCH  58  82
BRANCH  70  93
ATOM     93  C   UNL A   1      46.564  32.928  28.697  1.00  0.00     0.064 A 
ATOM     94  C   UNL A   1      46.950  33.275  30.000  1.00  0.00     0.173 A 
ATOM     95  C   UNL A   1      46.366  33.965  27.773  1.00  0.00     0.173 A 
ATOM     96  F   UNL A   1      47.137  32.321  30.925  1.00  0.00    -0.203 F 
ATOM     97  C   UNL A   1      47.105  34.608  30.369  1.00  0.00     0.198 A 
ATOM     98  C   UNL A   1      46.555  35.295  28.136  1.00  0.00     0.198 A 
ATOM     99  F   UNL A   1      46.004  33.687  26.511  1.00  0.00    -0.203 F 
ATOM    100  F   UNL A   1      47.426  34.918  31.633  1.00  0.00    -0.200 F 
ATOM    101  C   UNL A   1      46.917  35.616  29.435  1.00  0.00     0.200 A 
ATOM    102  F   UNL A   1      46.388  36.266  27.227  1.00  0.00    -0.200 F 
ATOM    103  F   UNL A   1      47.076  36.898  29.790  1.00  0.00    -0.200 F 
ENDBRANCH  70  93
ENDBRANCH  44  45
ENDBRANCH  36  39
ENDBRANCH  34  35
ENDBRANCH  33  34
ENDBRANCH   1  33
TORSDOF 15
ENDMDL
