MODEL 1
REMARK VINA RESULT:     -12.5      0.000      0.000
REMARK SMILES C[C@@H]1[C@@H](C(=O)NCCCCNC(=O)c2ccc(-c3c4nc(c(-c5c(F)c(F)c(F)c(F)c5F)c5ccc([nH]5)c(-c5c(F)c(F)c(F)c(F)c5F)c5nc(c(-c6c(F)c(F)c(F)c(F)c6F)c6ccc3[nH]6)C=C5)C=C4)cc2)CCN1C(=O)[C@@H](C)OCc1ccccc1
REMARK SMILES IDX 7 1 6 2 4 3 5 4 3 6 1 7 2 8 79 9 77 10 78 11 80 12 81 13
REMARK SMILES IDX 82 14 83 15 84 16 85 17 86 18 87 19 91 20 88 21 90 22 89 23
REMARK SMILES IDX 8 24 9 25 10 26 11 27 12 28 13 30 14 31 15 32 76 33 16 34
REMARK SMILES IDX 75 35 17 36 18 37 19 38 69 39 20 40 74 41 68 42 70 43 21 44
REMARK SMILES IDX 73 45 67 46 66 47 22 49 54 50 34 51 53 52 35 53 38 54 52 55
REMARK SMILES IDX 71 56 36 57 37 58 51 60 72 61 39 62 23 63 24 64 32 65 25 66
REMARK SMILES IDX 26 67 30 68 33 69 27 70 28 71 31 72 29 73 55 74 56 75 64 76
REMARK SMILES IDX 57 77 58 78 62 79 65 80 59 81 60 82 63 83 61 84 40 85 41 86
REMARK SMILES IDX 49 87 42 88 43 89 47 90 50 91 44 92 45 93 48 94 46 95
REMARK H PARENT 6 5 11 29 70 48 38 59
REMARK Flexibility Score: inf
ROOT
ATOM      1  C   UNL A   1      32.975  29.939  26.647  1.00  0.00     0.116 C 
ENDROOT
BRANCH   1   2
ATOM      2  N   UNL A   1      33.602  29.716  25.359  1.00  0.00    -0.356 N 
ATOM      3  C   UNL A   1      33.636  28.561  24.626  1.00  0.00     0.225 C 
ATOM      4  O   UNL A   1      34.154  28.592  23.514  1.00  0.00    -0.275 OA
ATOM      5  H   UNL A   1      34.062  30.492  24.962  1.00  0.00     0.163 HD
BRANCH   3   6
ATOM      6  C   UNL A   1      33.064  27.298  25.253  1.00  0.00     0.102 C 
ATOM      7  C   UNL A   1      33.652  24.946  25.878  1.00  0.00     0.032 C 
ATOM      8  C   UNL A   1      33.757  26.014  24.775  1.00  0.00     0.094 C 
ATOM      9  N   UNL A   1      32.999  25.596  23.607  1.00  0.00    -0.337 N 
ATOM     10  C   UNL A   1      31.603  27.059  24.859  1.00  0.00     0.037 C 
ATOM     11  C   UNL A   1      31.685  26.215  23.594  1.00  0.00     0.121 C 
BRANCH   9  12
ATOM     12  C   UNL A   1      33.376  24.792  22.554  1.00  0.00     0.251 C 
ATOM     13  O   UNL A   1      33.697  25.324  21.481  1.00  0.00    -0.272 OA
BRANCH  12  14
ATOM     14  C   UNL A   1      33.586  23.238  22.717  1.00  0.00     0.204 C 
ATOM     15  C   UNL A   1      34.999  22.954  23.231  1.00  0.00     0.049 C 
BRANCH  14  16
ATOM     16  O   UNL A   1      32.626  22.259  23.070  1.00  0.00    -0.364 OA
BRANCH  16  17
ATOM     17  C   UNL A   1      32.767  21.420  24.204  1.00  0.00     0.196 C 
BRANCH  17  18
ATOM     18  C   UNL A   1      33.012  19.955  23.938  1.00  0.00    -0.022 A 
ATOM     19  C   UNL A   1      32.249  19.259  22.993  1.00  0.00     0.006 A 
ATOM     20  C   UNL A   1      34.012  19.263  24.638  1.00  0.00     0.006 A 
ATOM     21  C   UNL A   1      32.548  17.932  22.682  1.00  0.00     0.000 A 
ATOM     22  C   UNL A   1      34.319  17.940  24.320  1.00  0.00     0.000 A 
ATOM     23  C   UNL A   1      33.596  17.279  23.331  1.00  0.00     0.000 A 
ENDBRANCH  17  18
ENDBRANCH  16  17
ENDBRANCH  14  16
ENDBRANCH  12  14
ENDBRANCH   9  12
ENDBRANCH   3   6
ENDBRANCH   1   2
BRANCH   1  24
ATOM     24  C   UNL A   1      31.590  30.563  26.541  1.00  0.00     0.023 C 
BRANCH  24  25
ATOM     25  C   UNL A   1      31.554  32.089  26.570  1.00  0.00     0.023 C 
BRANCH  25  26
ATOM     26  C   UNL A   1      32.688  32.760  27.337  1.00  0.00     0.116 C 
BRANCH  26  27
ATOM     27  N   UNL A   1      32.416  34.150  27.665  1.00  0.00    -0.352 N 
ATOM     28  C   UNL A   1      33.012  34.968  28.595  1.00  0.00     0.251 C 
ATOM     29  H   UNL A   1      31.694  34.569  27.141  1.00  0.00     0.163 HD
ATOM     30  O   UNL A   1      32.564  36.086  28.809  1.00  0.00    -0.269 OA
BRANCH  28  31
ATOM     31  C   UNL A   1      34.175  34.476  29.364  1.00  0.00     0.039 A 
ATOM     32  C   UNL A   1      33.947  33.753  30.537  1.00  0.00     0.014 A 
ATOM     33  C   UNL A   1      35.477  34.704  28.918  1.00  0.00     0.014 A 
ATOM     34  C   UNL A   1      35.026  33.192  31.222  1.00  0.00     0.010 A 
ATOM     35  C   UNL A   1      36.542  34.073  29.550  1.00  0.00     0.010 A 
ATOM     36  C   UNL A   1      36.329  33.313  30.711  1.00  0.00    -0.014 A 
BRANCH  36  37
ATOM     37  C   UNL A   1      37.486  32.667  31.381  1.00  0.00     0.031 A 
ATOM     38  C   UNL A   1      38.203  31.531  30.707  1.00  0.00     0.074 A 
ATOM     39  C   UNL A   1      37.842  33.051  32.622  1.00  0.00     0.049 A 
ATOM     40  N   UNL A   1      39.173  30.777  31.160  1.00  0.00    -0.248 NA
ATOM     41  C   UNL A   1      37.745  31.173  29.355  1.00  0.00     0.031 C 
ATOM     42  C   UNL A   1      37.194  34.107  33.402  1.00  0.00     0.029 A 
ATOM     43  N   UNL A   1      38.834  32.588  33.451  1.00  0.00    -0.354 N 
ATOM     44  C   UNL A   1      39.424  29.848  30.160  1.00  0.00     0.074 A 
ATOM     45  C   UNL A   1      38.467  30.092  29.103  1.00  0.00     0.031 C 
ATOM     46  C   UNL A   1      37.819  34.227  34.585  1.00  0.00     0.029 A 
ATOM     47  C   UNL A   1      38.887  33.235  34.662  1.00  0.00     0.049 A 
ATOM     48  H   UNL A   1      39.449  31.861  33.201  1.00  0.00     0.167 HD
ATOM     49  C   UNL A   1      40.382  28.891  30.115  1.00  0.00     0.037 A 
ATOM     50  C   UNL A   1      39.702  33.044  35.715  1.00  0.00     0.037 A 
ATOM     51  C   UNL A   1      41.352  28.671  31.155  1.00  0.00     0.049 A 
ATOM     52  C   UNL A   1      40.766  31.982  35.638  1.00  0.00     0.074 A 
ATOM     53  C   UNL A   1      42.398  27.766  31.182  1.00  0.00     0.029 A 
ATOM     54  N   UNL A   1      41.394  29.369  32.353  1.00  0.00    -0.354 N 
ATOM     55  N   UNL A   1      41.035  31.150  34.662  1.00  0.00    -0.248 NA
ATOM     56  C   UNL A   1      41.645  31.839  36.806  1.00  0.00     0.031 C 
ATOM     57  C   UNL A   1      43.050  27.890  32.414  1.00  0.00     0.029 A 
ATOM     58  C   UNL A   1      42.442  28.905  33.133  1.00  0.00     0.049 A 
ATOM     59  H   UNL A   1      40.773  30.087  32.612  1.00  0.00     0.167 HD
ATOM     60  C   UNL A   1      42.132  30.410  35.082  1.00  0.00     0.074 A 
ATOM     61  C   UNL A   1      42.485  30.899  36.398  1.00  0.00     0.031 C 
ATOM     62  C   UNL A   1      42.789  29.417  34.434  1.00  0.00     0.037 A 
BRANCH  49  63
ATOM     63  C   UNL A   1      40.428  28.015  28.896  1.00  0.00     0.064 A 
ATOM     64  C   UNL A   1      41.173  28.372  27.762  1.00  0.00     0.173 A 
ATOM     65  C   UNL A   1      39.733  26.797  28.868  1.00  0.00     0.173 A 
ATOM     66  F   UNL A   1      41.844  29.534  27.733  1.00  0.00    -0.203 F 
ATOM     67  C   UNL A   1      41.193  27.559  26.633  1.00  0.00     0.198 A 
ATOM     68  C   UNL A   1      39.782  25.970  27.747  1.00  0.00     0.198 A 
ATOM     69  F   UNL A   1      39.009  26.405  29.927  1.00  0.00    -0.203 F 
ATOM     70  F   UNL A   1      41.866  27.949  25.540  1.00  0.00    -0.200 F 
ATOM     71  C   UNL A   1      40.504  26.356  26.629  1.00  0.00     0.200 A 
ATOM     72  F   UNL A   1      39.126  24.802  27.750  1.00  0.00    -0.200 F 
ATOM     73  F   UNL A   1      40.527  25.572  25.541  1.00  0.00    -0.200 F 
ENDBRANCH  49  63
BRANCH  50  74
ATOM     74  C   UNL A   1      39.572  33.903  36.921  1.00  0.00     0.064 A 
ATOM     75  C   UNL A   1      38.812  33.483  38.022  1.00  0.00     0.173 A 
ATOM     76  C   UNL A   1      40.197  35.156  37.000  1.00  0.00     0.173 A 
ATOM     77  F   UNL A   1      38.179  32.301  37.985  1.00  0.00    -0.203 F 
ATOM     78  C   UNL A   1      38.665  34.291  39.147  1.00  0.00     0.198 A 
ATOM     79  C   UNL A   1      40.072  35.952  38.136  1.00  0.00     0.198 A 
ATOM     80  F   UNL A   1      40.940  35.601  35.976  1.00  0.00    -0.203 F 
ATOM     81  F   UNL A   1      37.897  33.884  40.166  1.00  0.00    -0.200 F 
ATOM     82  C   UNL A   1      39.299  35.523  39.206  1.00  0.00     0.200 A 
ATOM     83  F   UNL A   1      40.698  37.135  38.196  1.00  0.00    -0.200 F 
ATOM     84  F   UNL A   1      39.162  36.299  40.290  1.00  0.00    -0.200 F 
ENDBRANCH  50  74
BRANCH  62  85
ATOM     85  C   UNL A   1      43.989  28.825  35.117  1.00  0.00     0.064 A 
ATOM     86  C   UNL A   1      43.893  27.674  35.911  1.00  0.00     0.173 A 
ATOM     87  C   UNL A   1      45.256  29.399  34.938  1.00  0.00     0.173 A 
ATOM     88  F   UNL A   1      42.701  27.097  36.124  1.00  0.00    -0.203 F 
ATOM     89  C   UNL A   1      45.022  27.132  36.522  1.00  0.00     0.198 A 
ATOM     90  C   UNL A   1      46.386  28.838  35.526  1.00  0.00     0.198 A 
ATOM     91  F   UNL A   1      45.402  30.498  34.181  1.00  0.00    -0.203 F 
ATOM     92  F   UNL A   1      44.901  26.059  37.315  1.00  0.00    -0.200 F 
ATOM     93  C   UNL A   1      46.267  27.710  36.324  1.00  0.00     0.200 A 
ATOM     94  F   UNL A   1      47.591  29.389  35.322  1.00  0.00    -0.200 F 
ATOM     95  F   UNL A   1      47.352  27.182  36.907  1.00  0.00    -0.200 F 
ENDBRANCH  62  85
ENDBRANCH  36  37
ENDBRANCH  28  31
ENDBRANCH  26  27
ENDBRANCH  25  26
ENDBRANCH  24  25
ENDBRANCH   1  24
TORSDOF 16
ENDMDL
MODEL 2
REMARK VINA RESULT:     -12.4      0.790      7.362
REMARK SMILES C[C@@H]1[C@@H](C(=O)NCCCCNC(=O)c2ccc(-c3c4nc(c(-c5c(F)c(F)c(F)c(F)c5F)c5ccc([nH]5)c(-c5c(F)c(F)c(F)c(F)c5F)c5nc(c(-c6c(F)c(F)c(F)c(F)c6F)c6ccc3[nH]6)C=C5)C=C4)cc2)CCN1C(=O)[C@@H](C)OCc1ccccc1
REMARK SMILES IDX 7 1 6 2 4 3 5 4 3 6 1 7 2 8 79 9 77 10 78 11 80 12 81 13
REMARK SMILES IDX 82 14 83 15 84 16 85 17 86 18 87 19 91 20 88 21 90 22 89 23
REMARK SMILES IDX 8 24 9 25 10 26 11 27 12 28 13 30 14 31 15 32 76 33 16 34
REMARK SMILES IDX 75 35 17 36 18 37 19 38 69 39 20 40 74 41 68 42 70 43 21 44
REMARK SMILES IDX 73 45 67 46 66 47 22 49 54 50 34 51 53 52 35 53 38 54 52 55
REMARK SMILES IDX 71 56 36 57 37 58 51 60 72 61 39 62 23 63 24 64 32 65 25 66
REMARK SMILES IDX 26 67 30 68 33 69 27 70 28 71 31 72 29 73 55 74 56 75 64 76
REMARK SMILES IDX 57 77 58 78 62 79 65 80 59 81 60 82 63 83 61 84 40 85 41 86
REMARK SMILES IDX 49 87 42 88 43 89 47 90 50 91 44 92 45 93 48 94 46 95
REMARK H PARENT 6 5 11 29 70 48 38 59
REMARK Flexibility Score: inf
ROOT
ATOM      1  C   UNL A   1      32.292  30.057  25.416  1.00  0.00     0.116 C 
ENDROOT
BRANCH   1   2
ATOM      2  N   UNL A   1      31.562  29.691  24.218  1.00  0.00    -0.356 N 
ATOM      3  C   UNL A   1      31.030  28.472  23.894  1.00  0.00     0.225 C 
ATOM      4  O   UNL A   1      30.375  28.379  22.860  1.00  0.00    -0.275 OA
ATOM      5  H   UNL A   1      31.434  30.407  23.554  1.00  0.00     0.163 HD
BRANCH   3   6
ATOM      6  C   UNL A   1      31.319  27.297  24.816  1.00  0.00     0.102 C 
ATOM      7  C   UNL A   1      33.188  25.945  25.789  1.00  0.00     0.032 C 
ATOM      8  C   UNL A   1      32.645  26.588  24.501  1.00  0.00     0.094 C 
ATOM      9  N   UNL A   1      32.294  25.555  23.542  1.00  0.00    -0.337 N 
ATOM     10  C   UNL A   1      30.292  26.170  24.667  1.00  0.00     0.037 C 
ATOM     11  C   UNL A   1      30.870  25.271  23.583  1.00  0.00     0.121 C 
BRANCH   9  12
ATOM     12  C   UNL A   1      33.083  24.905  22.618  1.00  0.00     0.251 C 
ATOM     13  O   UNL A   1      33.665  25.576  21.752  1.00  0.00    -0.272 OA
BRANCH  12  14
ATOM     14  C   UNL A   1      33.417  23.368  22.730  1.00  0.00     0.204 C 
ATOM     15  C   UNL A   1      34.820  23.179  23.311  1.00  0.00     0.049 C 
BRANCH  14  16
ATOM     16  O   UNL A   1      32.527  22.298  22.991  1.00  0.00    -0.364 OA
BRANCH  16  17
ATOM     17  C   UNL A   1      32.638  21.468  24.135  1.00  0.00     0.196 C 
BRANCH  17  18
ATOM     18  C   UNL A   1      32.933  20.010  23.889  1.00  0.00    -0.022 A 
ATOM     19  C   UNL A   1      32.208  19.280  22.939  1.00  0.00     0.006 A 
ATOM     20  C   UNL A   1      33.942  19.356  24.612  1.00  0.00     0.006 A 
ATOM     21  C   UNL A   1      32.554  17.960  22.647  1.00  0.00     0.000 A 
ATOM     22  C   UNL A   1      34.295  18.040  24.313  1.00  0.00     0.000 A 
ATOM     23  C   UNL A   1      33.610  17.347  23.320  1.00  0.00     0.000 A 
ENDBRANCH  17  18
ENDBRANCH  16  17
ENDBRANCH  14  16
ENDBRANCH  12  14
ENDBRANCH   9  12
ENDBRANCH   3   6
ENDBRANCH   1   2
BRANCH   1  24
ATOM     24  C   UNL A   1      31.407  30.667  26.495  1.00  0.00     0.023 C 
BRANCH  24  25
ATOM     25  C   UNL A   1      31.391  32.192  26.545  1.00  0.00     0.023 C 
BRANCH  25  26
ATOM     26  C   UNL A   1      32.625  32.845  27.156  1.00  0.00     0.116 C 
BRANCH  26  27
ATOM     27  N   UNL A   1      32.388  34.206  27.613  1.00  0.00    -0.352 N 
ATOM     28  C   UNL A   1      33.011  34.921  28.609  1.00  0.00     0.251 C 
ATOM     29  H   UNL A   1      31.674  34.687  27.137  1.00  0.00     0.163 HD
ATOM     30  O   UNL A   1      32.592  36.024  28.928  1.00  0.00    -0.269 OA
BRANCH  28  31
ATOM     31  C   UNL A   1      34.167  34.333  29.318  1.00  0.00     0.039 A 
ATOM     32  C   UNL A   1      33.929  33.493  30.409  1.00  0.00     0.014 A 
ATOM     33  C   UNL A   1      35.472  34.589  28.896  1.00  0.00     0.014 A 
ATOM     34  C   UNL A   1      35.001  32.847  31.028  1.00  0.00     0.010 A 
ATOM     35  C   UNL A   1      36.528  33.878  29.455  1.00  0.00     0.010 A 
ATOM     36  C   UNL A   1      36.304  33.003  30.530  1.00  0.00    -0.014 A 
BRANCH  36  37
ATOM     37  C   UNL A   1      37.452  32.273  31.125  1.00  0.00     0.031 A 
ATOM     38  C   UNL A   1      37.951  32.649  32.492  1.00  0.00     0.074 A 
ATOM     39  C   UNL A   1      38.091  31.329  30.407  1.00  0.00     0.049 A 
ATOM     40  N   UNL A   1      38.991  32.199  33.149  1.00  0.00    -0.248 NA
ATOM     41  C   UNL A   1      37.199  33.694  33.203  1.00  0.00     0.031 C 
ATOM     42  C   UNL A   1      37.736  30.909  29.051  1.00  0.00     0.029 A 
ATOM     43  N   UNL A   1      39.183  30.557  30.717  1.00  0.00    -0.354 N 
ATOM     44  C   UNL A   1      39.027  32.920  34.334  1.00  0.00     0.074 A 
ATOM     45  C   UNL A   1      37.943  33.876  34.283  1.00  0.00     0.031 C 
ATOM     46  C   UNL A   1      38.577  29.940  28.656  1.00  0.00     0.029 A 
ATOM     47  C   UNL A   1      39.552  29.696  29.713  1.00  0.00     0.049 A 
ATOM     48  H   UNL A   1      39.657  30.615  31.579  1.00  0.00     0.167 HD
ATOM     49  C   UNL A   1      39.874  32.781  35.383  1.00  0.00     0.037 A 
ATOM     50  C   UNL A   1      40.567  28.813  29.652  1.00  0.00     0.037 A 
ATOM     51  C   UNL A   1      40.931  31.808  35.444  1.00  0.00     0.049 A 
ATOM     52  C   UNL A   1      41.487  28.669  30.835  1.00  0.00     0.074 A 
ATOM     53  C   UNL A   1      41.807  31.548  36.483  1.00  0.00     0.029 A 
ATOM     54  N   UNL A   1      41.253  30.930  34.419  1.00  0.00    -0.354 N 
ATOM     55  N   UNL A   1      41.474  29.313  31.976  1.00  0.00    -0.248 NA
ATOM     56  C   UNL A   1      42.558  27.670  30.722  1.00  0.00     0.031 C 
ATOM     57  C   UNL A   1      42.684  30.539  36.072  1.00  0.00     0.029 A 
ATOM     58  C   UNL A   1      42.324  30.136  34.797  1.00  0.00     0.049 A 
ATOM     59  H   UNL A   1      40.790  30.878  33.552  1.00  0.00     0.167 HD
ATOM     60  C   UNL A   1      42.509  28.774  32.730  1.00  0.00     0.074 A 
ATOM     61  C   UNL A   1      43.123  27.744  31.919  1.00  0.00     0.031 C 
ATOM     62  C   UNL A   1      42.911  29.103  33.982  1.00  0.00     0.037 A 
BRANCH  49  63
ATOM     63  C   UNL A   1      39.681  33.704  36.552  1.00  0.00     0.064 A 
ATOM     64  C   UNL A   1      40.309  34.958  36.610  1.00  0.00     0.173 A 
ATOM     65  C   UNL A   1      38.846  33.339  37.618  1.00  0.00     0.173 A 
ATOM     66  F   UNL A   1      41.129  35.349  35.623  1.00  0.00    -0.203 F 
ATOM     67  C   UNL A   1      40.136  35.796  37.707  1.00  0.00     0.198 A 
ATOM     68  C   UNL A   1      38.649  34.195  38.700  1.00  0.00     0.198 A 
ATOM     69  F   UNL A   1      38.217  32.154  37.611  1.00  0.00    -0.203 F 
ATOM     70  F   UNL A   1      40.792  36.964  37.767  1.00  0.00    -0.200 F 
ATOM     71  C   UNL A   1      39.301  35.418  38.747  1.00  0.00     0.200 A 
ATOM     72  F   UNL A   1      37.832  33.833  39.698  1.00  0.00    -0.200 F 
ATOM     73  F   UNL A   1      39.132  36.227  39.802  1.00  0.00    -0.200 F 
ENDBRANCH  49  63
BRANCH  50  74
ATOM     74  C   UNL A   1      40.745  27.967  28.443  1.00  0.00     0.064 A 
ATOM     75  C   UNL A   1      41.526  28.410  27.366  1.00  0.00     0.173 A 
ATOM     76  C   UNL A   1      40.141  26.706  28.336  1.00  0.00     0.173 A 
ATOM     77  F   UNL A   1      42.107  29.618  27.415  1.00  0.00    -0.203 F 
ATOM     78  C   UNL A   1      41.678  27.634  26.220  1.00  0.00     0.198 A 
ATOM     79  C   UNL A   1      40.317  25.919  27.200  1.00  0.00     0.198 A 
ATOM     80  F   UNL A   1      39.389  26.233  29.341  1.00  0.00    -0.203 F 
ATOM     81  F   UNL A   1      42.394  28.101  25.188  1.00  0.00    -0.200 F 
ATOM     82  C   UNL A   1      41.079  26.387  26.139  1.00  0.00     0.200 A 
ATOM     83  F   UNL A   1      39.747  24.708  27.131  1.00  0.00    -0.200 F 
ATOM     84  F   UNL A   1      41.229  25.638  25.038  1.00  0.00    -0.200 F 
ENDBRANCH  50  74
BRANCH  62  85
ATOM     85  C   UNL A   1      44.039  28.307  34.574  1.00  0.00     0.064 A 
ATOM     86  C   UNL A   1      45.372  28.728  34.473  1.00  0.00     0.173 A 
ATOM     87  C   UNL A   1      43.772  27.128  35.285  1.00  0.00     0.173 A 
ATOM     88  F   UNL A   1      45.679  29.840  33.790  1.00  0.00    -0.203 F 
ATOM     89  C   UNL A   1      46.401  27.982  35.043  1.00  0.00     0.198 A 
ATOM     90  C   UNL A   1      44.800  26.401  35.879  1.00  0.00     0.198 A 
ATOM     91  F   UNL A   1      42.512  26.686  35.417  1.00  0.00    -0.203 F 
ATOM     92  F   UNL A   1      47.673  28.377  34.894  1.00  0.00    -0.200 F 
ATOM     93  C   UNL A   1      46.114  26.825  35.751  1.00  0.00     0.200 A 
ATOM     94  F   UNL A   1      44.519  25.290  36.576  1.00  0.00    -0.200 F 
ATOM     95  F   UNL A   1      47.106  26.113  36.305  1.00  0.00    -0.200 F 
ENDBRANCH  62  85
ENDBRANCH  36  37
ENDBRANCH  28  31
ENDBRANCH  26  27
ENDBRANCH  25  26
ENDBRANCH  24  25
ENDBRANCH   1  24
TORSDOF 16
ENDMDL
MODEL 3
REMARK VINA RESULT:     -12.4      0.712      1.811
REMARK SMILES C[C@@H]1[C@@H](C(=O)NCCCCNC(=O)c2ccc(-c3c4nc(c(-c5c(F)c(F)c(F)c(F)c5F)c5ccc([nH]5)c(-c5c(F)c(F)c(F)c(F)c5F)c5nc(c(-c6c(F)c(F)c(F)c(F)c6F)c6ccc3[nH]6)C=C5)C=C4)cc2)CCN1C(=O)[C@@H](C)OCc1ccccc1
REMARK SMILES IDX 7 1 6 2 4 3 5 4 3 6 1 7 2 8 79 9 77 10 78 11 80 12 81 13
REMARK SMILES IDX 82 14 83 15 84 16 85 17 86 18 87 19 91 20 88 21 90 22 89 23
REMARK SMILES IDX 8 24 9 25 10 26 11 27 12 28 13 30 14 31 15 32 76 33 16 34
REMARK SMILES IDX 75 35 17 36 18 37 19 38 69 39 20 40 74 41 68 42 70 43 21 44
REMARK SMILES IDX 73 45 67 46 66 47 22 49 54 50 34 51 53 52 35 53 38 54 52 55
REMARK SMILES IDX 71 56 36 57 37 58 51 60 72 61 39 62 23 63 24 64 32 65 25 66
REMARK SMILES IDX 26 67 30 68 33 69 27 70 28 71 31 72 29 73 55 74 56 75 64 76
REMARK SMILES IDX 57 77 58 78 62 79 65 80 59 81 60 82 63 83 61 84 40 85 41 86
REMARK SMILES IDX 49 87 42 88 43 89 47 90 50 91 44 92 45 93 48 94 46 95
REMARK H PARENT 6 5 11 29 70 48 38 59
REMARK Flexibility Score: inf
ROOT
ATOM      1  C   UNL A   1      32.365  30.033  25.385  1.00  0.00     0.116 C 
ENDROOT
BRANCH   1   2
ATOM      2  N   UNL A   1      31.529  29.693  24.250  1.00  0.00    -0.356 N 
ATOM      3  C   UNL A   1      30.966  28.482  23.950  1.00  0.00     0.225 C 
ATOM      4  O   UNL A   1      30.221  28.412  22.977  1.00  0.00    -0.275 OA
ATOM      5  H   UNL A   1      31.343  30.423  23.616  1.00  0.00     0.163 HD
BRANCH   3   6
ATOM      6  C   UNL A   1      31.333  27.287  24.817  1.00  0.00     0.102 C 
ATOM      7  C   UNL A   1      33.288  25.997  25.702  1.00  0.00     0.032 C 
ATOM      8  C   UNL A   1      32.687  26.662  24.451  1.00  0.00     0.094 C 
ATOM      9  N   UNL A   1      32.372  25.652  23.456  1.00  0.00    -0.337 N 
ATOM     10  C   UNL A   1      30.362  26.115  24.640  1.00  0.00     0.037 C 
ATOM     11  C   UNL A   1      30.966  25.292  23.510  1.00  0.00     0.121 C 
BRANCH   9  12
ATOM     12  C   UNL A   1      33.177  25.083  22.493  1.00  0.00     0.251 C 
ATOM     13  O   UNL A   1      33.658  25.809  21.611  1.00  0.00    -0.272 OA
BRANCH  12  14
ATOM     14  C   UNL A   1      33.651  23.581  22.574  1.00  0.00     0.204 C 
ATOM     15  C   UNL A   1      34.852  23.463  23.516  1.00  0.00     0.049 C 
BRANCH  14  16
ATOM     16  O   UNL A   1      32.861  22.409  22.483  1.00  0.00    -0.364 OA
BRANCH  16  17
ATOM     17  C   UNL A   1      32.209  21.833  23.603  1.00  0.00     0.196 C 
BRANCH  17  18
ATOM     18  C   UNL A   1      32.465  20.369  23.858  1.00  0.00    -0.022 A 
ATOM     19  C   UNL A   1      32.769  19.907  25.144  1.00  0.00     0.006 A 
ATOM     20  C   UNL A   1      32.404  19.442  22.806  1.00  0.00     0.006 A 
ATOM     21  C   UNL A   1      32.906  18.540  25.390  1.00  0.00     0.000 A 
ATOM     22  C   UNL A   1      32.528  18.075  23.053  1.00  0.00     0.000 A 
ATOM     23  C   UNL A   1      32.765  17.623  24.348  1.00  0.00     0.000 A 
ENDBRANCH  17  18
ENDBRANCH  16  17
ENDBRANCH  14  16
ENDBRANCH  12  14
ENDBRANCH   9  12
ENDBRANCH   3   6
ENDBRANCH   1   2
BRANCH   1  24
ATOM     24  C   UNL A   1      31.573  30.548  26.580  1.00  0.00     0.023 C 
BRANCH  24  25
ATOM     25  C   UNL A   1      31.452  32.067  26.681  1.00  0.00     0.023 C 
BRANCH  25  26
ATOM     26  C   UNL A   1      32.649  32.784  27.295  1.00  0.00     0.116 C 
BRANCH  26  27
ATOM     27  N   UNL A   1      32.378  34.174  27.625  1.00  0.00    -0.352 N 
ATOM     28  C   UNL A   1      32.972  34.989  28.560  1.00  0.00     0.251 C 
ATOM     29  H   UNL A   1      31.659  34.595  27.099  1.00  0.00     0.163 HD
ATOM     30  O   UNL A   1      32.525  36.107  28.774  1.00  0.00    -0.269 OA
BRANCH  28  31
ATOM     31  C   UNL A   1      34.130  34.493  29.332  1.00  0.00     0.039 A 
ATOM     32  C   UNL A   1      33.908  33.939  30.595  1.00  0.00     0.014 A 
ATOM     33  C   UNL A   1      35.421  34.551  28.805  1.00  0.00     0.014 A 
ATOM     34  C   UNL A   1      34.973  33.372  31.297  1.00  0.00     0.010 A 
ATOM     35  C   UNL A   1      36.464  33.910  29.464  1.00  0.00     0.010 A 
ATOM     36  C   UNL A   1      36.252  33.316  30.718  1.00  0.00    -0.014 A 
BRANCH  36  37
ATOM     37  C   UNL A   1      37.387  32.657  31.412  1.00  0.00     0.031 A 
ATOM     38  C   UNL A   1      38.100  31.508  30.756  1.00  0.00     0.074 A 
ATOM     39  C   UNL A   1      37.726  33.041  32.658  1.00  0.00     0.049 A 
ATOM     40  N   UNL A   1      39.051  30.742  31.229  1.00  0.00    -0.248 NA
ATOM     41  C   UNL A   1      37.662  31.151  29.397  1.00  0.00     0.031 C 
ATOM     42  C   UNL A   1      37.079  34.108  33.422  1.00  0.00     0.029 A 
ATOM     43  N   UNL A   1      38.695  32.567  33.506  1.00  0.00    -0.354 N 
ATOM     44  C   UNL A   1      39.307  29.805  30.238  1.00  0.00     0.074 A 
ATOM     45  C   UNL A   1      38.374  30.059  29.162  1.00  0.00     0.031 C 
ATOM     46  C   UNL A   1      37.684  34.225  34.615  1.00  0.00     0.029 A 
ATOM     47  C   UNL A   1      38.735  33.218  34.716  1.00  0.00     0.049 A 
ATOM     48  H   UNL A   1      39.305  31.830  33.271  1.00  0.00     0.167 HD
ATOM     49  C   UNL A   1      40.252  28.834  30.215  1.00  0.00     0.037 A 
ATOM     50  C   UNL A   1      39.528  33.020  35.785  1.00  0.00     0.037 A 
ATOM     51  C   UNL A   1      41.199  28.605  31.273  1.00  0.00     0.049 A 
ATOM     52  C   UNL A   1      40.578  31.942  35.731  1.00  0.00     0.074 A 
ATOM     53  C   UNL A   1      42.232  27.685  31.323  1.00  0.00     0.029 A 
ATOM     54  N   UNL A   1      41.229  29.307  32.469  1.00  0.00    -0.354 N 
ATOM     55  N   UNL A   1      40.853  31.102  34.764  1.00  0.00    -0.248 NA
ATOM     56  C   UNL A   1      41.433  31.792  36.917  1.00  0.00     0.031 C 
ATOM     57  C   UNL A   1      42.862  27.805  32.566  1.00  0.00     0.029 A 
ATOM     58  C   UNL A   1      42.255  28.832  33.270  1.00  0.00     0.049 A 
ATOM     59  H   UNL A   1      40.613  30.035  32.713  1.00  0.00     0.167 HD
ATOM     60  C   UNL A   1      41.932  30.349  35.207  1.00  0.00     0.074 A 
ATOM     61  C   UNL A   1      42.267  30.838  36.528  1.00  0.00     0.031 C 
ATOM     62  C   UNL A   1      42.586  29.343  34.576  1.00  0.00     0.037 A 
BRANCH  49  63
ATOM     63  C   UNL A   1      40.307  27.953  29.000  1.00  0.00     0.064 A 
ATOM     64  C   UNL A   1      41.048  28.313  27.864  1.00  0.00     0.173 A 
ATOM     65  C   UNL A   1      39.627  26.727  28.978  1.00  0.00     0.173 A 
ATOM     66  F   UNL A   1      41.706  29.482  27.829  1.00  0.00    -0.203 F 
ATOM     67  C   UNL A   1      41.078  27.494  26.739  1.00  0.00     0.198 A 
ATOM     68  C   UNL A   1      39.686  25.895  27.862  1.00  0.00     0.198 A 
ATOM     69  F   UNL A   1      38.908  26.331  30.039  1.00  0.00    -0.203 F 
ATOM     70  F   UNL A   1      41.745  27.887  25.644  1.00  0.00    -0.200 F 
ATOM     71  C   UNL A   1      40.403  26.283  26.741  1.00  0.00     0.200 A 
ATOM     72  F   UNL A   1      39.043  24.718  27.870  1.00  0.00    -0.200 F 
ATOM     73  F   UNL A   1      40.434  25.494  25.658  1.00  0.00    -0.200 F 
ENDBRANCH  49  63
BRANCH  50  74
ATOM     74  C   UNL A   1      39.388  33.886  36.985  1.00  0.00     0.064 A 
ATOM     75  C   UNL A   1      39.993  35.150  37.031  1.00  0.00     0.173 A 
ATOM     76  C   UNL A   1      38.653  33.473  38.105  1.00  0.00     0.173 A 
ATOM     77  F   UNL A   1      40.723  35.580  35.991  1.00  0.00    -0.203 F 
ATOM     78  C   UNL A   1      39.887  35.959  38.160  1.00  0.00     0.198 A 
ATOM     79  C   UNL A   1      38.525  34.294  39.224  1.00  0.00     0.198 A 
ATOM     80  F   UNL A   1      38.050  32.276  38.109  1.00  0.00    -0.203 F 
ATOM     81  F   UNL A   1      40.512  37.143  38.194  1.00  0.00    -0.200 F 
ATOM     82  C   UNL A   1      39.148  35.533  39.253  1.00  0.00     0.200 A 
ATOM     83  F   UNL A   1      37.798  33.886  40.273  1.00  0.00    -0.200 F 
ATOM     84  F   UNL A   1      39.042  36.313  40.338  1.00  0.00    -0.200 F 
ENDBRANCH  50  74
BRANCH  62  85
ATOM     85  C   UNL A   1      43.764  28.737  35.283  1.00  0.00     0.064 A 
ATOM     86  C   UNL A   1      45.072  29.184  35.053  1.00  0.00     0.173 A 
ATOM     87  C   UNL A   1      43.571  27.722  36.231  1.00  0.00     0.173 A 
ATOM     88  F   UNL A   1      45.310  30.141  34.145  1.00  0.00    -0.203 F 
ATOM     89  C   UNL A   1      46.149  28.618  35.732  1.00  0.00     0.198 A 
ATOM     90  C   UNL A   1      44.646  27.180  36.929  1.00  0.00     0.198 A 
ATOM     91  F   UNL A   1      42.336  27.265  36.493  1.00  0.00    -0.203 F 
ATOM     92  F   UNL A   1      47.397  29.026  35.463  1.00  0.00    -0.200 F 
ATOM     93  C   UNL A   1      45.935  27.622  36.674  1.00  0.00     0.200 A 
ATOM     94  F   UNL A   1      44.435  26.228  37.849  1.00  0.00    -0.200 F 
ATOM     95  F   UNL A   1      46.972  27.085  37.330  1.00  0.00    -0.200 F 
ENDBRANCH  62  85
ENDBRANCH  36  37
ENDBRANCH  28  31
ENDBRANCH  26  27
ENDBRANCH  25  26
ENDBRANCH  24  25
ENDBRANCH   1  24
TORSDOF 16
ENDMDL
