MODEL 1
REMARK VINA RESULT:     -11.3      0.000      0.000
REMARK SMILES O=C(NCCCCNC(=O)c1cnc(OCC2CC2)c(Cl)c1)c1ccc(-c2c3nc(c(-c4c(F)c(F)c(F)c(F)c4F)c4ccc([nH]4)c(-c4c(F)c(F)c(F)c(F)c4F)c4nc(c(-c5c(F)c(F)c(F)c(F)c5F)c5ccc2[nH]5)C=C4)C=C3)cc1
REMARK SMILES IDX 6 1 5 2 4 3 3 4 1 5 2 6 23 8 24 9 85 10 25 11 84 12 26 13
REMARK SMILES IDX 27 14 28 15 78 16 29 17 83 18 77 19 79 20 30 21 82 22 76 23
REMARK SMILES IDX 75 24 31 26 63 27 43 28 62 29 44 30 47 31 61 32 80 33 45 34
REMARK SMILES IDX 46 35 60 37 81 38 48 39 32 40 33 41 41 42 34 43 35 44 39 45
REMARK SMILES IDX 42 46 36 47 37 48 40 49 38 50 64 51 65 52 73 53 66 54 67 55
REMARK SMILES IDX 71 56 74 57 68 58 69 59 72 60 70 61 49 62 50 63 58 64 51 65
REMARK SMILES IDX 52 66 56 67 59 68 53 69 54 70 57 71 55 72 7 73 8 74 9 75
REMARK SMILES IDX 10 77 11 78 12 79 22 80 13 81 20 82 14 83 21 84 15 85 16 86
REMARK SMILES IDX 17 87 18 88 19 89
REMARK H PARENT 3 7 79 25 47 36 8 76
REMARK Flexibility Score: inf
ROOT
ATOM      1  C   UNL A   1      37.353  21.162  24.472  1.00  0.00     0.023 C 
ENDROOT
BRANCH   1   2
ATOM      2  C   UNL A   1      38.052  19.902  24.977  1.00  0.00     0.023 C 
BRANCH   2   3
ATOM      3  C   UNL A   1      39.127  20.140  26.028  1.00  0.00     0.116 C 
BRANCH   3   4
ATOM      4  N   UNL A   1      40.208  19.167  25.966  1.00  0.00    -0.352 N 
ATOM      5  O   UNL A   1      42.346  18.449  25.843  1.00  0.00    -0.269 OA
ATOM      6  C   UNL A   1      41.566  19.371  26.053  1.00  0.00     0.251 C 
ATOM      7  H   UNL A   1      39.929  18.231  25.847  1.00  0.00     0.163 HD
BRANCH   6   8
ATOM      8  C   UNL A   1      42.084  20.720  26.371  1.00  0.00     0.039 A 
ATOM      9  C   UNL A   1      42.340  21.086  27.694  1.00  0.00     0.014 A 
ATOM     10  C   UNL A   1      42.299  21.633  25.335  1.00  0.00     0.014 A 
ATOM     11  C   UNL A   1      42.650  22.406  27.994  1.00  0.00     0.010 A 
ATOM     12  C   UNL A   1      42.708  22.936  25.633  1.00  0.00     0.010 A 
ATOM     13  C   UNL A   1      42.852  23.343  26.969  1.00  0.00    -0.014 A 
BRANCH  13  14
ATOM     14  C   UNL A   1      43.276  24.722  27.323  1.00  0.00     0.031 A 
ATOM     15  C   UNL A   1      44.677  25.201  27.066  1.00  0.00     0.074 A 
ATOM     16  C   UNL A   1      42.362  25.555  27.857  1.00  0.00     0.049 A 
ATOM     17  N   UNL A   1      45.199  26.380  27.298  1.00  0.00    -0.248 NA
ATOM     18  C   UNL A   1      45.618  24.236  26.480  1.00  0.00     0.031 C 
ATOM     19  C   UNL A   1      40.977  25.194  28.166  1.00  0.00     0.029 A 
ATOM     20  N   UNL A   1      42.450  26.875  28.218  1.00  0.00    -0.354 N 
ATOM     21  C   UNL A   1      46.529  26.294  26.905  1.00  0.00     0.074 A 
ATOM     22  C   UNL A   1      46.742  24.939  26.444  1.00  0.00     0.031 C 
ATOM     23  C   UNL A   1      40.332  26.276  28.624  1.00  0.00     0.029 A 
ATOM     24  C   UNL A   1      41.273  27.386  28.706  1.00  0.00     0.049 A 
ATOM     25  H   UNL A   1      43.276  27.404  28.136  1.00  0.00     0.167 HD
ATOM     26  C   UNL A   1      47.478  27.262  26.923  1.00  0.00     0.037 A 
ATOM     27  C   UNL A   1      40.985  28.609  29.187  1.00  0.00     0.037 A 
ATOM     28  C   UNL A   1      47.252  28.614  27.371  1.00  0.00     0.049 A 
ATOM     29  C   UNL A   1      42.062  29.654  29.211  1.00  0.00     0.074 A 
ATOM     30  C   UNL A   1      48.139  29.677  27.391  1.00  0.00     0.029 A 
ATOM     31  N   UNL A   1      46.052  29.089  27.883  1.00  0.00    -0.354 N 
ATOM     32  N   UNL A   1      43.304  29.569  28.803  1.00  0.00    -0.248 NA
ATOM     33  C   UNL A   1      41.697  30.964  29.766  1.00  0.00     0.031 C 
ATOM     34  C   UNL A   1      47.493  30.779  27.961  1.00  0.00     0.029 A 
ATOM     35  C   UNL A   1      46.184  30.420  28.245  1.00  0.00     0.049 A 
ATOM     36  H   UNL A   1      45.228  28.557  27.976  1.00  0.00     0.167 HD
ATOM     37  C   UNL A   1      43.866  30.815  29.035  1.00  0.00     0.074 A 
ATOM     38  C   UNL A   1      42.821  31.646  29.598  1.00  0.00     0.031 C 
ATOM     39  C   UNL A   1      45.135  31.233  28.806  1.00  0.00     0.037 A 
BRANCH  26  40
ATOM     40  C   UNL A   1      48.861  26.897  26.463  1.00  0.00     0.064 A 
ATOM     41  C   UNL A   1      49.807  26.341  27.336  1.00  0.00     0.173 A 
ATOM     42  C   UNL A   1      49.223  27.048  25.115  1.00  0.00     0.173 A 
ATOM     43  F   UNL A   1      49.516  26.182  28.636  1.00  0.00    -0.203 F 
ATOM     44  C   UNL A   1      51.072  25.970  26.882  1.00  0.00     0.198 A 
ATOM     45  C   UNL A   1      50.477  26.651  24.659  1.00  0.00     0.198 A 
ATOM     46  F   UNL A   1      48.353  27.567  24.236  1.00  0.00    -0.203 F 
ATOM     47  F   UNL A   1      51.974  25.477  27.743  1.00  0.00    -0.200 F 
ATOM     48  C   UNL A   1      51.403  26.117  25.543  1.00  0.00     0.200 A 
ATOM     49  F   UNL A   1      50.790  26.780  23.362  1.00  0.00    -0.200 F 
ATOM     50  F   UNL A   1      52.615  25.750  25.106  1.00  0.00    -0.200 F 
ENDBRANCH  26  40
BRANCH  27  51
ATOM     51  C   UNL A   1      39.616  28.898  29.687  1.00  0.00     0.064 A 
ATOM     52  C   UNL A   1      39.264  28.646  31.018  1.00  0.00     0.173 A 
ATOM     53  C   UNL A   1      38.639  29.450  28.845  1.00  0.00     0.173 A 
ATOM     54  F   UNL A   1      40.160  28.103  31.856  1.00  0.00    -0.203 F 
ATOM     55  C   UNL A   1      37.981  28.920  31.486  1.00  0.00     0.198 A 
ATOM     56  C   UNL A   1      37.367  29.755  29.322  1.00  0.00     0.198 A 
ATOM     57  F   UNL A   1      38.928  29.718  27.564  1.00  0.00    -0.203 F 
ATOM     58  F   UNL A   1      37.657  28.631  32.754  1.00  0.00    -0.200 F 
ATOM     59  C   UNL A   1      37.037  29.481  30.641  1.00  0.00     0.200 A 
ATOM     60  F   UNL A   1      36.464  30.316  28.507  1.00  0.00    -0.200 F 
ATOM     61  F   UNL A   1      35.806  29.756  31.095  1.00  0.00    -0.200 F 
ENDBRANCH  27  51
BRANCH  39  62
ATOM     62  C   UNL A   1      45.452  32.661  29.141  1.00  0.00     0.064 A 
ATOM     63  C   UNL A   1      45.250  33.696  28.216  1.00  0.00     0.173 A 
ATOM     64  C   UNL A   1      45.945  33.000  30.410  1.00  0.00     0.173 A 
ATOM     65  F   UNL A   1      44.799  33.422  26.983  1.00  0.00    -0.203 F 
ATOM     66  C   UNL A   1      45.559  35.015  28.540  1.00  0.00     0.198 A 
ATOM     67  C   UNL A   1      46.222  34.323  30.741  1.00  0.00     0.198 A 
ATOM     68  F   UNL A   1      46.151  32.048  31.332  1.00  0.00    -0.203 F 
ATOM     69  F   UNL A   1      45.409  35.980  27.622  1.00  0.00    -0.200 F 
ATOM     70  C   UNL A   1      46.037  35.328  29.803  1.00  0.00     0.200 A 
ATOM     71  F   UNL A   1      46.674  34.626  31.966  1.00  0.00    -0.200 F 
ATOM     72  F   UNL A   1      46.331  36.598  30.114  1.00  0.00    -0.200 F 
ENDBRANCH  39  62
ENDBRANCH  13  14
ENDBRANCH   6   8
ENDBRANCH   3   4
ENDBRANCH   2   3
ENDBRANCH   1   2
BRANCH   1  73
ATOM     73  C   UNL A   1      35.954  21.394  25.037  1.00  0.00     0.116 C 
BRANCH  73  74
ATOM     74  N   UNL A   1      35.131  20.194  24.988  1.00  0.00    -0.352 N 
ATOM     75  C   UNL A   1      33.804  20.056  25.307  1.00  0.00     0.252 C 
ATOM     76  H   UNL A   1      35.586  19.374  24.688  1.00  0.00     0.163 HD
ATOM     77  O   UNL A   1      33.273  18.954  25.363  1.00  0.00    -0.269 OA
BRANCH  75  78
ATOM     78  C   UNL A   1      33.021  21.261  25.593  1.00  0.00     0.059 A 
ATOM     79  C   UNL A   1      33.074  21.830  26.846  1.00  0.00     0.129 A 
ATOM     80  C   UNL A   1      32.248  21.872  24.611  1.00  0.00     0.041 A 
ATOM     81  N   UNL A   1      32.483  23.011  27.135  1.00  0.00    -0.220 NA
ATOM     82  C   UNL A   1      31.612  23.086  24.890  1.00  0.00     0.104 A 
ATOM     83  C   UNL A   1      31.784  23.654  26.158  1.00  0.00     0.232 A 
ATOM     84  Cl  UNL A   1      30.669  23.730  23.598  1.00  0.00    -0.078 Cl
BRANCH  83  85
ATOM     85  O   UNL A   1      31.338  24.847  26.626  1.00  0.00    -0.476 OA
BRANCH  85  86
ATOM     86  C   UNL A   1      32.065  26.059  26.452  1.00  0.00     0.235 C 
BRANCH  86  87
ATOM     87  C   UNL A   1      31.214  27.292  26.596  1.00  0.00     0.027 C 
ATOM     88  C   UNL A   1      31.646  28.356  27.577  1.00  0.00     0.007 C 
ATOM     89  C   UNL A   1      31.693  28.636  26.102  1.00  0.00     0.007 C 
ENDBRANCH  86  87
ENDBRANCH  85  86
ENDBRANCH  83  85
ENDBRANCH  75  78
ENDBRANCH  73  74
ENDBRANCH   1  73
TORSDOF 14
ENDMDL
MODEL 2
REMARK VINA RESULT:     -11.3      5.487      9.841
REMARK SMILES O=C(NCCCCNC(=O)c1cnc(OCC2CC2)c(Cl)c1)c1ccc(-c2c3nc(c(-c4c(F)c(F)c(F)c(F)c4F)c4ccc([nH]4)c(-c4c(F)c(F)c(F)c(F)c4F)c4nc(c(-c5c(F)c(F)c(F)c(F)c5F)c5ccc2[nH]5)C=C4)C=C3)cc1
REMARK SMILES IDX 6 1 5 2 4 3 3 4 1 5 2 6 23 8 24 9 85 10 25 11 84 12 26 13
REMARK SMILES IDX 27 14 28 15 78 16 29 17 83 18 77 19 79 20 30 21 82 22 76 23
REMARK SMILES IDX 75 24 31 26 63 27 43 28 62 29 44 30 47 31 61 32 80 33 45 34
REMARK SMILES IDX 46 35 60 37 81 38 48 39 32 40 33 41 41 42 34 43 35 44 39 45
REMARK SMILES IDX 42 46 36 47 37 48 40 49 38 50 64 51 65 52 73 53 66 54 67 55
REMARK SMILES IDX 71 56 74 57 68 58 69 59 72 60 70 61 49 62 50 63 58 64 51 65
REMARK SMILES IDX 52 66 56 67 59 68 53 69 54 70 57 71 55 72 7 73 8 74 9 75
REMARK SMILES IDX 10 77 11 78 12 79 22 80 13 81 20 82 14 83 21 84 15 85 16 86
REMARK SMILES IDX 17 87 18 88 19 89
REMARK H PARENT 3 7 79 25 47 36 8 76
REMARK Flexibility Score: inf
ROOT
ATOM      1  C   UNL A   1      31.678  30.626  26.825  1.00  0.00     0.023 C 
ENDROOT
BRANCH   1   2
ATOM      2  C   UNL A   1      31.487  32.140  26.805  1.00  0.00     0.023 C 
BRANCH   2   3
ATOM      3  C   UNL A   1      32.743  32.951  27.087  1.00  0.00     0.116 C 
BRANCH   3   4
ATOM      4  N   UNL A   1      32.457  34.287  27.590  1.00  0.00    -0.352 N 
ATOM      5  O   UNL A   1      32.556  36.026  29.028  1.00  0.00    -0.269 OA
ATOM      6  C   UNL A   1      33.015  34.950  28.659  1.00  0.00     0.251 C 
ATOM      7  H   UNL A   1      31.769  34.787  27.095  1.00  0.00     0.163 HD
BRANCH   6   8
ATOM      8  C   UNL A   1      34.153  34.344  29.383  1.00  0.00     0.039 A 
ATOM      9  C   UNL A   1      35.464  34.581  28.967  1.00  0.00     0.014 A 
ATOM     10  C   UNL A   1      33.903  33.516  30.480  1.00  0.00     0.014 A 
ATOM     11  C   UNL A   1      36.508  33.865  29.538  1.00  0.00     0.010 A 
ATOM     12  C   UNL A   1      34.967  32.871  31.119  1.00  0.00     0.010 A 
ATOM     13  C   UNL A   1      36.275  33.013  30.630  1.00  0.00    -0.014 A 
BRANCH  13  14
ATOM     14  C   UNL A   1      37.428  32.337  31.277  1.00  0.00     0.031 A 
ATOM     15  C   UNL A   1      38.195  31.252  30.574  1.00  0.00     0.074 A 
ATOM     16  C   UNL A   1      37.798  32.740  32.508  1.00  0.00     0.049 A 
ATOM     17  N   UNL A   1      39.238  30.578  30.993  1.00  0.00    -0.248 NA
ATOM     18  C   UNL A   1      37.734  30.867  29.233  1.00  0.00     0.031 C 
ATOM     19  C   UNL A   1      37.118  33.773  33.293  1.00  0.00     0.029 A 
ATOM     20  N   UNL A   1      38.840  32.348  33.308  1.00  0.00    -0.354 N 
ATOM     21  C   UNL A   1      39.545  29.679  29.980  1.00  0.00     0.074 A 
ATOM     22  C   UNL A   1      38.563  29.875  28.934  1.00  0.00     0.031 C 
ATOM     23  C   UNL A   1      37.786  33.966  34.438  1.00  0.00     0.029 A 
ATOM     24  C   UNL A   1      38.899  33.028  34.500  1.00  0.00     0.049 A 
ATOM     25  H   UNL A   1      39.484  31.648  33.053  1.00  0.00     0.167 HD
ATOM     26  C   UNL A   1      40.558  28.781  29.928  1.00  0.00     0.037 A 
ATOM     27  C   UNL A   1      39.742  32.896  35.540  1.00  0.00     0.037 A 
ATOM     28  C   UNL A   1      41.542  28.603  30.968  1.00  0.00     0.049 A 
ATOM     29  C   UNL A   1      40.843  31.879  35.460  1.00  0.00     0.074 A 
ATOM     30  C   UNL A   1      42.629  27.746  30.990  1.00  0.00     0.029 A 
ATOM     31  N   UNL A   1      41.553  29.291  32.172  1.00  0.00    -0.354 N 
ATOM     32  N   UNL A   1      41.143  31.062  34.480  1.00  0.00    -0.248 NA
ATOM     33  C   UNL A   1      41.720  31.765  36.632  1.00  0.00     0.031 C 
ATOM     34  C   UNL A   1      43.267  27.879  32.228  1.00  0.00     0.029 A 
ATOM     35  C   UNL A   1      42.612  28.860  32.956  1.00  0.00     0.049 A 
ATOM     36  H   UNL A   1      40.903  29.984  32.433  1.00  0.00     0.167 HD
ATOM     37  C   UNL A   1      42.252  30.347  34.908  1.00  0.00     0.074 A 
ATOM     38  C   UNL A   1      42.586  30.846  36.227  1.00  0.00     0.031 C 
ATOM     39  C   UNL A   1      42.931  29.365  34.267  1.00  0.00     0.037 A 
BRANCH  26  40
ATOM     40  C   UNL A   1      40.653  27.900  28.714  1.00  0.00     0.064 A 
ATOM     41  C   UNL A   1      39.942  26.695  28.618  1.00  0.00     0.173 A 
ATOM     42  C   UNL A   1      41.417  28.299  27.606  1.00  0.00     0.173 A 
ATOM     43  F   UNL A   1      39.203  26.263  29.651  1.00  0.00    -0.203 F 
ATOM     44  C   UNL A   1      40.010  25.910  27.468  1.00  0.00     0.198 A 
ATOM     45  C   UNL A   1      41.461  27.527  26.448  1.00  0.00     0.198 A 
ATOM     46  F   UNL A   1      42.111  29.446  27.641  1.00  0.00    -0.203 F 
ATOM     47  F   UNL A   1      39.353  24.743  27.414  1.00  0.00    -0.200 F 
ATOM     48  C   UNL A   1      40.762  26.331  26.381  1.00  0.00     0.200 A 
ATOM     49  F   UNL A   1      42.177  27.943  25.393  1.00  0.00    -0.200 F 
ATOM     50  F   UNL A   1      40.818  25.582  25.271  1.00  0.00    -0.200 F 
ENDBRANCH  26  40
BRANCH  27  51
ATOM     51  C   UNL A   1      39.565  33.751  36.742  1.00  0.00     0.064 A 
ATOM     52  C   UNL A   1      40.145  35.024  36.817  1.00  0.00     0.173 A 
ATOM     53  C   UNL A   1      38.797  33.317  37.832  1.00  0.00     0.173 A 
ATOM     54  F   UNL A   1      40.902  35.475  35.805  1.00  0.00    -0.203 F 
ATOM     55  C   UNL A   1      39.975  35.825  37.943  1.00  0.00     0.198 A 
ATOM     56  C   UNL A   1      38.600  34.131  38.944  1.00  0.00     0.198 A 
ATOM     57  F   UNL A   1      38.214  32.109  37.807  1.00  0.00    -0.203 F 
ATOM     58  F   UNL A   1      40.574  37.022  38.007  1.00  0.00    -0.200 F 
ATOM     59  C   UNL A   1      39.197  35.382  39.002  1.00  0.00     0.200 A 
ATOM     60  F   UNL A   1      37.832  33.708  39.956  1.00  0.00    -0.200 F 
ATOM     61  F   UNL A   1      39.024  36.158  40.080  1.00  0.00    -0.200 F 
ENDBRANCH  27  51
BRANCH  39  62
ATOM     62  C   UNL A   1      44.119  28.784  34.977  1.00  0.00     0.064 A 
ATOM     63  C   UNL A   1      44.002  27.661  35.810  1.00  0.00     0.173 A 
ATOM     64  C   UNL A   1      45.393  29.345  34.804  1.00  0.00     0.173 A 
ATOM     65  F   UNL A   1      42.803  27.099  36.022  1.00  0.00    -0.203 F 
ATOM     66  C   UNL A   1      45.114  27.141  36.468  1.00  0.00     0.198 A 
ATOM     67  C   UNL A   1      46.507  28.803  35.438  1.00  0.00     0.198 A 
ATOM     68  F   UNL A   1      45.559  30.416  34.014  1.00  0.00    -0.203 F 
ATOM     69  F   UNL A   1      44.969  26.101  37.301  1.00  0.00    -0.200 F 
ATOM     70  C   UNL A   1      46.365  27.707  36.276  1.00  0.00     0.200 A 
ATOM     71  F   UNL A   1      47.718  29.344  35.243  1.00  0.00    -0.200 F 
ATOM     72  F   UNL A   1      47.433  27.202  36.908  1.00  0.00    -0.200 F 
ENDBRANCH  39  62
ENDBRANCH  13  14
ENDBRANCH   6   8
ENDBRANCH   3   4
ENDBRANCH   2   3
ENDBRANCH   1   2
BRANCH   1  73
ATOM     73  C   UNL A   1      32.503  30.065  25.670  1.00  0.00     0.116 C 
BRANCH  73  74
ATOM     74  N   UNL A   1      31.682  29.716  24.519  1.00  0.00    -0.352 N 
ATOM     75  C   UNL A   1      31.333  28.470  24.066  1.00  0.00     0.252 C 
ATOM     76  H   UNL A   1      31.332  30.475  23.998  1.00  0.00     0.163 HD
ATOM     77  O   UNL A   1      30.757  28.319  22.995  1.00  0.00    -0.269 OA
BRANCH  75  78
ATOM     78  C   UNL A   1      31.670  27.304  24.886  1.00  0.00     0.059 A 
ATOM     79  C   UNL A   1      30.726  26.764  25.730  1.00  0.00     0.129 A 
ATOM     80  C   UNL A   1      32.920  26.698  24.803  1.00  0.00     0.041 A 
ATOM     81  N   UNL A   1      30.930  25.613  26.410  1.00  0.00    -0.220 NA
ATOM     82  C   UNL A   1      33.163  25.517  25.510  1.00  0.00     0.104 A 
ATOM     83  C   UNL A   1      32.126  24.973  26.278  1.00  0.00     0.232 A 
ATOM     84  Cl  UNL A   1      34.755  24.878  25.341  1.00  0.00    -0.078 Cl
BRANCH  83  85
ATOM     85  O   UNL A   1      32.100  23.810  26.976  1.00  0.00    -0.476 OA
BRANCH  85  86
ATOM     86  C   UNL A   1      31.633  22.589  26.414  1.00  0.00     0.235 C 
BRANCH  86  87
ATOM     87  C   UNL A   1      32.668  21.879  25.583  1.00  0.00     0.027 C 
ATOM     88  C   UNL A   1      32.259  20.635  24.830  1.00  0.00     0.007 C 
ATOM     89  C   UNL A   1      32.601  21.886  24.074  1.00  0.00     0.007 C 
ENDBRANCH  86  87
ENDBRANCH  85  86
ENDBRANCH  83  85
ENDBRANCH  75  78
ENDBRANCH  73  74
ENDBRANCH   1  73
TORSDOF 14
ENDMDL
MODEL 3
REMARK VINA RESULT:     -11.3      0.912      2.245
REMARK SMILES O=C(NCCCCNC(=O)c1cnc(OCC2CC2)c(Cl)c1)c1ccc(-c2c3nc(c(-c4c(F)c(F)c(F)c(F)c4F)c4ccc([nH]4)c(-c4c(F)c(F)c(F)c(F)c4F)c4nc(c(-c5c(F)c(F)c(F)c(F)c5F)c5ccc2[nH]5)C=C4)C=C3)cc1
REMARK SMILES IDX 6 1 5 2 4 3 3 4 1 5 2 6 23 8 24 9 85 10 25 11 84 12 26 13
REMARK SMILES IDX 27 14 28 15 78 16 29 17 83 18 77 19 79 20 30 21 82 22 76 23
REMARK SMILES IDX 75 24 31 26 63 27 43 28 62 29 44 30 47 31 61 32 80 33 45 34
REMARK SMILES IDX 46 35 60 37 81 38 48 39 32 40 33 41 41 42 34 43 35 44 39 45
REMARK SMILES IDX 42 46 36 47 37 48 40 49 38 50 64 51 65 52 73 53 66 54 67 55
REMARK SMILES IDX 71 56 74 57 68 58 69 59 72 60 70 61 49 62 50 63 58 64 51 65
REMARK SMILES IDX 52 66 56 67 59 68 53 69 54 70 57 71 55 72 7 73 8 74 9 75
REMARK SMILES IDX 10 77 11 78 12 79 22 80 13 81 20 82 14 83 21 84 15 85 16 86
REMARK SMILES IDX 17 87 18 88 19 89
REMARK H PARENT 3 7 79 25 47 36 8 76
REMARK Flexibility Score: inf
ROOT
ATOM      1  C   UNL A   1      37.328  21.026  24.700  1.00  0.00     0.023 C 
ENDROOT
BRANCH   1   2
ATOM      2  C   UNL A   1      38.192  19.801  24.993  1.00  0.00     0.023 C 
BRANCH   2   3
ATOM      3  C   UNL A   1      39.282  20.017  26.033  1.00  0.00     0.116 C 
BRANCH   3   4
ATOM      4  N   UNL A   1      40.376  19.064  25.917  1.00  0.00    -0.352 N 
ATOM      5  O   UNL A   1      42.523  18.383  25.742  1.00  0.00    -0.269 OA
ATOM      6  C   UNL A   1      41.731  19.284  26.003  1.00  0.00     0.251 C 
ATOM      7  H   UNL A   1      40.109  18.131  25.755  1.00  0.00     0.163 HD
BRANCH   6   8
ATOM      8  C   UNL A   1      42.233  20.623  26.380  1.00  0.00     0.039 A 
ATOM      9  C   UNL A   1      42.340  20.985  27.724  1.00  0.00     0.014 A 
ATOM     10  C   UNL A   1      42.584  21.531  25.378  1.00  0.00     0.014 A 
ATOM     11  C   UNL A   1      42.637  22.300  28.061  1.00  0.00     0.010 A 
ATOM     12  C   UNL A   1      42.978  22.827  25.723  1.00  0.00     0.010 A 
ATOM     13  C   UNL A   1      42.974  23.232  27.067  1.00  0.00    -0.014 A 
BRANCH  13  14
ATOM     14  C   UNL A   1      43.378  24.603  27.470  1.00  0.00     0.031 A 
ATOM     15  C   UNL A   1      44.819  25.030  27.459  1.00  0.00     0.074 A 
ATOM     16  C   UNL A   1      42.415  25.477  27.820  1.00  0.00     0.049 A 
ATOM     17  N   UNL A   1      45.335  26.196  27.762  1.00  0.00    -0.248 NA
ATOM     18  C   UNL A   1      45.813  24.022  27.064  1.00  0.00     0.031 C 
ATOM     19  C   UNL A   1      40.985  25.170  27.883  1.00  0.00     0.029 A 
ATOM     20  N   UNL A   1      42.486  26.801  28.171  1.00  0.00    -0.354 N 
ATOM     21  C   UNL A   1      46.709  26.057  27.614  1.00  0.00     0.074 A 
ATOM     22  C   UNL A   1      46.951  24.686  27.218  1.00  0.00     0.031 C 
ATOM     23  C   UNL A   1      40.310  26.282  28.202  1.00  0.00     0.029 A 
ATOM     24  C   UNL A   1      41.261  27.362  28.433  1.00  0.00     0.049 A 
ATOM     25  H   UNL A   1      43.333  27.301  28.228  1.00  0.00     0.167 HD
ATOM     26  C   UNL A   1      47.675  26.993  27.785  1.00  0.00     0.037 A 
ATOM     27  C   UNL A   1      40.937  28.604  28.836  1.00  0.00     0.037 A 
ATOM     28  C   UNL A   1      47.422  28.361  28.165  1.00  0.00     0.049 A 
ATOM     29  C   UNL A   1      42.030  29.612  29.036  1.00  0.00     0.074 A 
ATOM     30  C   UNL A   1      48.330  29.394  28.326  1.00  0.00     0.029 A 
ATOM     31  N   UNL A   1      46.170  28.886  28.448  1.00  0.00    -0.354 N 
ATOM     32  N   UNL A   1      43.321  29.478  28.857  1.00  0.00    -0.248 NA
ATOM     33  C   UNL A   1      41.621  30.945  29.497  1.00  0.00     0.031 C 
ATOM     34  C   UNL A   1      47.634  30.528  28.756  1.00  0.00     0.029 A 
ATOM     35  C   UNL A   1      46.284  30.220  28.808  1.00  0.00     0.049 A 
ATOM     36  H   UNL A   1      45.323  28.385  28.401  1.00  0.00     0.167 HD
ATOM     37  C   UNL A   1      43.879  30.709  29.167  1.00  0.00     0.074 A 
ATOM     38  C   UNL A   1      42.781  31.586  29.522  1.00  0.00     0.031 C 
ATOM     39  C   UNL A   1      45.182  31.079  29.160  1.00  0.00     0.037 A 
BRANCH  26  40
ATOM     40  C   UNL A   1      49.103  26.572  27.584  1.00  0.00     0.064 A 
ATOM     41  C   UNL A   1      49.673  26.480  26.306  1.00  0.00     0.173 A 
ATOM     42  C   UNL A   1      49.929  26.315  28.690  1.00  0.00     0.173 A 
ATOM     43  F   UNL A   1      48.926  26.707  25.215  1.00  0.00    -0.203 F 
ATOM     44  C   UNL A   1      51.012  26.127  26.141  1.00  0.00     0.198 A 
ATOM     45  C   UNL A   1      51.272  25.989  28.523  1.00  0.00     0.198 A 
ATOM     46  F   UNL A   1      49.437  26.395  29.935  1.00  0.00    -0.203 F 
ATOM     47  F   UNL A   1      51.525  26.008  24.908  1.00  0.00    -0.200 F 
ATOM     48  C   UNL A   1      51.812  25.890  27.249  1.00  0.00     0.200 A 
ATOM     49  F   UNL A   1      52.048  25.775  29.595  1.00  0.00    -0.200 F 
ATOM     50  F   UNL A   1      53.101  25.561  27.089  1.00  0.00    -0.200 F 
ENDBRANCH  26  40
BRANCH  27  51
ATOM     51  C   UNL A   1      39.513  28.949  29.081  1.00  0.00     0.064 A 
ATOM     52  C   UNL A   1      38.688  29.397  28.041  1.00  0.00     0.173 A 
ATOM     53  C   UNL A   1      38.945  28.821  30.357  1.00  0.00     0.173 A 
ATOM     54  F   UNL A   1      39.191  29.551  26.807  1.00  0.00    -0.203 F 
ATOM     55  C   UNL A   1      37.353  29.717  28.271  1.00  0.00     0.198 A 
ATOM     56  C   UNL A   1      37.601  29.109  30.579  1.00  0.00     0.198 A 
ATOM     57  F   UNL A   1      39.690  28.389  31.384  1.00  0.00    -0.203 F 
ATOM     58  F   UNL A   1      36.595  30.181  27.268  1.00  0.00    -0.200 F 
ATOM     59  C   UNL A   1      36.808  29.566  29.537  1.00  0.00     0.200 A 
ATOM     60  F   UNL A   1      37.075  28.943  31.800  1.00  0.00    -0.200 F 
ATOM     61  F   UNL A   1      35.519  29.863  29.755  1.00  0.00    -0.200 F 
ENDBRANCH  27  51
BRANCH  39  62
ATOM     62  C   UNL A   1      45.487  32.503  29.524  1.00  0.00     0.064 A 
ATOM     63  C   UNL A   1      45.834  32.870  30.833  1.00  0.00     0.173 A 
ATOM     64  C   UNL A   1      45.452  33.509  28.546  1.00  0.00     0.173 A 
ATOM     65  F   UNL A   1      45.863  31.949  31.807  1.00  0.00    -0.203 F 
ATOM     66  C   UNL A   1      46.105  34.198  31.155  1.00  0.00     0.198 A 
ATOM     67  C   UNL A   1      45.755  34.829  28.865  1.00  0.00     0.198 A 
ATOM     68  F   UNL A   1      45.131  33.209  27.279  1.00  0.00    -0.203 F 
ATOM     69  F   UNL A   1      46.381  34.534  32.423  1.00  0.00    -0.200 F 
ATOM     70  C   UNL A   1      46.072  35.174  30.171  1.00  0.00     0.200 A 
ATOM     71  F   UNL A   1      45.734  35.770  27.911  1.00  0.00    -0.200 F 
ATOM     72  F   UNL A   1      46.337  36.450  30.483  1.00  0.00    -0.200 F 
ENDBRANCH  39  62
ENDBRANCH  13  14
ENDBRANCH   6   8
ENDBRANCH   3   4
ENDBRANCH   2   3
ENDBRANCH   1   2
BRANCH   1  73
ATOM     73  C   UNL A   1      35.978  21.049  25.412  1.00  0.00     0.116 C 
BRANCH  73  74
ATOM     74  N   UNL A   1      35.117  19.948  25.005  1.00  0.00    -0.352 N 
ATOM     75  C   UNL A   1      33.776  19.974  24.720  1.00  0.00     0.252 C 
ATOM     76  H   UNL A   1      35.555  19.069  24.923  1.00  0.00     0.163 HD
ATOM     77  O   UNL A   1      33.143  18.941  24.534  1.00  0.00    -0.269 OA
BRANCH  75  78
ATOM     78  C   UNL A   1      33.097  21.270  24.652  1.00  0.00     0.059 A 
ATOM     79  C   UNL A   1      32.344  21.706  25.719  1.00  0.00     0.129 A 
ATOM     80  C   UNL A   1      33.226  22.097  23.540  1.00  0.00     0.041 A 
ATOM     81  N   UNL A   1      31.803  22.944  25.772  1.00  0.00    -0.220 NA
ATOM     82  C   UNL A   1      32.662  23.376  23.563  1.00  0.00     0.104 A 
ATOM     83  C   UNL A   1      31.987  23.788  24.718  1.00  0.00     0.232 A 
ATOM     84  Cl  UNL A   1      32.874  24.293  22.118  1.00  0.00    -0.078 Cl
BRANCH  83  85
ATOM     85  O   UNL A   1      31.435  24.996  24.999  1.00  0.00    -0.476 OA
BRANCH  85  86
ATOM     86  C   UNL A   1      31.839  25.781  26.116  1.00  0.00     0.235 C 
BRANCH  86  87
ATOM     87  C   UNL A   1      33.252  26.286  26.012  1.00  0.00     0.027 C 
ATOM     88  C   UNL A   1      33.655  27.052  24.775  1.00  0.00     0.007 C 
ATOM     89  C   UNL A   1      33.565  27.762  26.096  1.00  0.00     0.007 C 
ENDBRANCH  86  87
ENDBRANCH  85  86
ENDBRANCH  83  85
ENDBRANCH  75  78
ENDBRANCH  73  74
ENDBRANCH   1  73
TORSDOF 14
ENDMDL
