MODEL 1
REMARK VINA RESULT:     -13.6      0.000      0.000
REMARK SMILES O=C(NCCCCNC(=O)c1ccc(-c2c3nc(c(-c4c(F)c(F)c(F)c(F)c4F)c4ccc([nH]4)c(-c4c(F)c(F)c(F)c(F)c4F)c4nc(c(-c5c(F)c(F)c(F)c(F)c5F)c5ccc2[nH]5)C=C4)C=C3)cc1)c1ccc(/C=N/NC(=O)c2cccc3ccccc23)cc1
REMARK SMILES IDX 5 1 4 2 3 3 1 4 2 5 74 7 75 8 94 9 76 10 93 11 77 12 78 13
REMARK SMILES IDX 79 14 80 15 81 16 82 18 83 19 84 20 92 21 85 22 87 23 91 24
REMARK SMILES IDX 86 25 88 26 90 27 89 28 6 29 7 30 8 31 9 32 10 34 11 35
REMARK SMILES IDX 12 36 73 37 13 38 72 39 14 40 15 41 16 42 66 43 17 44 71 45
REMARK SMILES IDX 65 46 67 47 18 48 70 49 64 50 63 51 19 53 51 54 31 55 50 56
REMARK SMILES IDX 32 57 35 58 49 59 68 60 33 61 34 62 48 64 69 65 36 66 20 67
REMARK SMILES IDX 21 68 29 69 22 70 23 71 27 72 30 73 24 74 25 75 28 76 26 77
REMARK SMILES IDX 52 78 53 79 61 80 54 81 55 82 59 83 62 84 56 85 57 86 60 87
REMARK SMILES IDX 58 88 37 89 38 90 46 91 39 92 40 93 44 94 47 95 41 96 42 97
REMARK SMILES IDX 45 98 43 99
REMARK H PARENT 3 6 80 17 8 33 67 52 35 63
REMARK Flexibility Score: inf
ROOT
ATOM      1  C   UNL A   1      37.172  21.043  24.627  1.00  0.00     0.023 C 
ENDROOT
BRANCH   1   2
ATOM      2  C   UNL A   1      35.803  21.073  25.300  1.00  0.00     0.116 C 
BRANCH   2   3
ATOM      3  N   UNL A   1      35.100  19.805  25.185  1.00  0.00    -0.352 N 
ATOM      4  O   UNL A   1      33.305  18.448  25.001  1.00  0.00    -0.269 OA
ATOM      5  C   UNL A   1      33.779  19.577  24.895  1.00  0.00     0.251 C 
ATOM      6  H   UNL A   1      35.647  19.000  25.336  1.00  0.00     0.163 HD
BRANCH   5   7
ATOM      7  C   UNL A   1      32.915  20.698  24.476  1.00  0.00     0.039 A 
ATOM      8  C   UNL A   1      32.772  21.026  23.122  1.00  0.00     0.014 A 
ATOM      9  C   UNL A   1      32.247  21.433  25.463  1.00  0.00     0.014 A 
ATOM     10  C   UNL A   1      32.039  22.151  22.759  1.00  0.00     0.010 A 
ATOM     11  C   UNL A   1      31.480  22.537  25.098  1.00  0.00     0.010 A 
ATOM     12  C   UNL A   1      31.401  22.899  23.751  1.00  0.00    -0.005 A 
BRANCH  12  13
ATOM     13  C   UNL A   1      30.731  24.160  23.410  1.00  0.00     0.141 C 
ATOM     14  N   UNL A   1      30.250  24.895  24.355  1.00  0.00    -0.180 NA
BRANCH  14  15
ATOM     15  N   UNL A   1      29.450  25.945  24.047  1.00  0.00    -0.243 N 
ATOM     16  C   UNL A   1      29.730  27.269  23.774  1.00  0.00     0.271 C 
ATOM     17  H   UNL A   1      28.491  25.722  24.011  1.00  0.00     0.194 HD
ATOM     18  O   UNL A   1      28.793  28.026  23.500  1.00  0.00    -0.267 OA
BRANCH  16  19
ATOM     19  C   UNL A   1      31.089  27.865  23.825  1.00  0.00     0.049 A 
ATOM     20  C   UNL A   1      31.631  28.143  22.556  1.00  0.00     0.014 A 
ATOM     21  C   UNL A   1      31.861  28.071  25.005  1.00  0.00    -0.006 A 
ATOM     22  C   UNL A   1      32.937  28.590  22.425  1.00  0.00     0.001 A 
ATOM     23  C   UNL A   1      33.206  28.503  24.841  1.00  0.00    -0.018 A 
ATOM     24  C   UNL A   1      31.403  27.900  26.336  1.00  0.00     0.009 A 
ATOM     25  C   UNL A   1      33.727  28.740  23.560  1.00  0.00     0.009 A 
ATOM     26  C   UNL A   1      34.030  28.713  25.958  1.00  0.00     0.009 A 
ATOM     27  C   UNL A   1      32.208  28.204  27.439  1.00  0.00     0.001 A 
ATOM     28  C   UNL A   1      33.527  28.592  27.251  1.00  0.00     0.001 A 
ENDBRANCH  16  19
ENDBRANCH  14  15
ENDBRANCH  12  13
ENDBRANCH   5   7
ENDBRANCH   2   3
ENDBRANCH   1   2
BRANCH   1  29
ATOM     29  C   UNL A   1      38.044  19.837  24.976  1.00  0.00     0.023 C 
BRANCH  29  30
ATOM     30  C   UNL A   1      39.171  20.111  25.965  1.00  0.00     0.116 C 
BRANCH  30  31
ATOM     31  N   UNL A   1      40.249  19.139  25.877  1.00  0.00    -0.352 N 
ATOM     32  C   UNL A   1      41.604  19.311  26.016  1.00  0.00     0.251 C 
ATOM     33  H   UNL A   1      39.964  18.216  25.689  1.00  0.00     0.163 HD
ATOM     34  O   UNL A   1      42.364  18.384  25.753  1.00  0.00    -0.269 OA
BRANCH  32  35
ATOM     35  C   UNL A   1      42.158  20.613  26.446  1.00  0.00     0.039 A 
ATOM     36  C   UNL A   1      42.570  21.518  25.465  1.00  0.00     0.014 A 
ATOM     37  C   UNL A   1      42.283  20.950  27.798  1.00  0.00     0.014 A 
ATOM     38  C   UNL A   1      43.040  22.778  25.835  1.00  0.00     0.010 A 
ATOM     39  C   UNL A   1      42.665  22.240  28.163  1.00  0.00     0.010 A 
ATOM     40  C   UNL A   1      43.050  23.169  27.187  1.00  0.00    -0.014 A 
BRANCH  40  41
ATOM     41  C   UNL A   1      43.428  24.556  27.562  1.00  0.00     0.031 A 
ATOM     42  C   UNL A   1      44.863  25.004  27.537  1.00  0.00     0.074 A 
ATOM     43  C   UNL A   1      42.465  25.413  27.952  1.00  0.00     0.049 A 
ATOM     44  N   UNL A   1      45.360  26.196  27.766  1.00  0.00    -0.248 NA
ATOM     45  C   UNL A   1      45.875  23.981  27.243  1.00  0.00     0.031 C 
ATOM     46  C   UNL A   1      41.045  25.081  28.086  1.00  0.00     0.029 A 
ATOM     47  N   UNL A   1      42.527  26.741  28.292  1.00  0.00    -0.354 N 
ATOM     48  C   UNL A   1      46.738  26.061  27.648  1.00  0.00     0.074 A 
ATOM     49  C   UNL A   1      47.002  24.662  27.389  1.00  0.00     0.031 C 
ATOM     50  C   UNL A   1      40.364  26.187  28.421  1.00  0.00     0.029 A 
ATOM     51  C   UNL A   1      41.300  27.296  28.564  1.00  0.00     0.049 A 
ATOM     52  H   UNL A   1      43.370  27.248  28.336  1.00  0.00     0.167 HD
ATOM     53  C   UNL A   1      47.693  27.021  27.724  1.00  0.00     0.037 A 
ATOM     54  C   UNL A   1      40.965  28.561  28.880  1.00  0.00     0.037 A 
ATOM     55  C   UNL A   1      47.422  28.414  27.975  1.00  0.00     0.049 A 
ATOM     56  C   UNL A   1      42.044  29.606  28.956  1.00  0.00     0.074 A 
ATOM     57  C   UNL A   1      48.310  29.475  28.002  1.00  0.00     0.029 A 
ATOM     58  N   UNL A   1      46.169  28.939  28.260  1.00  0.00    -0.354 N 
ATOM     59  N   UNL A   1      43.332  29.489  28.742  1.00  0.00    -0.248 NA
ATOM     60  C   UNL A   1      41.615  30.967  29.307  1.00  0.00     0.031 C 
ATOM     61  C   UNL A   1      47.607  30.628  28.368  1.00  0.00     0.029 A 
ATOM     62  C   UNL A   1      46.267  30.302  28.500  1.00  0.00     0.049 A 
ATOM     63  H   UNL A   1      45.333  28.419  28.287  1.00  0.00     0.167 HD
ATOM     64  C   UNL A   1      43.864  30.761  28.904  1.00  0.00     0.074 A 
ATOM     65  C   UNL A   1      42.752  31.639  29.207  1.00  0.00     0.031 C 
ATOM     66  C   UNL A   1      45.155  31.166  28.813  1.00  0.00     0.037 A 
BRANCH  53  67
ATOM     67  C   UNL A   1      49.124  26.592  27.547  1.00  0.00     0.064 A 
ATOM     68  C   UNL A   1      49.695  26.418  26.275  1.00  0.00     0.173 A 
ATOM     69  C   UNL A   1      49.945  26.377  28.664  1.00  0.00     0.173 A 
ATOM     70  F   UNL A   1      48.955  26.601  25.172  1.00  0.00    -0.203 F 
ATOM     71  C   UNL A   1      51.018  26.008  26.132  1.00  0.00     0.198 A 
ATOM     72  C   UNL A   1      51.279  26.003  28.516  1.00  0.00     0.198 A 
ATOM     73  F   UNL A   1      49.457  26.536  29.904  1.00  0.00    -0.203 F 
ATOM     74  F   UNL A   1      51.521  25.789  24.909  1.00  0.00    -0.200 F 
ATOM     75  C   UNL A   1      51.811  25.807  27.252  1.00  0.00     0.200 A 
ATOM     76  F   UNL A   1      52.048  25.827  29.600  1.00  0.00    -0.200 F 
ATOM     77  F   UNL A   1      53.085  25.417  27.112  1.00  0.00    -0.200 F 
ENDBRANCH  53  67
BRANCH  54  78
ATOM     78  C   UNL A   1      39.539  28.919  29.100  1.00  0.00     0.064 A 
ATOM     79  C   UNL A   1      38.955  28.807  30.370  1.00  0.00     0.173 A 
ATOM     80  C   UNL A   1      38.730  29.378  28.050  1.00  0.00     0.173 A 
ATOM     81  F   UNL A   1      39.682  28.354  31.402  1.00  0.00    -0.203 F 
ATOM     82  C   UNL A   1      37.613  29.118  30.577  1.00  0.00     0.198 A 
ATOM     83  C   UNL A   1      37.397  29.720  28.265  1.00  0.00     0.198 A 
ATOM     84  F   UNL A   1      39.240  29.510  26.816  1.00  0.00    -0.203 F 
ATOM     85  F   UNL A   1      37.069  28.953  31.790  1.00  0.00    -0.200 F 
ATOM     86  C   UNL A   1      36.837  29.580  29.526  1.00  0.00     0.200 A 
ATOM     87  F   UNL A   1      36.655  30.185  27.250  1.00  0.00    -0.200 F 
ATOM     88  F   UNL A   1      35.548  29.886  29.727  1.00  0.00    -0.200 F 
ENDBRANCH  54  78
BRANCH  66  89
ATOM     89  C   UNL A   1      45.425  32.632  29.015  1.00  0.00     0.064 A 
ATOM     90  C   UNL A   1      45.373  33.549  27.954  1.00  0.00     0.173 A 
ATOM     91  C   UNL A   1      45.753  33.124  30.288  1.00  0.00     0.173 A 
ATOM     92  F   UNL A   1      45.078  33.132  26.714  1.00  0.00    -0.203 F 
ATOM     93  C   UNL A   1      45.693  34.892  28.149  1.00  0.00     0.198 A 
ATOM     94  C   UNL A   1      46.031  34.474  30.488  1.00  0.00     0.198 A 
ATOM     95  F   UNL A   1      45.807  32.296  31.343  1.00  0.00    -0.203 F 
ATOM     96  F   UNL A   1      45.716  35.730  27.105  1.00  0.00    -0.200 F 
ATOM     97  C   UNL A   1      46.018  35.353  29.416  1.00  0.00     0.200 A 
ATOM     98  F   UNL A   1      46.327  34.921  31.716  1.00  0.00    -0.200 F 
ATOM     99  F   UNL A   1      46.332  36.643  29.600  1.00  0.00    -0.200 F 
ENDBRANCH  66  89
ENDBRANCH  40  41
ENDBRANCH  32  35
ENDBRANCH  30  31
ENDBRANCH  29  30
ENDBRANCH   1  29
TORSDOF 14
ENDMDL
MODEL 2
REMARK VINA RESULT:     -13.3      3.150      8.767
REMARK SMILES O=C(NCCCCNC(=O)c1ccc(-c2c3nc(c(-c4c(F)c(F)c(F)c(F)c4F)c4ccc([nH]4)c(-c4c(F)c(F)c(F)c(F)c4F)c4nc(c(-c5c(F)c(F)c(F)c(F)c5F)c5ccc2[nH]5)C=C4)C=C3)cc1)c1ccc(/C=N/NC(=O)c2cccc3ccccc23)cc1
REMARK SMILES IDX 5 1 4 2 3 3 1 4 2 5 74 7 75 8 94 9 76 10 93 11 77 12 78 13
REMARK SMILES IDX 79 14 80 15 81 16 82 18 83 19 84 20 92 21 85 22 87 23 91 24
REMARK SMILES IDX 86 25 88 26 90 27 89 28 6 29 7 30 8 31 9 32 10 34 11 35
REMARK SMILES IDX 12 36 73 37 13 38 72 39 14 40 15 41 16 42 66 43 17 44 71 45
REMARK SMILES IDX 65 46 67 47 18 48 70 49 64 50 63 51 19 53 51 54 31 55 50 56
REMARK SMILES IDX 32 57 35 58 49 59 68 60 33 61 34 62 48 64 69 65 36 66 20 67
REMARK SMILES IDX 21 68 29 69 22 70 23 71 27 72 30 73 24 74 25 75 28 76 26 77
REMARK SMILES IDX 52 78 53 79 61 80 54 81 55 82 59 83 62 84 56 85 57 86 60 87
REMARK SMILES IDX 58 88 37 89 38 90 46 91 39 92 40 93 44 94 47 95 41 96 42 97
REMARK SMILES IDX 45 98 43 99
REMARK H PARENT 3 6 80 17 8 33 67 52 35 63
REMARK Flexibility Score: inf
ROOT
ATOM      1  C   UNL A   1      32.735  29.371  24.886  1.00  0.00     0.023 C 
ENDROOT
BRANCH   1   2
ATOM      2  C   UNL A   1      31.249  29.687  25.024  1.00  0.00     0.116 C 
BRANCH   2   3
ATOM      3  N   UNL A   1      30.628  30.007  23.748  1.00  0.00    -0.352 N 
ATOM      4  O   UNL A   1      29.959  29.633  21.625  1.00  0.00    -0.269 OA
ATOM      5  C   UNL A   1      30.331  29.173  22.701  1.00  0.00     0.251 C 
ATOM      6  H   UNL A   1      30.388  30.954  23.618  1.00  0.00     0.163 HD
BRANCH   5   7
ATOM      7  C   UNL A   1      30.482  27.713  22.861  1.00  0.00     0.039 A 
ATOM      8  C   UNL A   1      29.588  26.982  23.654  1.00  0.00     0.014 A 
ATOM      9  C   UNL A   1      31.544  27.075  22.209  1.00  0.00     0.014 A 
ATOM     10  C   UNL A   1      29.813  25.628  23.876  1.00  0.00     0.010 A 
ATOM     11  C   UNL A   1      31.748  25.710  22.398  1.00  0.00     0.010 A 
ATOM     12  C   UNL A   1      30.893  25.003  23.248  1.00  0.00    -0.005 A 
BRANCH  12  13
ATOM     13  C   UNL A   1      31.228  23.610  23.566  1.00  0.00     0.141 C 
ATOM     14  N   UNL A   1      31.966  22.935  22.749  1.00  0.00    -0.180 NA
BRANCH  14  15
ATOM     15  N   UNL A   1      32.107  21.598  22.920  1.00  0.00    -0.243 N 
ATOM     16  C   UNL A   1      32.723  20.854  23.906  1.00  0.00     0.271 C 
ATOM     17  H   UNL A   1      31.692  21.057  22.209  1.00  0.00     0.194 HD
ATOM     18  O   UNL A   1      32.687  19.622  23.826  1.00  0.00    -0.267 OA
BRANCH  16  19
ATOM     19  C   UNL A   1      33.470  21.436  25.050  1.00  0.00     0.049 A 
ATOM     20  C   UNL A   1      32.832  21.254  26.292  1.00  0.00     0.014 A 
ATOM     21  C   UNL A   1      34.671  22.198  24.956  1.00  0.00    -0.006 A 
ATOM     22  C   UNL A   1      33.338  21.840  27.442  1.00  0.00     0.001 A 
ATOM     23  C   UNL A   1      35.153  22.812  26.145  1.00  0.00    -0.018 A 
ATOM     24  C   UNL A   1      35.442  22.388  23.781  1.00  0.00     0.009 A 
ATOM     25  C   UNL A   1      34.475  22.638  27.361  1.00  0.00     0.009 A 
ATOM     26  C   UNL A   1      36.322  23.588  26.124  1.00  0.00     0.009 A 
ATOM     27  C   UNL A   1      36.655  23.086  23.799  1.00  0.00     0.001 A 
ATOM     28  C   UNL A   1      37.085  23.703  24.965  1.00  0.00     0.001 A 
ENDBRANCH  16  19
ENDBRANCH  14  15
ENDBRANCH  12  13
ENDBRANCH   5   7
ENDBRANCH   2   3
ENDBRANCH   1   2
BRANCH   1  29
ATOM     29  C   UNL A   1      33.200  28.105  25.605  1.00  0.00     0.023 C 
BRANCH  29  30
ATOM     30  C   UNL A   1      33.706  28.311  27.028  1.00  0.00     0.116 C 
BRANCH  30  31
ATOM     31  N   UNL A   1      33.629  29.697  27.460  1.00  0.00    -0.352 N 
ATOM     32  C   UNL A   1      34.559  30.470  28.110  1.00  0.00     0.251 C 
ATOM     33  H   UNL A   1      32.781  30.151  27.256  1.00  0.00     0.163 HD
ATOM     34  O   UNL A   1      34.242  31.581  28.524  1.00  0.00    -0.269 OA
BRANCH  32  35
ATOM     35  C   UNL A   1      35.929  29.963  28.346  1.00  0.00     0.039 A 
ATOM     36  C   UNL A   1      36.878  30.113  27.331  1.00  0.00     0.014 A 
ATOM     37  C   UNL A   1      36.286  29.341  29.545  1.00  0.00     0.014 A 
ATOM     38  C   UNL A   1      38.194  29.701  27.546  1.00  0.00     0.010 A 
ATOM     39  C   UNL A   1      37.619  29.014  29.792  1.00  0.00     0.010 A 
ATOM     40  C   UNL A   1      38.588  29.189  28.794  1.00  0.00    -0.014 A 
BRANCH  40  41
ATOM     41  C   UNL A   1      40.017  28.874  29.057  1.00  0.00     0.031 A 
ATOM     42  C   UNL A   1      40.889  29.816  29.838  1.00  0.00     0.074 A 
ATOM     43  C   UNL A   1      40.536  27.734  28.563  1.00  0.00     0.049 A 
ATOM     44  N   UNL A   1      42.135  29.666  30.219  1.00  0.00    -0.248 NA
ATOM     45  C   UNL A   1      40.300  31.106  30.223  1.00  0.00     0.031 C 
ATOM     46  C   UNL A   1      39.814  26.770  27.730  1.00  0.00     0.029 A 
ATOM     47  N   UNL A   1      41.785  27.181  28.699  1.00  0.00    -0.354 N 
ATOM     48  C   UNL A   1      42.476  30.839  30.880  1.00  0.00     0.074 A 
ATOM     49  C   UNL A   1      41.327  31.716  30.796  1.00  0.00     0.031 C 
ATOM     50  C   UNL A   1      40.610  25.720  27.480  1.00  0.00     0.029 A 
ATOM     51  C   UNL A   1      41.910  25.952  28.099  1.00  0.00     0.049 A 
ATOM     52  H   UNL A   1      42.521  27.624  29.182  1.00  0.00     0.167 HD
ATOM     53  C   UNL A   1      43.630  31.148  31.519  1.00  0.00     0.037 A 
ATOM     54  C   UNL A   1      42.952  25.100  28.064  1.00  0.00     0.037 A 
ATOM     55  C   UNL A   1      44.767  30.266  31.605  1.00  0.00     0.049 A 
ATOM     56  C   UNL A   1      44.221  25.466  28.784  1.00  0.00     0.074 A 
ATOM     57  C   UNL A   1      45.957  30.455  32.289  1.00  0.00     0.029 A 
ATOM     58  N   UNL A   1      44.865  29.034  30.975  1.00  0.00    -0.354 N 
ATOM     59  N   UNL A   1      44.496  26.534  29.492  1.00  0.00    -0.248 NA
ATOM     60  C   UNL A   1      45.321  24.496  28.706  1.00  0.00     0.031 C 
ATOM     61  C   UNL A   1      46.797  29.370  32.016  1.00  0.00     0.029 A 
ATOM     62  C   UNL A   1      46.108  28.469  31.222  1.00  0.00     0.049 A 
ATOM     63  H   UNL A   1      44.155  28.621  30.430  1.00  0.00     0.167 HD
ATOM     64  C   UNL A   1      45.788  26.354  29.968  1.00  0.00     0.074 A 
ATOM     65  C   UNL A   1      46.229  25.059  29.489  1.00  0.00     0.031 C 
ATOM     66  C   UNL A   1      46.542  27.184  30.731  1.00  0.00     0.037 A 
BRANCH  53  67
ATOM     67  C   UNL A   1      43.726  32.502  32.166  1.00  0.00     0.064 A 
ATOM     68  C   UNL A   1      43.307  32.726  33.488  1.00  0.00     0.173 A 
ATOM     69  C   UNL A   1      44.269  33.589  31.463  1.00  0.00     0.173 A 
ATOM     70  F   UNL A   1      42.772  31.727  34.205  1.00  0.00    -0.203 F 
ATOM     71  C   UNL A   1      43.392  33.991  34.064  1.00  0.00     0.198 A 
ATOM     72  C   UNL A   1      44.386  34.844  32.056  1.00  0.00     0.198 A 
ATOM     73  F   UNL A   1      44.694  33.434  30.199  1.00  0.00    -0.203 F 
ATOM     74  F   UNL A   1      42.927  34.192  35.306  1.00  0.00    -0.200 F 
ATOM     75  C   UNL A   1      43.937  35.047  33.351  1.00  0.00     0.200 A 
ATOM     76  F   UNL A   1      44.930  35.859  31.369  1.00  0.00    -0.200 F 
ATOM     77  F   UNL A   1      44.022  36.262  33.909  1.00  0.00    -0.200 F 
ENDBRANCH  53  67
BRANCH  54  78
ATOM     78  C   UNL A   1      42.821  23.795  27.363  1.00  0.00     0.064 A 
ATOM     79  C   UNL A   1      43.219  23.654  26.025  1.00  0.00     0.173 A 
ATOM     80  C   UNL A   1      42.297  22.667  28.009  1.00  0.00     0.173 A 
ATOM     81  F   UNL A   1      43.708  24.709  25.358  1.00  0.00    -0.203 F 
ATOM     82  C   UNL A   1      43.076  22.441  25.355  1.00  0.00     0.198 A 
ATOM     83  C   UNL A   1      42.186  21.445  27.349  1.00  0.00     0.198 A 
ATOM     84  F   UNL A   1      41.907  22.747  29.290  1.00  0.00    -0.203 F 
ATOM     85  F   UNL A   1      43.418  22.347  24.064  1.00  0.00    -0.200 F 
ATOM     86  C   UNL A   1      42.566  21.336  26.019  1.00  0.00     0.200 A 
ATOM     87  F   UNL A   1      41.709  20.375  27.999  1.00  0.00    -0.200 F 
ATOM     88  F   UNL A   1      42.436  20.168  25.377  1.00  0.00    -0.200 F 
ENDBRANCH  54  78
BRANCH  66  89
ATOM     89  C   UNL A   1      47.913  26.698  31.116  1.00  0.00     0.064 A 
ATOM     90  C   UNL A   1      48.128  25.918  32.263  1.00  0.00     0.173 A 
ATOM     91  C   UNL A   1      49.030  27.029  30.332  1.00  0.00     0.173 A 
ATOM     92  F   UNL A   1      47.099  25.584  33.055  1.00  0.00    -0.203 F 
ATOM     93  C   UNL A   1      49.414  25.535  32.640  1.00  0.00     0.198 A 
ATOM     94  C   UNL A   1      50.309  26.610  30.689  1.00  0.00     0.198 A 
ATOM     95  F   UNL A   1      48.883  27.763  29.219  1.00  0.00    -0.203 F 
ATOM     96  F   UNL A   1      49.601  24.861  33.782  1.00  0.00    -0.200 F 
ATOM     97  C   UNL A   1      50.501  25.878  31.851  1.00  0.00     0.200 A 
ATOM     98  F   UNL A   1      51.356  26.925  29.916  1.00  0.00    -0.200 F 
ATOM     99  F   UNL A   1      51.738  25.515  32.219  1.00  0.00    -0.200 F 
ENDBRANCH  66  89
ENDBRANCH  40  41
ENDBRANCH  32  35
ENDBRANCH  30  31
ENDBRANCH  29  30
ENDBRANCH   1  29
TORSDOF 14
ENDMDL
MODEL 3
REMARK VINA RESULT:     -13.1      5.170     11.436
REMARK SMILES O=C(NCCCCNC(=O)c1ccc(-c2c3nc(c(-c4c(F)c(F)c(F)c(F)c4F)c4ccc([nH]4)c(-c4c(F)c(F)c(F)c(F)c4F)c4nc(c(-c5c(F)c(F)c(F)c(F)c5F)c5ccc2[nH]5)C=C4)C=C3)cc1)c1ccc(/C=N/NC(=O)c2cccc3ccccc23)cc1
REMARK SMILES IDX 5 1 4 2 3 3 1 4 2 5 74 7 75 8 94 9 76 10 93 11 77 12 78 13
REMARK SMILES IDX 79 14 80 15 81 16 82 18 83 19 84 20 92 21 85 22 87 23 91 24
REMARK SMILES IDX 86 25 88 26 90 27 89 28 6 29 7 30 8 31 9 32 10 34 11 35
REMARK SMILES IDX 12 36 73 37 13 38 72 39 14 40 15 41 16 42 66 43 17 44 71 45
REMARK SMILES IDX 65 46 67 47 18 48 70 49 64 50 63 51 19 53 51 54 31 55 50 56
REMARK SMILES IDX 32 57 35 58 49 59 68 60 33 61 34 62 48 64 69 65 36 66 20 67
REMARK SMILES IDX 21 68 29 69 22 70 23 71 27 72 30 73 24 74 25 75 28 76 26 77
REMARK SMILES IDX 52 78 53 79 61 80 54 81 55 82 59 83 62 84 56 85 57 86 60 87
REMARK SMILES IDX 58 88 37 89 38 90 46 91 39 92 40 93 44 94 47 95 41 96 42 97
REMARK SMILES IDX 45 98 43 99
REMARK H PARENT 3 6 80 17 8 33 67 52 35 63
REMARK Flexibility Score: inf
ROOT
ATOM      1  C   UNL A   1      34.762  33.593  32.117  1.00  0.00     0.023 C 
ENDROOT
BRANCH   1   2
ATOM      2  C   UNL A   1      35.997  34.249  32.726  1.00  0.00     0.116 C 
BRANCH   2   3
ATOM      3  N   UNL A   1      36.994  34.594  31.725  1.00  0.00    -0.352 N 
ATOM      4  O   UNL A   1      39.062  34.726  30.830  1.00  0.00    -0.269 OA
ATOM      5  C   UNL A   1      38.309  34.209  31.651  1.00  0.00     0.251 C 
ATOM      6  H   UNL A   1      36.683  35.184  31.000  1.00  0.00     0.163 HD
BRANCH   5   7
ATOM      7  C   UNL A   1      38.827  33.186  32.580  1.00  0.00     0.039 A 
ATOM      8  C   UNL A   1      38.339  31.874  32.546  1.00  0.00     0.014 A 
ATOM      9  C   UNL A   1      39.813  33.558  33.502  1.00  0.00     0.014 A 
ATOM     10  C   UNL A   1      38.765  30.956  33.501  1.00  0.00     0.010 A 
ATOM     11  C   UNL A   1      40.270  32.628  34.434  1.00  0.00     0.010 A 
ATOM     12  C   UNL A   1      39.725  31.341  34.439  1.00  0.00    -0.005 A 
BRANCH  12  13
ATOM     13  C   UNL A   1      40.095  30.436  35.533  1.00  0.00     0.141 C 
ATOM     14  N   UNL A   1      40.697  29.327  35.260  1.00  0.00    -0.180 NA
BRANCH  14  15
ATOM     15  N   UNL A   1      40.853  28.392  36.228  1.00  0.00    -0.243 N 
ATOM     16  C   UNL A   1      41.791  27.395  36.404  1.00  0.00     0.271 C 
ATOM     17  H   UNL A   1      40.171  28.431  36.937  1.00  0.00     0.194 HD
ATOM     18  O   UNL A   1      41.709  26.678  37.407  1.00  0.00    -0.267 OA
BRANCH  16  19
ATOM     19  C   UNL A   1      42.882  27.092  35.444  1.00  0.00     0.049 A 
ATOM     20  C   UNL A   1      43.631  28.222  35.066  1.00  0.00     0.014 A 
ATOM     21  C   UNL A   1      43.137  25.820  34.851  1.00  0.00    -0.006 A 
ATOM     22  C   UNL A   1      44.608  28.131  34.085  1.00  0.00     0.001 A 
ATOM     23  C   UNL A   1      44.124  25.761  33.828  1.00  0.00    -0.018 A 
ATOM     24  C   UNL A   1      42.504  24.601  35.201  1.00  0.00     0.009 A 
ATOM     25  C   UNL A   1      44.830  26.913  33.451  1.00  0.00     0.009 A 
ATOM     26  C   UNL A   1      44.417  24.545  33.190  1.00  0.00     0.009 A 
ATOM     27  C   UNL A   1      42.876  23.383  34.620  1.00  0.00     0.001 A 
ATOM     28  C   UNL A   1      43.818  23.358  33.602  1.00  0.00     0.001 A 
ENDBRANCH  16  19
ENDBRANCH  14  15
ENDBRANCH  12  13
ENDBRANCH   5   7
ENDBRANCH   2   3
ENDBRANCH   1   2
BRANCH   1  29
ATOM     29  C   UNL A   1      35.032  32.332  31.296  1.00  0.00     0.023 C 
BRANCH  29  30
ATOM     30  C   UNL A   1      35.187  32.550  29.796  1.00  0.00     0.116 C 
BRANCH  30  31
ATOM     31  N   UNL A   1      34.431  31.593  29.004  1.00  0.00    -0.352 N 
ATOM     32  C   UNL A   1      34.852  30.458  28.356  1.00  0.00     0.251 C 
ATOM     33  H   UNL A   1      33.471  31.788  28.920  1.00  0.00     0.163 HD
ATOM     34  O   UNL A   1      34.080  29.864  27.610  1.00  0.00    -0.269 OA
BRANCH  32  35
ATOM     35  C   UNL A   1      36.237  29.966  28.521  1.00  0.00     0.039 A 
ATOM     36  C   UNL A   1      37.129  30.121  27.458  1.00  0.00     0.014 A 
ATOM     37  C   UNL A   1      36.663  29.350  29.702  1.00  0.00     0.014 A 
ATOM     38  C   UNL A   1      38.459  29.723  27.604  1.00  0.00     0.010 A 
ATOM     39  C   UNL A   1      38.010  29.037  29.879  1.00  0.00     0.010 A 
ATOM     40  C   UNL A   1      38.924  29.219  28.831  1.00  0.00    -0.014 A 
BRANCH  40  41
ATOM     41  C   UNL A   1      40.367  28.919  29.019  1.00  0.00     0.031 A 
ATOM     42  C   UNL A   1      41.273  29.878  29.740  1.00  0.00     0.074 A 
ATOM     43  C   UNL A   1      40.869  27.777  28.511  1.00  0.00     0.049 A 
ATOM     44  N   UNL A   1      42.539  29.742  30.054  1.00  0.00    -0.248 NA
ATOM     45  C   UNL A   1      40.694  31.167  30.142  1.00  0.00     0.031 C 
ATOM     46  C   UNL A   1      40.111  26.797  27.730  1.00  0.00     0.029 A 
ATOM     47  N   UNL A   1      42.128  27.236  28.585  1.00  0.00    -0.354 N 
ATOM     48  C   UNL A   1      42.905  30.926  30.682  1.00  0.00     0.074 A 
ATOM     49  C   UNL A   1      41.745  31.792  30.650  1.00  0.00     0.031 C 
ATOM     50  C   UNL A   1      40.902  25.751  27.449  1.00  0.00     0.029 A 
ATOM     51  C   UNL A   1      42.231  26.001  27.994  1.00  0.00     0.049 A 
ATOM     52  H   UNL A   1      42.885  27.690  29.022  1.00  0.00     0.167 HD
ATOM     53  C   UNL A   1      44.090  31.252  31.253  1.00  0.00     0.037 A 
ATOM     54  C   UNL A   1      43.277  25.157  27.911  1.00  0.00     0.037 A 
ATOM     55  C   UNL A   1      45.238  30.381  31.287  1.00  0.00     0.049 A 
ATOM     56  C   UNL A   1      44.580  25.542  28.556  1.00  0.00     0.074 A 
ATOM     57  C   UNL A   1      46.461  30.587  31.902  1.00  0.00     0.029 A 
ATOM     58  N   UNL A   1      45.312  29.141  30.667  1.00  0.00    -0.354 N 
ATOM     59  N   UNL A   1      44.885  26.620  29.236  1.00  0.00    -0.248 NA
ATOM     60  C   UNL A   1      45.683  24.580  28.430  1.00  0.00     0.031 C 
ATOM     61  C   UNL A   1      47.295  29.506  31.597  1.00  0.00     0.029 A 
ATOM     62  C   UNL A   1      46.571  28.590  30.853  1.00  0.00     0.049 A 
ATOM     63  H   UNL A   1      44.576  28.716  30.167  1.00  0.00     0.167 HD
ATOM     64  C   UNL A   1      46.202  26.457  29.643  1.00  0.00     0.074 A 
ATOM     65  C   UNL A   1      46.627  25.160  29.156  1.00  0.00     0.031 C 
ATOM     66  C   UNL A   1      46.989  27.302  30.353  1.00  0.00     0.037 A 
BRANCH  53  67
ATOM     67  C   UNL A   1      44.209  32.615  31.877  1.00  0.00     0.064 A 
ATOM     68  C   UNL A   1      44.666  33.727  31.151  1.00  0.00     0.173 A 
ATOM     69  C   UNL A   1      43.837  32.819  33.215  1.00  0.00     0.173 A 
ATOM     70  F   UNL A   1      45.044  33.589  29.872  1.00  0.00    -0.203 F 
ATOM     71  C   UNL A   1      44.783  34.978  31.751  1.00  0.00     0.198 A 
ATOM     72  C   UNL A   1      43.919  34.081  33.801  1.00  0.00     0.198 A 
ATOM     73  F   UNL A   1      43.386  31.796  33.956  1.00  0.00    -0.203 F 
ATOM     74  F   UNL A   1      45.280  36.010  31.053  1.00  0.00    -0.200 F 
ATOM     75  C   UNL A   1      44.403  35.156  33.073  1.00  0.00     0.200 A 
ATOM     76  F   UNL A   1      43.535  34.253  35.073  1.00  0.00    -0.200 F 
ATOM     77  F   UNL A   1      44.511  36.362  33.646  1.00  0.00    -0.200 F 
ENDBRANCH  53  67
BRANCH  54  78
ATOM     78  C   UNL A   1      43.119  23.843  27.234  1.00  0.00     0.064 A 
ATOM     79  C   UNL A   1      43.508  23.671  25.897  1.00  0.00     0.173 A 
ATOM     80  C   UNL A   1      42.579  22.735  27.903  1.00  0.00     0.173 A 
ATOM     81  F   UNL A   1      44.012  24.705  25.209  1.00  0.00    -0.203 F 
ATOM     82  C   UNL A   1      43.341  22.449  25.249  1.00  0.00     0.198 A 
ATOM     83  C   UNL A   1      42.443  21.504  27.264  1.00  0.00     0.198 A 
ATOM     84  F   UNL A   1      42.197  22.844  29.184  1.00  0.00    -0.203 F 
ATOM     85  F   UNL A   1      43.674  22.327  23.958  1.00  0.00    -0.200 F 
ATOM     86  C   UNL A   1      42.815  21.365  25.935  1.00  0.00     0.200 A 
ATOM     87  F   UNL A   1      41.951  20.455  27.936  1.00  0.00    -0.200 F 
ATOM     88  F   UNL A   1      42.661  20.188  25.314  1.00  0.00    -0.200 F 
ENDBRANCH  54  78
BRANCH  66  89
ATOM     89  C   UNL A   1      48.383  26.832  30.669  1.00  0.00     0.064 A 
ATOM     90  C   UNL A   1      49.485  27.198  29.880  1.00  0.00     0.173 A 
ATOM     91  C   UNL A   1      48.617  25.993  31.769  1.00  0.00     0.173 A 
ATOM     92  F   UNL A   1      49.318  27.988  28.809  1.00  0.00    -0.203 F 
ATOM     93  C   UNL A   1      50.758  26.698  30.149  1.00  0.00     0.198 A 
ATOM     94  C   UNL A   1      49.897  25.527  32.059  1.00  0.00     0.198 A 
ATOM     95  F   UNL A   1      47.603  25.619  32.564  1.00  0.00    -0.203 F 
ATOM     96  F   UNL A   1      51.778  26.996  29.334  1.00  0.00    -0.200 F 
ATOM     97  C   UNL A   1      50.962  25.866  31.239  1.00  0.00     0.200 A 
ATOM     98  F   UNL A   1      50.096  24.739  33.124  1.00  0.00    -0.200 F 
ATOM     99  F   UNL A   1      52.186  25.380  31.492  1.00  0.00    -0.200 F 
ENDBRANCH  66  89
ENDBRANCH  40  41
ENDBRANCH  32  35
ENDBRANCH  30  31
ENDBRANCH  29  30
ENDBRANCH   1  29
TORSDOF 14
ENDMDL
