MODEL 1
REMARK VINA RESULT:     -13.6      0.000      0.000
REMARK SMILES Cc1cnn(C2(C(=O)NCCCCNC(=O)c3ccc(-c4c5nc(c(-c6c(F)c(F)c(F)c(F)c6F)c6ccc([nH]6)c(-c6c(F)c(F)c(F)c(F)c6F)c6nc(c(-c7c(F)c(F)c(F)c(F)c7F)c7ccc4[nH]7)C=C6)C=C5)cc3)CCN(C(=O)c3cscn3)CC2)c1
REMARK SMILES IDX 12 1 11 2 10 3 9 4 7 5 8 6 6 8 80 9 91 10 81 11 90 12 82 13
REMARK SMILES IDX 83 14 84 15 5 16 1 17 2 18 3 19 92 20 4 21 85 22 86 23 89 24
REMARK SMILES IDX 87 25 88 26 13 27 14 28 15 29 16 31 17 32 18 33 79 34 19 35
REMARK SMILES IDX 78 36 20 37 21 38 22 39 72 40 23 41 77 42 71 43 73 44 24 45
REMARK SMILES IDX 76 46 70 47 69 48 25 50 57 51 37 52 56 53 38 54 41 55 55 56
REMARK SMILES IDX 74 57 39 58 40 59 54 61 75 62 42 63 26 64 27 65 35 66 28 67
REMARK SMILES IDX 29 68 33 69 36 70 30 71 31 72 34 73 32 74 58 75 59 76 67 77
REMARK SMILES IDX 60 78 61 79 65 80 68 81 62 82 63 83 66 84 64 85 43 86 44 87
REMARK SMILES IDX 52 88 45 89 46 90 50 91 53 92 47 93 48 94 51 95 49 96
REMARK H PARENT 9 7 14 30 73 49 41 60
REMARK Flexibility Score: inf
ROOT
ATOM      1  C   UNL A   1      33.638  30.420  27.462  1.00  0.00     0.023 C 
ENDROOT
BRANCH   1   2
ATOM      2  C   UNL A   1      34.488  29.303  26.849  1.00  0.00     0.023 C 
BRANCH   2   3
ATOM      3  C   UNL A   1      33.779  28.243  25.993  1.00  0.00     0.116 C 
BRANCH   3   4
ATOM      4  N   UNL A   1      32.657  27.539  26.616  1.00  0.00    -0.354 N 
ATOM      5  C   UNL A   1      31.589  26.826  26.097  1.00  0.00     0.248 C 
ATOM      6  O   UNL A   1      31.132  25.984  26.875  1.00  0.00    -0.272 OA
ATOM      7  H   UNL A   1      32.663  27.579  27.600  1.00  0.00     0.163 HD
BRANCH   5   8
ATOM      8  C   UNL A   1      31.091  26.999  24.614  1.00  0.00     0.144 C 
ATOM      9  C   UNL A   1      29.712  26.322  24.480  1.00  0.00     0.062 C 
ATOM     10  C   UNL A   1      31.128  28.523  24.352  1.00  0.00     0.062 C 
ATOM     11  C   UNL A   1      28.645  27.049  23.682  1.00  0.00     0.123 C 
ATOM     12  C   UNL A   1      30.117  29.023  23.343  1.00  0.00     0.123 C 
ATOM     13  N   UNL A   1      28.789  28.488  23.565  1.00  0.00    -0.337 N 
ATOM     14  C   UNL A   1      27.642  29.206  23.169  1.00  0.00     0.273 C 
ATOM     15  O   UNL A   1      26.503  28.839  23.445  1.00  0.00    -0.267 OA
BRANCH   8  16
ATOM     16  N   UNL A   1      31.992  26.334  23.612  1.00  0.00    -0.257 N 
ATOM     17  C   UNL A   1      33.437  23.519  21.772  1.00  0.00     0.048 C 
ATOM     18  C   UNL A   1      33.033  24.811  22.371  1.00  0.00    -0.013 A 
ATOM     19  C   UNL A   1      33.381  26.127  22.016  1.00  0.00     0.138 A 
ATOM     20  C   UNL A   1      32.206  24.984  23.457  1.00  0.00     0.113 A 
ATOM     21  N   UNL A   1      32.840  27.038  22.833  1.00  0.00    -0.180 NA
ENDBRANCH   8  16
BRANCH  14  22
ATOM     22  C   UNL A   1      27.890  30.325  22.252  1.00  0.00     0.139 A 
ATOM     23  C   UNL A   1      27.878  31.644  22.679  1.00  0.00     0.100 A 
ATOM     24  N   UNL A   1      28.028  30.161  20.877  1.00  0.00    -0.240 NA
ATOM     25  S   UNL A   1      28.043  32.702  21.344  1.00  0.00    -0.130 S 
ATOM     26  C   UNL A   1      28.141  31.340  20.305  1.00  0.00     0.176 A 
ENDBRANCH  14  22
ENDBRANCH   5   8
ENDBRANCH   3   4
ENDBRANCH   2   3
ENDBRANCH   1   2
BRANCH   1  27
ATOM     27  C   UNL A   1      34.369  31.733  27.690  1.00  0.00     0.116 C 
BRANCH  27  28
ATOM     28  N   UNL A   1      34.324  32.194  29.079  1.00  0.00    -0.352 N 
ATOM     29  C   UNL A   1      35.126  31.791  30.129  1.00  0.00     0.251 C 
ATOM     30  H   UNL A   1      33.641  32.871  29.291  1.00  0.00     0.163 HD
ATOM     31  O   UNL A   1      34.788  31.958  31.298  1.00  0.00    -0.269 OA
BRANCH  29  32
ATOM     32  C   UNL A   1      36.408  31.145  29.817  1.00  0.00     0.039 A 
ATOM     33  C   UNL A   1      37.557  31.894  29.551  1.00  0.00     0.014 A 
ATOM     34  C   UNL A   1      36.454  29.754  29.873  1.00  0.00     0.014 A 
ATOM     35  C   UNL A   1      38.777  31.232  29.447  1.00  0.00     0.010 A 
ATOM     36  C   UNL A   1      37.669  29.122  29.925  1.00  0.00     0.010 A 
ATOM     37  C   UNL A   1      38.830  29.846  29.668  1.00  0.00    -0.014 A 
BRANCH  37  38
ATOM     38  C   UNL A   1      40.115  29.157  29.761  1.00  0.00     0.031 A 
ATOM     39  C   UNL A   1      40.606  28.934  31.151  1.00  0.00     0.074 A 
ATOM     40  C   UNL A   1      40.704  28.569  28.697  1.00  0.00     0.049 A 
ATOM     41  N   UNL A   1      41.687  29.396  31.689  1.00  0.00    -0.248 NA
ATOM     42  C   UNL A   1      39.741  28.205  32.094  1.00  0.00     0.031 C 
ATOM     43  C   UNL A   1      40.186  28.436  27.331  1.00  0.00     0.029 A 
ATOM     44  N   UNL A   1      41.862  27.855  28.643  1.00  0.00    -0.354 N 
ATOM     45  C   UNL A   1      41.739  28.867  32.977  1.00  0.00     0.074 A 
ATOM     46  C   UNL A   1      40.447  28.284  33.225  1.00  0.00     0.031 C 
ATOM     47  C   UNL A   1      40.889  27.493  26.667  1.00  0.00     0.029 A 
ATOM     48  C   UNL A   1      42.009  27.086  27.493  1.00  0.00     0.049 A 
ATOM     49  H   UNL A   1      42.538  27.880  29.356  1.00  0.00     0.167 HD
ATOM     50  C   UNL A   1      42.927  28.748  33.633  1.00  0.00     0.037 A 
ATOM     51  C   UNL A   1      42.967  26.158  27.251  1.00  0.00     0.037 A 
ATOM     52  C   UNL A   1      43.934  29.583  33.025  1.00  0.00     0.049 A 
ATOM     53  C   UNL A   1      44.090  26.434  28.180  1.00  0.00     0.074 A 
ATOM     54  C   UNL A   1      44.066  30.939  32.794  1.00  0.00     0.029 A 
ATOM     55  N   UNL A   1      44.855  28.981  32.204  1.00  0.00    -0.354 N 
ATOM     56  N   UNL A   1      44.845  27.494  28.112  1.00  0.00    -0.248 NA
ATOM     57  C   UNL A   1      44.083  25.753  29.466  1.00  0.00     0.031 C 
ATOM     58  C   UNL A   1      44.683  31.036  31.510  1.00  0.00     0.029 A 
ATOM     59  C   UNL A   1      44.959  29.741  31.069  1.00  0.00     0.049 A 
ATOM     60  H   UNL A   1      45.351  28.152  32.396  1.00  0.00     0.167 HD
ATOM     61  C   UNL A   1      45.032  27.873  29.432  1.00  0.00     0.074 A 
ATOM     62  C   UNL A   1      44.626  26.712  30.221  1.00  0.00     0.031 C 
ATOM     63  C   UNL A   1      45.217  29.185  29.763  1.00  0.00     0.037 A 
BRANCH  50  64
ATOM     64  C   UNL A   1      43.293  27.602  34.552  1.00  0.00     0.064 A 
ATOM     65  C   UNL A   1      43.364  26.297  34.017  1.00  0.00     0.173 A 
ATOM     66  C   UNL A   1      43.255  27.672  35.961  1.00  0.00     0.173 A 
ATOM     67  F   UNL A   1      43.403  26.103  32.690  1.00  0.00    -0.203 F 
ATOM     68  C   UNL A   1      43.288  25.159  34.825  1.00  0.00     0.198 A 
ATOM     69  C   UNL A   1      43.233  26.534  36.767  1.00  0.00     0.198 A 
ATOM     70  F   UNL A   1      43.121  28.830  36.618  1.00  0.00    -0.203 F 
ATOM     71  F   UNL A   1      43.211  23.946  34.260  1.00  0.00    -0.200 F 
ATOM     72  C   UNL A   1      43.210  25.279  36.199  1.00  0.00     0.200 A 
ATOM     73  F   UNL A   1      43.141  26.672  38.097  1.00  0.00    -0.200 F 
ATOM     74  F   UNL A   1      43.062  24.195  36.971  1.00  0.00    -0.200 F 
ENDBRANCH  50  64
BRANCH  51  75
ATOM     75  C   UNL A   1      42.848  24.879  26.511  1.00  0.00     0.064 A 
ATOM     76  C   UNL A   1      43.647  24.622  25.385  1.00  0.00     0.173 A 
ATOM     77  C   UNL A   1      42.171  23.772  27.062  1.00  0.00     0.173 A 
ATOM     78  F   UNL A   1      44.356  25.612  24.821  1.00  0.00    -0.203 F 
ATOM     79  C   UNL A   1      43.795  23.330  24.867  1.00  0.00     0.198 A 
ATOM     80  C   UNL A   1      42.312  22.487  26.540  1.00  0.00     0.198 A 
ATOM     81  F   UNL A   1      41.438  23.899  28.177  1.00  0.00    -0.203 F 
ATOM     82  F   UNL A   1      44.624  23.114  23.837  1.00  0.00    -0.200 F 
ATOM     83  C   UNL A   1      43.139  22.262  25.454  1.00  0.00     0.200 A 
ATOM     84  F   UNL A   1      41.698  21.456  27.138  1.00  0.00    -0.200 F 
ATOM     85  F   UNL A   1      43.333  21.015  25.002  1.00  0.00    -0.200 F 
ENDBRANCH  51  75
BRANCH  63  86
ATOM     86  C   UNL A   1      45.499  30.153  28.646  1.00  0.00     0.064 A 
ATOM     87  C   UNL A   1      44.513  30.804  27.884  1.00  0.00     0.173 A 
ATOM     88  C   UNL A   1      46.832  30.516  28.409  1.00  0.00     0.173 A 
ATOM     89  F   UNL A   1      43.211  30.599  28.116  1.00  0.00    -0.203 F 
ATOM     90  C   UNL A   1      44.850  31.722  26.890  1.00  0.00     0.198 A 
ATOM     91  C   UNL A   1      47.165  31.464  27.445  1.00  0.00     0.198 A 
ATOM     92  F   UNL A   1      47.817  29.974  29.143  1.00  0.00    -0.203 F 
ATOM     93  F   UNL A   1      43.890  32.306  26.159  1.00  0.00    -0.200 F 
ATOM     94  C   UNL A   1      46.177  32.054  26.676  1.00  0.00     0.200 A 
ATOM     95  F   UNL A   1      48.446  31.818  27.277  1.00  0.00    -0.200 F 
ATOM     96  F   UNL A   1      46.502  32.960  25.743  1.00  0.00    -0.200 F 
ENDBRANCH  63  86
ENDBRANCH  37  38
ENDBRANCH  29  32
ENDBRANCH  27  28
ENDBRANCH   1  27
TORSDOF 13
ENDMDL
MODEL 2
REMARK VINA RESULT:     -13.3      3.495      8.706
REMARK SMILES Cc1cnn(C2(C(=O)NCCCCNC(=O)c3ccc(-c4c5nc(c(-c6c(F)c(F)c(F)c(F)c6F)c6ccc([nH]6)c(-c6c(F)c(F)c(F)c(F)c6F)c6nc(c(-c7c(F)c(F)c(F)c(F)c7F)c7ccc4[nH]7)C=C6)C=C5)cc3)CCN(C(=O)c3cscn3)CC2)c1
REMARK SMILES IDX 12 1 11 2 10 3 9 4 7 5 8 6 6 8 80 9 91 10 81 11 90 12 82 13
REMARK SMILES IDX 83 14 84 15 5 16 1 17 2 18 3 19 92 20 4 21 85 22 86 23 89 24
REMARK SMILES IDX 87 25 88 26 13 27 14 28 15 29 16 31 17 32 18 33 79 34 19 35
REMARK SMILES IDX 78 36 20 37 21 38 22 39 72 40 23 41 77 42 71 43 73 44 24 45
REMARK SMILES IDX 76 46 70 47 69 48 25 50 57 51 37 52 56 53 38 54 41 55 55 56
REMARK SMILES IDX 74 57 39 58 40 59 54 61 75 62 42 63 26 64 27 65 35 66 28 67
REMARK SMILES IDX 29 68 33 69 36 70 30 71 31 72 34 73 32 74 58 75 59 76 67 77
REMARK SMILES IDX 60 78 61 79 65 80 68 81 62 82 63 83 66 84 64 85 43 86 44 87
REMARK SMILES IDX 52 88 45 89 46 90 50 91 53 92 47 93 48 94 51 95 49 96
REMARK H PARENT 9 7 14 30 73 49 41 60
REMARK Flexibility Score: inf
ROOT
ATOM      1  C   UNL A   1      39.929  20.676  26.282  1.00  0.00     0.023 C 
ENDROOT
BRANCH   1   2
ATOM      2  C   UNL A   1      39.021  21.888  26.057  1.00  0.00     0.023 C 
BRANCH   2   3
ATOM      3  C   UNL A   1      37.588  21.637  25.563  1.00  0.00     0.116 C 
BRANCH   3   4
ATOM      4  N   UNL A   1      37.308  21.977  24.166  1.00  0.00    -0.354 N 
ATOM      5  C   UNL A   1      36.368  22.801  23.570  1.00  0.00     0.248 C 
ATOM      6  O   UNL A   1      36.716  23.226  22.464  1.00  0.00    -0.272 OA
ATOM      7  H   UNL A   1      37.906  21.531  23.524  1.00  0.00     0.163 HD
BRANCH   5   8
ATOM      8  C   UNL A   1      35.043  23.243  24.293  1.00  0.00     0.144 C 
ATOM      9  C   UNL A   1      35.408  24.210  25.436  1.00  0.00     0.062 C 
ATOM     10  C   UNL A   1      34.147  23.823  23.172  1.00  0.00     0.062 C 
ATOM     11  C   UNL A   1      34.533  25.437  25.629  1.00  0.00     0.123 C 
ATOM     12  C   UNL A   1      33.174  24.892  23.621  1.00  0.00     0.123 C 
ATOM     13  N   UNL A   1      33.789  25.891  24.469  1.00  0.00    -0.337 N 
ATOM     14  C   UNL A   1      33.288  27.208  24.520  1.00  0.00     0.273 C 
ATOM     15  O   UNL A   1      33.852  28.109  25.136  1.00  0.00    -0.267 OA
BRANCH   8  16
ATOM     16  N   UNL A   1      34.309  22.094  24.926  1.00  0.00    -0.257 N 
ATOM     17  C   UNL A   1      32.648  18.833  25.011  1.00  0.00     0.048 C 
ATOM     18  C   UNL A   1      33.246  20.167  25.244  1.00  0.00    -0.013 A 
ATOM     19  C   UNL A   1      33.449  20.878  26.442  1.00  0.00     0.138 A 
ATOM     20  C   UNL A   1      33.735  21.021  24.283  1.00  0.00     0.113 A 
ATOM     21  N   UNL A   1      33.988  22.084  26.237  1.00  0.00    -0.180 NA
ENDBRANCH   8  16
BRANCH  14  22
ATOM     22  C   UNL A   1      31.954  27.393  23.937  1.00  0.00     0.139 A 
ATOM     23  C   UNL A   1      31.739  28.196  22.828  1.00  0.00     0.100 A 
ATOM     24  N   UNL A   1      30.796  26.885  24.520  1.00  0.00    -0.240 NA
ATOM     25  S   UNL A   1      30.064  28.323  22.502  1.00  0.00    -0.130 S 
ATOM     26  C   UNL A   1      29.749  27.290  23.834  1.00  0.00     0.176 A 
ENDBRANCH  14  22
ENDBRANCH   5   8
ENDBRANCH   3   4
ENDBRANCH   2   3
ENDBRANCH   1   2
BRANCH   1  27
ATOM     27  C   UNL A   1      41.288  20.993  26.884  1.00  0.00     0.116 C 
BRANCH  27  28
ATOM     28  N   UNL A   1      42.289  21.394  25.893  1.00  0.00    -0.352 N 
ATOM     29  C   UNL A   1      42.663  22.677  25.542  1.00  0.00     0.251 C 
ATOM     30  H   UNL A   1      42.750  20.663  25.420  1.00  0.00     0.163 HD
ATOM     31  O   UNL A   1      43.229  22.913  24.478  1.00  0.00    -0.269 OA
BRANCH  29  32
ATOM     32  C   UNL A   1      42.361  23.770  26.477  1.00  0.00     0.039 A 
ATOM     33  C   UNL A   1      43.085  23.938  27.660  1.00  0.00     0.014 A 
ATOM     34  C   UNL A   1      41.377  24.681  26.099  1.00  0.00     0.014 A 
ATOM     35  C   UNL A   1      42.880  25.093  28.409  1.00  0.00     0.010 A 
ATOM     36  C   UNL A   1      41.288  25.883  26.752  1.00  0.00     0.010 A 
ATOM     37  C   UNL A   1      42.001  26.079  27.930  1.00  0.00    -0.014 A 
BRANCH  37  38
ATOM     38  C   UNL A   1      41.915  27.380  28.588  1.00  0.00     0.031 A 
ATOM     39  C   UNL A   1      42.995  28.340  28.221  1.00  0.00     0.074 A 
ATOM     40  C   UNL A   1      40.830  27.768  29.295  1.00  0.00     0.049 A 
ATOM     41  N   UNL A   1      43.882  28.865  29.001  1.00  0.00    -0.248 NA
ATOM     42  C   UNL A   1      43.188  28.671  26.799  1.00  0.00     0.031 C 
ATOM     43  C   UNL A   1      39.563  27.052  29.478  1.00  0.00     0.029 A 
ATOM     44  N   UNL A   1      40.588  28.956  29.912  1.00  0.00    -0.354 N 
ATOM     45  C   UNL A   1      44.629  29.737  28.212  1.00  0.00     0.074 A 
ATOM     46  C   UNL A   1      44.270  29.454  26.848  1.00  0.00     0.031 C 
ATOM     47  C   UNL A   1      38.619  27.905  29.932  1.00  0.00     0.029 A 
ATOM     48  C   UNL A   1      39.254  29.172  30.239  1.00  0.00     0.049 A 
ATOM     49  H   UNL A   1      41.297  29.609  30.111  1.00  0.00     0.167 HD
ATOM     50  C   UNL A   1      45.301  30.781  28.774  1.00  0.00     0.037 A 
ATOM     51  C   UNL A   1      38.704  30.324  30.699  1.00  0.00     0.037 A 
ATOM     52  C   UNL A   1      45.463  30.583  30.193  1.00  0.00     0.049 A 
ATOM     53  C   UNL A   1      39.808  31.147  31.249  1.00  0.00     0.074 A 
ATOM     54  C   UNL A   1      46.067  29.622  30.980  1.00  0.00     0.029 A 
ATOM     55  N   UNL A   1      44.625  31.271  31.035  1.00  0.00    -0.354 N 
ATOM     56  N   UNL A   1      40.486  30.833  32.317  1.00  0.00    -0.248 NA
ATOM     57  C   UNL A   1      40.457  32.090  30.351  1.00  0.00     0.031 C 
ATOM     58  C   UNL A   1      45.198  29.463  32.101  1.00  0.00     0.029 A 
ATOM     59  C   UNL A   1      44.159  30.385  31.971  1.00  0.00     0.049 A 
ATOM     60  H   UNL A   1      44.399  32.228  30.977  1.00  0.00     0.167 HD
ATOM     61  C   UNL A   1      41.797  31.156  32.003  1.00  0.00     0.074 A 
ATOM     62  C   UNL A   1      41.703  32.016  30.824  1.00  0.00     0.031 C 
ATOM     63  C   UNL A   1      42.839  30.462  32.548  1.00  0.00     0.037 A 
BRANCH  50  64
ATOM     64  C   UNL A   1      45.457  32.147  28.138  1.00  0.00     0.064 A 
ATOM     65  C   UNL A   1      44.298  32.897  27.845  1.00  0.00     0.173 A 
ATOM     66  C   UNL A   1      46.641  32.601  27.518  1.00  0.00     0.173 A 
ATOM     67  F   UNL A   1      43.113  32.560  28.375  1.00  0.00    -0.203 F 
ATOM     68  C   UNL A   1      44.307  33.944  26.919  1.00  0.00     0.198 A 
ATOM     69  C   UNL A   1      46.655  33.680  26.634  1.00  0.00     0.198 A 
ATOM     70  F   UNL A   1      47.808  31.960  27.642  1.00  0.00    -0.203 F 
ATOM     71  F   UNL A   1      43.154  34.530  26.566  1.00  0.00    -0.200 F 
ATOM     72  C   UNL A   1      45.484  34.327  26.305  1.00  0.00     0.200 A 
ATOM     73  F   UNL A   1      47.805  34.026  26.037  1.00  0.00    -0.200 F 
ATOM     74  F   UNL A   1      45.484  35.279  25.363  1.00  0.00    -0.200 F 
ENDBRANCH  50  64
BRANCH  51  75
ATOM     75  C   UNL A   1      37.363  30.887  30.411  1.00  0.00     0.064 A 
ATOM     76  C   UNL A   1      36.483  31.217  31.454  1.00  0.00     0.173 A 
ATOM     77  C   UNL A   1      37.036  31.387  29.135  1.00  0.00     0.173 A 
ATOM     78  F   UNL A   1      36.739  30.814  32.707  1.00  0.00    -0.203 F 
ATOM     79  C   UNL A   1      35.366  32.035  31.242  1.00  0.00     0.198 A 
ATOM     80  C   UNL A   1      35.919  32.194  28.923  1.00  0.00     0.198 A 
ATOM     81  F   UNL A   1      37.847  31.185  28.087  1.00  0.00    -0.203 F 
ATOM     82  F   UNL A   1      34.591  32.389  32.277  1.00  0.00    -0.200 F 
ATOM     83  C   UNL A   1      35.093  32.534  29.980  1.00  0.00     0.200 A 
ATOM     84  F   UNL A   1      35.685  32.699  27.703  1.00  0.00    -0.200 F 
ATOM     85  F   UNL A   1      34.065  33.372  29.789  1.00  0.00    -0.200 F 
ENDBRANCH  51  75
BRANCH  63  86
ATOM     86  C   UNL A   1      42.537  29.545  33.702  1.00  0.00     0.064 A 
ATOM     87  C   UNL A   1      42.126  28.206  33.573  1.00  0.00     0.173 A 
ATOM     88  C   UNL A   1      42.779  30.017  35.000  1.00  0.00     0.173 A 
ATOM     89  F   UNL A   1      41.975  27.640  32.370  1.00  0.00    -0.203 F 
ATOM     90  C   UNL A   1      41.905  27.403  34.691  1.00  0.00     0.198 A 
ATOM     91  C   UNL A   1      42.598  29.200  36.113  1.00  0.00     0.198 A 
ATOM     92  F   UNL A   1      43.229  31.267  35.187  1.00  0.00    -0.203 F 
ATOM     93  F   UNL A   1      41.485  26.139  34.539  1.00  0.00    -0.200 F 
ATOM     94  C   UNL A   1      42.146  27.901  35.960  1.00  0.00     0.200 A 
ATOM     95  F   UNL A   1      42.881  29.671  37.335  1.00  0.00    -0.200 F 
ATOM     96  F   UNL A   1      41.965  27.121  37.035  1.00  0.00    -0.200 F 
ENDBRANCH  63  86
ENDBRANCH  37  38
ENDBRANCH  29  32
ENDBRANCH  27  28
ENDBRANCH   1  27
TORSDOF 13
ENDMDL
MODEL 3
REMARK VINA RESULT:     -13.0      3.664      8.757
REMARK SMILES Cc1cnn(C2(C(=O)NCCCCNC(=O)c3ccc(-c4c5nc(c(-c6c(F)c(F)c(F)c(F)c6F)c6ccc([nH]6)c(-c6c(F)c(F)c(F)c(F)c6F)c6nc(c(-c7c(F)c(F)c(F)c(F)c7F)c7ccc4[nH]7)C=C6)C=C5)cc3)CCN(C(=O)c3cscn3)CC2)c1
REMARK SMILES IDX 12 1 11 2 10 3 9 4 7 5 8 6 6 8 80 9 91 10 81 11 90 12 82 13
REMARK SMILES IDX 83 14 84 15 5 16 1 17 2 18 3 19 92 20 4 21 85 22 86 23 89 24
REMARK SMILES IDX 87 25 88 26 13 27 14 28 15 29 16 31 17 32 18 33 79 34 19 35
REMARK SMILES IDX 78 36 20 37 21 38 22 39 72 40 23 41 77 42 71 43 73 44 24 45
REMARK SMILES IDX 76 46 70 47 69 48 25 50 57 51 37 52 56 53 38 54 41 55 55 56
REMARK SMILES IDX 74 57 39 58 40 59 54 61 75 62 42 63 26 64 27 65 35 66 28 67
REMARK SMILES IDX 29 68 33 69 36 70 30 71 31 72 34 73 32 74 58 75 59 76 67 77
REMARK SMILES IDX 60 78 61 79 65 80 68 81 62 82 63 83 66 84 64 85 43 86 44 87
REMARK SMILES IDX 52 88 45 89 46 90 50 91 53 92 47 93 48 94 51 95 49 96
REMARK H PARENT 9 7 14 30 73 49 41 60
REMARK Flexibility Score: inf
ROOT
ATOM      1  C   UNL A   1      38.537  22.394  25.681  1.00  0.00     0.023 C 
ENDROOT
BRANCH   1   2
ATOM      2  C   UNL A   1      37.758  21.240  25.044  1.00  0.00     0.023 C 
BRANCH   2   3
ATOM      3  C   UNL A   1      36.224  21.277  25.116  1.00  0.00     0.116 C 
BRANCH   3   4
ATOM      4  N   UNL A   1      35.635  21.505  26.437  1.00  0.00    -0.354 N 
ATOM      5  C   UNL A   1      34.366  21.880  26.848  1.00  0.00     0.248 C 
ATOM      6  O   UNL A   1      34.089  21.511  27.993  1.00  0.00    -0.272 OA
ATOM      7  H   UNL A   1      36.264  21.363  27.180  1.00  0.00     0.163 HD
BRANCH   5   8
ATOM      8  C   UNL A   1      33.343  22.604  25.898  1.00  0.00     0.144 C 
ATOM      9  C   UNL A   1      32.054  22.889  26.694  1.00  0.00     0.062 C 
ATOM     10  C   UNL A   1      34.098  23.843  25.361  1.00  0.00     0.062 C 
ATOM     11  C   UNL A   1      31.390  24.241  26.501  1.00  0.00     0.123 C 
ATOM     12  C   UNL A   1      33.219  25.025  25.012  1.00  0.00     0.123 C 
ATOM     13  N   UNL A   1      32.242  25.321  26.038  1.00  0.00    -0.337 N 
ATOM     14  C   UNL A   1      31.749  26.631  26.216  1.00  0.00     0.273 C 
ATOM     15  O   UNL A   1      31.011  26.941  27.147  1.00  0.00    -0.267 OA
BRANCH   8  16
ATOM     16  N   UNL A   1      32.938  21.761  24.721  1.00  0.00    -0.257 N 
ATOM     17  C   UNL A   1      32.162  18.654  22.947  1.00  0.00     0.048 C 
ATOM     18  C   UNL A   1      32.432  20.031  23.419  1.00  0.00    -0.013 A 
ATOM     19  C   UNL A   1      32.238  21.268  22.776  1.00  0.00     0.138 A 
ATOM     20  C   UNL A   1      32.965  20.388  24.635  1.00  0.00     0.113 A 
ATOM     21  N   UNL A   1      32.645  22.302  23.519  1.00  0.00    -0.180 NA
ENDBRANCH   8  16
BRANCH  14  22
ATOM     22  C   UNL A   1      32.032  27.559  25.115  1.00  0.00     0.139 A 
ATOM     23  C   UNL A   1      31.191  27.680  24.019  1.00  0.00     0.100 A 
ATOM     24  N   UNL A   1      33.215  28.287  25.023  1.00  0.00    -0.240 NA
ATOM     25  S   UNL A   1      31.885  28.722  22.851  1.00  0.00    -0.130 S 
ATOM     26  C   UNL A   1      33.231  28.952  23.889  1.00  0.00     0.176 A 
ENDBRANCH  14  22
ENDBRANCH   5   8
ENDBRANCH   3   4
ENDBRANCH   2   3
ENDBRANCH   1   2
BRANCH   1  27
ATOM     27  C   UNL A   1      39.653  21.973  26.624  1.00  0.00     0.116 C 
BRANCH  27  28
ATOM     28  N   UNL A   1      40.988  22.065  26.029  1.00  0.00    -0.352 N 
ATOM     29  C   UNL A   1      41.770  23.193  25.880  1.00  0.00     0.251 C 
ATOM     30  H   UNL A   1      41.373  21.222  25.694  1.00  0.00     0.163 HD
ATOM     31  O   UNL A   1      42.691  23.235  25.069  1.00  0.00    -0.269 OA
BRANCH  29  32
ATOM     32  C   UNL A   1      41.474  24.361  26.721  1.00  0.00     0.039 A 
ATOM     33  C   UNL A   1      42.016  24.494  28.002  1.00  0.00     0.014 A 
ATOM     34  C   UNL A   1      40.694  25.370  26.161  1.00  0.00     0.014 A 
ATOM     35  C   UNL A   1      41.851  25.702  28.674  1.00  0.00     0.010 A 
ATOM     36  C   UNL A   1      40.665  26.605  26.755  1.00  0.00     0.010 A 
ATOM     37  C   UNL A   1      41.201  26.767  28.029  1.00  0.00    -0.014 A 
BRANCH  37  38
ATOM     38  C   UNL A   1      41.187  28.100  28.626  1.00  0.00     0.031 A 
ATOM     39  C   UNL A   1      42.235  29.027  28.112  1.00  0.00     0.074 A 
ATOM     40  C   UNL A   1      40.176  28.535  29.411  1.00  0.00     0.049 A 
ATOM     41  N   UNL A   1      43.195  29.579  28.778  1.00  0.00    -0.248 NA
ATOM     42  C   UNL A   1      42.295  29.286  26.663  1.00  0.00     0.031 C 
ATOM     43  C   UNL A   1      38.926  27.845  29.748  1.00  0.00     0.029 A 
ATOM     44  N   UNL A   1      40.003  29.755  29.988  1.00  0.00    -0.354 N 
ATOM     45  C   UNL A   1      43.871  30.402  27.880  1.00  0.00     0.074 A 
ATOM     46  C   UNL A   1      43.382  30.057  26.572  1.00  0.00     0.031 C 
ATOM     47  C   UNL A   1      38.037  28.731  30.246  1.00  0.00     0.029 A 
ATOM     48  C   UNL A   1      38.706  30.003  30.428  1.00  0.00     0.049 A 
ATOM     49  H   UNL A   1      40.732  30.408  30.087  1.00  0.00     0.167 HD
ATOM     50  C   UNL A   1      44.601  31.464  28.323  1.00  0.00     0.037 A 
ATOM     51  C   UNL A   1      38.211  31.182  30.879  1.00  0.00     0.037 A 
ATOM     52  C   UNL A   1      44.894  31.334  29.730  1.00  0.00     0.049 A 
ATOM     53  C   UNL A   1      39.368  32.019  31.282  1.00  0.00     0.074 A 
ATOM     54  C   UNL A   1      45.563  30.405  30.503  1.00  0.00     0.029 A 
ATOM     55  N   UNL A   1      44.145  32.072  30.611  1.00  0.00    -0.354 N 
ATOM     56  N   UNL A   1      40.142  31.748  32.295  1.00  0.00    -0.248 NA
ATOM     57  C   UNL A   1      39.937  32.908  30.281  1.00  0.00     0.031 C 
ATOM     58  C   UNL A   1      44.802  30.312  31.707  1.00  0.00     0.029 A 
ATOM     59  C   UNL A   1      43.762  31.240  31.630  1.00  0.00     0.049 A 
ATOM     60  H   UNL A   1      43.921  33.028  30.526  1.00  0.00     0.167 HD
ATOM     61  C   UNL A   1      41.420  32.040  31.844  1.00  0.00     0.074 A 
ATOM     62  C   UNL A   1      41.222  32.842  30.638  1.00  0.00     0.031 C 
ATOM     63  C   UNL A   1      42.503  31.360  32.323  1.00  0.00     0.037 A 
BRANCH  50  64
ATOM     64  C   UNL A   1      44.707  32.795  27.609  1.00  0.00     0.064 A 
ATOM     65  C   UNL A   1      45.877  33.080  26.872  1.00  0.00     0.173 A 
ATOM     66  C   UNL A   1      43.879  33.906  27.876  1.00  0.00     0.173 A 
ATOM     67  F   UNL A   1      46.743  32.105  26.558  1.00  0.00    -0.203 F 
ATOM     68  C   UNL A   1      46.240  34.387  26.533  1.00  0.00     0.198 A 
ATOM     69  C   UNL A   1      44.219  35.203  27.490  1.00  0.00     0.198 A 
ATOM     70  F   UNL A   1      42.771  33.812  28.619  1.00  0.00    -0.203 F 
ATOM     71  F   UNL A   1      47.430  34.620  25.963  1.00  0.00    -0.200 F 
ATOM     72  C   UNL A   1      45.416  35.449  26.853  1.00  0.00     0.200 A 
ATOM     73  F   UNL A   1      43.413  36.221  27.825  1.00  0.00    -0.200 F 
ATOM     74  F   UNL A   1      45.794  36.707  26.597  1.00  0.00    -0.200 F 
ENDBRANCH  50  64
BRANCH  51  75
ATOM     75  C   UNL A   1      36.854  31.747  30.691  1.00  0.00     0.064 A 
ATOM     76  C   UNL A   1      35.991  31.926  31.784  1.00  0.00     0.173 A 
ATOM     77  C   UNL A   1      36.488  32.394  29.493  1.00  0.00     0.173 A 
ATOM     78  F   UNL A   1      36.283  31.377  32.972  1.00  0.00    -0.203 F 
ATOM     79  C   UNL A   1      34.854  32.739  31.698  1.00  0.00     0.198 A 
ATOM     80  C   UNL A   1      35.351  33.197  29.406  1.00  0.00     0.198 A 
ATOM     81  F   UNL A   1      37.279  32.341  28.412  1.00  0.00    -0.203 F 
ATOM     82  F   UNL A   1      34.096  32.945  32.783  1.00  0.00    -0.200 F 
ATOM     83  C   UNL A   1      34.543  33.384  30.513  1.00  0.00     0.200 A 
ATOM     84  F   UNL A   1      35.080  33.843  28.263  1.00  0.00    -0.200 F 
ATOM     85  F   UNL A   1      33.495  34.217  30.449  1.00  0.00    -0.200 F 
ENDBRANCH  51  75
BRANCH  63  86
ATOM     86  C   UNL A   1      42.305  30.505  33.545  1.00  0.00     0.064 A 
ATOM     87  C   UNL A   1      42.395  30.970  34.869  1.00  0.00     0.173 A 
ATOM     88  C   UNL A   1      41.900  29.176  33.361  1.00  0.00     0.173 A 
ATOM     89  F   UNL A   1      42.671  32.252  35.136  1.00  0.00    -0.203 F 
ATOM     90  C   UNL A   1      42.157  30.126  35.954  1.00  0.00     0.198 A 
ATOM     91  C   UNL A   1      41.621  28.347  34.444  1.00  0.00     0.198 A 
ATOM     92  F   UNL A   1      41.737  28.688  32.121  1.00  0.00    -0.203 F 
ATOM     93  F   UNL A   1      42.280  30.589  37.206  1.00  0.00    -0.200 F 
ATOM     94  C   UNL A   1      41.766  28.816  35.738  1.00  0.00     0.200 A 
ATOM     95  F   UNL A   1      41.194  27.095  34.230  1.00  0.00    -0.200 F 
ATOM     96  F   UNL A   1      41.505  28.012  36.779  1.00  0.00    -0.200 F 
ENDBRANCH  63  86
ENDBRANCH  37  38
ENDBRANCH  29  32
ENDBRANCH  27  28
ENDBRANCH   1  27
TORSDOF 13
ENDMDL
