MODEL 1
REMARK VINA RESULT:     -11.7      0.000      0.000
REMARK SMILES O=C(NCCCCNC(=O)[C@H]1Cc2cc(O)ccc2C[NH2+]1)c1ccc(-c2c3nc(c(-c4c(F)c(F)c(F)c(F)c4F)c4ccc([nH]4)c(-c4c(F)c(F)c(F)c(F)c4F)c4nc(c(-c5c(F)c(F)c(F)c(F)c5F)c5ccc2[nH]5)C=C4)C=C3)cc1
REMARK SMILES IDX 5 1 4 2 3 3 1 4 2 5 22 7 23 8 84 9 24 10 83 11 25 12 26 13
REMARK SMILES IDX 27 14 77 15 28 16 82 17 76 18 78 19 29 20 81 21 75 22 74 23
REMARK SMILES IDX 30 25 62 26 42 27 61 28 43 29 46 30 60 31 79 32 44 33 45 34
REMARK SMILES IDX 59 36 80 37 47 38 31 39 32 40 40 41 33 42 34 43 38 44 41 45
REMARK SMILES IDX 35 46 36 47 39 48 37 49 63 50 64 51 72 52 65 53 66 54 70 55
REMARK SMILES IDX 73 56 67 57 68 58 71 59 69 60 48 61 49 62 57 63 50 64 51 65
REMARK SMILES IDX 55 66 58 67 52 68 53 69 56 70 54 71 6 72 7 73 8 74 9 75
REMARK SMILES IDX 10 77 11 78 12 79 21 80 13 81 20 82 14 85 19 86 15 87 18 88
REMARK SMILES IDX 17 89 16 90
REMARK H PARENT 3 6 78 24 46 35 8 76 21 83 21 84 16 91
REMARK Flexibility Score: inf
ROOT
ATOM      1  C   UNL A   1      35.784  23.625  24.693  1.00  0.00     0.023 C 
ENDROOT
BRANCH   1   2
ATOM      2  C   UNL A   1      36.610  23.618  25.968  1.00  0.00     0.116 C 
BRANCH   2   3
ATOM      3  N   UNL A   1      37.700  22.660  25.939  1.00  0.00    -0.352 N 
ATOM      4  O   UNL A   1      39.836  21.957  26.105  1.00  0.00    -0.269 OA
ATOM      5  C   UNL A   1      39.016  22.841  26.298  1.00  0.00     0.251 C 
ATOM      6  H   UNL A   1      37.467  21.759  25.619  1.00  0.00     0.163 HD
BRANCH   5   7
ATOM      7  C   UNL A   1      39.439  24.129  26.892  1.00  0.00     0.039 A 
ATOM      8  C   UNL A   1      40.056  25.074  26.070  1.00  0.00     0.014 A 
ATOM      9  C   UNL A   1      39.239  24.402  28.248  1.00  0.00     0.014 A 
ATOM     10  C   UNL A   1      40.441  26.305  26.601  1.00  0.00     0.010 A 
ATOM     11  C   UNL A   1      39.539  25.662  28.754  1.00  0.00     0.010 A 
ATOM     12  C   UNL A   1      40.170  26.615  27.943  1.00  0.00    -0.014 A 
BRANCH  12  13
ATOM     13  C   UNL A   1      40.609  27.905  28.534  1.00  0.00     0.031 A 
ATOM     14  C   UNL A   1      42.069  28.126  28.829  1.00  0.00     0.074 A 
ATOM     15  C   UNL A   1      39.704  28.859  28.821  1.00  0.00     0.049 A 
ATOM     16  N   UNL A   1      42.654  29.164  29.370  1.00  0.00    -0.248 NA
ATOM     17  C   UNL A   1      42.992  27.027  28.500  1.00  0.00     0.031 C 
ATOM     18  C   UNL A   1      38.259  28.743  28.620  1.00  0.00     0.029 A 
ATOM     19  N   UNL A   1      39.865  30.120  29.339  1.00  0.00    -0.354 N 
ATOM     20  C   UNL A   1      44.000  28.836  29.455  1.00  0.00     0.074 A 
ATOM     21  C   UNL A   1      44.142  27.481  28.975  1.00  0.00     0.031 C 
ATOM     22  C   UNL A   1      37.672  29.898  28.971  1.00  0.00     0.029 A 
ATOM     23  C   UNL A   1      38.692  30.825  29.453  1.00  0.00     0.049 A 
ATOM     24  H   UNL A   1      40.741  30.485  29.604  1.00  0.00     0.167 HD
ATOM     25  C   UNL A   1      45.033  29.611  29.858  1.00  0.00     0.037 A 
ATOM     26  C   UNL A   1      38.469  32.081  29.890  1.00  0.00     0.037 A 
ATOM     27  C   UNL A   1      44.897  30.977  30.278  1.00  0.00     0.049 A 
ATOM     28  C   UNL A   1      39.638  32.921  30.333  1.00  0.00     0.074 A 
ATOM     29  C   UNL A   1      45.890  31.865  30.646  1.00  0.00     0.029 A 
ATOM     30  N   UNL A   1      43.692  31.655  30.373  1.00  0.00    -0.354 N 
ATOM     31  N   UNL A   1      40.912  32.618  30.349  1.00  0.00    -0.248 NA
ATOM     32  C   UNL A   1      39.339  34.277  30.817  1.00  0.00     0.031 C 
ATOM     33  C   UNL A   1      45.284  33.072  31.000  1.00  0.00     0.029 A 
ATOM     34  C   UNL A   1      43.916  32.949  30.811  1.00  0.00     0.049 A 
ATOM     35  H   UNL A   1      42.808  31.275  30.162  1.00  0.00     0.167 HD
ATOM     36  C   UNL A   1      41.569  33.750  30.814  1.00  0.00     0.074 A 
ATOM     37  C   UNL A   1      40.554  34.751  31.060  1.00  0.00     0.031 C 
ATOM     38  C   UNL A   1      42.893  33.939  31.023  1.00  0.00     0.037 A 
BRANCH  25  39
ATOM     39  C   UNL A   1      46.411  29.021  29.829  1.00  0.00     0.064 A 
ATOM     40  C   UNL A   1      46.937  28.343  30.939  1.00  0.00     0.173 A 
ATOM     41  C   UNL A   1      47.178  29.056  28.655  1.00  0.00     0.173 A 
ATOM     42  F   UNL A   1      46.247  28.292  32.088  1.00  0.00    -0.203 F 
ATOM     43  C   UNL A   1      48.183  27.727  30.876  1.00  0.00     0.198 A 
ATOM     44  C   UNL A   1      48.412  28.415  28.588  1.00  0.00     0.198 A 
ATOM     45  F   UNL A   1      46.718  29.688  27.564  1.00  0.00    -0.203 F 
ATOM     46  F   UNL A   1      48.677  27.107  31.957  1.00  0.00    -0.200 F 
ATOM     47  C   UNL A   1      48.914  27.753  29.699  1.00  0.00     0.200 A 
ATOM     48  F   UNL A   1      49.110  28.428  27.444  1.00  0.00    -0.200 F 
ATOM     49  F   UNL A   1      50.103  27.138  29.632  1.00  0.00    -0.200 F 
ENDBRANCH  25  39
BRANCH  26  50
ATOM     50  C   UNL A   1      37.089  32.632  29.890  1.00  0.00     0.064 A 
ATOM     51  C   UNL A   1      36.595  33.329  28.778  1.00  0.00     0.173 A 
ATOM     52  C   UNL A   1      36.235  32.475  30.991  1.00  0.00     0.173 A 
ATOM     53  F   UNL A   1      37.379  33.523  27.707  1.00  0.00    -0.203 F 
ATOM     54  C   UNL A   1      35.307  33.861  28.773  1.00  0.00     0.198 A 
ATOM     55  C   UNL A   1      34.937  32.984  30.975  1.00  0.00     0.198 A 
ATOM     56  F   UNL A   1      36.656  31.814  32.079  1.00  0.00    -0.203 F 
ATOM     57  F   UNL A   1      34.876  34.558  27.713  1.00  0.00    -0.200 F 
ATOM     58  C   UNL A   1      34.477  33.683  29.869  1.00  0.00     0.200 A 
ATOM     59  F   UNL A   1      34.134  32.797  32.031  1.00  0.00    -0.200 F 
ATOM     60  F   UNL A   1      33.236  34.190  29.863  1.00  0.00    -0.200 F 
ENDBRANCH  26  50
BRANCH  38  61
ATOM     61  C   UNL A   1      43.346  35.279  31.517  1.00  0.00     0.064 A 
ATOM     62  C   UNL A   1      43.716  36.295  30.625  1.00  0.00     0.173 A 
ATOM     63  C   UNL A   1      43.283  35.589  32.884  1.00  0.00     0.173 A 
ATOM     64  F   UNL A   1      43.798  36.042  29.309  1.00  0.00    -0.203 F 
ATOM     65  C   UNL A   1      44.003  37.577  31.085  1.00  0.00     0.198 A 
ATOM     66  C   UNL A   1      43.546  36.878  33.337  1.00  0.00     0.198 A 
ATOM     67  F   UNL A   1      42.923  34.652  33.773  1.00  0.00    -0.203 F 
ATOM     68  F   UNL A   1      44.366  38.531  30.217  1.00  0.00    -0.200 F 
ATOM     69  C   UNL A   1      43.905  37.871  32.437  1.00  0.00     0.200 A 
ATOM     70  F   UNL A   1      43.431  37.164  34.641  1.00  0.00    -0.200 F 
ATOM     71  F   UNL A   1      44.150  39.114  32.873  1.00  0.00    -0.200 F 
ENDBRANCH  38  61
ENDBRANCH  12  13
ENDBRANCH   5   7
ENDBRANCH   2   3
ENDBRANCH   1   2
BRANCH   1  72
ATOM     72  C   UNL A   1      34.454  22.877  24.785  1.00  0.00     0.023 C 
BRANCH  72  73
ATOM     73  C   UNL A   1      33.248  23.630  24.213  1.00  0.00     0.116 C 
BRANCH  73  74
ATOM     74  N   UNL A   1      33.620  24.382  23.032  1.00  0.00    -0.351 N 
ATOM     75  C   UNL A   1      33.411  25.691  22.720  1.00  0.00     0.278 C 
ATOM     76  H   UNL A   1      34.102  23.864  22.346  1.00  0.00     0.163 HD
ATOM     77  O   UNL A   1      33.814  26.070  21.613  1.00  0.00    -0.268 OA
BRANCH  75  78
ATOM     78  C   UNL A   1      32.786  26.703  23.705  1.00  0.00     0.277 C 
ATOM     79  C   UNL A   1      33.721  27.173  24.827  1.00  0.00     0.111 C 
ATOM     80  N   UNL A   1      32.201  27.830  22.938  1.00  0.00    -0.332 N 
ATOM     81  C   UNL A   1      33.233  28.411  25.542  1.00  0.00    -0.029 A 
ATOM     82  C   UNL A   1      31.369  28.638  23.841  1.00  0.00     0.298 C 
ATOM     83  H   UNL A   1      31.627  27.467  22.178  1.00  0.00     0.347 HD
ATOM     84  H   UNL A   1      32.946  28.407  22.548  1.00  0.00     0.347 HD
ATOM     85  C   UNL A   1      33.945  28.896  26.647  1.00  0.00     0.050 A 
ATOM     86  C   UNL A   1      32.123  29.124  25.055  1.00  0.00     0.010 A 
ATOM     87  C   UNL A   1      33.529  30.059  27.283  1.00  0.00     0.115 A 
ATOM     88  C   UNL A   1      31.696  30.273  25.738  1.00  0.00     0.013 A 
ATOM     89  C   UNL A   1      32.400  30.743  26.849  1.00  0.00     0.046 A 
BRANCH  87  90
ATOM     90  O   UNL A   1      34.268  30.501  28.340  1.00  0.00    -0.508 OA
ATOM     91  H   UNL A   1      34.312  29.993  29.126  1.00  0.00     0.293 HD
ENDBRANCH  87  90
ENDBRANCH  75  78
ENDBRANCH  73  74
ENDBRANCH  72  73
ENDBRANCH   1  72
TORSDOF 12
ENDMDL
MODEL 2
REMARK VINA RESULT:     -11.6      4.249      9.157
REMARK SMILES O=C(NCCCCNC(=O)[C@H]1Cc2cc(O)ccc2C[NH2+]1)c1ccc(-c2c3nc(c(-c4c(F)c(F)c(F)c(F)c4F)c4ccc([nH]4)c(-c4c(F)c(F)c(F)c(F)c4F)c4nc(c(-c5c(F)c(F)c(F)c(F)c5F)c5ccc2[nH]5)C=C4)C=C3)cc1
REMARK SMILES IDX 5 1 4 2 3 3 1 4 2 5 22 7 23 8 84 9 24 10 83 11 25 12 26 13
REMARK SMILES IDX 27 14 77 15 28 16 82 17 76 18 78 19 29 20 81 21 75 22 74 23
REMARK SMILES IDX 30 25 62 26 42 27 61 28 43 29 46 30 60 31 79 32 44 33 45 34
REMARK SMILES IDX 59 36 80 37 47 38 31 39 32 40 40 41 33 42 34 43 38 44 41 45
REMARK SMILES IDX 35 46 36 47 39 48 37 49 63 50 64 51 72 52 65 53 66 54 70 55
REMARK SMILES IDX 73 56 67 57 68 58 71 59 69 60 48 61 49 62 57 63 50 64 51 65
REMARK SMILES IDX 55 66 58 67 52 68 53 69 56 70 54 71 6 72 7 73 8 74 9 75
REMARK SMILES IDX 10 77 11 78 12 79 21 80 13 81 20 82 14 85 19 86 15 87 18 88
REMARK SMILES IDX 17 89 16 90
REMARK H PARENT 3 6 78 24 46 35 8 76 21 83 21 84 16 91
REMARK Flexibility Score: inf
ROOT
ATOM      1  C   UNL A   1      31.444  32.048  26.800  1.00  0.00     0.023 C 
ENDROOT
BRANCH   1   2
ATOM      2  C   UNL A   1      32.686  32.912  26.937  1.00  0.00     0.116 C 
BRANCH   2   3
ATOM      3  N   UNL A   1      32.428  34.186  27.585  1.00  0.00    -0.352 N 
ATOM      4  O   UNL A   1      32.646  35.780  29.164  1.00  0.00    -0.269 OA
ATOM      5  C   UNL A   1      33.062  34.744  28.671  1.00  0.00     0.251 C 
ATOM      6  H   UNL A   1      31.702  34.723  27.194  1.00  0.00     0.163 HD
BRANCH   5   7
ATOM      7  C   UNL A   1      34.236  34.061  29.259  1.00  0.00     0.039 A 
ATOM      8  C   UNL A   1      35.514  34.494  28.896  1.00  0.00     0.014 A 
ATOM      9  C   UNL A   1      34.084  32.998  30.153  1.00  0.00     0.014 A 
ATOM     10  C   UNL A   1      36.636  33.883  29.456  1.00  0.00     0.010 A 
ATOM     11  C   UNL A   1      35.199  32.452  30.780  1.00  0.00     0.010 A 
ATOM     12  C   UNL A   1      36.487  32.869  30.415  1.00  0.00    -0.014 A 
BRANCH  12  13
ATOM     13  C   UNL A   1      37.670  32.181  30.991  1.00  0.00     0.031 A 
ATOM     14  C   UNL A   1      38.131  32.536  32.380  1.00  0.00     0.074 A 
ATOM     15  C   UNL A   1      38.336  31.262  30.267  1.00  0.00     0.049 A 
ATOM     16  N   UNL A   1      39.154  32.077  33.054  1.00  0.00    -0.248 NA
ATOM     17  C   UNL A   1      37.357  33.563  33.099  1.00  0.00     0.031 C 
ATOM     18  C   UNL A   1      38.010  30.865  28.897  1.00  0.00     0.029 A 
ATOM     19  N   UNL A   1      39.424  30.487  30.586  1.00  0.00    -0.354 N 
ATOM     20  C   UNL A   1      39.151  32.765  34.259  1.00  0.00     0.074 A 
ATOM     21  C   UNL A   1      38.069  33.720  34.205  1.00  0.00     0.031 C 
ATOM     22  C   UNL A   1      38.852  29.895  28.507  1.00  0.00     0.029 A 
ATOM     23  C   UNL A   1      39.799  29.623  29.586  1.00  0.00     0.049 A 
ATOM     24  H   UNL A   1      39.893  30.547  31.450  1.00  0.00     0.167 HD
ATOM     25  C   UNL A   1      39.955  32.588  35.333  1.00  0.00     0.037 A 
ATOM     26  C   UNL A   1      40.789  28.710  29.550  1.00  0.00     0.037 A 
ATOM     27  C   UNL A   1      40.991  31.598  35.407  1.00  0.00     0.049 A 
ATOM     28  C   UNL A   1      41.668  28.533  30.760  1.00  0.00     0.074 A 
ATOM     29  C   UNL A   1      41.817  31.297  36.474  1.00  0.00     0.029 A 
ATOM     30  N   UNL A   1      41.333  30.738  34.375  1.00  0.00    -0.354 N 
ATOM     31  N   UNL A   1      41.614  29.148  31.916  1.00  0.00    -0.248 NA
ATOM     32  C   UNL A   1      42.744  27.536  30.663  1.00  0.00     0.031 C 
ATOM     33  C   UNL A   1      42.687  30.279  36.075  1.00  0.00     0.029 A 
ATOM     34  C   UNL A   1      42.373  29.916  34.775  1.00  0.00     0.049 A 
ATOM     35  H   UNL A   1      40.903  30.715  33.489  1.00  0.00     0.167 HD
ATOM     36  C   UNL A   1      42.623  28.595  32.692  1.00  0.00     0.074 A 
ATOM     37  C   UNL A   1      43.270  27.587  31.880  1.00  0.00     0.031 C 
ATOM     38  C   UNL A   1      42.984  28.900  33.960  1.00  0.00     0.037 A 
BRANCH  25  39
ATOM     39  C   UNL A   1      39.725  33.452  36.537  1.00  0.00     0.064 A 
ATOM     40  C   UNL A   1      40.341  34.705  36.663  1.00  0.00     0.173 A 
ATOM     41  C   UNL A   1      38.813  33.064  37.530  1.00  0.00     0.173 A 
ATOM     42  F   UNL A   1      41.230  35.116  35.745  1.00  0.00    -0.203 F 
ATOM     43  C   UNL A   1      40.059  35.537  37.742  1.00  0.00     0.198 A 
ATOM     44  C   UNL A   1      38.512  33.909  38.594  1.00  0.00     0.198 A 
ATOM     45  F   UNL A   1      38.193  31.876  37.454  1.00  0.00    -0.203 F 
ATOM     46  F   UNL A   1      40.679  36.719  37.855  1.00  0.00    -0.200 F 
ATOM     47  C   UNL A   1      39.137  35.144  38.700  1.00  0.00     0.200 A 
ATOM     48  F   UNL A   1      37.610  33.536  39.511  1.00  0.00    -0.200 F 
ATOM     49  F   UNL A   1      38.847  35.956  39.726  1.00  0.00    -0.200 F 
ENDBRANCH  25  39
BRANCH  26  50
ATOM     50  C   UNL A   1      40.975  27.864  28.342  1.00  0.00     0.064 A 
ATOM     51  C   UNL A   1      41.774  28.301  27.275  1.00  0.00     0.173 A 
ATOM     52  C   UNL A   1      40.366  26.606  28.225  1.00  0.00     0.173 A 
ATOM     53  F   UNL A   1      42.361  29.505  27.330  1.00  0.00    -0.203 F 
ATOM     54  C   UNL A   1      41.943  27.521  26.133  1.00  0.00     0.198 A 
ATOM     55  C   UNL A   1      40.558  25.814  27.094  1.00  0.00     0.198 A 
ATOM     56  F   UNL A   1      39.595  26.138  29.218  1.00  0.00    -0.203 F 
ATOM     57  F   UNL A   1      42.678  27.982  25.112  1.00  0.00    -0.200 F 
ATOM     58  C   UNL A   1      41.341  26.275  26.046  1.00  0.00     0.200 A 
ATOM     59  F   UNL A   1      39.986  24.604  27.021  1.00  0.00    -0.200 F 
ATOM     60  F   UNL A   1      41.508  25.522  24.951  1.00  0.00    -0.200 F 
ENDBRANCH  26  50
BRANCH  38  61
ATOM     61  C   UNL A   1      44.111  28.128  34.579  1.00  0.00     0.064 A 
ATOM     62  C   UNL A   1      45.420  28.627  34.577  1.00  0.00     0.173 A 
ATOM     63  C   UNL A   1      43.852  26.947  35.290  1.00  0.00     0.173 A 
ATOM     64  F   UNL A   1      45.715  29.749  33.903  1.00  0.00    -0.203 F 
ATOM     65  C   UNL A   1      46.433  27.971  35.271  1.00  0.00     0.198 A 
ATOM     66  C   UNL A   1      44.862  26.308  36.003  1.00  0.00     0.198 A 
ATOM     67  F   UNL A   1      42.612  26.438  35.330  1.00  0.00    -0.203 F 
ATOM     68  F   UNL A   1      47.681  28.458  35.248  1.00  0.00    -0.200 F 
ATOM     69  C   UNL A   1      46.151  26.821  35.994  1.00  0.00     0.200 A 
ATOM     70  F   UNL A   1      44.583  25.209  36.717  1.00  0.00    -0.200 F 
ATOM     71  F   UNL A   1      47.121  26.210  36.688  1.00  0.00    -0.200 F 
ENDBRANCH  38  61
ENDBRANCH  12  13
ENDBRANCH   5   7
ENDBRANCH   2   3
ENDBRANCH   1   2
BRANCH   1  72
ATOM     72  C   UNL A   1      31.707  30.542  26.793  1.00  0.00     0.023 C 
BRANCH  72  73
ATOM     73  C   UNL A   1      32.246  29.987  25.470  1.00  0.00     0.116 C 
BRANCH  73  74
ATOM     74  N   UNL A   1      31.197  29.919  24.472  1.00  0.00    -0.351 N 
ATOM     75  C   UNL A   1      30.718  28.854  23.770  1.00  0.00     0.278 C 
ATOM     76  H   UNL A   1      30.761  30.779  24.269  1.00  0.00     0.163 HD
ATOM     77  O   UNL A   1      29.825  29.088  22.946  1.00  0.00    -0.268 OA
BRANCH  75  78
ATOM     78  C   UNL A   1      31.177  27.402  24.023  1.00  0.00     0.277 C 
ATOM     79  C   UNL A   1      30.617  26.761  25.300  1.00  0.00     0.111 C 
ATOM     80  N   UNL A   1      30.911  26.589  22.811  1.00  0.00    -0.332 N 
ATOM     81  C   UNL A   1      30.769  25.259  25.339  1.00  0.00    -0.029 A 
ATOM     82  C   UNL A   1      31.597  25.297  22.945  1.00  0.00     0.298 C 
ATOM     83  H   UNL A   1      31.260  27.077  21.987  1.00  0.00     0.347 HD
ATOM     84  H   UNL A   1      29.907  26.438  22.710  1.00  0.00     0.347 HD
ATOM     85  C   UNL A   1      30.382  24.555  26.488  1.00  0.00     0.050 A 
ATOM     86  C   UNL A   1      31.214  24.558  24.205  1.00  0.00     0.010 A 
ATOM     87  C   UNL A   1      30.476  23.170  26.516  1.00  0.00     0.115 A 
ATOM     88  C   UNL A   1      31.341  23.162  24.270  1.00  0.00     0.013 A 
ATOM     89  C   UNL A   1      30.969  22.468  25.423  1.00  0.00     0.046 A 
BRANCH  87  90
ATOM     90  O   UNL A   1      30.066  22.531  27.649  1.00  0.00    -0.508 OA
ATOM     91  H   UNL A   1      29.189  22.641  27.957  1.00  0.00     0.293 HD
ENDBRANCH  87  90
ENDBRANCH  75  78
ENDBRANCH  73  74
ENDBRANCH  72  73
ENDBRANCH   1  72
TORSDOF 12
ENDMDL
MODEL 3
REMARK VINA RESULT:     -11.5      3.012      5.848
REMARK SMILES O=C(NCCCCNC(=O)[C@H]1Cc2cc(O)ccc2C[NH2+]1)c1ccc(-c2c3nc(c(-c4c(F)c(F)c(F)c(F)c4F)c4ccc([nH]4)c(-c4c(F)c(F)c(F)c(F)c4F)c4nc(c(-c5c(F)c(F)c(F)c(F)c5F)c5ccc2[nH]5)C=C4)C=C3)cc1
REMARK SMILES IDX 5 1 4 2 3 3 1 4 2 5 22 7 23 8 84 9 24 10 83 11 25 12 26 13
REMARK SMILES IDX 27 14 77 15 28 16 82 17 76 18 78 19 29 20 81 21 75 22 74 23
REMARK SMILES IDX 30 25 62 26 42 27 61 28 43 29 46 30 60 31 79 32 44 33 45 34
REMARK SMILES IDX 59 36 80 37 47 38 31 39 32 40 40 41 33 42 34 43 38 44 41 45
REMARK SMILES IDX 35 46 36 47 39 48 37 49 63 50 64 51 72 52 65 53 66 54 70 55
REMARK SMILES IDX 73 56 67 57 68 58 71 59 69 60 48 61 49 62 57 63 50 64 51 65
REMARK SMILES IDX 55 66 58 67 52 68 53 69 56 70 54 71 6 72 7 73 8 74 9 75
REMARK SMILES IDX 10 77 11 78 12 79 21 80 13 81 20 82 14 85 19 86 15 87 18 88
REMARK SMILES IDX 17 89 16 90
REMARK H PARENT 3 6 78 24 46 35 8 76 21 83 21 84 16 91
REMARK Flexibility Score: inf
ROOT
ATOM      1  C   UNL A   1      41.131  20.055  27.358  1.00  0.00     0.023 C 
ENDROOT
BRANCH   1   2
ATOM      2  C   UNL A   1      40.799  21.519  27.125  1.00  0.00     0.116 C 
BRANCH   2   3
ATOM      3  N   UNL A   1      39.599  21.715  26.331  1.00  0.00    -0.352 N 
ATOM      4  O   UNL A   1      37.793  22.820  25.558  1.00  0.00    -0.269 OA
ATOM      5  C   UNL A   1      38.845  22.855  26.177  1.00  0.00     0.251 C 
ATOM      6  H   UNL A   1      39.283  20.925  25.836  1.00  0.00     0.163 HD
BRANCH   5   7
ATOM      7  C   UNL A   1      39.301  24.120  26.795  1.00  0.00     0.039 A 
ATOM      8  C   UNL A   1      40.049  25.011  26.022  1.00  0.00     0.014 A 
ATOM      9  C   UNL A   1      39.003  24.425  28.126  1.00  0.00     0.014 A 
ATOM     10  C   UNL A   1      40.469  26.221  26.574  1.00  0.00     0.010 A 
ATOM     11  C   UNL A   1      39.342  25.669  28.646  1.00  0.00     0.010 A 
ATOM     12  C   UNL A   1      40.104  26.567  27.886  1.00  0.00    -0.014 A 
BRANCH  12  13
ATOM     13  C   UNL A   1      40.576  27.833  28.502  1.00  0.00     0.031 A 
ATOM     14  C   UNL A   1      42.042  28.014  28.793  1.00  0.00     0.074 A 
ATOM     15  C   UNL A   1      39.695  28.801  28.815  1.00  0.00     0.049 A 
ATOM     16  N   UNL A   1      42.654  29.026  29.353  1.00  0.00    -0.248 NA
ATOM     17  C   UNL A   1      42.937  26.901  28.435  1.00  0.00     0.031 C 
ATOM     18  C   UNL A   1      38.247  28.723  28.619  1.00  0.00     0.029 A 
ATOM     19  N   UNL A   1      39.889  30.047  29.359  1.00  0.00    -0.354 N 
ATOM     20  C   UNL A   1      43.993  28.665  29.423  1.00  0.00     0.074 A 
ATOM     21  C   UNL A   1      44.101  27.317  28.912  1.00  0.00     0.031 C 
ATOM     22  C   UNL A   1      37.688  29.884  28.999  1.00  0.00     0.029 A 
ATOM     23  C   UNL A   1      38.733  30.776  29.495  1.00  0.00     0.049 A 
ATOM     24  H   UNL A   1      40.774  30.385  29.627  1.00  0.00     0.167 HD
ATOM     25  C   UNL A   1      45.045  29.406  29.837  1.00  0.00     0.037 A 
ATOM     26  C   UNL A   1      38.541  32.027  29.961  1.00  0.00     0.037 A 
ATOM     27  C   UNL A   1      44.944  30.765  30.288  1.00  0.00     0.049 A 
ATOM     28  C   UNL A   1      39.732  32.830  30.415  1.00  0.00     0.074 A 
ATOM     29  C   UNL A   1      45.959  31.622  30.669  1.00  0.00     0.029 A 
ATOM     30  N   UNL A   1      43.755  31.469  30.404  1.00  0.00    -0.354 N 
ATOM     31  N   UNL A   1      40.999  32.497  30.418  1.00  0.00    -0.248 NA
ATOM     32  C   UNL A   1      39.468  34.181  30.930  1.00  0.00     0.031 C 
ATOM     33  C   UNL A   1      45.383  32.835  31.052  1.00  0.00     0.029 A 
ATOM     34  C   UNL A   1      44.012  32.747  30.869  1.00  0.00     0.049 A 
ATOM     35  H   UNL A   1      42.862  31.114  30.190  1.00  0.00     0.167 HD
ATOM     36  C   UNL A   1      41.684  33.603  30.903  1.00  0.00     0.074 A 
ATOM     37  C   UNL A   1      40.695  34.622  31.177  1.00  0.00     0.031 C 
ATOM     38  C   UNL A   1      43.014  33.756  31.109  1.00  0.00     0.037 A 
BRANCH  25  39
ATOM     39  C   UNL A   1      46.410  28.785  29.787  1.00  0.00     0.064 A 
ATOM     40  C   UNL A   1      46.948  28.119  30.898  1.00  0.00     0.173 A 
ATOM     41  C   UNL A   1      47.147  28.778  28.594  1.00  0.00     0.173 A 
ATOM     42  F   UNL A   1      46.286  28.109  32.065  1.00  0.00    -0.203 F 
ATOM     43  C   UNL A   1      48.178  27.475  30.819  1.00  0.00     0.198 A 
ATOM     44  C   UNL A   1      48.365  28.109  28.511  1.00  0.00     0.198 A 
ATOM     45  F   UNL A   1      46.674  29.397  27.502  1.00  0.00    -0.203 F 
ATOM     46  F   UNL A   1      48.685  26.867  31.900  1.00  0.00    -0.200 F 
ATOM     47  C   UNL A   1      48.880  27.459  29.623  1.00  0.00     0.200 A 
ATOM     48  F   UNL A   1      49.035  28.082  27.351  1.00  0.00    -0.200 F 
ATOM     49  F   UNL A   1      50.053  26.817  29.541  1.00  0.00    -0.200 F 
ENDBRANCH  25  39
BRANCH  26  50
ATOM     50  C   UNL A   1      37.174  32.610  29.981  1.00  0.00     0.064 A 
ATOM     51  C   UNL A   1      36.324  32.409  31.078  1.00  0.00     0.173 A 
ATOM     52  C   UNL A   1      36.689  33.380  28.914  1.00  0.00     0.173 A 
ATOM     53  F   UNL A   1      36.735  31.664  32.115  1.00  0.00    -0.203 F 
ATOM     54  C   UNL A   1      35.036  32.941  31.100  1.00  0.00     0.198 A 
ATOM     55  C   UNL A   1      35.411  33.935  28.949  1.00  0.00     0.198 A 
ATOM     56  F   UNL A   1      37.462  33.606  27.842  1.00  0.00    -0.203 F 
ATOM     57  F   UNL A   1      34.231  32.698  32.143  1.00  0.00    -0.200 F 
ATOM     58  C   UNL A   1      34.583  33.709  30.039  1.00  0.00     0.200 A 
ATOM     59  F   UNL A   1      34.982  34.688  27.927  1.00  0.00    -0.200 F 
ATOM     60  F   UNL A   1      33.347  34.225  30.062  1.00  0.00    -0.200 F 
ENDBRANCH  26  50
BRANCH  38  61
ATOM     61  C   UNL A   1      43.500  35.075  31.629  1.00  0.00     0.064 A 
ATOM     62  C   UNL A   1      43.854  36.113  30.757  1.00  0.00     0.173 A 
ATOM     63  C   UNL A   1      43.486  35.341  33.006  1.00  0.00     0.173 A 
ATOM     64  F   UNL A   1      43.890  35.902  29.432  1.00  0.00    -0.203 F 
ATOM     65  C   UNL A   1      44.173  37.376  31.247  1.00  0.00     0.198 A 
ATOM     66  C   UNL A   1      43.782  36.612  33.490  1.00  0.00     0.198 A 
ATOM     67  F   UNL A   1      43.143  34.381  33.877  1.00  0.00    -0.203 F 
ATOM     68  F   UNL A   1      44.520  38.353  30.399  1.00  0.00    -0.200 F 
ATOM     69  C   UNL A   1      44.124  37.628  32.611  1.00  0.00     0.200 A 
ATOM     70  F   UNL A   1      43.713  36.858  34.806  1.00  0.00    -0.200 F 
ATOM     71  F   UNL A   1      44.399  38.854  33.077  1.00  0.00    -0.200 F 
ENDBRANCH  38  61
ENDBRANCH  12  13
ENDBRANCH   5   7
ENDBRANCH   2   3
ENDBRANCH   1   2
BRANCH   1  72
ATOM     72  C   UNL A   1      41.719  19.329  26.148  1.00  0.00     0.023 C 
BRANCH  72  73
ATOM     73  C   UNL A   1      43.183  18.901  26.299  1.00  0.00     0.116 C 
BRANCH  73  74
ATOM     74  N   UNL A   1      43.868  18.940  25.023  1.00  0.00    -0.351 N 
ATOM     75  C   UNL A   1      44.421  19.989  24.354  1.00  0.00     0.278 C 
ATOM     76  H   UNL A   1      43.945  18.070  24.567  1.00  0.00     0.163 HD
ATOM     77  O   UNL A   1      44.924  19.742  23.250  1.00  0.00    -0.268 OA
BRANCH  75  78
ATOM     78  C   UNL A   1      44.517  21.411  24.946  1.00  0.00     0.277 C 
ATOM     79  C   UNL A   1      45.834  22.145  24.658  1.00  0.00     0.111 C 
ATOM     80  N   UNL A   1      43.326  22.192  24.533  1.00  0.00    -0.332 N 
ATOM     81  C   UNL A   1      45.768  23.631  24.916  1.00  0.00    -0.029 A 
ATOM     82  C   UNL A   1      43.274  23.433  25.318  1.00  0.00     0.298 C 
ATOM     83  H   UNL A   1      42.482  21.647  24.702  1.00  0.00     0.347 HD
ATOM     84  H   UNL A   1      43.386  22.415  23.539  1.00  0.00     0.347 HD
ATOM     85  C   UNL A   1      46.926  24.408  24.780  1.00  0.00     0.050 A 
ATOM     86  C   UNL A   1      44.540  24.249  25.207  1.00  0.00     0.010 A 
ATOM     87  C   UNL A   1      46.866  25.782  24.972  1.00  0.00     0.115 A 
ATOM     88  C   UNL A   1      44.509  25.633  25.438  1.00  0.00     0.013 A 
ATOM     89  C   UNL A   1      45.670  26.400  25.316  1.00  0.00     0.046 A 
BRANCH  87  90
ATOM     90  O   UNL A   1      48.015  26.496  24.806  1.00  0.00    -0.508 OA
ATOM     91  H   UNL A   1      48.225  26.859  23.968  1.00  0.00     0.293 HD
ENDBRANCH  87  90
ENDBRANCH  75  78
ENDBRANCH  73  74
ENDBRANCH  72  73
ENDBRANCH   1  72
TORSDOF 12
ENDMDL
