MODEL 1
REMARK VINA RESULT:     -11.1      0.000      0.000
REMARK SMILES O=C(NCCCCNC(=O)c1ccc(-c2c3nc(c(-c4c(F)c(F)c(F)c(F)c4F)c4ccc([nH]4)c(-c4c(F)c(F)c(F)c(F)c4F)c4nc(c(-c5c(F)c(F)c(F)c(F)c5F)c5ccc2[nH]5)C=C4)C=C3)cc1)C1=Cc2cc(S(F)(F)(F)(F)F)cc(Br)c2O[C@H]1C(F)(F)F
REMARK SMILES IDX 6 1 5 2 4 3 3 4 1 5 2 6 74 8 75 9 90 10 76 11 89 12 77 13
REMARK SMILES IDX 88 14 78 15 86 16 85 17 87 18 91 19 92 20 93 21 94 22 79 23
REMARK SMILES IDX 80 24 81 25 82 26 83 27 84 28 7 29 8 30 9 31 10 33 11 34
REMARK SMILES IDX 12 35 73 36 13 37 72 38 14 39 15 40 16 41 66 42 17 43 71 44
REMARK SMILES IDX 65 45 67 46 18 47 70 48 64 49 63 50 19 52 51 53 31 54 50 55
REMARK SMILES IDX 32 56 35 57 49 58 68 59 33 60 34 61 48 63 69 64 36 65 20 66
REMARK SMILES IDX 21 67 29 68 22 69 23 70 27 71 30 72 24 73 25 74 28 75 26 76
REMARK SMILES IDX 52 77 53 78 61 79 54 80 55 81 59 82 62 83 56 84 57 85 60 86
REMARK SMILES IDX 58 87 37 88 38 89 46 90 39 91 40 92 44 93 47 94 41 95 42 96
REMARK SMILES IDX 45 97 43 98
REMARK H PARENT 3 7 8 32 67 51 35 62
REMARK Flexibility Score: inf
ROOT
ATOM      1  C   UNL A   1      35.795  33.224  28.371  1.00  0.00     0.023 C 
ENDROOT
BRANCH   1   2
ATOM      2  C   UNL A   1      37.207  33.354  28.918  1.00  0.00     0.023 C 
BRANCH   2   3
ATOM      3  C   UNL A   1      37.217  32.972  30.390  1.00  0.00     0.116 C 
BRANCH   3   4
ATOM      4  N   UNL A   1      37.509  34.161  31.203  1.00  0.00    -0.352 N 
ATOM      5  O   UNL A   1      37.100  35.372  33.206  1.00  0.00    -0.270 OA
ATOM      6  C   UNL A   1      36.847  34.344  32.503  1.00  0.00     0.251 C 
ATOM      7  H   UNL A   1      38.149  34.835  30.877  1.00  0.00     0.163 HD
BRANCH   6   8
ATOM      8  C   UNL A   1      35.860  33.303  33.005  1.00  0.00     0.067 C 
ATOM      9  C   UNL A   1      36.314  32.156  33.580  1.00  0.00     0.025 C 
ATOM     10  C   UNL A   1      34.365  33.543  32.865  1.00  0.00     0.314 C 
ATOM     11  C   UNL A   1      37.808  31.916  33.720  1.00  0.00     0.020 A 
ATOM     12  O   UNL A   1      38.065  34.183  34.387  1.00  0.00    -0.474 OA
ATOM     13  C   UNL A   1      38.321  30.688  33.336  1.00  0.00     0.036 A 
ATOM     14  C   UNL A   1      38.601  32.888  34.155  1.00  0.00     0.142 A 
ATOM     15  C   UNL A   1      39.666  30.482  33.723  1.00  0.00     0.109 A 
ATOM     16  C   UNL A   1      39.935  32.653  34.384  1.00  0.00     0.062 A 
ATOM     17  C   UNL A   1      40.498  31.443  34.083  1.00  0.00     0.044 A 
ATOM     18  Br  UNL A   1      41.049  34.072  35.151  1.00  0.00    -0.047 Br
BRANCH  10  19
ATOM     19  C   UNL A   1      34.128  34.887  32.196  1.00  0.00     0.429 C 
ATOM     20  F   UNL A   1      32.820  35.075  32.033  1.00  0.00    -0.167 F 
ATOM     21  F   UNL A   1      34.624  35.857  32.960  1.00  0.00    -0.167 F 
ATOM     22  F   UNL A   1      34.729  34.905  31.011  1.00  0.00    -0.167 F 
ENDBRANCH  10  19
BRANCH  15  23
ATOM     23  S   UNL A   1      40.291  28.784  33.727  1.00  0.00     0.310 S 
ATOM     24  F   UNL A   1      41.713  29.241  33.192  1.00  0.00    -0.094 F 
ATOM     25  F   UNL A   1      39.846  28.644  32.222  1.00  0.00    -0.094 F 
ATOM     26  F   UNL A   1      40.830  27.325  33.731  1.00  0.00    -0.094 F 
ATOM     27  F   UNL A   1      40.856  28.988  35.188  1.00  0.00    -0.094 F 
ATOM     28  F   UNL A   1      39.852  30.302  33.700  1.00  0.00    -0.094 F 
ENDBRANCH  15  23
ENDBRANCH   6   8
ENDBRANCH   3   4
ENDBRANCH   2   3
ENDBRANCH   1   2
BRANCH   1  29
ATOM     29  C   UNL A   1      34.975  32.333  29.290  1.00  0.00     0.116 C 
BRANCH  29  30
ATOM     30  N   UNL A   1      34.149  31.424  28.482  1.00  0.00    -0.352 N 
ATOM     31  C   UNL A   1      34.721  30.172  27.967  1.00  0.00     0.251 C 
ATOM     32  H   UNL A   1      33.211  31.654  28.287  1.00  0.00     0.163 HD
ATOM     33  O   UNL A   1      34.007  29.386  27.269  1.00  0.00    -0.269 OA
BRANCH  31  34
ATOM     34  C   UNL A   1      36.168  29.818  28.269  1.00  0.00     0.039 A 
ATOM     35  C   UNL A   1      36.516  29.330  29.518  1.00  0.00     0.014 A 
ATOM     36  C   UNL A   1      37.070  29.939  27.301  1.00  0.00     0.014 A 
ATOM     37  C   UNL A   1      37.912  29.267  29.741  1.00  0.00     0.010 A 
ATOM     38  C   UNL A   1      38.404  29.729  27.558  1.00  0.00     0.010 A 
ATOM     39  C   UNL A   1      38.825  29.303  28.787  1.00  0.00    -0.014 A 
BRANCH  39  40
ATOM     40  C   UNL A   1      40.265  28.894  29.043  1.00  0.00     0.031 A 
ATOM     41  C   UNL A   1      41.086  29.813  29.700  1.00  0.00     0.074 A 
ATOM     42  C   UNL A   1      40.700  27.666  28.574  1.00  0.00     0.049 A 
ATOM     43  N   UNL A   1      42.374  29.674  30.015  1.00  0.00    -0.248 NA
ATOM     44  C   UNL A   1      40.635  31.132  30.169  1.00  0.00     0.031 C 
ATOM     45  C   UNL A   1      39.878  26.730  27.917  1.00  0.00     0.029 A 
ATOM     46  N   UNL A   1      41.969  27.134  28.648  1.00  0.00    -0.354 N 
ATOM     47  C   UNL A   1      42.812  30.758  30.658  1.00  0.00     0.074 A 
ATOM     48  C   UNL A   1      41.701  31.715  30.760  1.00  0.00     0.031 C 
ATOM     49  C   UNL A   1      40.641  25.654  27.591  1.00  0.00     0.029 A 
ATOM     50  C   UNL A   1      41.953  25.899  28.038  1.00  0.00     0.049 A 
ATOM     51  H   UNL A   1      42.751  27.561  29.065  1.00  0.00     0.167 HD
ATOM     52  C   UNL A   1      44.092  30.987  31.164  1.00  0.00     0.037 A 
ATOM     53  C   UNL A   1      43.013  25.023  27.868  1.00  0.00     0.037 A 
ATOM     54  C   UNL A   1      45.141  30.092  31.033  1.00  0.00     0.049 A 
ATOM     55  C   UNL A   1      44.309  25.276  28.324  1.00  0.00     0.074 A 
ATOM     56  C   UNL A   1      46.437  30.304  31.544  1.00  0.00     0.029 A 
ATOM     57  N   UNL A   1      45.132  28.868  30.401  1.00  0.00    -0.354 N 
ATOM     58  N   UNL A   1      44.736  26.344  29.001  1.00  0.00    -0.248 NA
ATOM     59  C   UNL A   1      45.447  24.369  28.123  1.00  0.00     0.031 C 
ATOM     60  C   UNL A   1      47.200  29.228  31.217  1.00  0.00     0.029 A 
ATOM     61  C   UNL A   1      46.394  28.325  30.496  1.00  0.00     0.049 A 
ATOM     62  H   UNL A   1      44.357  28.453  29.959  1.00  0.00     0.167 HD
ATOM     63  C   UNL A   1      46.036  26.222  29.280  1.00  0.00     0.074 A 
ATOM     64  C   UNL A   1      46.513  24.954  28.712  1.00  0.00     0.031 C 
ATOM     65  C   UNL A   1      46.841  27.115  29.988  1.00  0.00     0.037 A 
BRANCH  52  66
ATOM     66  C   UNL A   1      44.350  32.293  31.900  1.00  0.00     0.064 A 
ATOM     67  C   UNL A   1      44.618  33.491  31.260  1.00  0.00     0.173 A 
ATOM     68  C   UNL A   1      44.213  32.231  33.220  1.00  0.00     0.173 A 
ATOM     69  F   UNL A   1      44.513  33.650  29.944  1.00  0.00    -0.203 F 
ATOM     70  C   UNL A   1      45.015  34.531  32.134  1.00  0.00     0.198 A 
ATOM     71  C   UNL A   1      44.487  33.328  34.002  1.00  0.00     0.198 A 
ATOM     72  F   UNL A   1      43.808  31.100  33.789  1.00  0.00    -0.203 F 
ATOM     73  F   UNL A   1      45.630  35.584  31.603  1.00  0.00    -0.200 F 
ATOM     74  C   UNL A   1      44.816  34.529  33.439  1.00  0.00     0.200 A 
ATOM     75  F   UNL A   1      44.430  33.217  35.327  1.00  0.00    -0.200 F 
ATOM     76  F   UNL A   1      44.932  35.636  34.168  1.00  0.00    -0.200 F 
ENDBRANCH  52  66
BRANCH  53  77
ATOM     77  C   UNL A   1      42.751  23.711  27.148  1.00  0.00     0.064 A 
ATOM     78  C   UNL A   1      42.289  22.622  27.868  1.00  0.00     0.173 A 
ATOM     79  C   UNL A   1      43.087  23.597  25.868  1.00  0.00     0.173 A 
ATOM     80  F   UNL A   1      41.707  22.734  29.059  1.00  0.00    -0.203 F 
ATOM     81  C   UNL A   1      42.490  21.379  27.223  1.00  0.00     0.198 A 
ATOM     82  C   UNL A   1      43.132  22.364  25.263  1.00  0.00     0.198 A 
ATOM     83  F   UNL A   1      43.383  24.686  25.165  1.00  0.00    -0.203 F 
ATOM     84  F   UNL A   1      42.417  20.277  27.964  1.00  0.00    -0.200 F 
ATOM     85  C   UNL A   1      42.745  21.237  25.934  1.00  0.00     0.200 A 
ATOM     86  F   UNL A   1      43.558  22.265  24.007  1.00  0.00    -0.200 F 
ATOM     87  F   UNL A   1      42.632  20.061  25.323  1.00  0.00    -0.200 F 
ENDBRANCH  53  77
BRANCH  65  88
ATOM     88  C   UNL A   1      48.296  26.739  30.216  1.00  0.00     0.064 A 
ATOM     89  C   UNL A   1      49.274  27.215  29.358  1.00  0.00     0.173 A 
ATOM     90  C   UNL A   1      48.606  25.985  31.264  1.00  0.00     0.173 A 
ATOM     91  F   UNL A   1      49.048  28.165  28.456  1.00  0.00    -0.203 F 
ATOM     92  C   UNL A   1      50.536  26.598  29.529  1.00  0.00     0.198 A 
ATOM     93  C   UNL A   1      49.890  25.529  31.443  1.00  0.00     0.198 A 
ATOM     94  F   UNL A   1      47.666  25.670  32.150  1.00  0.00    -0.203 F 
ATOM     95  F   UNL A   1      51.421  26.718  28.544  1.00  0.00    -0.200 F 
ATOM     96  C   UNL A   1      50.895  25.913  30.599  1.00  0.00     0.200 A 
ATOM     97  F   UNL A   1      50.158  24.704  32.451  1.00  0.00    -0.200 F 
ATOM     98  F   UNL A   1      52.168  25.611  30.843  1.00  0.00    -0.200 F 
ENDBRANCH  65  88
ENDBRANCH  39  40
ENDBRANCH  31  34
ENDBRANCH  29  30
ENDBRANCH   1  29
TORSDOF 13
ENDMDL
MODEL 2
REMARK VINA RESULT:     -11.0      0.307      7.096
REMARK SMILES O=C(NCCCCNC(=O)c1ccc(-c2c3nc(c(-c4c(F)c(F)c(F)c(F)c4F)c4ccc([nH]4)c(-c4c(F)c(F)c(F)c(F)c4F)c4nc(c(-c5c(F)c(F)c(F)c(F)c5F)c5ccc2[nH]5)C=C4)C=C3)cc1)C1=Cc2cc(S(F)(F)(F)(F)F)cc(Br)c2O[C@H]1C(F)(F)F
REMARK SMILES IDX 6 1 5 2 4 3 3 4 1 5 2 6 74 8 75 9 90 10 76 11 89 12 77 13
REMARK SMILES IDX 88 14 78 15 86 16 85 17 87 18 91 19 92 20 93 21 94 22 79 23
REMARK SMILES IDX 80 24 81 25 82 26 83 27 84 28 7 29 8 30 9 31 10 33 11 34
REMARK SMILES IDX 12 35 73 36 13 37 72 38 14 39 15 40 16 41 66 42 17 43 71 44
REMARK SMILES IDX 65 45 67 46 18 47 70 48 64 49 63 50 19 52 51 53 31 54 50 55
REMARK SMILES IDX 32 56 35 57 49 58 68 59 33 60 34 61 48 63 69 64 36 65 20 66
REMARK SMILES IDX 21 67 29 68 22 69 23 70 27 71 30 72 24 73 25 74 28 75 26 76
REMARK SMILES IDX 52 77 53 78 61 79 54 80 55 81 59 82 62 83 56 84 57 85 60 86
REMARK SMILES IDX 58 87 37 88 38 89 46 90 39 91 40 92 44 93 47 94 41 95 42 96
REMARK SMILES IDX 45 97 43 98
REMARK H PARENT 3 7 8 32 67 51 35 62
REMARK Flexibility Score: inf
ROOT
ATOM      1  C   UNL A   1      35.713  33.146  28.311  1.00  0.00     0.023 C 
ENDROOT
BRANCH   1   2
ATOM      2  C   UNL A   1      37.107  33.382  28.868  1.00  0.00     0.023 C 
BRANCH   2   3
ATOM      3  C   UNL A   1      37.137  33.001  30.339  1.00  0.00     0.116 C 
BRANCH   3   4
ATOM      4  N   UNL A   1      37.432  34.193  31.148  1.00  0.00    -0.352 N 
ATOM      5  O   UNL A   1      37.054  35.393  33.163  1.00  0.00    -0.270 OA
ATOM      6  C   UNL A   1      36.799  34.363  32.464  1.00  0.00     0.251 C 
ATOM      7  H   UNL A   1      38.053  34.877  30.808  1.00  0.00     0.163 HD
BRANCH   6   8
ATOM      8  C   UNL A   1      35.840  33.307  32.988  1.00  0.00     0.067 C 
ATOM      9  C   UNL A   1      36.324  32.171  33.561  1.00  0.00     0.025 C 
ATOM     10  C   UNL A   1      34.339  33.519  32.871  1.00  0.00     0.314 C 
ATOM     11  C   UNL A   1      37.825  31.959  33.677  1.00  0.00     0.020 A 
ATOM     12  O   UNL A   1      38.051  34.234  34.328  1.00  0.00    -0.474 OA
ATOM     13  C   UNL A   1      38.354  30.739  33.290  1.00  0.00     0.036 A 
ATOM     14  C   UNL A   1      38.607  32.948  34.094  1.00  0.00     0.142 A 
ATOM     15  C   UNL A   1      39.709  30.560  33.657  1.00  0.00     0.109 A 
ATOM     16  C   UNL A   1      39.949  32.739  34.302  1.00  0.00     0.062 A 
ATOM     17  C   UNL A   1      40.528  31.538  33.997  1.00  0.00     0.044 A 
ATOM     18  Br  UNL A   1      41.048  34.182  35.044  1.00  0.00    -0.047 Br
BRANCH  10  19
ATOM     19  C   UNL A   1      34.066  34.854  32.200  1.00  0.00     0.429 C 
ATOM     20  F   UNL A   1      32.752  35.046  32.113  1.00  0.00    -0.167 F 
ATOM     21  F   UNL A   1      34.610  35.832  32.919  1.00  0.00    -0.167 F 
ATOM     22  F   UNL A   1      34.594  34.854  30.980  1.00  0.00    -0.167 F 
ENDBRANCH  10  19
BRANCH  15  23
ATOM     23  S   UNL A   1      40.365  28.874  33.659  1.00  0.00     0.310 S 
ATOM     24  F   UNL A   1      41.802  29.367  33.202  1.00  0.00    -0.094 F 
ATOM     25  F   UNL A   1      39.996  28.756  32.131  1.00  0.00    -0.094 F 
ATOM     26  F   UNL A   1      40.931  27.425  33.661  1.00  0.00    -0.094 F 
ATOM     27  F   UNL A   1      40.855  29.058  35.149  1.00  0.00    -0.094 F 
ATOM     28  F   UNL A   1      39.899  30.384  33.639  1.00  0.00    -0.094 F 
ENDBRANCH  15  23
ENDBRANCH   6   8
ENDBRANCH   3   4
ENDBRANCH   2   3
ENDBRANCH   1   2
BRANCH   1  29
ATOM     29  C   UNL A   1      34.915  32.296  29.287  1.00  0.00     0.116 C 
BRANCH  29  30
ATOM     30  N   UNL A   1      34.096  31.330  28.541  1.00  0.00    -0.352 N 
ATOM     31  C   UNL A   1      34.694  30.077  28.058  1.00  0.00     0.251 C 
ATOM     32  H   UNL A   1      33.147  31.523  28.364  1.00  0.00     0.163 HD
ATOM     33  O   UNL A   1      33.987  29.242  27.413  1.00  0.00    -0.269 OA
BRANCH  31  34
ATOM     34  C   UNL A   1      36.160  29.781  28.332  1.00  0.00     0.039 A 
ATOM     35  C   UNL A   1      36.554  29.330  29.581  1.00  0.00     0.014 A 
ATOM     36  C   UNL A   1      37.034  29.916  27.341  1.00  0.00     0.014 A 
ATOM     37  C   UNL A   1      37.956  29.320  29.771  1.00  0.00     0.010 A 
ATOM     38  C   UNL A   1      38.380  29.758  27.569  1.00  0.00     0.010 A 
ATOM     39  C   UNL A   1      38.844  29.372  28.795  1.00  0.00    -0.014 A 
BRANCH  39  40
ATOM     40  C   UNL A   1      40.305  29.019  29.024  1.00  0.00     0.031 A 
ATOM     41  C   UNL A   1      40.730  27.752  28.619  1.00  0.00     0.074 A 
ATOM     42  C   UNL A   1      41.119  29.942  29.658  1.00  0.00     0.049 A 
ATOM     43  N   UNL A   1      41.951  27.229  28.731  1.00  0.00    -0.248 NA
ATOM     44  C   UNL A   1      39.858  26.757  27.975  1.00  0.00     0.031 C 
ATOM     45  C   UNL A   1      40.702  31.224  30.062  1.00  0.00     0.029 A 
ATOM     46  N   UNL A   1      42.444  29.799  30.009  1.00  0.00    -0.354 N 
ATOM     47  C   UNL A   1      41.976  26.000  28.212  1.00  0.00     0.074 A 
ATOM     48  C   UNL A   1      40.628  25.677  27.725  1.00  0.00     0.031 C 
ATOM     49  C   UNL A   1      41.755  31.843  30.658  1.00  0.00     0.029 A 
ATOM     50  C   UNL A   1      42.849  30.957  30.636  1.00  0.00     0.049 A 
ATOM     51  H   UNL A   1      43.004  29.008  29.842  1.00  0.00     0.167 HD
ATOM     52  C   UNL A   1      43.069  25.136  28.125  1.00  0.00     0.037 A 
ATOM     53  C   UNL A   1      44.096  31.243  31.168  1.00  0.00     0.037 A 
ATOM     54  C   UNL A   1      44.328  25.438  28.618  1.00  0.00     0.049 A 
ATOM     55  C   UNL A   1      45.175  30.356  31.133  1.00  0.00     0.074 A 
ATOM     56  C   UNL A   1      45.443  24.583  28.532  1.00  0.00     0.029 A 
ATOM     57  N   UNL A   1      44.726  26.586  29.267  1.00  0.00    -0.354 N 
ATOM     58  N   UNL A   1      45.210  29.142  30.580  1.00  0.00    -0.248 NA
ATOM     59  C   UNL A   1      46.492  30.635  31.721  1.00  0.00     0.031 C 
ATOM     60  C   UNL A   1      46.496  25.201  29.128  1.00  0.00     0.029 A 
ATOM     61  C   UNL A   1      46.057  26.454  29.598  1.00  0.00     0.049 A 
ATOM     62  H   UNL A   1      44.159  27.366  29.461  1.00  0.00     0.167 HD
ATOM     63  C   UNL A   1      46.421  28.603  30.729  1.00  0.00     0.074 A 
ATOM     64  C   UNL A   1      47.261  29.552  31.473  1.00  0.00     0.031 C 
ATOM     65  C   UNL A   1      46.861  27.360  30.272  1.00  0.00     0.037 A 
BRANCH  52  66
ATOM     66  C   UNL A   1      42.866  23.788  27.452  1.00  0.00     0.064 A 
ATOM     67  C   UNL A   1      42.386  22.669  28.111  1.00  0.00     0.173 A 
ATOM     68  C   UNL A   1      43.100  23.771  26.145  1.00  0.00     0.173 A 
ATOM     69  F   UNL A   1      41.902  22.709  29.349  1.00  0.00    -0.203 F 
ATOM     70  C   UNL A   1      42.458  21.479  27.348  1.00  0.00     0.198 A 
ATOM     71  C   UNL A   1      43.020  22.596  25.436  1.00  0.00     0.198 A 
ATOM     72  F   UNL A   1      43.416  24.899  25.517  1.00  0.00    -0.203 F 
ATOM     73  F   UNL A   1      42.366  20.322  27.997  1.00  0.00    -0.200 F 
ATOM     74  C   UNL A   1      42.608  21.439  26.037  1.00  0.00     0.200 A 
ATOM     75  F   UNL A   1      43.346  22.586  24.146  1.00  0.00    -0.200 F 
ATOM     76  F   UNL A   1      42.374  20.331  25.338  1.00  0.00    -0.200 F 
ENDBRANCH  52  66
BRANCH  53  77
ATOM     77  C   UNL A   1      44.303  32.597  31.826  1.00  0.00     0.064 A 
ATOM     78  C   UNL A   1      44.684  33.678  31.048  1.00  0.00     0.173 A 
ATOM     79  C   UNL A   1      44.235  32.691  33.149  1.00  0.00     0.173 A 
ATOM     80  F   UNL A   1      44.525  33.713  29.728  1.00  0.00    -0.203 F 
ATOM     81  C   UNL A   1      45.258  34.741  31.784  1.00  0.00     0.198 A 
ATOM     82  C   UNL A   1      44.690  33.816  33.795  1.00  0.00     0.198 A 
ATOM     83  F   UNL A   1      43.724  31.687  33.856  1.00  0.00    -0.203 F 
ATOM     84  F   UNL A   1      45.969  35.644  31.115  1.00  0.00    -0.200 F 
ATOM     85  C   UNL A   1      45.135  34.899  33.090  1.00  0.00     0.200 A 
ATOM     86  F   UNL A   1      44.695  33.851  35.124  1.00  0.00    -0.200 F 
ATOM     87  F   UNL A   1      45.431  36.051  33.687  1.00  0.00    -0.200 F 
ENDBRANCH  53  77
BRANCH  65  88
ATOM     88  C   UNL A   1      48.309  26.975  30.530  1.00  0.00     0.064 A 
ATOM     89  C   UNL A   1      49.298  27.377  29.647  1.00  0.00     0.173 A 
ATOM     90  C   UNL A   1      48.602  26.289  31.628  1.00  0.00     0.173 A 
ATOM     91  F   UNL A   1      49.091  28.268  28.683  1.00  0.00    -0.203 F 
ATOM     92  C   UNL A   1      50.548  26.751  29.865  1.00  0.00     0.198 A 
ATOM     93  C   UNL A   1      49.878  25.824  31.842  1.00  0.00     0.198 A 
ATOM     94  F   UNL A   1      47.654  26.049  32.529  1.00  0.00    -0.203 F 
ATOM     95  F   UNL A   1      51.439  26.790  28.877  1.00  0.00    -0.200 F 
ATOM     96  C   UNL A   1      50.892  26.133  30.980  1.00  0.00     0.200 A 
ATOM     97  F   UNL A   1      50.129  25.063  32.904  1.00  0.00    -0.200 F 
ATOM     98  F   UNL A   1      52.158  25.826  31.249  1.00  0.00    -0.200 F 
ENDBRANCH  65  88
ENDBRANCH  39  40
ENDBRANCH  31  34
ENDBRANCH  29  30
ENDBRANCH   1  29
TORSDOF 13
ENDMDL
MODEL 3
REMARK VINA RESULT:     -10.9      4.854     10.659
REMARK SMILES O=C(NCCCCNC(=O)c1ccc(-c2c3nc(c(-c4c(F)c(F)c(F)c(F)c4F)c4ccc([nH]4)c(-c4c(F)c(F)c(F)c(F)c4F)c4nc(c(-c5c(F)c(F)c(F)c(F)c5F)c5ccc2[nH]5)C=C4)C=C3)cc1)C1=Cc2cc(S(F)(F)(F)(F)F)cc(Br)c2O[C@H]1C(F)(F)F
REMARK SMILES IDX 6 1 5 2 4 3 3 4 1 5 2 6 74 8 75 9 90 10 76 11 89 12 77 13
REMARK SMILES IDX 88 14 78 15 86 16 85 17 87 18 91 19 92 20 93 21 94 22 79 23
REMARK SMILES IDX 80 24 81 25 82 26 83 27 84 28 7 29 8 30 9 31 10 33 11 34
REMARK SMILES IDX 12 35 73 36 13 37 72 38 14 39 15 40 16 41 66 42 17 43 71 44
REMARK SMILES IDX 65 45 67 46 18 47 70 48 64 49 63 50 19 52 51 53 31 54 50 55
REMARK SMILES IDX 32 56 35 57 49 58 68 59 33 60 34 61 48 63 69 64 36 65 20 66
REMARK SMILES IDX 21 67 29 68 22 69 23 70 27 71 30 72 24 73 25 74 28 75 26 76
REMARK SMILES IDX 52 77 53 78 61 79 54 80 55 81 59 82 62 83 56 84 57 85 60 86
REMARK SMILES IDX 58 87 37 88 38 89 46 90 39 91 40 92 44 93 47 94 41 95 42 96
REMARK SMILES IDX 45 97 43 98
REMARK H PARENT 3 7 8 32 67 51 35 62
REMARK Flexibility Score: inf
ROOT
ATOM      1  C   UNL A   1      35.836  23.272  25.372  1.00  0.00     0.023 C 
ENDROOT
BRANCH   1   2
ATOM      2  C   UNL A   1      35.369  23.657  23.978  1.00  0.00     0.023 C 
BRANCH   2   3
ATOM      3  C   UNL A   1      34.353  24.783  24.077  1.00  0.00     0.116 C 
BRANCH   3   4
ATOM      4  N   UNL A   1      33.096  24.366  23.438  1.00  0.00    -0.352 N 
ATOM      5  O   UNL A   1      30.913  23.468  23.703  1.00  0.00    -0.270 OA
ATOM      6  C   UNL A   1      31.999  23.828  24.255  1.00  0.00     0.251 C 
ATOM      7  H   UNL A   1      32.989  24.448  22.463  1.00  0.00     0.163 HD
BRANCH   6   8
ATOM      8  C   UNL A   1      32.165  23.702  25.761  1.00  0.00     0.067 C 
ATOM      9  C   UNL A   1      32.126  24.813  26.546  1.00  0.00     0.025 C 
ATOM     10  C   UNL A   1      32.376  22.334  26.390  1.00  0.00     0.314 C 
ATOM     11  C   UNL A   1      31.916  26.181  25.916  1.00  0.00     0.020 A 
ATOM     12  O   UNL A   1      30.256  25.227  24.507  1.00  0.00    -0.474 OA
ATOM     13  C   UNL A   1      32.748  27.221  26.296  1.00  0.00     0.036 A 
ATOM     14  C   UNL A   1      30.982  26.349  24.987  1.00  0.00     0.142 A 
ATOM     15  C   UNL A   1      32.324  28.490  25.839  1.00  0.00     0.109 A 
ATOM     16  C   UNL A   1      30.712  27.600  24.485  1.00  0.00     0.062 A 
ATOM     17  C   UNL A   1      31.457  28.684  24.861  1.00  0.00     0.044 A 
ATOM     18  Br  UNL A   1      29.240  27.833  23.213  1.00  0.00    -0.047 Br
BRANCH  10  19
ATOM     19  C   UNL A   1      32.380  21.271  25.305  1.00  0.00     0.429 C 
ATOM     20  F   UNL A   1      32.738  20.102  25.830  1.00  0.00    -0.167 F 
ATOM     21  F   UNL A   1      31.161  21.167  24.781  1.00  0.00    -0.167 F 
ATOM     22  F   UNL A   1      33.243  21.611  24.353  1.00  0.00    -0.167 F 
ENDBRANCH  10  19
BRANCH  15  23
ATOM     23  S   UNL A   1      33.016  29.952  26.651  1.00  0.00     0.310 S 
ATOM     24  F   UNL A   1      33.354  29.136  27.969  1.00  0.00    -0.094 F 
ATOM     25  F   UNL A   1      31.600  30.243  27.277  1.00  0.00    -0.094 F 
ATOM     26  F   UNL A   1      33.613  31.207  27.349  1.00  0.00    -0.094 F 
ATOM     27  F   UNL A   1      34.457  29.567  26.130  1.00  0.00    -0.094 F 
ATOM     28  F   UNL A   1      32.449  28.613  26.031  1.00  0.00    -0.094 F 
ENDBRANCH  15  23
ENDBRANCH   6   8
ENDBRANCH   3   4
ENDBRANCH   2   3
ENDBRANCH   1   2
BRANCH   1  29
ATOM     29  C   UNL A   1      37.205  23.879  25.634  1.00  0.00     0.116 C 
BRANCH  29  30
ATOM     30  N   UNL A   1      38.234  22.835  25.525  1.00  0.00    -0.352 N 
ATOM     31  C   UNL A   1      39.549  23.031  26.151  1.00  0.00     0.251 C 
ATOM     32  H   UNL A   1      38.041  22.004  25.033  1.00  0.00     0.163 HD
ATOM     33  O   UNL A   1      40.439  22.128  26.057  1.00  0.00    -0.269 OA
BRANCH  31  34
ATOM     34  C   UNL A   1      39.846  24.314  26.910  1.00  0.00     0.039 A 
ATOM     35  C   UNL A   1      39.525  24.413  28.254  1.00  0.00     0.014 A 
ATOM     36  C   UNL A   1      40.457  25.305  26.272  1.00  0.00     0.014 A 
ATOM     37  C   UNL A   1      39.633  25.724  28.774  1.00  0.00     0.010 A 
ATOM     38  C   UNL A   1      40.652  26.518  26.889  1.00  0.00     0.010 A 
ATOM     39  C   UNL A   1      40.305  26.705  28.198  1.00  0.00    -0.014 A 
BRANCH  39  40
ATOM     40  C   UNL A   1      40.672  27.973  28.951  1.00  0.00     0.031 A 
ATOM     41  C   UNL A   1      41.969  28.065  29.460  1.00  0.00     0.074 A 
ATOM     42  C   UNL A   1      39.699  28.941  29.135  1.00  0.00     0.049 A 
ATOM     43  N   UNL A   1      42.501  29.070  30.156  1.00  0.00    -0.248 NA
ATOM     44  C   UNL A   1      42.994  27.023  29.295  1.00  0.00     0.031 C 
ATOM     45  C   UNL A   1      38.391  28.861  28.619  1.00  0.00     0.029 A 
ATOM     46  N   UNL A   1      39.806  30.125  29.830  1.00  0.00    -0.354 N 
ATOM     47  C   UNL A   1      43.774  28.803  30.452  1.00  0.00     0.074 A 
ATOM     48  C   UNL A   1      44.107  27.479  29.907  1.00  0.00     0.031 C 
ATOM     49  C   UNL A   1      37.716  29.974  29.006  1.00  0.00     0.029 A 
ATOM     50  C   UNL A   1      38.590  30.770  29.770  1.00  0.00     0.049 A 
ATOM     51  H   UNL A   1      40.611  30.454  30.290  1.00  0.00     0.167 HD
ATOM     52  C   UNL A   1      44.671  29.611  31.152  1.00  0.00     0.037 A 
ATOM     53  C   UNL A   1      38.243  31.982  30.345  1.00  0.00     0.037 A 
ATOM     54  C   UNL A   1      44.337  30.843  31.690  1.00  0.00     0.049 A 
ATOM     55  C   UNL A   1      39.124  32.764  31.096  1.00  0.00     0.074 A 
ATOM     56  C   UNL A   1      45.231  31.674  32.392  1.00  0.00     0.029 A 
ATOM     57  N   UNL A   1      43.114  31.476  31.651  1.00  0.00    -0.354 N 
ATOM     58  N   UNL A   1      40.408  32.515  31.358  1.00  0.00    -0.248 NA
ATOM     59  C   UNL A   1      38.758  34.035  31.737  1.00  0.00     0.031 C 
ATOM     60  C   UNL A   1      44.555  32.788  32.780  1.00  0.00     0.029 A 
ATOM     61  C   UNL A   1      43.227  32.671  32.326  1.00  0.00     0.049 A 
ATOM     62  H   UNL A   1      42.300  31.134  31.216  1.00  0.00     0.167 HD
ATOM     63  C   UNL A   1      40.928  33.502  32.090  1.00  0.00     0.074 A 
ATOM     64  C   UNL A   1      39.872  34.490  32.351  1.00  0.00     0.031 C 
ATOM     65  C   UNL A   1      42.241  33.620  32.548  1.00  0.00     0.037 A 
BRANCH  52  66
ATOM     66  C   UNL A   1      46.095  29.110  31.335  1.00  0.00     0.064 A 
ATOM     67  C   UNL A   1      46.489  28.289  32.378  1.00  0.00     0.173 A 
ATOM     68  C   UNL A   1      46.939  29.445  30.365  1.00  0.00     0.173 A 
ATOM     69  F   UNL A   1      45.628  27.726  33.223  1.00  0.00    -0.203 F 
ATOM     70  C   UNL A   1      47.889  28.102  32.465  1.00  0.00     0.198 A 
ATOM     71  C   UNL A   1      48.270  29.111  30.451  1.00  0.00     0.198 A 
ATOM     72  F   UNL A   1      46.492  30.108  29.303  1.00  0.00    -0.203 F 
ATOM     73  F   UNL A   1      48.382  27.644  33.612  1.00  0.00    -0.200 F 
ATOM     74  C   UNL A   1      48.739  28.351  31.486  1.00  0.00     0.200 A 
ATOM     75  F   UNL A   1      49.112  29.535  29.512  1.00  0.00    -0.200 F 
ATOM     76  F   UNL A   1      49.986  27.888  31.505  1.00  0.00    -0.200 F 
ENDBRANCH  52  66
BRANCH  53  77
ATOM     77  C   UNL A   1      36.824  32.490  30.147  1.00  0.00     0.064 A 
ATOM     78  C   UNL A   1      36.537  33.293  29.055  1.00  0.00     0.173 A 
ATOM     79  C   UNL A   1      35.916  32.257  31.089  1.00  0.00     0.173 A 
ATOM     80  F   UNL A   1      37.310  33.350  27.975  1.00  0.00    -0.203 F 
ATOM     81  C   UNL A   1      35.347  34.046  29.194  1.00  0.00     0.198 A 
ATOM     82  C   UNL A   1      34.718  32.930  31.087  1.00  0.00     0.198 A 
ATOM     83  F   UNL A   1      36.169  31.366  32.043  1.00  0.00    -0.203 F 
ATOM     84  F   UNL A   1      35.177  35.089  28.386  1.00  0.00    -0.200 F 
ATOM     85  C   UNL A   1      34.393  33.784  30.069  1.00  0.00     0.200 A 
ATOM     86  F   UNL A   1      33.862  32.748  32.088  1.00  0.00    -0.200 F 
ATOM     87  F   UNL A   1      33.181  34.323  29.966  1.00  0.00    -0.200 F 
ENDBRANCH  53  77
BRANCH  65  88
ATOM     88  C   UNL A   1      42.612  34.864  33.339  1.00  0.00     0.064 A 
ATOM     89  C   UNL A   1      42.475  34.872  34.717  1.00  0.00     0.173 A 
ATOM     90  C   UNL A   1      43.101  35.913  32.689  1.00  0.00     0.173 A 
ATOM     91  F   UNL A   1      42.234  33.775  35.429  1.00  0.00    -0.203 F 
ATOM     92  C   UNL A   1      42.615  36.154  35.300  1.00  0.00     0.198 A 
ATOM     93  C   UNL A   1      43.343  37.095  33.349  1.00  0.00     0.198 A 
ATOM     94  F   UNL A   1      43.361  35.821  31.389  1.00  0.00    -0.203 F 
ATOM     95  F   UNL A   1      42.153  36.325  36.535  1.00  0.00    -0.200 F 
ATOM     96  C   UNL A   1      43.172  37.191  34.702  1.00  0.00     0.200 A 
ATOM     97  F   UNL A   1      43.748  38.159  32.662  1.00  0.00    -0.200 F 
ATOM     98  F   UNL A   1      43.547  38.272  35.380  1.00  0.00    -0.200 F 
ENDBRANCH  65  88
ENDBRANCH  39  40
ENDBRANCH  31  34
ENDBRANCH  29  30
ENDBRANCH   1  29
TORSDOF 13
ENDMDL
