MODEL 1
REMARK VINA RESULT:     -11.8      0.000      0.000
REMARK SMILES O=C(CSc1ccnc(C(=O)NCCCCNC(=O)c2ccc(-c3c4nc(c(-c5c(F)c(F)c(F)c(F)c5F)c5ccc([nH]5)c(-c5c(F)c(F)c(F)c(F)c5F)c5nc(c(-c6c(F)c(F)c(F)c(F)c6F)c6ccc3[nH]6)C=C5)C=C4)cc2)c1)NCC(F)(F)F
REMARK SMILES IDX 13 1 12 2 10 3 11 4 9 6 5 7 6 8 83 9 7 10 8 11 4 12 3 13
REMARK SMILES IDX 2 14 1 15 84 16 85 18 86 19 87 20 88 21 89 22 14 23 15 24
REMARK SMILES IDX 16 25 17 26 18 27 19 29 20 30 21 31 82 32 22 33 81 34 23 35
REMARK SMILES IDX 24 36 25 37 75 38 26 39 80 40 74 41 76 42 27 43 79 44 73 45
REMARK SMILES IDX 72 46 28 48 60 49 40 50 59 51 41 52 44 53 58 54 77 55 42 56
REMARK SMILES IDX 43 57 57 59 78 60 45 61 29 62 30 63 38 64 31 65 32 66 36 67
REMARK SMILES IDX 39 68 33 69 34 70 37 71 35 72 61 73 62 74 70 75 63 76 64 77
REMARK SMILES IDX 68 78 71 79 65 80 66 81 69 82 67 83 46 84 47 85 55 86 48 87
REMARK SMILES IDX 49 88 53 89 56 90 50 91 51 92 54 93 52 94
REMARK H PARENT 12 5 84 17 17 28 76 47 44 58
REMARK Flexibility Score: inf
ROOT
ATOM      1  C   UNL A   1      37.106  22.532  25.617  1.00  0.00     0.116 C 
ENDROOT
BRANCH   1   2
ATOM      2  N   UNL A   1      35.951  22.517  26.486  1.00  0.00    -0.351 N 
ATOM      3  C   UNL A   1      34.743  23.176  26.496  1.00  0.00     0.269 C 
ATOM      4  O   UNL A   1      34.002  22.876  27.438  1.00  0.00    -0.268 OA
ATOM      5  H   UNL A   1      36.052  21.895  27.242  1.00  0.00     0.163 HD
BRANCH   3   6
ATOM      6  C   UNL A   1      34.269  24.180  25.469  1.00  0.00     0.129 A 
ATOM      7  C   UNL A   1      33.421  26.285  24.679  1.00  0.00     0.012 A 
ATOM      8  C   UNL A   1      33.526  25.822  23.374  1.00  0.00     0.035 A 
ATOM      9  C   UNL A   1      33.742  25.434  25.743  1.00  0.00     0.049 A 
ATOM     10  C   UNL A   1      33.997  24.541  23.180  1.00  0.00     0.113 A 
ATOM     11  N   UNL A   1      34.384  23.734  24.187  1.00  0.00    -0.251 NA
BRANCH   7  12
ATOM     12  S   UNL A   1      32.821  27.944  24.973  1.00  0.00    -0.116 SA
BRANCH  12  13
ATOM     13  C   UNL A   1      32.649  28.548  23.251  1.00  0.00     0.174 C 
BRANCH  13  14
ATOM     14  C   UNL A   1      31.186  28.613  22.850  1.00  0.00     0.230 C 
ATOM     15  O   UNL A   1      30.653  27.755  22.152  1.00  0.00    -0.274 OA
ATOM     16  N   UNL A   1      30.507  29.713  23.320  1.00  0.00    -0.346 N 
ATOM     17  H   UNL A   1      30.972  30.331  23.929  1.00  0.00     0.163 HD
BRANCH  16  18
ATOM     18  C   UNL A   1      29.119  30.003  22.951  1.00  0.00     0.231 C 
BRANCH  18  19
ATOM     19  C   UNL A   1      28.587  31.355  23.417  1.00  0.00     0.405 C 
ATOM     20  F   UNL A   1      27.423  31.187  24.092  1.00  0.00    -0.169 F 
ATOM     21  F   UNL A   1      29.453  31.947  24.266  1.00  0.00    -0.169 F 
ATOM     22  F   UNL A   1      28.349  32.187  22.385  1.00  0.00    -0.169 F 
ENDBRANCH  18  19
ENDBRANCH  16  18
ENDBRANCH  13  14
ENDBRANCH  12  13
ENDBRANCH   7  12
ENDBRANCH   3   6
ENDBRANCH   1   2
BRANCH   1  23
ATOM     23  C   UNL A   1      37.042  21.380  24.614  1.00  0.00     0.023 C 
BRANCH  23  24
ATOM     24  C   UNL A   1      37.840  20.133  25.016  1.00  0.00     0.023 C 
BRANCH  24  25
ATOM     25  C   UNL A   1      39.079  20.385  25.871  1.00  0.00     0.116 C 
BRANCH  25  26
ATOM     26  N   UNL A   1      40.024  19.278  25.880  1.00  0.00    -0.352 N 
ATOM     27  C   UNL A   1      41.375  19.310  26.122  1.00  0.00     0.251 C 
ATOM     28  H   UNL A   1      39.645  18.391  25.687  1.00  0.00     0.163 HD
ATOM     29  O   UNL A   1      42.039  18.279  26.091  1.00  0.00    -0.269 OA
BRANCH  27  30
ATOM     30  C   UNL A   1      42.016  20.609  26.389  1.00  0.00     0.039 A 
ATOM     31  C   UNL A   1      42.383  21.423  25.315  1.00  0.00     0.014 A 
ATOM     32  C   UNL A   1      42.195  21.039  27.705  1.00  0.00     0.014 A 
ATOM     33  C   UNL A   1      42.874  22.705  25.564  1.00  0.00     0.010 A 
ATOM     34  C   UNL A   1      42.612  22.339  27.949  1.00  0.00     0.010 A 
ATOM     35  C   UNL A   1      42.963  23.180  26.882  1.00  0.00    -0.014 A 
BRANCH  35  36
ATOM     36  C   UNL A   1      43.464  24.541  27.185  1.00  0.00     0.031 A 
ATOM     37  C   UNL A   1      42.519  25.560  27.754  1.00  0.00     0.074 A 
ATOM     38  C   UNL A   1      44.731  24.874  26.871  1.00  0.00     0.049 A 
ATOM     39  N   UNL A   1      42.709  26.833  27.984  1.00  0.00    -0.248 NA
ATOM     40  C   UNL A   1      41.160  25.089  28.069  1.00  0.00     0.031 C 
ATOM     41  C   UNL A   1      45.717  23.978  26.268  1.00  0.00     0.029 A 
ATOM     42  N   UNL A   1      45.399  26.065  27.001  1.00  0.00    -0.354 N 
ATOM     43  C   UNL A   1      41.491  27.317  28.444  1.00  0.00     0.074 A 
ATOM     44  C   UNL A   1      40.554  26.217  28.407  1.00  0.00     0.031 C 
ATOM     45  C   UNL A   1      46.871  24.645  26.097  1.00  0.00     0.029 A 
ATOM     46  C   UNL A   1      46.695  26.022  26.548  1.00  0.00     0.049 A 
ATOM     47  H   UNL A   1      44.989  26.874  27.385  1.00  0.00     0.167 HD
ATOM     48  C   UNL A   1      41.190  28.563  28.881  1.00  0.00     0.037 A 
ATOM     49  C   UNL A   1      47.629  26.990  26.502  1.00  0.00     0.037 A 
ATOM     50  C   UNL A   1      42.144  29.638  28.945  1.00  0.00     0.049 A 
ATOM     51  C   UNL A   1      47.279  28.358  27.026  1.00  0.00     0.074 A 
ATOM     52  C   UNL A   1      41.964  30.927  29.412  1.00  0.00     0.029 A 
ATOM     53  N   UNL A   1      43.465  29.540  28.529  1.00  0.00    -0.354 N 
ATOM     54  N   UNL A   1      46.140  28.793  27.510  1.00  0.00    -0.248 NA
ATOM     55  C   UNL A   1      48.349  29.365  27.012  1.00  0.00     0.031 C 
ATOM     56  C   UNL A   1      43.169  31.620  29.250  1.00  0.00     0.029 A 
ATOM     57  C   UNL A   1      44.112  30.748  28.727  1.00  0.00     0.049 A 
ATOM     58  H   UNL A   1      43.880  28.732  28.151  1.00  0.00     0.167 HD
ATOM     59  C   UNL A   1      46.364  30.109  27.890  1.00  0.00     0.074 A 
ATOM     60  C   UNL A   1      47.752  30.397  27.590  1.00  0.00     0.031 C 
ATOM     61  C   UNL A   1      45.500  31.000  28.436  1.00  0.00     0.037 A 
BRANCH  48  62
ATOM     62  C   UNL A   1      39.778  28.818  29.324  1.00  0.00     0.064 A 
ATOM     63  C   UNL A   1      38.799  29.282  28.430  1.00  0.00     0.173 A 
ATOM     64  C   UNL A   1      39.394  28.590  30.653  1.00  0.00     0.173 A 
ATOM     65  F   UNL A   1      39.116  29.531  27.150  1.00  0.00    -0.203 F 
ATOM     66  C   UNL A   1      37.500  29.543  28.860  1.00  0.00     0.198 A 
ATOM     67  C   UNL A   1      38.085  28.821  31.072  1.00  0.00     0.198 A 
ATOM     68  F   UNL A   1      40.287  28.145  31.550  1.00  0.00    -0.203 F 
ATOM     69  F   UNL A   1      36.600  30.042  28.002  1.00  0.00    -0.200 F 
ATOM     70  C   UNL A   1      37.142  29.305  30.178  1.00  0.00     0.200 A 
ATOM     71  F   UNL A   1      37.738  28.579  32.343  1.00  0.00    -0.200 F 
ATOM     72  F   UNL A   1      35.891  29.554  30.590  1.00  0.00    -0.200 F 
ENDBRANCH  48  62
BRANCH  49  73
ATOM     73  C   UNL A   1      48.990  26.689  25.985  1.00  0.00     0.064 A 
ATOM     74  C   UNL A   1      49.955  26.091  26.808  1.00  0.00     0.173 A 
ATOM     75  C   UNL A   1      49.356  26.986  24.664  1.00  0.00     0.173 A 
ATOM     76  F   UNL A   1      49.659  25.804  28.084  1.00  0.00    -0.203 F 
ATOM     77  C   UNL A   1      51.237  25.820  26.337  1.00  0.00     0.198 A 
ATOM     78  C   UNL A   1      50.631  26.689  24.186  1.00  0.00     0.198 A 
ATOM     79  F   UNL A   1      48.469  27.552  23.833  1.00  0.00    -0.203 F 
ATOM     80  F   UNL A   1      52.152  25.287  27.159  1.00  0.00    -0.200 F 
ATOM     81  C   UNL A   1      51.573  26.114  25.024  1.00  0.00     0.200 A 
ATOM     82  F   UNL A   1      50.946  26.961  22.912  1.00  0.00    -0.200 F 
ATOM     83  F   UNL A   1      52.805  25.848  24.570  1.00  0.00    -0.200 F 
ENDBRANCH  49  73
BRANCH  61  84
ATOM     84  C   UNL A   1      46.048  32.350  28.796  1.00  0.00     0.064 A 
ATOM     85  C   UNL A   1      46.650  32.595  30.038  1.00  0.00     0.173 A 
ATOM     86  C   UNL A   1      46.001  33.400  27.867  1.00  0.00     0.173 A 
ATOM     87  F   UNL A   1      46.706  31.626  30.965  1.00  0.00    -0.203 F 
ATOM     88  C   UNL A   1      47.159  33.853  30.348  1.00  0.00     0.198 A 
ATOM     89  C   UNL A   1      46.537  34.648  28.169  1.00  0.00     0.198 A 
ATOM     90  F   UNL A   1      45.442  33.212  26.662  1.00  0.00    -0.203 F 
ATOM     91  F   UNL A   1      47.685  34.080  31.559  1.00  0.00    -0.200 F 
ATOM     92  C   UNL A   1      47.109  34.875  29.412  1.00  0.00     0.200 A 
ATOM     93  F   UNL A   1      46.500  35.629  27.258  1.00  0.00    -0.200 F 
ATOM     94  F   UNL A   1      47.605  36.083  29.710  1.00  0.00    -0.200 F 
ENDBRANCH  61  84
ENDBRANCH  35  36
ENDBRANCH  27  30
ENDBRANCH  25  26
ENDBRANCH  24  25
ENDBRANCH  23  24
ENDBRANCH   1  23
TORSDOF 16
ENDMDL
MODEL 2
REMARK VINA RESULT:     -11.7      5.699     10.804
REMARK SMILES O=C(CSc1ccnc(C(=O)NCCCCNC(=O)c2ccc(-c3c4nc(c(-c5c(F)c(F)c(F)c(F)c5F)c5ccc([nH]5)c(-c5c(F)c(F)c(F)c(F)c5F)c5nc(c(-c6c(F)c(F)c(F)c(F)c6F)c6ccc3[nH]6)C=C5)C=C4)cc2)c1)NCC(F)(F)F
REMARK SMILES IDX 13 1 12 2 10 3 11 4 9 6 5 7 6 8 83 9 7 10 8 11 4 12 3 13
REMARK SMILES IDX 2 14 1 15 84 16 85 18 86 19 87 20 88 21 89 22 14 23 15 24
REMARK SMILES IDX 16 25 17 26 18 27 19 29 20 30 21 31 82 32 22 33 81 34 23 35
REMARK SMILES IDX 24 36 25 37 75 38 26 39 80 40 74 41 76 42 27 43 79 44 73 45
REMARK SMILES IDX 72 46 28 48 60 49 40 50 59 51 41 52 44 53 58 54 77 55 42 56
REMARK SMILES IDX 43 57 57 59 78 60 45 61 29 62 30 63 38 64 31 65 32 66 36 67
REMARK SMILES IDX 39 68 33 69 34 70 37 71 35 72 61 73 62 74 70 75 63 76 64 77
REMARK SMILES IDX 68 78 71 79 65 80 66 81 69 82 67 83 46 84 47 85 55 86 48 87
REMARK SMILES IDX 49 88 53 89 56 90 50 91 51 92 54 93 52 94
REMARK H PARENT 12 5 84 17 17 28 76 47 44 58
REMARK Flexibility Score: inf
ROOT
ATOM      1  C   UNL A   1      34.475  29.811  27.388  1.00  0.00     0.116 C 
ENDROOT
BRANCH   1   2
ATOM      2  N   UNL A   1      33.315  29.113  27.895  1.00  0.00    -0.351 N 
ATOM      3  C   UNL A   1      32.463  28.160  27.386  1.00  0.00     0.269 C 
ATOM      4  O   UNL A   1      31.565  27.808  28.158  1.00  0.00    -0.268 OA
ATOM      5  H   UNL A   1      33.081  29.382  28.812  1.00  0.00     0.163 HD
BRANCH   3   6
ATOM      6  C   UNL A   1      32.557  27.523  26.017  1.00  0.00     0.129 A 
ATOM      7  C   UNL A   1      31.921  27.102  23.739  1.00  0.00     0.012 A 
ATOM      8  C   UNL A   1      33.017  26.260  23.602  1.00  0.00     0.035 A 
ATOM      9  C   UNL A   1      31.655  27.696  24.978  1.00  0.00     0.049 A 
ATOM     10  C   UNL A   1      33.835  26.084  24.698  1.00  0.00     0.113 A 
ATOM     11  N   UNL A   1      33.639  26.708  25.876  1.00  0.00    -0.251 NA
BRANCH   7  12
ATOM     12  S   UNL A   1      30.839  27.362  22.339  1.00  0.00    -0.116 SA
BRANCH  12  13
ATOM     13  C   UNL A   1      29.213  27.438  23.181  1.00  0.00     0.174 C 
BRANCH  13  14
ATOM     14  C   UNL A   1      28.516  28.754  22.883  1.00  0.00     0.230 C 
ATOM     15  O   UNL A   1      27.296  28.878  22.916  1.00  0.00    -0.274 OA
ATOM     16  N   UNL A   1      29.359  29.793  22.562  1.00  0.00    -0.346 N 
ATOM     17  H   UNL A   1      30.331  29.647  22.617  1.00  0.00     0.163 HD
BRANCH  16  18
ATOM     18  C   UNL A   1      28.868  31.108  22.141  1.00  0.00     0.231 C 
BRANCH  18  19
ATOM     19  C   UNL A   1      28.516  32.068  23.274  1.00  0.00     0.405 C 
ATOM     20  F   UNL A   1      27.226  31.886  23.651  1.00  0.00    -0.169 F 
ATOM     21  F   UNL A   1      29.281  31.832  24.361  1.00  0.00    -0.169 F 
ATOM     22  F   UNL A   1      28.661  33.356  22.908  1.00  0.00    -0.169 F 
ENDBRANCH  18  19
ENDBRANCH  16  18
ENDBRANCH  13  14
ENDBRANCH  12  13
ENDBRANCH   7  12
ENDBRANCH   3   6
ENDBRANCH   1   2
BRANCH   1  23
ATOM     23  C   UNL A   1      34.578  31.207  28.004  1.00  0.00     0.023 C 
BRANCH  23  24
ATOM     24  C   UNL A   1      33.299  32.048  27.906  1.00  0.00     0.023 C 
BRANCH  24  25
ATOM     25  C   UNL A   1      33.441  33.392  27.197  1.00  0.00     0.116 C 
BRANCH  25  26
ATOM     26  N   UNL A   1      32.786  34.494  27.885  1.00  0.00    -0.352 N 
ATOM     27  C   UNL A   1      33.137  35.089  29.072  1.00  0.00     0.251 C 
ATOM     28  H   UNL A   1      31.988  34.862  27.442  1.00  0.00     0.163 HD
ATOM     29  O   UNL A   1      32.474  36.016  29.525  1.00  0.00    -0.269 OA
BRANCH  27  30
ATOM     30  C   UNL A   1      34.303  34.571  29.807  1.00  0.00     0.039 A 
ATOM     31  C   UNL A   1      34.105  33.863  30.994  1.00  0.00     0.014 A 
ATOM     32  C   UNL A   1      35.586  34.737  29.280  1.00  0.00     0.014 A 
ATOM     33  C   UNL A   1      35.195  33.264  31.626  1.00  0.00     0.010 A 
ATOM     34  C   UNL A   1      36.657  34.078  29.867  1.00  0.00     0.010 A 
ATOM     35  C   UNL A   1      36.472  33.344  31.049  1.00  0.00    -0.014 A 
BRANCH  35  36
ATOM     36  C   UNL A   1      37.651  32.706  31.680  1.00  0.00     0.031 A 
ATOM     37  C   UNL A   1      38.327  31.561  30.983  1.00  0.00     0.074 A 
ATOM     38  C   UNL A   1      38.052  33.102  32.904  1.00  0.00     0.049 A 
ATOM     39  N   UNL A   1      39.293  30.786  31.401  1.00  0.00    -0.248 NA
ATOM     40  C   UNL A   1      37.816  31.215  29.645  1.00  0.00     0.031 C 
ATOM     41  C   UNL A   1      37.435  34.169  33.692  1.00  0.00     0.029 A 
ATOM     42  N   UNL A   1      39.063  32.638  33.705  1.00  0.00    -0.354 N 
ATOM     43  C   UNL A   1      39.485  29.849  30.394  1.00  0.00     0.074 A 
ATOM     44  C   UNL A   1      38.501  30.116  29.370  1.00  0.00     0.031 C 
ATOM     45  C   UNL A   1      38.094  34.292  34.857  1.00  0.00     0.029 A 
ATOM     46  C   UNL A   1      39.155  33.291  34.910  1.00  0.00     0.049 A 
ATOM     47  H   UNL A   1      39.667  31.906  33.441  1.00  0.00     0.167 HD
ATOM     48  C   UNL A   1      40.418  28.870  30.321  1.00  0.00     0.037 A 
ATOM     49  C   UNL A   1      40.001  33.096  35.939  1.00  0.00     0.037 A 
ATOM     50  C   UNL A   1      41.413  28.639  31.333  1.00  0.00     0.049 A 
ATOM     51  C   UNL A   1      41.051  32.023  35.818  1.00  0.00     0.074 A 
ATOM     52  C   UNL A   1      42.436  27.708  31.345  1.00  0.00     0.029 A 
ATOM     53  N   UNL A   1      41.511  29.359  32.516  1.00  0.00    -0.354 N 
ATOM     54  N   UNL A   1      41.261  31.177  34.838  1.00  0.00    -0.248 NA
ATOM     55  C   UNL A   1      41.991  31.888  36.939  1.00  0.00     0.031 C 
ATOM     56  C   UNL A   1      43.133  27.843  32.552  1.00  0.00     0.029 A 
ATOM     57  C   UNL A   1      42.575  28.890  33.267  1.00  0.00     0.049 A 
ATOM     58  H   UNL A   1      40.913  30.094  32.780  1.00  0.00     0.167 HD
ATOM     59  C   UNL A   1      42.374  30.434  35.206  1.00  0.00     0.074 A 
ATOM     60  C   UNL A   1      42.802  30.938  36.495  1.00  0.00     0.031 C 
ATOM     61  C   UNL A   1      42.988  29.425  34.540  1.00  0.00     0.037 A 
BRANCH  48  62
ATOM     62  C   UNL A   1      40.399  27.986  29.107  1.00  0.00     0.064 A 
ATOM     63  C   UNL A   1      41.146  28.296  27.959  1.00  0.00     0.173 A 
ATOM     64  C   UNL A   1      39.635  26.811  29.091  1.00  0.00     0.173 A 
ATOM     65  F   UNL A   1      41.883  29.417  27.914  1.00  0.00    -0.203 F 
ATOM     66  C   UNL A   1      41.097  27.483  26.829  1.00  0.00     0.198 A 
ATOM     67  C   UNL A   1      39.614  25.982  27.971  1.00  0.00     0.198 A 
ATOM     68  F   UNL A   1      38.904  26.463  30.161  1.00  0.00    -0.203 F 
ATOM     69  F   UNL A   1      41.770  27.833  25.725  1.00  0.00    -0.200 F 
ATOM     70  C   UNL A   1      40.338  26.323  26.838  1.00  0.00     0.200 A 
ATOM     71  F   UNL A   1      38.889  24.855  27.986  1.00  0.00    -0.200 F 
ATOM     72  F   UNL A   1      40.294  25.540  25.752  1.00  0.00    -0.200 F 
ENDBRANCH  48  62
BRANCH  49  73
ATOM     73  C   UNL A   1      39.921  33.961  37.145  1.00  0.00     0.064 A 
ATOM     74  C   UNL A   1      39.096  33.615  38.224  1.00  0.00     0.173 A 
ATOM     75  C   UNL A   1      40.667  35.145  37.250  1.00  0.00     0.173 A 
ATOM     76  F   UNL A   1      38.349  32.502  38.164  1.00  0.00    -0.203 F 
ATOM     77  C   UNL A   1      39.002  34.428  39.351  1.00  0.00     0.198 A 
ATOM     78  C   UNL A   1      40.593  35.943  38.390  1.00  0.00     0.198 A 
ATOM     79  F   UNL A   1      41.478  35.518  36.250  1.00  0.00    -0.203 F 
ATOM     80  F   UNL A   1      38.171  34.094  40.349  1.00  0.00    -0.200 F 
ATOM     81  C   UNL A   1      39.756  35.588  39.437  1.00  0.00     0.200 A 
ATOM     82  F   UNL A   1      41.335  37.056  38.475  1.00  0.00    -0.200 F 
ATOM     83  F   UNL A   1      39.671  36.367  40.523  1.00  0.00    -0.200 F 
ENDBRANCH  49  73
BRANCH  61  84
ATOM     84  C   UNL A   1      44.219  28.841  35.168  1.00  0.00     0.064 A 
ATOM     85  C   UNL A   1      44.152  27.750  36.046  1.00  0.00     0.173 A 
ATOM     86  C   UNL A   1      45.484  29.359  34.855  1.00  0.00     0.173 A 
ATOM     87  F   UNL A   1      42.964  27.229  36.387  1.00  0.00    -0.203 F 
ATOM     88  C   UNL A   1      45.308  27.217  36.612  1.00  0.00     0.198 A 
ATOM     89  C   UNL A   1      46.640  28.805  35.398  1.00  0.00     0.198 A 
ATOM     90  F   UNL A   1      45.600  30.397  34.013  1.00  0.00    -0.203 F 
ATOM     91  F   UNL A   1      45.218  26.207  37.487  1.00  0.00    -0.200 F 
ATOM     92  C   UNL A   1      46.550  27.740  36.282  1.00  0.00     0.200 A 
ATOM     93  F   UNL A   1      47.839  29.303  35.067  1.00  0.00    -0.200 F 
ATOM     94  F   UNL A   1      47.661  27.222  36.822  1.00  0.00    -0.200 F 
ENDBRANCH  61  84
ENDBRANCH  35  36
ENDBRANCH  27  30
ENDBRANCH  25  26
ENDBRANCH  24  25
ENDBRANCH  23  24
ENDBRANCH   1  23
TORSDOF 16
ENDMDL
MODEL 3
REMARK VINA RESULT:     -11.7      5.574     12.433
REMARK SMILES O=C(CSc1ccnc(C(=O)NCCCCNC(=O)c2ccc(-c3c4nc(c(-c5c(F)c(F)c(F)c(F)c5F)c5ccc([nH]5)c(-c5c(F)c(F)c(F)c(F)c5F)c5nc(c(-c6c(F)c(F)c(F)c(F)c6F)c6ccc3[nH]6)C=C5)C=C4)cc2)c1)NCC(F)(F)F
REMARK SMILES IDX 13 1 12 2 10 3 11 4 9 6 5 7 6 8 83 9 7 10 8 11 4 12 3 13
REMARK SMILES IDX 2 14 1 15 84 16 85 18 86 19 87 20 88 21 89 22 14 23 15 24
REMARK SMILES IDX 16 25 17 26 18 27 19 29 20 30 21 31 82 32 22 33 81 34 23 35
REMARK SMILES IDX 24 36 25 37 75 38 26 39 80 40 74 41 76 42 27 43 79 44 73 45
REMARK SMILES IDX 72 46 28 48 60 49 40 50 59 51 41 52 44 53 58 54 77 55 42 56
REMARK SMILES IDX 43 57 57 59 78 60 45 61 29 62 30 63 38 64 31 65 32 66 36 67
REMARK SMILES IDX 39 68 33 69 34 70 37 71 35 72 61 73 62 74 70 75 63 76 64 77
REMARK SMILES IDX 68 78 71 79 65 80 66 81 69 82 67 83 46 84 47 85 55 86 48 87
REMARK SMILES IDX 49 88 53 89 56 90 50 91 51 92 54 93 52 94
REMARK H PARENT 12 5 84 17 17 28 76 47 44 58
REMARK Flexibility Score: inf
ROOT
ATOM      1  C   UNL A   1      48.274  26.586  30.895  1.00  0.00     0.116 C 
ENDROOT
BRANCH   1   2
ATOM      2  N   UNL A   1      47.392  27.550  30.277  1.00  0.00    -0.351 N 
ATOM      3  C   UNL A   1      46.733  27.621  29.071  1.00  0.00     0.269 C 
ATOM      4  O   UNL A   1      46.053  28.640  28.916  1.00  0.00    -0.268 OA
ATOM      5  H   UNL A   1      47.225  28.334  30.849  1.00  0.00     0.163 HD
BRANCH   3   6
ATOM      6  C   UNL A   1      46.763  26.575  27.979  1.00  0.00     0.129 A 
ATOM      7  C   UNL A   1      46.222  24.490  26.914  1.00  0.00     0.012 A 
ATOM      8  C   UNL A   1      46.948  24.887  25.798  1.00  0.00     0.035 A 
ATOM      9  C   UNL A   1      46.176  25.320  28.040  1.00  0.00     0.049 A 
ATOM     10  C   UNL A   1      47.560  26.122  25.833  1.00  0.00     0.113 A 
ATOM     11  N   UNL A   1      47.463  26.967  26.878  1.00  0.00    -0.251 NA
BRANCH   7  12
ATOM     12  S   UNL A   1      45.407  22.898  26.906  1.00  0.00    -0.116 SA
BRANCH  12  13
ATOM     13  C   UNL A   1      45.791  22.334  25.205  1.00  0.00     0.174 C 
BRANCH  13  14
ATOM     14  C   UNL A   1      44.827  21.244  24.772  1.00  0.00     0.230 C 
ATOM     15  O   UNL A   1      44.572  21.017  23.593  1.00  0.00    -0.274 OA
ATOM     16  N   UNL A   1      44.252  20.539  25.804  1.00  0.00    -0.346 N 
ATOM     17  H   UNL A   1      44.547  20.724  26.724  1.00  0.00     0.163 HD
BRANCH  16  18
ATOM     18  C   UNL A   1      43.219  19.523  25.587  1.00  0.00     0.231 C 
BRANCH  18  19
ATOM     19  C   UNL A   1      42.020  19.597  26.529  1.00  0.00     0.405 C 
ATOM     20  F   UNL A   1      40.962  18.947  25.985  1.00  0.00    -0.169 F 
ATOM     21  F   UNL A   1      42.293  18.994  27.705  1.00  0.00    -0.169 F 
ATOM     22  F   UNL A   1      41.645  20.869  26.767  1.00  0.00    -0.169 F 
ENDBRANCH  18  19
ENDBRANCH  16  18
ENDBRANCH  13  14
ENDBRANCH  12  13
ENDBRANCH   7  12
ENDBRANCH   3   6
ENDBRANCH   1   2
BRANCH   1  23
ATOM     23  C   UNL A   1      47.600  25.933  32.102  1.00  0.00     0.023 C 
BRANCH  23  24
ATOM     24  C   UNL A   1      48.563  25.280  33.101  1.00  0.00     0.023 C 
BRANCH  24  25
ATOM     25  C   UNL A   1      47.923  24.362  34.138  1.00  0.00     0.116 C 
BRANCH  25  26
ATOM     26  N   UNL A   1      48.167  24.767  35.515  1.00  0.00    -0.352 N 
ATOM     27  C   UNL A   1      47.457  25.654  36.284  1.00  0.00     0.251 C 
ATOM     28  H   UNL A   1      48.944  24.348  35.952  1.00  0.00     0.163 HD
ATOM     29  O   UNL A   1      47.796  25.891  37.439  1.00  0.00    -0.269 OA
BRANCH  27  30
ATOM     30  C   UNL A   1      46.300  26.342  35.685  1.00  0.00     0.039 A 
ATOM     31  C   UNL A   1      46.474  27.606  35.118  1.00  0.00     0.014 A 
ATOM     32  C   UNL A   1      45.060  25.701  35.635  1.00  0.00     0.014 A 
ATOM     33  C   UNL A   1      45.411  28.205  34.440  1.00  0.00     0.010 A 
ATOM     34  C   UNL A   1      44.029  26.263  34.897  1.00  0.00     0.010 A 
ATOM     35  C   UNL A   1      44.192  27.523  34.301  1.00  0.00    -0.014 A 
BRANCH  35  36
ATOM     36  C   UNL A   1      43.047  28.119  33.574  1.00  0.00     0.031 A 
ATOM     37  C   UNL A   1      42.855  27.798  32.120  1.00  0.00     0.074 A 
ATOM     38  C   UNL A   1      42.245  29.003  34.197  1.00  0.00     0.049 A 
ATOM     39  N   UNL A   1      41.999  28.292  31.265  1.00  0.00    -0.248 NA
ATOM     40  C   UNL A   1      43.783  26.812  31.538  1.00  0.00     0.031 C 
ATOM     41  C   UNL A   1      42.372  29.425  35.592  1.00  0.00     0.029 A 
ATOM     42  N   UNL A   1      41.172  29.718  33.730  1.00  0.00    -0.354 N 
ATOM     43  C   UNL A   1      42.301  27.701  30.046  1.00  0.00     0.074 A 
ATOM     44  C   UNL A   1      43.453  26.854  30.257  1.00  0.00     0.031 C 
ATOM     45  C   UNL A   1      41.403  30.311  35.874  1.00  0.00     0.029 A 
ATOM     46  C   UNL A   1      40.608  30.543  34.672  1.00  0.00     0.049 A 
ATOM     47  H   UNL A   1      40.836  29.644  32.807  1.00  0.00     0.167 HD
ATOM     48  C   UNL A   1      41.657  27.834  28.862  1.00  0.00     0.037 A 
ATOM     49  C   UNL A   1      39.568  31.392  34.569  1.00  0.00     0.037 A 
ATOM     50  C   UNL A   1      40.490  28.655  28.676  1.00  0.00     0.049 A 
ATOM     51  C   UNL A   1      38.848  31.497  33.250  1.00  0.00     0.074 A 
ATOM     52  C   UNL A   1      39.728  28.830  27.535  1.00  0.00     0.029 A 
ATOM     53  N   UNL A   1      39.913  29.434  29.669  1.00  0.00    -0.354 N 
ATOM     54  N   UNL A   1      39.108  30.892  32.115  1.00  0.00    -0.248 NA
ATOM     55  C   UNL A   1      37.682  32.389  33.202  1.00  0.00     0.031 C 
ATOM     56  C   UNL A   1      38.708  29.742  27.830  1.00  0.00     0.029 A 
ATOM     57  C   UNL A   1      38.806  30.096  29.166  1.00  0.00     0.049 A 
ATOM     58  H   UNL A   1      40.242  29.505  30.594  1.00  0.00     0.167 HD
ATOM     59  C   UNL A   1      38.120  31.302  31.230  1.00  0.00     0.074 A 
ATOM     60  C   UNL A   1      37.250  32.198  31.964  1.00  0.00     0.031 C 
ATOM     61  C   UNL A   1      37.947  30.968  29.927  1.00  0.00     0.037 A 
BRANCH  48  62
ATOM     62  C   UNL A   1      42.204  27.074  27.687  1.00  0.00     0.064 A 
ATOM     63  C   UNL A   1      41.755  25.781  27.373  1.00  0.00     0.173 A 
ATOM     64  C   UNL A   1      43.181  27.645  26.859  1.00  0.00     0.173 A 
ATOM     65  F   UNL A   1      40.832  25.181  28.141  1.00  0.00    -0.203 F 
ATOM     66  C   UNL A   1      42.291  25.076  26.298  1.00  0.00     0.198 A 
ATOM     67  C   UNL A   1      43.691  26.950  25.765  1.00  0.00     0.198 A 
ATOM     68  F   UNL A   1      43.644  28.879  27.110  1.00  0.00    -0.203 F 
ATOM     69  F   UNL A   1      41.890  23.821  26.056  1.00  0.00    -0.200 F 
ATOM     70  C   UNL A   1      43.253  25.663  25.491  1.00  0.00     0.200 A 
ATOM     71  F   UNL A   1      44.612  27.524  24.979  1.00  0.00    -0.200 F 
ATOM     72  F   UNL A   1      43.766  24.985  24.455  1.00  0.00    -0.200 F 
ENDBRANCH  48  62
BRANCH  49  73
ATOM     73  C   UNL A   1      39.120  32.170  35.753  1.00  0.00     0.064 A 
ATOM     74  C   UNL A   1      39.532  33.498  35.939  1.00  0.00     0.173 A 
ATOM     75  C   UNL A   1      38.270  31.612  36.720  1.00  0.00     0.173 A 
ATOM     76  F   UNL A   1      40.359  34.071  35.052  1.00  0.00    -0.203 F 
ATOM     77  C   UNL A   1      39.130  34.229  37.054  1.00  0.00     0.198 A 
ATOM     78  C   UNL A   1      37.846  32.354  37.821  1.00  0.00     0.198 A 
ATOM     79  F   UNL A   1      37.841  30.349  36.586  1.00  0.00    -0.203 F 
ATOM     80  F   UNL A   1      39.575  35.482  37.227  1.00  0.00    -0.200 F 
ATOM     81  C   UNL A   1      38.282  33.659  37.991  1.00  0.00     0.200 A 
ATOM     82  F   UNL A   1      37.015  31.804  38.716  1.00  0.00    -0.200 F 
ATOM     83  F   UNL A   1      37.890  34.365  39.061  1.00  0.00    -0.200 F 
ENDBRANCH  49  73
BRANCH  61  84
ATOM     84  C   UNL A   1      36.743  31.531  29.231  1.00  0.00     0.064 A 
ATOM     85  C   UNL A   1      36.682  32.874  28.833  1.00  0.00     0.173 A 
ATOM     86  C   UNL A   1      35.653  30.703  28.926  1.00  0.00     0.173 A 
ATOM     87  F   UNL A   1      37.694  33.709  29.114  1.00  0.00    -0.203 F 
ATOM     88  C   UNL A   1      35.558  33.374  28.180  1.00  0.00     0.198 A 
ATOM     89  C   UNL A   1      34.545  31.198  28.247  1.00  0.00     0.198 A 
ATOM     90  F   UNL A   1      35.669  29.408  29.280  1.00  0.00    -0.203 F 
ATOM     91  F   UNL A   1      35.499  34.672  27.853  1.00  0.00    -0.200 F 
ATOM     92  C   UNL A   1      34.495  32.535  27.882  1.00  0.00     0.200 A 
ATOM     93  F   UNL A   1      33.525  30.383  27.948  1.00  0.00    -0.200 F 
ATOM     94  F   UNL A   1      33.417  33.017  27.249  1.00  0.00    -0.200 F 
ENDBRANCH  61  84
ENDBRANCH  35  36
ENDBRANCH  27  30
ENDBRANCH  25  26
ENDBRANCH  24  25
ENDBRANCH  23  24
ENDBRANCH   1  23
TORSDOF 16
ENDMDL
