MODEL 1
REMARK VINA RESULT:     -12.3      0.000      0.000
REMARK SMILES O=C(CCc1cnc(C2CCCCC2)o1)NCCCCNC(=O)c1ccc(-c2c3nc(c(-c4c(F)c(F)c(F)c(F)c4F)c4ccc([nH]4)c(-c4c(F)c(F)c(F)c(F)c4F)c4nc(c(-c5c(F)c(F)c(F)c(F)c5F)c5ccc2[nH]5)C=C4)C=C3)cc1
REMARK SMILES IDX 18 1 17 2 16 3 1 4 2 5 3 7 4 8 5 9 6 10 15 11 7 12 8 13 9 14
REMARK SMILES IDX 10 15 14 16 11 17 13 18 12 19 19 20 20 21 21 22 22 23 23 25
REMARK SMILES IDX 24 26 25 27 86 28 26 29 85 30 27 31 28 32 29 33 79 34 30 35
REMARK SMILES IDX 84 36 78 37 80 38 31 39 83 40 77 41 76 42 32 44 64 45 44 46
REMARK SMILES IDX 63 47 45 48 48 49 62 50 81 51 46 52 47 53 61 55 82 56 49 57
REMARK SMILES IDX 33 58 34 59 42 60 35 61 36 62 40 63 43 64 37 65 38 66 41 67
REMARK SMILES IDX 39 68 65 69 66 70 74 71 67 72 68 73 72 74 75 75 69 76 70 77
REMARK SMILES IDX 73 78 71 79 50 80 51 81 59 82 52 83 53 84 57 85 60 86 54 87
REMARK SMILES IDX 55 88 58 89 56 90
REMARK H PARENT 16 6 21 24 80 43 48 54
REMARK Flexibility Score: inf
ROOT
ATOM      1  C   UNL A   1      31.583  30.613  26.407  1.00  0.00     0.023 C 
ENDROOT
BRANCH   1   2
ATOM      2  C   UNL A   1      33.014  30.153  26.122  1.00  0.00     0.116 C 
BRANCH   2   3
ATOM      3  N   UNL A   1      33.179  29.721  24.749  1.00  0.00    -0.356 N 
ATOM      4  O   UNL A   1      33.960  27.615  25.223  1.00  0.00    -0.275 OA
ATOM      5  C   UNL A   1      33.643  28.472  24.405  1.00  0.00     0.220 C 
ATOM      6  H   UNL A   1      32.949  30.350  24.028  1.00  0.00     0.163 HD
BRANCH   5   7
ATOM      7  C   UNL A   1      33.774  28.233  22.913  1.00  0.00     0.108 C 
BRANCH   7   8
ATOM      8  C   UNL A   1      32.835  27.145  22.398  1.00  0.00     0.087 C 
BRANCH   8   9
ATOM      9  C   UNL A   1      31.414  27.386  22.748  1.00  0.00     0.125 A 
ATOM     10  C   UNL A   1      30.416  26.648  23.343  1.00  0.00     0.157 A 
ATOM     11  O   UNL A   1      30.890  28.608  22.430  1.00  0.00    -0.445 OA
ATOM     12  N   UNL A   1      29.251  27.366  23.359  1.00  0.00    -0.222 NA
ATOM     13  C   UNL A   1      29.592  28.536  22.858  1.00  0.00     0.197 A 
BRANCH  13  14
ATOM     14  C   UNL A   1      28.765  29.771  22.708  1.00  0.00     0.076 C 
ATOM     15  C   UNL A   1      29.228  30.850  23.692  1.00  0.00     0.013 C 
ATOM     16  C   UNL A   1      28.833  30.289  21.263  1.00  0.00     0.013 C 
ATOM     17  C   UNL A   1      28.459  32.158  23.509  1.00  0.00     0.001 C 
ATOM     18  C   UNL A   1      28.058  31.592  21.087  1.00  0.00     0.001 C 
ATOM     19  C   UNL A   1      28.529  32.658  22.069  1.00  0.00     0.000 C 
ENDBRANCH  13  14
ENDBRANCH   8   9
ENDBRANCH   7   8
ENDBRANCH   5   7
ENDBRANCH   2   3
ENDBRANCH   1   2
BRANCH   1  20
ATOM     20  C   UNL A   1      31.419  32.107  26.710  1.00  0.00     0.023 C 
BRANCH  20  21
ATOM     21  C   UNL A   1      32.676  32.831  27.187  1.00  0.00     0.116 C 
BRANCH  21  22
ATOM     22  N   UNL A   1      32.417  34.206  27.599  1.00  0.00    -0.352 N 
ATOM     23  C   UNL A   1      32.985  34.961  28.599  1.00  0.00     0.251 C 
ATOM     24  H   UNL A   1      31.722  34.668  27.077  1.00  0.00     0.163 HD
ATOM     25  O   UNL A   1      32.504  36.063  28.870  1.00  0.00    -0.269 OA
BRANCH  23  26
ATOM     26  C   UNL A   1      34.154  34.473  29.369  1.00  0.00     0.039 A 
ATOM     27  C   UNL A   1      33.968  33.928  30.644  1.00  0.00     0.014 A 
ATOM     28  C   UNL A   1      35.445  34.578  28.859  1.00  0.00     0.014 A 
ATOM     29  C   UNL A   1      35.061  33.416  31.360  1.00  0.00     0.010 A 
ATOM     30  C   UNL A   1      36.517  33.994  29.533  1.00  0.00     0.010 A 
ATOM     31  C   UNL A   1      36.344  33.405  30.790  1.00  0.00    -0.014 A 
BRANCH  31  32
ATOM     32  C   UNL A   1      37.502  32.735  31.446  1.00  0.00     0.031 A 
ATOM     33  C   UNL A   1      38.193  31.559  30.806  1.00  0.00     0.074 A 
ATOM     34  C   UNL A   1      37.856  33.106  32.693  1.00  0.00     0.049 A 
ATOM     35  N   UNL A   1      39.168  30.816  31.274  1.00  0.00    -0.248 NA
ATOM     36  C   UNL A   1      37.704  31.135  29.486  1.00  0.00     0.031 C 
ATOM     37  C   UNL A   1      37.209  34.157  33.478  1.00  0.00     0.029 A 
ATOM     38  N   UNL A   1      38.834  32.622  33.530  1.00  0.00    -0.354 N 
ATOM     39  C   UNL A   1      39.395  29.834  30.318  1.00  0.00     0.074 A 
ATOM     40  C   UNL A   1      38.423  30.042  29.266  1.00  0.00     0.031 C 
ATOM     41  C   UNL A   1      37.816  34.252  34.671  1.00  0.00     0.029 A 
ATOM     42  C   UNL A   1      38.879  33.254  34.748  1.00  0.00     0.049 A 
ATOM     43  H   UNL A   1      39.445  31.892  33.279  1.00  0.00     0.167 HD
ATOM     44  C   UNL A   1      40.342  28.863  30.305  1.00  0.00     0.037 A 
ATOM     45  C   UNL A   1      39.683  33.059  35.809  1.00  0.00     0.037 A 
ATOM     46  C   UNL A   1      41.339  28.676  31.329  1.00  0.00     0.049 A 
ATOM     47  C   UNL A   1      40.755  32.008  35.751  1.00  0.00     0.074 A 
ATOM     48  C   UNL A   1      42.408  27.796  31.341  1.00  0.00     0.029 A 
ATOM     49  N   UNL A   1      41.388  29.377  32.523  1.00  0.00    -0.354 N 
ATOM     50  N   UNL A   1      41.034  31.164  34.789  1.00  0.00    -0.248 NA
ATOM     51  C   UNL A   1      41.635  31.893  36.923  1.00  0.00     0.031 C 
ATOM     52  C   UNL A   1      43.080  27.935  32.561  1.00  0.00     0.029 A 
ATOM     53  C   UNL A   1      42.456  28.933  33.290  1.00  0.00     0.049 A 
ATOM     54  H   UNL A   1      40.758  30.086  32.790  1.00  0.00     0.167 HD
ATOM     55  C   UNL A   1      42.136  30.441  35.225  1.00  0.00     0.074 A 
ATOM     56  C   UNL A   1      42.482  30.951  36.534  1.00  0.00     0.031 C 
ATOM     57  C   UNL A   1      42.801  29.446  34.589  1.00  0.00     0.037 A 
BRANCH  44  58
ATOM     58  C   UNL A   1      40.372  27.929  29.129  1.00  0.00     0.064 A 
ATOM     59  C   UNL A   1      39.606  26.754  29.108  1.00  0.00     0.173 A 
ATOM     60  C   UNL A   1      41.112  28.251  27.980  1.00  0.00     0.173 A 
ATOM     61  F   UNL A   1      38.884  26.399  30.181  1.00  0.00    -0.203 F 
ATOM     62  C   UNL A   1      39.600  25.923  27.990  1.00  0.00     0.198 A 
ATOM     63  C   UNL A   1      41.080  27.432  26.854  1.00  0.00     0.198 A 
ATOM     64  F   UNL A   1      41.852  29.369  27.942  1.00  0.00    -0.203 F 
ATOM     65  F   UNL A   1      38.889  24.786  28.008  1.00  0.00    -0.200 F 
ATOM     66  C   UNL A   1      40.328  26.266  26.863  1.00  0.00     0.200 A 
ATOM     67  F   UNL A   1      41.773  27.773  25.759  1.00  0.00    -0.200 F 
ATOM     68  F   UNL A   1      40.310  25.472  25.783  1.00  0.00    -0.200 F 
ENDBRANCH  44  58
BRANCH  45  69
ATOM     69  C   UNL A   1      39.539  33.923  37.007  1.00  0.00     0.064 A 
ATOM     70  C   UNL A   1      40.151  35.183  37.054  1.00  0.00     0.173 A 
ATOM     71  C   UNL A   1      38.782  33.520  38.115  1.00  0.00     0.173 A 
ATOM     72  F   UNL A   1      40.902  35.600  36.023  1.00  0.00    -0.203 F 
ATOM     73  C   UNL A   1      40.028  36.001  38.173  1.00  0.00     0.198 A 
ATOM     74  C   UNL A   1      38.638  34.349  39.225  1.00  0.00     0.198 A 
ATOM     75  F   UNL A   1      38.172  32.326  38.113  1.00  0.00    -0.203 F 
ATOM     76  F   UNL A   1      40.655  37.184  38.208  1.00  0.00    -0.200 F 
ATOM     77  C   UNL A   1      39.266  35.586  39.256  1.00  0.00     0.200 A 
ATOM     78  F   UNL A   1      37.894  33.952  40.265  1.00  0.00    -0.200 F 
ATOM     79  F   UNL A   1      39.142  36.376  40.331  1.00  0.00    -0.200 F 
ENDBRANCH  45  69
BRANCH  57  80
ATOM     80  C   UNL A   1      43.996  28.863  35.285  1.00  0.00     0.064 A 
ATOM     81  C   UNL A   1      45.286  29.380  35.094  1.00  0.00     0.173 A 
ATOM     82  C   UNL A   1      43.843  27.791  36.179  1.00  0.00     0.173 A 
ATOM     83  F   UNL A   1      45.486  30.393  34.238  1.00  0.00    -0.203 F 
ATOM     84  C   UNL A   1      46.382  28.831  35.753  1.00  0.00     0.198 A 
ATOM     85  C   UNL A   1      44.938  27.262  36.856  1.00  0.00     0.198 A 
ATOM     86  F   UNL A   1      42.631  27.263  36.400  1.00  0.00    -0.203 F 
ATOM     87  F   UNL A   1      47.611  29.313  35.522  1.00  0.00    -0.200 F 
ATOM     88  C   UNL A   1      46.207  27.777  36.639  1.00  0.00     0.200 A 
ATOM     89  F   UNL A   1      44.766  26.250  37.719  1.00  0.00    -0.200 F 
ATOM     90  F   UNL A   1      47.263  27.252  37.275  1.00  0.00    -0.200 F 
ENDBRANCH  57  80
ENDBRANCH  31  32
ENDBRANCH  23  26
ENDBRANCH  21  22
ENDBRANCH  20  21
ENDBRANCH   1  20
TORSDOF 14
ENDMDL
MODEL 2
REMARK VINA RESULT:     -12.1      0.215      1.634
REMARK SMILES O=C(CCc1cnc(C2CCCCC2)o1)NCCCCNC(=O)c1ccc(-c2c3nc(c(-c4c(F)c(F)c(F)c(F)c4F)c4ccc([nH]4)c(-c4c(F)c(F)c(F)c(F)c4F)c4nc(c(-c5c(F)c(F)c(F)c(F)c5F)c5ccc2[nH]5)C=C4)C=C3)cc1
REMARK SMILES IDX 18 1 17 2 16 3 1 4 2 5 3 7 4 8 5 9 6 10 15 11 7 12 8 13 9 14
REMARK SMILES IDX 10 15 14 16 11 17 13 18 12 19 19 20 20 21 21 22 22 23 23 25
REMARK SMILES IDX 24 26 25 27 86 28 26 29 85 30 27 31 28 32 29 33 79 34 30 35
REMARK SMILES IDX 84 36 78 37 80 38 31 39 83 40 77 41 76 42 32 44 64 45 44 46
REMARK SMILES IDX 63 47 45 48 48 49 62 50 81 51 46 52 47 53 61 55 82 56 49 57
REMARK SMILES IDX 33 58 34 59 42 60 35 61 36 62 40 63 43 64 37 65 38 66 41 67
REMARK SMILES IDX 39 68 65 69 66 70 74 71 67 72 68 73 72 74 75 75 69 76 70 77
REMARK SMILES IDX 73 78 71 79 50 80 51 81 59 82 52 83 53 84 57 85 60 86 54 87
REMARK SMILES IDX 55 88 58 89 56 90
REMARK H PARENT 16 6 21 24 80 43 48 54
REMARK Flexibility Score: inf
ROOT
ATOM      1  C   UNL A   1      31.586  30.629  26.586  1.00  0.00     0.023 C 
ENDROOT
BRANCH   1   2
ATOM      2  C   UNL A   1      33.022  30.173  26.328  1.00  0.00     0.116 C 
BRANCH   2   3
ATOM      3  N   UNL A   1      33.224  29.781  24.948  1.00  0.00    -0.356 N 
ATOM      4  O   UNL A   1      33.955  27.648  25.378  1.00  0.00    -0.275 OA
ATOM      5  C   UNL A   1      33.678  28.537  24.578  1.00  0.00     0.220 C 
ATOM      6  H   UNL A   1      33.028  30.437  24.240  1.00  0.00     0.163 HD
BRANCH   5   7
ATOM      7  C   UNL A   1      33.853  28.342  23.084  1.00  0.00     0.108 C 
BRANCH   7   8
ATOM      8  C   UNL A   1      32.974  27.230  22.519  1.00  0.00     0.087 C 
BRANCH   8   9
ATOM      9  C   UNL A   1      31.532  27.418  22.812  1.00  0.00     0.125 A 
ATOM     10  C   UNL A   1      30.522  26.620  23.301  1.00  0.00     0.157 A 
ATOM     11  O   UNL A   1      30.997  28.650  22.557  1.00  0.00    -0.445 OA
ATOM     12  N   UNL A   1      29.343  27.313  23.309  1.00  0.00    -0.222 NA
ATOM     13  C   UNL A   1      29.682  28.523  22.911  1.00  0.00     0.197 A 
BRANCH  13  14
ATOM     14  C   UNL A   1      28.836  29.750  22.808  1.00  0.00     0.076 C 
ATOM     15  C   UNL A   1      29.395  30.864  23.699  1.00  0.00     0.013 C 
ATOM     16  C   UNL A   1      28.746  30.217  21.347  1.00  0.00     0.013 C 
ATOM     17  C   UNL A   1      28.602  32.163  23.555  1.00  0.00     0.001 C 
ATOM     18  C   UNL A   1      27.949  31.511  21.210  1.00  0.00     0.001 C 
ATOM     19  C   UNL A   1      28.515  32.612  22.098  1.00  0.00     0.000 C 
ENDBRANCH  13  14
ENDBRANCH   8   9
ENDBRANCH   7   8
ENDBRANCH   5   7
ENDBRANCH   2   3
ENDBRANCH   1   2
BRANCH   1  20
ATOM     20  C   UNL A   1      31.403  32.136  26.811  1.00  0.00     0.023 C 
BRANCH  20  21
ATOM     21  C   UNL A   1      32.676  32.921  27.118  1.00  0.00     0.116 C 
BRANCH  21  22
ATOM     22  N   UNL A   1      32.408  34.281  27.573  1.00  0.00    -0.352 N 
ATOM     23  C   UNL A   1      32.975  35.010  28.592  1.00  0.00     0.251 C 
ATOM     24  H   UNL A   1      31.706  34.753  27.069  1.00  0.00     0.163 HD
ATOM     25  O   UNL A   1      32.487  36.099  28.899  1.00  0.00    -0.269 OA
BRANCH  23  26
ATOM     26  C   UNL A   1      34.153  34.509  29.340  1.00  0.00     0.039 A 
ATOM     27  C   UNL A   1      33.983  33.953  30.613  1.00  0.00     0.014 A 
ATOM     28  C   UNL A   1      35.437  34.612  28.813  1.00  0.00     0.014 A 
ATOM     29  C   UNL A   1      35.083  33.429  31.308  1.00  0.00     0.010 A 
ATOM     30  C   UNL A   1      36.516  34.016  29.466  1.00  0.00     0.010 A 
ATOM     31  C   UNL A   1      36.358  33.416  30.720  1.00  0.00    -0.014 A 
BRANCH  31  32
ATOM     32  C   UNL A   1      37.522  32.735  31.353  1.00  0.00     0.031 A 
ATOM     33  C   UNL A   1      38.181  31.544  30.705  1.00  0.00     0.074 A 
ATOM     34  C   UNL A   1      37.911  33.108  32.589  1.00  0.00     0.049 A 
ATOM     35  N   UNL A   1      39.157  30.791  31.154  1.00  0.00    -0.248 NA
ATOM     36  C   UNL A   1      37.655  31.120  29.399  1.00  0.00     0.031 C 
ATOM     37  C   UNL A   1      37.296  34.173  33.381  1.00  0.00     0.029 A 
ATOM     38  N   UNL A   1      38.901  32.616  33.405  1.00  0.00    -0.354 N 
ATOM     39  C   UNL A   1      39.347  29.800  30.200  1.00  0.00     0.074 A 
ATOM     40  C   UNL A   1      38.354  30.015  29.169  1.00  0.00     0.031 C 
ATOM     41  C   UNL A   1      37.933  34.268  34.559  1.00  0.00     0.029 A 
ATOM     42  C   UNL A   1      38.983  33.255  34.618  1.00  0.00     0.049 A 
ATOM     43  H   UNL A   1      39.495  31.876  33.144  1.00  0.00     0.167 HD
ATOM     44  C   UNL A   1      40.280  28.816  30.171  1.00  0.00     0.037 A 
ATOM     45  C   UNL A   1      39.810  33.056  35.661  1.00  0.00     0.037 A 
ATOM     46  C   UNL A   1      41.298  28.622  31.172  1.00  0.00     0.049 A 
ATOM     47  C   UNL A   1      40.866  31.989  35.584  1.00  0.00     0.074 A 
ATOM     48  C   UNL A   1      42.355  27.727  31.165  1.00  0.00     0.029 A 
ATOM     49  N   UNL A   1      41.385  29.329  32.360  1.00  0.00    -0.354 N 
ATOM     50  N   UNL A   1      41.110  31.135  34.621  1.00  0.00    -0.248 NA
ATOM     51  C   UNL A   1      41.771  31.870  36.736  1.00  0.00     0.031 C 
ATOM     52  C   UNL A   1      43.057  27.863  32.368  1.00  0.00     0.029 A 
ATOM     53  C   UNL A   1      42.465  28.875  33.104  1.00  0.00     0.049 A 
ATOM     54  H   UNL A   1      40.771  30.048  32.637  1.00  0.00     0.167 HD
ATOM     55  C   UNL A   1      42.212  30.400  35.036  1.00  0.00     0.074 A 
ATOM     56  C   UNL A   1      42.596  30.913  36.333  1.00  0.00     0.031 C 
ATOM     57  C   UNL A   1      42.848  29.391  34.391  1.00  0.00     0.037 A 
BRANCH  44  58
ATOM     58  C   UNL A   1      40.269  27.874  29.000  1.00  0.00     0.064 A 
ATOM     59  C   UNL A   1      41.024  28.131  27.847  1.00  0.00     0.173 A 
ATOM     60  C   UNL A   1      39.559  26.665  29.065  1.00  0.00     0.173 A 
ATOM     61  F   UNL A   1      41.718  29.273  27.735  1.00  0.00    -0.203 F 
ATOM     62  C   UNL A   1      41.049  27.224  26.790  1.00  0.00     0.198 A 
ATOM     63  C   UNL A   1      39.610  25.748  28.018  1.00  0.00     0.198 A 
ATOM     64  F   UNL A   1      38.830  26.363  30.150  1.00  0.00    -0.203 F 
ATOM     65  F   UNL A   1      41.749  27.509  25.682  1.00  0.00    -0.200 F 
ATOM     66  C   UNL A   1      40.350  26.031  26.879  1.00  0.00     0.200 A 
ATOM     67  F   UNL A   1      38.945  24.587  28.111  1.00  0.00    -0.200 F 
ATOM     68  F   UNL A   1      40.387  25.154  25.867  1.00  0.00    -0.200 F 
ENDBRANCH  44  58
BRANCH  45  69
ATOM     69  C   UNL A   1      39.706  33.929  36.856  1.00  0.00     0.064 A 
ATOM     70  C   UNL A   1      40.407  35.141  36.915  1.00  0.00     0.173 A 
ATOM     71  C   UNL A   1      38.902  33.582  37.950  1.00  0.00     0.173 A 
ATOM     72  F   UNL A   1      41.204  35.502  35.898  1.00  0.00    -0.203 F 
ATOM     73  C   UNL A   1      40.322  35.968  38.031  1.00  0.00     0.198 A 
ATOM     74  C   UNL A   1      38.798  34.421  39.057  1.00  0.00     0.198 A 
ATOM     75  F   UNL A   1      38.207  32.436  37.936  1.00  0.00    -0.203 F 
ATOM     76  F   UNL A   1      41.031  37.103  38.079  1.00  0.00    -0.200 F 
ATOM     77  C   UNL A   1      39.512  35.610  39.100  1.00  0.00     0.200 A 
ATOM     78  F   UNL A   1      38.007  34.080  40.083  1.00  0.00    -0.200 F 
ATOM     79  F   UNL A   1      39.425  36.408  40.173  1.00  0.00    -0.200 F 
ENDBRANCH  45  69
BRANCH  57  80
ATOM     80  C   UNL A   1      44.051  28.796  35.063  1.00  0.00     0.064 A 
ATOM     81  C   UNL A   1      43.945  27.688  35.916  1.00  0.00     0.173 A 
ATOM     82  C   UNL A   1      45.330  29.322  34.823  1.00  0.00     0.173 A 
ATOM     83  F   UNL A   1      42.743  27.160  36.190  1.00  0.00    -0.203 F 
ATOM     84  C   UNL A   1      45.073  27.144  36.526  1.00  0.00     0.198 A 
ATOM     85  C   UNL A   1      46.458  28.758  35.413  1.00  0.00     0.198 A 
ATOM     86  F   UNL A   1      45.486  30.377  34.011  1.00  0.00    -0.203 F 
ATOM     87  F   UNL A   1      44.943  26.114  37.372  1.00  0.00    -0.200 F 
ATOM     88  C   UNL A   1      46.329  27.675  36.268  1.00  0.00     0.200 A 
ATOM     89  F   UNL A   1      47.672  29.266  35.156  1.00  0.00    -0.200 F 
ATOM     90  F   UNL A   1      47.413  27.148  36.853  1.00  0.00    -0.200 F 
ENDBRANCH  57  80
ENDBRANCH  31  32
ENDBRANCH  23  26
ENDBRANCH  21  22
ENDBRANCH  20  21
ENDBRANCH   1  20
TORSDOF 14
ENDMDL
MODEL 3
REMARK VINA RESULT:     -12.1      3.618     10.080
REMARK SMILES O=C(CCc1cnc(C2CCCCC2)o1)NCCCCNC(=O)c1ccc(-c2c3nc(c(-c4c(F)c(F)c(F)c(F)c4F)c4ccc([nH]4)c(-c4c(F)c(F)c(F)c(F)c4F)c4nc(c(-c5c(F)c(F)c(F)c(F)c5F)c5ccc2[nH]5)C=C4)C=C3)cc1
REMARK SMILES IDX 18 1 17 2 16 3 1 4 2 5 3 7 4 8 5 9 6 10 15 11 7 12 8 13 9 14
REMARK SMILES IDX 10 15 14 16 11 17 13 18 12 19 19 20 20 21 21 22 22 23 23 25
REMARK SMILES IDX 24 26 25 27 86 28 26 29 85 30 27 31 28 32 29 33 79 34 30 35
REMARK SMILES IDX 84 36 78 37 80 38 31 39 83 40 77 41 76 42 32 44 64 45 44 46
REMARK SMILES IDX 63 47 45 48 48 49 62 50 81 51 46 52 47 53 61 55 82 56 49 57
REMARK SMILES IDX 33 58 34 59 42 60 35 61 36 62 40 63 43 64 37 65 38 66 41 67
REMARK SMILES IDX 39 68 65 69 66 70 74 71 67 72 68 73 72 74 75 75 69 76 70 77
REMARK SMILES IDX 73 78 71 79 50 80 51 81 59 82 52 83 53 84 57 85 60 86 54 87
REMARK SMILES IDX 55 88 58 89 56 90
REMARK H PARENT 16 6 21 24 80 43 48 54
REMARK Flexibility Score: inf
ROOT
ATOM      1  C   UNL A   1      34.336  35.058  28.098  1.00  0.00     0.023 C 
ENDROOT
BRANCH   1   2
ATOM      2  C   UNL A   1      33.302  35.200  29.216  1.00  0.00     0.116 C 
BRANCH   2   3
ATOM      3  N   UNL A   1      33.826  35.943  30.344  1.00  0.00    -0.356 N 
ATOM      4  O   UNL A   1      31.800  36.451  31.295  1.00  0.00    -0.275 OA
ATOM      5  C   UNL A   1      33.025  36.514  31.306  1.00  0.00     0.220 C 
ATOM      6  H   UNL A   1      34.802  36.043  30.428  1.00  0.00     0.163 HD
BRANCH   5   7
ATOM      7  C   UNL A   1      33.772  37.276  32.384  1.00  0.00     0.108 C 
BRANCH   7   8
ATOM      8  C   UNL A   1      34.035  36.440  33.633  1.00  0.00     0.087 C 
BRANCH   8   9
ATOM      9  C   UNL A   1      34.667  35.131  33.338  1.00  0.00     0.125 A 
ATOM     10  C   UNL A   1      34.375  33.817  33.629  1.00  0.00     0.157 A 
ATOM     11  O   UNL A   1      35.826  35.145  32.613  1.00  0.00    -0.445 OA
ATOM     12  N   UNL A   1      35.361  33.002  33.144  1.00  0.00    -0.222 NA
ATOM     13  C   UNL A   1      36.169  33.824  32.507  1.00  0.00     0.197 A 
BRANCH  13  14
ATOM     14  C   UNL A   1      37.381  33.508  31.692  1.00  0.00     0.076 C 
ATOM     15  C   UNL A   1      37.016  33.393  30.209  1.00  0.00     0.013 C 
ATOM     16  C   UNL A   1      38.463  34.579  31.904  1.00  0.00     0.013 C 
ATOM     17  C   UNL A   1      38.246  33.153  29.334  1.00  0.00     0.001 C 
ATOM     18  C   UNL A   1      39.690  34.329  31.032  1.00  0.00     0.001 C 
ATOM     19  C   UNL A   1      39.315  34.220  29.559  1.00  0.00     0.000 C 
ENDBRANCH  13  14
ENDBRANCH   8   9
ENDBRANCH   7   8
ENDBRANCH   5   7
ENDBRANCH   2   3
ENDBRANCH   1   2
BRANCH   1  20
ATOM     20  C   UNL A   1      34.831  33.630  27.835  1.00  0.00     0.023 C 
BRANCH  20  21
ATOM     21  C   UNL A   1      34.041  32.516  28.519  1.00  0.00     0.116 C 
BRANCH  21  22
ATOM     22  N   UNL A   1      33.746  31.401  27.627  1.00  0.00    -0.352 N 
ATOM     23  C   UNL A   1      34.498  30.297  27.299  1.00  0.00     0.251 C 
ATOM     24  H   UNL A   1      32.866  31.446  27.188  1.00  0.00     0.163 HD
ATOM     25  O   UNL A   1      34.111  29.548  26.400  1.00  0.00    -0.269 OA
BRANCH  23  26
ATOM     26  C   UNL A   1      35.773  29.993  27.993  1.00  0.00     0.039 A 
ATOM     27  C   UNL A   1      35.757  29.603  29.337  1.00  0.00     0.014 A 
ATOM     28  C   UNL A   1      36.995  30.121  27.340  1.00  0.00     0.014 A 
ATOM     29  C   UNL A   1      36.952  29.265  29.988  1.00  0.00     0.010 A 
ATOM     30  C   UNL A   1      38.171  29.703  27.961  1.00  0.00     0.010 A 
ATOM     31  C   UNL A   1      38.171  29.269  29.291  1.00  0.00    -0.014 A 
BRANCH  31  32
ATOM     32  C   UNL A   1      39.438  28.771  29.895  1.00  0.00     0.031 A 
ATOM     33  C   UNL A   1      40.077  29.470  31.067  1.00  0.00     0.074 A 
ATOM     34  C   UNL A   1      40.093  27.752  29.302  1.00  0.00     0.049 A 
ATOM     35  N   UNL A   1      41.214  29.211  31.667  1.00  0.00    -0.248 NA
ATOM     36  C   UNL A   1      39.367  30.635  31.616  1.00  0.00     0.031 C 
ATOM     37  C   UNL A   1      39.648  27.049  28.099  1.00  0.00     0.029 A 
ATOM     38  N   UNL A   1      41.286  27.147  29.618  1.00  0.00    -0.354 N 
ATOM     39  C   UNL A   1      41.362  30.185  32.647  1.00  0.00     0.074 A 
ATOM     40  C   UNL A   1      40.225  31.072  32.529  1.00  0.00     0.031 C 
ATOM     41  C   UNL A   1      40.544  26.098  27.789  1.00  0.00     0.029 A 
ATOM     42  C   UNL A   1      41.638  26.140  28.754  1.00  0.00     0.049 A 
ATOM     43  H   UNL A   1      41.836  27.412  30.391  1.00  0.00     0.167 HD
ATOM     44  C   UNL A   1      42.343  30.314  33.574  1.00  0.00     0.037 A 
ATOM     45  C   UNL A   1      42.717  25.335  28.737  1.00  0.00     0.037 A 
ATOM     46  C   UNL A   1      43.455  29.411  33.724  1.00  0.00     0.049 A 
ATOM     47  C   UNL A   1      43.766  25.469  29.805  1.00  0.00     0.074 A 
ATOM     48  C   UNL A   1      44.429  29.397  34.708  1.00  0.00     0.029 A 
ATOM     49  N   UNL A   1      43.746  28.364  32.864  1.00  0.00    -0.354 N 
ATOM     50  N   UNL A   1      43.831  26.321  30.798  1.00  0.00    -0.248 NA
ATOM     51  C   UNL A   1      44.884  24.516  29.758  1.00  0.00     0.031 C 
ATOM     52  C   UNL A   1      45.333  28.368  34.421  1.00  0.00     0.029 A 
ATOM     53  C   UNL A   1      44.897  27.713  33.282  1.00  0.00     0.049 A 
ATOM     54  H   UNL A   1      43.215  28.119  32.071  1.00  0.00     0.167 HD
ATOM     55  C   UNL A   1      44.977  25.990  31.508  1.00  0.00     0.074 A 
ATOM     56  C   UNL A   1      45.572  24.853  30.840  1.00  0.00     0.031 C 
ATOM     57  C   UNL A   1      45.483  26.578  32.619  1.00  0.00     0.037 A 
BRANCH  44  58
ATOM     58  C   UNL A   1      42.252  31.468  34.533  1.00  0.00     0.064 A 
ATOM     59  C   UNL A   1      42.853  32.703  34.251  1.00  0.00     0.173 A 
ATOM     60  C   UNL A   1      41.491  31.361  35.708  1.00  0.00     0.173 A 
ATOM     61  F   UNL A   1      43.593  32.856  33.143  1.00  0.00    -0.203 F 
ATOM     62  C   UNL A   1      42.717  33.782  35.121  1.00  0.00     0.198 A 
ATOM     63  C   UNL A   1      41.334  32.451  36.561  1.00  0.00     0.198 A 
ATOM     64  F   UNL A   1      40.884  30.206  36.020  1.00  0.00    -0.203 F 
ATOM     65  F   UNL A   1      43.332  34.941  34.848  1.00  0.00    -0.200 F 
ATOM     66  C   UNL A   1      41.952  33.658  36.270  1.00  0.00     0.200 A 
ATOM     67  F   UNL A   1      40.581  32.334  37.664  1.00  0.00    -0.200 F 
ATOM     68  F   UNL A   1      41.811  34.702  37.099  1.00  0.00    -0.200 F 
ENDBRANCH  44  58
BRANCH  45  69
ATOM     69  C   UNL A   1      42.832  24.286  27.694  1.00  0.00     0.064 A 
ATOM     70  C   UNL A   1      43.386  24.585  26.442  1.00  0.00     0.173 A 
ATOM     71  C   UNL A   1      42.409  22.970  27.927  1.00  0.00     0.173 A 
ATOM     72  F   UNL A   1      43.785  25.837  26.170  1.00  0.00    -0.203 F 
ATOM     73  C   UNL A   1      43.496  23.612  25.453  1.00  0.00     0.198 A 
ATOM     74  C   UNL A   1      42.542  21.991  26.946  1.00  0.00     0.198 A 
ATOM     75  F   UNL A   1      41.880  22.635  29.113  1.00  0.00    -0.203 F 
ATOM     76  F   UNL A   1      43.993  23.933  24.251  1.00  0.00    -0.200 F 
ATOM     77  C   UNL A   1      43.079  22.313  25.708  1.00  0.00     0.200 A 
ATOM     78  F   UNL A   1      42.150  20.735  27.197  1.00  0.00    -0.200 F 
ATOM     79  F   UNL A   1      43.190  21.374  24.758  1.00  0.00    -0.200 F 
ENDBRANCH  45  69
BRANCH  57  80
ATOM     80  C   UNL A   1      46.728  25.981  33.207  1.00  0.00     0.064 A 
ATOM     81  C   UNL A   1      48.003  26.461  32.876  1.00  0.00     0.173 A 
ATOM     82  C   UNL A   1      46.641  24.934  34.139  1.00  0.00     0.173 A 
ATOM     83  F   UNL A   1      48.140  27.449  31.979  1.00  0.00    -0.203 F 
ATOM     84  C   UNL A   1      49.148  25.900  33.437  1.00  0.00     0.198 A 
ATOM     85  C   UNL A   1      47.786  24.393  34.717  1.00  0.00     0.198 A 
ATOM     86  F   UNL A   1      45.445  24.442  34.494  1.00  0.00    -0.203 F 
ATOM     87  F   UNL A   1      50.357  26.345  33.072  1.00  0.00    -0.200 F 
ATOM     88  C   UNL A   1      49.038  24.871  34.362  1.00  0.00     0.200 A 
ATOM     89  F   UNL A   1      47.678  23.406  35.618  1.00  0.00    -0.200 F 
ATOM     90  F   UNL A   1      50.140  24.334  34.903  1.00  0.00    -0.200 F 
ENDBRANCH  57  80
ENDBRANCH  31  32
ENDBRANCH  23  26
ENDBRANCH  21  22
ENDBRANCH  20  21
ENDBRANCH   1  20
TORSDOF 14
ENDMDL
