MODEL 1
REMARK VINA RESULT:     -12.5      0.000      0.000
REMARK SMILES N#CCC(=O)NNC(=O)c1ccccc1C(=O)NCCCCNC(=O)c1ccc(-c2c3nc(c(-c4c(F)c(F)c(F)c(F)c4F)c4ccc([nH]4)c(-c4c(F)c(F)c(F)c(F)c4F)c4nc(c(-c5c(F)c(F)c(F)c(F)c5F)c5ccc2[nH]5)C=C4)C=C3)cc1
REMARK SMILES IDX 19 1 18 2 16 3 17 4 15 6 10 7 11 8 12 9 14 10 13 11 8 12
REMARK SMILES IDX 7 13 9 15 6 16 4 17 5 18 3 20 2 21 1 22 20 23 21 24 22 25
REMARK SMILES IDX 23 26 24 27 25 29 26 30 27 31 88 32 28 33 87 34 29 35 30 36
REMARK SMILES IDX 31 37 81 38 32 39 86 40 80 41 82 42 33 43 85 44 79 45 78 46
REMARK SMILES IDX 34 48 66 49 46 50 65 51 47 52 50 53 64 54 83 55 48 56 49 57
REMARK SMILES IDX 63 59 84 60 51 61 35 62 36 63 44 64 37 65 38 66 42 67 45 68
REMARK SMILES IDX 39 69 40 70 43 71 41 72 67 73 68 74 76 75 69 76 70 77 74 78
REMARK SMILES IDX 77 79 71 80 72 81 75 82 73 83 52 84 53 85 61 86 54 87 55 88
REMARK SMILES IDX 59 89 62 90 56 91 57 92 60 93 58 94
REMARK H PARENT 18 5 7 14 6 19 23 28 82 47 50 58
REMARK Flexibility Score: inf
ROOT
ATOM      1  C   UNL A   1      32.582  26.157  26.223  1.00  0.00     0.116 C 
ENDROOT
BRANCH   1   2
ATOM      2  N   UNL A   1      31.750  25.201  26.933  1.00  0.00    -0.352 N 
ATOM      3  C   UNL A   1      31.400  23.916  26.591  1.00  0.00     0.252 C 
ATOM      4  O   UNL A   1      30.665  23.279  27.343  1.00  0.00    -0.269 OA
ATOM      5  H   UNL A   1      31.383  25.520  27.789  1.00  0.00     0.163 HD
BRANCH   3   6
ATOM      6  C   UNL A   1      31.818  23.283  25.321  1.00  0.00     0.052 A 
ATOM      7  C   UNL A   1      32.907  22.425  25.164  1.00  0.00     0.054 A 
ATOM      8  C   UNL A   1      33.263  21.985  23.871  1.00  0.00     0.015 A 
ATOM      9  C   UNL A   1      32.495  22.320  22.759  1.00  0.00     0.001 A 
ATOM     10  C   UNL A   1      31.017  23.570  24.198  1.00  0.00     0.014 A 
ATOM     11  C   UNL A   1      31.351  23.090  22.927  1.00  0.00     0.001 A 
BRANCH   7  12
ATOM     12  C   UNL A   1      33.776  21.920  26.237  1.00  0.00     0.270 C 
ATOM     13  N   UNL A   1      33.716  20.630  26.710  1.00  0.00    -0.263 N 
ATOM     14  H   UNL A   1      34.405  20.377  27.366  1.00  0.00     0.191 HD
ATOM     15  O   UNL A   1      34.643  22.675  26.677  1.00  0.00    -0.267 OA
BRANCH  13  16
ATOM     16  N   UNL A   1      32.799  19.637  26.373  1.00  0.00    -0.266 N 
ATOM     17  C   UNL A   1      32.998  18.653  25.418  1.00  0.00     0.252 C 
ATOM     18  O   UNL A   1      32.058  17.901  25.145  1.00  0.00    -0.272 OA
ATOM     19  H   UNL A   1      31.938  19.635  26.851  1.00  0.00     0.191 HD
BRANCH  17  20
ATOM     20  C   UNL A   1      34.356  18.435  24.740  1.00  0.00     0.221 C 
BRANCH  20  21
ATOM     21  C   UNL A   1      34.210  17.279  23.764  1.00  0.00     0.072 C 
ATOM     22  N   UNL A   1      34.089  16.320  22.954  1.00  0.00    -0.198 NA
ENDBRANCH  20  21
ENDBRANCH  17  20
ENDBRANCH  13  16
ENDBRANCH   7  12
ENDBRANCH   3   6
ENDBRANCH   1   2
BRANCH   1  23
ATOM     23  C   UNL A   1      32.679  27.535  26.886  1.00  0.00     0.023 C 
BRANCH  23  24
ATOM     24  C   UNL A   1      31.883  28.680  26.246  1.00  0.00     0.023 C 
BRANCH  24  25
ATOM     25  C   UNL A   1      32.672  29.908  25.809  1.00  0.00     0.116 C 
BRANCH  25  26
ATOM     26  N   UNL A   1      32.380  31.152  26.482  1.00  0.00    -0.352 N 
ATOM     27  C   UNL A   1      33.191  31.921  27.295  1.00  0.00     0.251 C 
ATOM     28  H   UNL A   1      31.471  31.502  26.343  1.00  0.00     0.163 HD
ATOM     29  O   UNL A   1      32.797  33.007  27.697  1.00  0.00    -0.269 OA
BRANCH  27  30
ATOM     30  C   UNL A   1      34.499  31.405  27.772  1.00  0.00     0.039 A 
ATOM     31  C   UNL A   1      35.528  32.330  27.961  1.00  0.00     0.014 A 
ATOM     32  C   UNL A   1      34.729  30.057  28.053  1.00  0.00     0.014 A 
ATOM     33  C   UNL A   1      36.735  31.928  28.540  1.00  0.00     0.010 A 
ATOM     34  C   UNL A   1      35.910  29.662  28.689  1.00  0.00     0.010 A 
ATOM     35  C   UNL A   1      36.914  30.602  28.967  1.00  0.00    -0.014 A 
BRANCH  35  36
ATOM     36  C   UNL A   1      38.111  30.219  29.767  1.00  0.00     0.031 A 
ATOM     37  C   UNL A   1      39.134  29.262  29.226  1.00  0.00     0.074 A 
ATOM     38  C   UNL A   1      38.245  30.704  31.018  1.00  0.00     0.049 A 
ATOM     39  N   UNL A   1      40.213  28.794  29.805  1.00  0.00    -0.248 NA
ATOM     40  C   UNL A   1      38.907  28.746  27.869  1.00  0.00     0.031 C 
ATOM     41  C   UNL A   1      37.299  31.601  31.683  1.00  0.00     0.029 A 
ATOM     42  N   UNL A   1      39.226  30.504  31.961  1.00  0.00    -0.354 N 
ATOM     43  C   UNL A   1      40.788  27.925  28.888  1.00  0.00     0.074 A 
ATOM     44  C   UNL A   1      39.916  27.896  27.732  1.00  0.00     0.031 C 
ATOM     45  C   UNL A   1      37.755  31.894  32.910  1.00  0.00     0.029 A 
ATOM     46  C   UNL A   1      39.007  31.179  33.138  1.00  0.00     0.049 A 
ATOM     47  H   UNL A   1      40.012  29.933  31.806  1.00  0.00     0.167 HD
ATOM     48  C   UNL A   1      41.947  27.229  28.992  1.00  0.00     0.037 A 
ATOM     49  C   UNL A   1      39.728  31.215  34.275  1.00  0.00     0.037 A 
ATOM     50  C   UNL A   1      42.829  27.276  30.129  1.00  0.00     0.049 A 
ATOM     51  C   UNL A   1      41.012  30.436  34.362  1.00  0.00     0.074 A 
ATOM     52  C   UNL A   1      44.053  26.649  30.299  1.00  0.00     0.029 A 
ATOM     53  N   UNL A   1      42.583  27.991  31.293  1.00  0.00    -0.354 N 
ATOM     54  N   UNL A   1      41.578  29.674  33.460  1.00  0.00    -0.248 NA
ATOM     55  C   UNL A   1      41.762  30.528  35.624  1.00  0.00     0.031 C 
ATOM     56  C   UNL A   1      44.529  26.954  31.579  1.00  0.00     0.029 A 
ATOM     57  C   UNL A   1      43.624  27.806  32.189  1.00  0.00     0.049 A 
ATOM     58  H   UNL A   1      41.788  28.547  31.457  1.00  0.00     0.167 HD
ATOM     59  C   UNL A   1      42.761  29.225  34.028  1.00  0.00     0.074 A 
ATOM     60  C   UNL A   1      42.837  29.803  35.352  1.00  0.00     0.031 C 
ATOM     61  C   UNL A   1      43.701  28.406  33.497  1.00  0.00     0.037 A 
BRANCH  48  62
ATOM     62  C   UNL A   1      42.339  26.355  27.838  1.00  0.00     0.064 A 
ATOM     63  C   UNL A   1      43.243  26.795  26.860  1.00  0.00     0.173 A 
ATOM     64  C   UNL A   1      41.849  25.044  27.737  1.00  0.00     0.173 A 
ATOM     65  F   UNL A   1      43.734  28.043  26.907  1.00  0.00    -0.203 F 
ATOM     66  C   UNL A   1      43.623  25.964  25.809  1.00  0.00     0.198 A 
ATOM     67  C   UNL A   1      42.253  24.206  26.701  1.00  0.00     0.198 A 
ATOM     68  F   UNL A   1      40.991  24.570  28.653  1.00  0.00    -0.203 F 
ATOM     69  F   UNL A   1      44.456  26.419  24.864  1.00  0.00    -0.200 F 
ATOM     70  C   UNL A   1      43.133  24.667  25.735  1.00  0.00     0.200 A 
ATOM     71  F   UNL A   1      41.790  22.949  26.638  1.00  0.00    -0.200 F 
ATOM     72  F   UNL A   1      43.507  23.866  24.728  1.00  0.00    -0.200 F 
ENDBRANCH  48  62
BRANCH  49  73
ATOM     73  C   UNL A   1      39.264  32.038  35.422  1.00  0.00     0.064 A 
ATOM     74  C   UNL A   1      39.606  33.395  35.519  1.00  0.00     0.173 A 
ATOM     75  C   UNL A   1      38.482  31.486  36.447  1.00  0.00     0.173 A 
ATOM     76  F   UNL A   1      40.369  33.961  34.574  1.00  0.00    -0.203 F 
ATOM     77  C   UNL A   1      39.200  34.162  36.609  1.00  0.00     0.198 A 
ATOM     78  C   UNL A   1      38.055  32.262  37.522  1.00  0.00     0.198 A 
ATOM     79  F   UNL A   1      38.125  30.196  36.398  1.00  0.00    -0.203 F 
ATOM     80  F   UNL A   1      39.579  35.444  36.700  1.00  0.00    -0.200 F 
ATOM     81  C   UNL A   1      38.422  33.597  37.607  1.00  0.00     0.200 A 
ATOM     82  F   UNL A   1      37.292  31.716  38.478  1.00  0.00    -0.200 F 
ATOM     83  F   UNL A   1      38.031  34.336  38.655  1.00  0.00    -0.200 F 
ENDBRANCH  49  73
BRANCH  61  84
ATOM     84  C   UNL A   1      44.920  28.122  34.322  1.00  0.00     0.064 A 
ATOM     85  C   UNL A   1      45.070  26.917  35.025  1.00  0.00     0.173 A 
ATOM     86  C   UNL A   1      45.977  29.044  34.363  1.00  0.00     0.173 A 
ATOM     87  F   UNL A   1      44.080  26.011  35.030  1.00  0.00    -0.203 F 
ATOM     88  C   UNL A   1      46.229  26.653  35.752  1.00  0.00     0.198 A 
ATOM     89  C   UNL A   1      47.144  28.765  35.070  1.00  0.00     0.198 A 
ATOM     90  F   UNL A   1      45.884  30.208  33.705  1.00  0.00    -0.203 F 
ATOM     91  F   UNL A   1      46.336  25.511  36.445  1.00  0.00    -0.200 F 
ATOM     92  C   UNL A   1      47.267  27.573  35.766  1.00  0.00     0.200 A 
ATOM     93  F   UNL A   1      48.150  29.651  35.074  1.00  0.00    -0.200 F 
ATOM     94  F   UNL A   1      48.385  27.311  36.457  1.00  0.00    -0.200 F 
ENDBRANCH  61  84
ENDBRANCH  35  36
ENDBRANCH  27  30
ENDBRANCH  25  26
ENDBRANCH  24  25
ENDBRANCH  23  24
ENDBRANCH   1  23
TORSDOF 15
ENDMDL
MODEL 2
REMARK VINA RESULT:     -12.5      3.184      8.686
REMARK SMILES N#CCC(=O)NNC(=O)c1ccccc1C(=O)NCCCCNC(=O)c1ccc(-c2c3nc(c(-c4c(F)c(F)c(F)c(F)c4F)c4ccc([nH]4)c(-c4c(F)c(F)c(F)c(F)c4F)c4nc(c(-c5c(F)c(F)c(F)c(F)c5F)c5ccc2[nH]5)C=C4)C=C3)cc1
REMARK SMILES IDX 19 1 18 2 16 3 17 4 15 6 10 7 11 8 12 9 14 10 13 11 8 12
REMARK SMILES IDX 7 13 9 15 6 16 4 17 5 18 3 20 2 21 1 22 20 23 21 24 22 25
REMARK SMILES IDX 23 26 24 27 25 29 26 30 27 31 88 32 28 33 87 34 29 35 30 36
REMARK SMILES IDX 31 37 81 38 32 39 86 40 80 41 82 42 33 43 85 44 79 45 78 46
REMARK SMILES IDX 34 48 66 49 46 50 65 51 47 52 50 53 64 54 83 55 48 56 49 57
REMARK SMILES IDX 63 59 84 60 51 61 35 62 36 63 44 64 37 65 38 66 42 67 45 68
REMARK SMILES IDX 39 69 40 70 43 71 41 72 67 73 68 74 76 75 69 76 70 77 74 78
REMARK SMILES IDX 77 79 71 80 72 81 75 82 73 83 52 84 53 85 61 86 54 87 55 88
REMARK SMILES IDX 59 89 62 90 56 91 57 92 60 93 58 94
REMARK H PARENT 18 5 7 14 6 19 23 28 82 47 50 58
REMARK Flexibility Score: inf
ROOT
ATOM      1  C   UNL A   1      31.830  29.645  25.430  1.00  0.00     0.116 C 
ENDROOT
BRANCH   1   2
ATOM      2  N   UNL A   1      32.953  29.708  24.511  1.00  0.00    -0.352 N 
ATOM      3  C   UNL A   1      33.708  28.691  23.975  1.00  0.00     0.252 C 
ATOM      4  O   UNL A   1      34.634  28.973  23.217  1.00  0.00    -0.269 OA
ATOM      5  H   UNL A   1      33.213  30.615  24.229  1.00  0.00     0.163 HD
BRANCH   3   6
ATOM      6  C   UNL A   1      33.495  27.268  24.319  1.00  0.00     0.052 A 
ATOM      7  C   UNL A   1      32.973  26.297  23.465  1.00  0.00     0.054 A 
ATOM      8  C   UNL A   1      32.713  25.003  23.961  1.00  0.00     0.015 A 
ATOM      9  C   UNL A   1      33.051  24.650  25.266  1.00  0.00     0.001 A 
ATOM     10  C   UNL A   1      33.883  26.886  25.619  1.00  0.00     0.014 A 
ATOM     11  C   UNL A   1      33.665  25.586  26.088  1.00  0.00     0.001 A 
BRANCH   7  12
ATOM     12  C   UNL A   1      32.629  26.484  22.047  1.00  0.00     0.270 C 
ATOM     13  N   UNL A   1      31.398  26.925  21.622  1.00  0.00    -0.263 N 
ATOM     14  H   UNL A   1      31.309  27.098  20.657  1.00  0.00     0.191 HD
ATOM     15  O   UNL A   1      33.516  26.302  21.213  1.00  0.00    -0.267 OA
BRANCH  13  16
ATOM     16  N   UNL A   1      30.260  27.156  22.392  1.00  0.00    -0.266 N 
ATOM     17  C   UNL A   1      29.730  28.403  22.684  1.00  0.00     0.252 C 
ATOM     18  O   UNL A   1      28.778  28.467  23.468  1.00  0.00    -0.272 OA
ATOM     19  H   UNL A   1      29.795  26.370  22.760  1.00  0.00     0.191 HD
BRANCH  17  20
ATOM     20  C   UNL A   1      30.248  29.687  22.024  1.00  0.00     0.221 C 
BRANCH  20  21
ATOM     21  C   UNL A   1      29.052  30.437  21.461  1.00  0.00     0.072 C 
ATOM     22  N   UNL A   1      28.060  31.060  20.994  1.00  0.00    -0.198 NA
ENDBRANCH  20  21
ENDBRANCH  17  20
ENDBRANCH  13  16
ENDBRANCH   7  12
ENDBRANCH   3   6
ENDBRANCH   1   2
BRANCH   1  23
ATOM     23  C   UNL A   1      32.063  30.346  26.772  1.00  0.00     0.023 C 
BRANCH  23  24
ATOM     24  C   UNL A   1      31.625  31.813  26.883  1.00  0.00     0.023 C 
BRANCH  24  25
ATOM     25  C   UNL A   1      32.714  32.837  27.181  1.00  0.00     0.116 C 
BRANCH  25  26
ATOM     26  N   UNL A   1      32.289  34.126  27.673  1.00  0.00    -0.352 N 
ATOM     27  C   UNL A   1      32.933  34.992  28.537  1.00  0.00     0.251 C 
ATOM     28  H   UNL A   1      31.413  34.432  27.347  1.00  0.00     0.163 HD
ATOM     29  O   UNL A   1      32.457  36.096  28.761  1.00  0.00    -0.269 OA
BRANCH  27  30
ATOM     30  C   UNL A   1      34.146  34.565  29.278  1.00  0.00     0.039 A 
ATOM     31  C   UNL A   1      33.964  33.978  30.532  1.00  0.00     0.014 A 
ATOM     32  C   UNL A   1      35.439  34.706  28.768  1.00  0.00     0.014 A 
ATOM     33  C   UNL A   1      35.053  33.430  31.215  1.00  0.00     0.010 A 
ATOM     34  C   UNL A   1      36.521  34.103  29.418  1.00  0.00     0.010 A 
ATOM     35  C   UNL A   1      36.332  33.431  30.635  1.00  0.00    -0.014 A 
BRANCH  35  36
ATOM     36  C   UNL A   1      37.448  32.670  31.262  1.00  0.00     0.031 A 
ATOM     37  C   UNL A   1      37.967  33.030  32.625  1.00  0.00     0.074 A 
ATOM     38  C   UNL A   1      38.034  31.674  30.566  1.00  0.00     0.049 A 
ATOM     39  N   UNL A   1      38.956  32.495  33.299  1.00  0.00    -0.248 NA
ATOM     40  C   UNL A   1      37.306  34.147  33.312  1.00  0.00     0.031 C 
ATOM     41  C   UNL A   1      37.661  31.256  29.214  1.00  0.00     0.029 A 
ATOM     42  N   UNL A   1      39.073  30.836  30.895  1.00  0.00    -0.354 N 
ATOM     43  C   UNL A   1      39.040  33.215  34.483  1.00  0.00     0.074 A 
ATOM     44  C   UNL A   1      38.031  34.252  34.418  1.00  0.00     0.031 C 
ATOM     45  C   UNL A   1      38.439  30.228  28.839  1.00  0.00     0.029 A 
ATOM     46  C   UNL A   1      39.391  29.936  29.906  1.00  0.00     0.049 A 
ATOM     47  H   UNL A   1      39.545  30.877  31.757  1.00  0.00     0.167 HD
ATOM     48  C   UNL A   1      39.869  33.017  35.537  1.00  0.00     0.037 A 
ATOM     49  C   UNL A   1      40.344  28.985  29.859  1.00  0.00     0.037 A 
ATOM     50  C   UNL A   1      40.856  31.971  35.616  1.00  0.00     0.049 A 
ATOM     51  C   UNL A   1      41.248  28.785  31.044  1.00  0.00     0.074 A 
ATOM     52  C   UNL A   1      41.701  31.659  36.669  1.00  0.00     0.029 A 
ATOM     53  N   UNL A   1      41.130  31.063  34.603  1.00  0.00    -0.354 N 
ATOM     54  N   UNL A   1      41.268  29.428  32.186  1.00  0.00    -0.248 NA
ATOM     55  C   UNL A   1      42.258  27.721  30.938  1.00  0.00     0.031 C 
ATOM     56  C   UNL A   1      42.512  30.588  36.278  1.00  0.00     0.029 A 
ATOM     57  C   UNL A   1      42.142  30.204  35.000  1.00  0.00     0.049 A 
ATOM     58  H   UNL A   1      40.673  31.034  33.731  1.00  0.00     0.167 HD
ATOM     59  C   UNL A   1      42.264  28.828  32.943  1.00  0.00     0.074 A 
ATOM     60  C   UNL A   1      42.823  27.765  32.137  1.00  0.00     0.031 C 
ATOM     61  C   UNL A   1      42.676  29.133  34.197  1.00  0.00     0.037 A 
BRANCH  48  62
ATOM     62  C   UNL A   1      39.745  33.951  36.704  1.00  0.00     0.064 A 
ATOM     63  C   UNL A   1      38.954  33.630  37.818  1.00  0.00     0.173 A 
ATOM     64  C   UNL A   1      40.466  35.154  36.736  1.00  0.00     0.173 A 
ATOM     65  F   UNL A   1      38.239  32.495  37.833  1.00  0.00    -0.203 F 
ATOM     66  C   UNL A   1      38.869  34.491  38.909  1.00  0.00     0.198 A 
ATOM     67  C   UNL A   1      40.402  35.999  37.840  1.00  0.00     0.198 A 
ATOM     68  F   UNL A   1      41.246  35.502  35.702  1.00  0.00    -0.203 F 
ATOM     69  F   UNL A   1      38.076  34.184  39.943  1.00  0.00    -0.200 F 
ATOM     70  C   UNL A   1      39.599  35.672  38.922  1.00  0.00     0.200 A 
ATOM     71  F   UNL A   1      41.118  37.132  37.858  1.00  0.00    -0.200 F 
ATOM     72  F   UNL A   1      39.524  36.495  39.977  1.00  0.00    -0.200 F 
ENDBRANCH  48  62
BRANCH  49  73
ATOM     73  C   UNL A   1      40.480  28.129  28.652  1.00  0.00     0.064 A 
ATOM     74  C   UNL A   1      39.827  26.891  28.571  1.00  0.00     0.173 A 
ATOM     75  C   UNL A   1      41.270  28.524  27.563  1.00  0.00     0.173 A 
ATOM     76  F   UNL A   1      39.077  26.461  29.596  1.00  0.00    -0.203 F 
ATOM     77  C   UNL A   1      39.977  26.070  27.454  1.00  0.00     0.198 A 
ATOM     78  C   UNL A   1      41.398  27.715  26.436  1.00  0.00     0.198 A 
ATOM     79  F   UNL A   1      41.910  29.701  27.590  1.00  0.00    -0.203 F 
ATOM     80  F   UNL A   1      39.380  24.871  27.422  1.00  0.00    -0.200 F 
ATOM     81  C   UNL A   1      40.758  26.485  26.387  1.00  0.00     0.200 A 
ATOM     82  F   UNL A   1      42.142  28.124  25.401  1.00  0.00    -0.200 F 
ATOM     83  F   UNL A   1      40.902  25.696  25.313  1.00  0.00    -0.200 F 
ENDBRANCH  49  73
BRANCH  61  84
ATOM     84  C   UNL A   1      43.750  28.279  34.802  1.00  0.00     0.064 A 
ATOM     85  C   UNL A   1      45.106  28.626  34.712  1.00  0.00     0.173 A 
ATOM     86  C   UNL A   1      43.412  27.128  35.529  1.00  0.00     0.173 A 
ATOM     87  F   UNL A   1      45.480  29.708  34.013  1.00  0.00    -0.203 F 
ATOM     88  C   UNL A   1      46.086  27.843  35.317  1.00  0.00     0.198 A 
ATOM     89  C   UNL A   1      44.392  26.361  36.153  1.00  0.00     0.198 A 
ATOM     90  F   UNL A   1      42.129  26.755  35.648  1.00  0.00    -0.203 F 
ATOM     91  F   UNL A   1      47.378  28.174  35.189  1.00  0.00    -0.200 F 
ATOM     92  C   UNL A   1      45.727  26.717  36.043  1.00  0.00     0.200 A 
ATOM     93  F   UNL A   1      44.043  25.280  36.864  1.00  0.00    -0.200 F 
ATOM     94  F   UNL A   1      46.671  25.971  36.634  1.00  0.00    -0.200 F 
ENDBRANCH  61  84
ENDBRANCH  35  36
ENDBRANCH  27  30
ENDBRANCH  25  26
ENDBRANCH  24  25
ENDBRANCH  23  24
ENDBRANCH   1  23
TORSDOF 15
ENDMDL
MODEL 3
REMARK VINA RESULT:     -12.3      1.162      7.561
REMARK SMILES N#CCC(=O)NNC(=O)c1ccccc1C(=O)NCCCCNC(=O)c1ccc(-c2c3nc(c(-c4c(F)c(F)c(F)c(F)c4F)c4ccc([nH]4)c(-c4c(F)c(F)c(F)c(F)c4F)c4nc(c(-c5c(F)c(F)c(F)c(F)c5F)c5ccc2[nH]5)C=C4)C=C3)cc1
REMARK SMILES IDX 19 1 18 2 16 3 17 4 15 6 10 7 11 8 12 9 14 10 13 11 8 12
REMARK SMILES IDX 7 13 9 15 6 16 4 17 5 18 3 20 2 21 1 22 20 23 21 24 22 25
REMARK SMILES IDX 23 26 24 27 25 29 26 30 27 31 88 32 28 33 87 34 29 35 30 36
REMARK SMILES IDX 31 37 81 38 32 39 86 40 80 41 82 42 33 43 85 44 79 45 78 46
REMARK SMILES IDX 34 48 66 49 46 50 65 51 47 52 50 53 64 54 83 55 48 56 49 57
REMARK SMILES IDX 63 59 84 60 51 61 35 62 36 63 44 64 37 65 38 66 42 67 45 68
REMARK SMILES IDX 39 69 40 70 43 71 41 72 67 73 68 74 76 75 69 76 70 77 74 78
REMARK SMILES IDX 77 79 71 80 72 81 75 82 73 83 52 84 53 85 61 86 54 87 55 88
REMARK SMILES IDX 59 89 62 90 56 91 57 92 60 93 58 94
REMARK H PARENT 18 5 7 14 6 19 23 28 82 47 50 58
REMARK Flexibility Score: inf
ROOT
ATOM      1  C   UNL A   1      32.392  26.144  25.160  1.00  0.00     0.116 C 
ENDROOT
BRANCH   1   2
ATOM      2  N   UNL A   1      32.128  24.955  25.951  1.00  0.00    -0.352 N 
ATOM      3  C   UNL A   1      32.880  23.813  26.099  1.00  0.00     0.252 C 
ATOM      4  O   UNL A   1      32.456  22.910  26.819  1.00  0.00    -0.269 OA
ATOM      5  H   UNL A   1      31.284  24.968  26.459  1.00  0.00     0.163 HD
BRANCH   3   6
ATOM      6  C   UNL A   1      34.153  23.593  25.379  1.00  0.00     0.052 A 
ATOM      7  C   UNL A   1      34.283  22.990  24.128  1.00  0.00     0.054 A 
ATOM      8  C   UNL A   1      35.570  22.737  23.609  1.00  0.00     0.015 A 
ATOM      9  C   UNL A   1      36.714  23.159  24.283  1.00  0.00     0.001 A 
ATOM     10  C   UNL A   1      35.314  24.064  26.026  1.00  0.00     0.014 A 
ATOM     11  C   UNL A   1      36.584  23.851  25.480  1.00  0.00     0.001 A 
BRANCH   7  12
ATOM     12  C   UNL A   1      33.181  22.551  23.258  1.00  0.00     0.270 C 
ATOM     13  N   UNL A   1      32.390  21.461  23.538  1.00  0.00    -0.263 N 
ATOM     14  H   UNL A   1      31.627  21.314  22.933  1.00  0.00     0.191 HD
ATOM     15  O   UNL A   1      32.917  23.241  22.274  1.00  0.00    -0.267 OA
BRANCH  13  16
ATOM     16  N   UNL A   1      32.537  20.540  24.572  1.00  0.00    -0.266 N 
ATOM     17  C   UNL A   1      32.486  19.162  24.432  1.00  0.00     0.252 C 
ATOM     18  O   UNL A   1      32.526  18.466  25.451  1.00  0.00    -0.272 OA
ATOM     19  H   UNL A   1      32.689  20.897  25.477  1.00  0.00     0.191 HD
BRANCH  17  20
ATOM     20  C   UNL A   1      32.441  18.481  23.059  1.00  0.00     0.221 C 
BRANCH  20  21
ATOM     21  C   UNL A   1      33.311  17.237  23.126  1.00  0.00     0.072 C 
ATOM     22  N   UNL A   1      34.032  16.204  23.181  1.00  0.00    -0.198 NA
ENDBRANCH  20  21
ENDBRANCH  17  20
ENDBRANCH  13  16
ENDBRANCH   7  12
ENDBRANCH   3   6
ENDBRANCH   1   2
BRANCH   1  23
ATOM     23  C   UNL A   1      31.456  27.322  25.447  1.00  0.00     0.023 C 
BRANCH  23  24
ATOM     24  C   UNL A   1      31.944  28.378  26.449  1.00  0.00     0.023 C 
BRANCH  24  25
ATOM     25  C   UNL A   1      32.682  29.582  25.876  1.00  0.00     0.116 C 
BRANCH  25  26
ATOM     26  N   UNL A   1      32.439  30.862  26.500  1.00  0.00    -0.352 N 
ATOM     27  C   UNL A   1      33.285  31.641  27.265  1.00  0.00     0.251 C 
ATOM     28  H   UNL A   1      31.538  31.232  26.360  1.00  0.00     0.163 HD
ATOM     29  O   UNL A   1      32.930  32.754  27.627  1.00  0.00    -0.269 OA
BRANCH  27  30
ATOM     30  C   UNL A   1      34.587  31.107  27.742  1.00  0.00     0.039 A 
ATOM     31  C   UNL A   1      35.608  32.025  27.994  1.00  0.00     0.014 A 
ATOM     32  C   UNL A   1      34.816  29.747  27.964  1.00  0.00     0.014 A 
ATOM     33  C   UNL A   1      36.806  31.600  28.577  1.00  0.00     0.010 A 
ATOM     34  C   UNL A   1      35.987  29.327  28.604  1.00  0.00     0.010 A 
ATOM     35  C   UNL A   1      36.981  30.257  28.945  1.00  0.00    -0.014 A 
BRANCH  35  36
ATOM     36  C   UNL A   1      38.164  29.840  29.749  1.00  0.00     0.031 A 
ATOM     37  C   UNL A   1      38.386  30.366  31.138  1.00  0.00     0.074 A 
ATOM     38  C   UNL A   1      39.076  29.016  29.194  1.00  0.00     0.049 A 
ATOM     39  N   UNL A   1      39.381  30.135  31.959  1.00  0.00    -0.248 NA
ATOM     40  C   UNL A   1      37.370  31.286  31.668  1.00  0.00     0.031 C 
ATOM     41  C   UNL A   1      39.009  28.473  27.836  1.00  0.00     0.029 A 
ATOM     42  N   UNL A   1      40.245  28.497  29.697  1.00  0.00    -0.354 N 
ATOM     43  C   UNL A   1      39.116  30.886  33.096  1.00  0.00     0.074 A 
ATOM     44  C   UNL A   1      37.890  31.614  32.844  1.00  0.00     0.031 C 
ATOM     45  C   UNL A   1      40.070  27.680  27.624  1.00  0.00     0.029 A 
ATOM     46  C   UNL A   1      40.915  27.685  28.814  1.00  0.00     0.049 A 
ATOM     47  H   UNL A   1      40.571  28.687  30.606  1.00  0.00     0.167 HD
ATOM     48  C   UNL A   1      39.821  30.949  34.252  1.00  0.00     0.037 A 
ATOM     49  C   UNL A   1      42.080  27.022  28.942  1.00  0.00     0.037 A 
ATOM     50  C   UNL A   1      41.027  30.207  34.516  1.00  0.00     0.049 A 
ATOM     51  C   UNL A   1      42.840  27.106  30.238  1.00  0.00     0.074 A 
ATOM     52  C   UNL A   1      41.777  30.164  35.680  1.00  0.00     0.029 A 
ATOM     53  N   UNL A   1      41.660  29.376  33.603  1.00  0.00    -0.354 N 
ATOM     54  N   UNL A   1      42.540  27.765  31.330  1.00  0.00    -0.248 NA
ATOM     55  C   UNL A   1      44.098  26.348  30.323  1.00  0.00     0.031 C 
ATOM     56  C   UNL A   1      42.883  29.337  35.459  1.00  0.00     0.029 A 
ATOM     57  C   UNL A   1      42.800  28.830  34.174  1.00  0.00     0.049 A 
ATOM     58  H   UNL A   1      41.347  29.200  32.687  1.00  0.00     0.167 HD
ATOM     59  C   UNL A   1      43.548  27.476  32.239  1.00  0.00     0.074 A 
ATOM     60  C   UNL A   1      44.467  26.577  31.575  1.00  0.00     0.031 C 
ATOM     61  C   UNL A   1      43.696  27.917  33.511  1.00  0.00     0.037 A 
BRANCH  48  62
ATOM     62  C   UNL A   1      39.304  31.850  35.334  1.00  0.00     0.064 A 
ATOM     63  C   UNL A   1      38.485  31.363  36.365  1.00  0.00     0.173 A 
ATOM     64  C   UNL A   1      39.673  33.203  35.374  1.00  0.00     0.173 A 
ATOM     65  F   UNL A   1      38.098  30.078  36.368  1.00  0.00    -0.203 F 
ATOM     66  C   UNL A   1      38.035  32.202  37.380  1.00  0.00     0.198 A 
ATOM     67  C   UNL A   1      39.244  34.033  36.405  1.00  0.00     0.198 A 
ATOM     68  F   UNL A   1      40.463  33.716  34.418  1.00  0.00    -0.203 F 
ATOM     69  F   UNL A   1      37.222  31.724  38.331  1.00  0.00    -0.200 F 
ATOM     70  C   UNL A   1      38.421  33.535  37.403  1.00  0.00     0.200 A 
ATOM     71  F   UNL A   1      39.628  35.317  36.435  1.00  0.00    -0.200 F 
ATOM     72  F   UNL A   1      37.994  34.340  38.387  1.00  0.00    -0.200 F 
ENDBRANCH  48  62
BRANCH  49  73
ATOM     73  C   UNL A   1      42.594  26.197  27.817  1.00  0.00     0.064 A 
ATOM     74  C   UNL A   1      43.539  26.715  26.920  1.00  0.00     0.173 A 
ATOM     75  C   UNL A   1      42.144  24.885  27.610  1.00  0.00     0.173 A 
ATOM     76  F   UNL A   1      43.983  27.971  27.066  1.00  0.00    -0.203 F 
ATOM     77  C   UNL A   1      43.999  25.956  25.845  1.00  0.00     0.198 A 
ATOM     78  C   UNL A   1      42.626  24.120  26.550  1.00  0.00     0.198 A 
ATOM     79  F   UNL A   1      41.245  24.344  28.443  1.00  0.00    -0.203 F 
ATOM     80  F   UNL A   1      44.868  26.490  24.976  1.00  0.00    -0.200 F 
ATOM     81  C   UNL A   1      43.546  24.659  25.664  1.00  0.00     0.200 A 
ATOM     82  F   UNL A   1      42.195  22.862  26.386  1.00  0.00    -0.200 F 
ATOM     83  F   UNL A   1      43.990  23.930  24.630  1.00  0.00    -0.200 F 
ENDBRANCH  49  73
BRANCH  61  84
ATOM     84  C   UNL A   1      44.865  27.399  34.294  1.00  0.00     0.064 A 
ATOM     85  C   UNL A   1      46.087  28.087  34.335  1.00  0.00     0.173 A 
ATOM     86  C   UNL A   1      44.742  26.229  35.057  1.00  0.00     0.173 A 
ATOM     87  F   UNL A   1      46.259  29.201  33.608  1.00  0.00    -0.203 F 
ATOM     88  C   UNL A   1      47.149  27.612  35.102  1.00  0.00     0.198 A 
ATOM     89  C   UNL A   1      45.797  25.771  35.843  1.00  0.00     0.198 A 
ATOM     90  F   UNL A   1      43.593  25.537  35.055  1.00  0.00    -0.203 F 
ATOM     91  F   UNL A   1      48.319  28.266  35.099  1.00  0.00    -0.200 F 
ATOM     92  C   UNL A   1      47.000  26.461  35.861  1.00  0.00     0.200 A 
ATOM     93  F   UNL A   1      45.648  24.665  36.584  1.00  0.00    -0.200 F 
ATOM     94  F   UNL A   1      48.019  26.013  36.607  1.00  0.00    -0.200 F 
ENDBRANCH  61  84
ENDBRANCH  35  36
ENDBRANCH  27  30
ENDBRANCH  25  26
ENDBRANCH  24  25
ENDBRANCH  23  24
ENDBRANCH   1  23
TORSDOF 15
ENDMDL
