MODEL 1
REMARK VINA RESULT:     -12.1      0.000      0.000
REMARK SMILES C[C@H](CC(=O)NCCCCNC(=O)c1ccc(-c2c3nc(c(-c4c(F)c(F)c(F)c(F)c4F)c4ccc([nH]4)c(-c4c(F)c(F)c(F)c(F)c4F)c4nc(c(-c5c(F)c(F)c(F)c(F)c5F)c5ccc2[nH]5)C=C4)C=C3)cc1)NC(=O)Cc1cn2ccsc2n1
REMARK SMILES IDX 7 1 6 2 4 3 5 4 3 6 2 7 1 8 77 9 78 10 79 12 80 13 81 14
REMARK SMILES IDX 82 15 88 16 83 17 87 18 84 19 86 20 85 21 8 22 9 23 10 24
REMARK SMILES IDX 11 25 12 26 13 28 14 29 15 30 76 31 16 32 75 33 17 34 18 35
REMARK SMILES IDX 19 36 69 37 20 38 74 39 68 40 70 41 21 42 73 43 67 44 66 45
REMARK SMILES IDX 22 47 54 48 34 49 53 50 35 51 38 52 52 53 71 54 36 55 37 56
REMARK SMILES IDX 51 58 72 59 39 60 23 61 24 62 32 63 25 64 26 65 30 66 33 67
REMARK SMILES IDX 27 68 28 69 31 70 29 71 55 72 56 73 64 74 57 75 58 76 62 77
REMARK SMILES IDX 65 78 59 79 60 80 63 81 61 82 40 83 41 84 49 85 42 86 43 87
REMARK SMILES IDX 47 88 50 89 44 90 45 91 48 92 46 93
REMARK H PARENT 6 5 77 11 11 27 70 46 38 57
REMARK Flexibility Score: inf
ROOT
ATOM      1  C   UNL A   1      33.569  29.547  26.717  1.00  0.00     0.116 C 
ENDROOT
BRANCH   1   2
ATOM      2  N   UNL A   1      33.699  29.643  25.277  1.00  0.00    -0.356 N 
ATOM      3  C   UNL A   1      33.677  28.644  24.351  1.00  0.00     0.222 C 
ATOM      4  O   UNL A   1      33.860  28.927  23.167  1.00  0.00    -0.275 OA
ATOM      5  H   UNL A   1      33.820  30.553  24.920  1.00  0.00     0.163 HD
BRANCH   3   6
ATOM      6  C   UNL A   1      33.338  27.230  24.779  1.00  0.00     0.124 C 
BRANCH   6   7
ATOM      7  C   UNL A   1      33.683  26.072  23.816  1.00  0.00     0.088 C 
ATOM      8  C   UNL A   1      33.584  24.717  24.509  1.00  0.00     0.031 C 
BRANCH   7   9
ATOM      9  N   UNL A   1      32.948  26.042  22.566  1.00  0.00    -0.353 N 
ATOM     10  C   UNL A   1      31.655  26.326  22.235  1.00  0.00     0.226 C 
ATOM     11  H   UNL A   1      33.495  25.760  21.797  1.00  0.00     0.163 HD
ATOM     12  O   UNL A   1      31.405  26.329  21.021  1.00  0.00    -0.275 OA
BRANCH  10  13
ATOM     13  C   UNL A   1      30.578  26.742  23.220  1.00  0.00     0.157 C 
BRANCH  13  14
ATOM     14  C   UNL A   1      30.029  28.130  23.143  1.00  0.00     0.070 A 
ATOM     15  C   UNL A   1      30.220  29.192  24.018  1.00  0.00     0.118 A 
ATOM     16  N   UNL A   1      29.359  28.580  22.001  1.00  0.00    -0.223 NA
ATOM     17  N   UNL A   1      29.527  30.226  23.483  1.00  0.00    -0.297 N 
ATOM     18  C   UNL A   1      29.136  29.846  22.241  1.00  0.00     0.193 A 
ATOM     19  C   UNL A   1      29.191  31.496  23.876  1.00  0.00     0.104 A 
ATOM     20  S   UNL A   1      28.403  31.182  21.408  1.00  0.00    -0.105 S 
ATOM     21  C   UNL A   1      28.590  32.166  22.880  1.00  0.00     0.087 A 
ENDBRANCH  13  14
ENDBRANCH  10  13
ENDBRANCH   7   9
ENDBRANCH   6   7
ENDBRANCH   3   6
ENDBRANCH   1   2
BRANCH   1  22
ATOM     22  C   UNL A   1      32.232  30.120  27.178  1.00  0.00     0.023 C 
BRANCH  22  23
ATOM     23  C   UNL A   1      32.029  31.587  26.875  1.00  0.00     0.023 C 
BRANCH  23  24
ATOM     24  C   UNL A   1      33.054  32.456  27.562  1.00  0.00     0.116 C 
BRANCH  24  25
ATOM     25  N   UNL A   1      32.623  33.845  27.661  1.00  0.00    -0.352 N 
ATOM     26  C   UNL A   1      33.051  34.822  28.527  1.00  0.00     0.251 C 
ATOM     27  H   UNL A   1      31.929  34.121  27.019  1.00  0.00     0.163 HD
ATOM     28  O   UNL A   1      32.462  35.881  28.636  1.00  0.00    -0.269 OA
BRANCH  26  29
ATOM     29  C   UNL A   1      34.231  34.530  29.365  1.00  0.00     0.039 A 
ATOM     30  C   UNL A   1      34.030  34.031  30.650  1.00  0.00     0.014 A 
ATOM     31  C   UNL A   1      35.515  34.641  28.828  1.00  0.00     0.014 A 
ATOM     32  C   UNL A   1      35.123  33.552  31.363  1.00  0.00     0.010 A 
ATOM     33  C   UNL A   1      36.576  34.035  29.480  1.00  0.00     0.010 A 
ATOM     34  C   UNL A   1      36.388  33.482  30.753  1.00  0.00    -0.014 A 
BRANCH  34  35
ATOM     35  C   UNL A   1      37.512  32.780  31.410  1.00  0.00     0.031 A 
ATOM     36  C   UNL A   1      38.166  31.609  30.743  1.00  0.00     0.074 A 
ATOM     37  C   UNL A   1      37.897  33.169  32.641  1.00  0.00     0.049 A 
ATOM     38  N   UNL A   1      39.122  30.838  31.193  1.00  0.00    -0.248 NA
ATOM     39  C   UNL A   1      37.674  31.243  29.406  1.00  0.00     0.031 C 
ATOM     40  C   UNL A   1      37.309  34.275  33.398  1.00  0.00     0.029 A 
ATOM     41  N   UNL A   1      38.871  32.677  33.473  1.00  0.00    -0.354 N 
ATOM     42  C   UNL A   1      39.345  29.899  30.196  1.00  0.00     0.074 A 
ATOM     43  C   UNL A   1      38.386  30.158  29.144  1.00  0.00     0.031 C 
ATOM     44  C   UNL A   1      37.958  34.403  34.565  1.00  0.00     0.029 A 
ATOM     45  C   UNL A   1      38.953  33.343  34.672  1.00  0.00     0.049 A 
ATOM     46  H   UNL A   1      39.453  31.920  33.235  1.00  0.00     0.167 HD
ATOM     47  C   UNL A   1      40.281  28.922  30.162  1.00  0.00     0.037 A 
ATOM     48  C   UNL A   1      39.724  33.109  35.750  1.00  0.00     0.037 A 
ATOM     49  C   UNL A   1      41.220  28.669  31.221  1.00  0.00     0.049 A 
ATOM     50  C   UNL A   1      40.699  31.964  35.712  1.00  0.00     0.074 A 
ATOM     51  C   UNL A   1      42.228  27.724  31.263  1.00  0.00     0.029 A 
ATOM     52  N   UNL A   1      41.253  29.343  32.433  1.00  0.00    -0.354 N 
ATOM     53  N   UNL A   1      40.957  31.132  34.734  1.00  0.00    -0.248 NA
ATOM     54  C   UNL A   1      41.489  31.725  36.927  1.00  0.00     0.031 C 
ATOM     55  C   UNL A   1      42.806  27.758  32.533  1.00  0.00     0.029 A 
ATOM     56  C   UNL A   1      42.229  28.792  33.250  1.00  0.00     0.049 A 
ATOM     57  H   UNL A   1      40.671  30.098  32.678  1.00  0.00     0.167 HD
ATOM     58  C   UNL A   1      41.953  30.288  35.205  1.00  0.00     0.074 A 
ATOM     59  C   UNL A   1      42.275  30.730  36.545  1.00  0.00     0.031 C 
ATOM     60  C   UNL A   1      42.542  29.238  34.583  1.00  0.00     0.037 A 
BRANCH  47  61
ATOM     61  C   UNL A   1      40.314  28.030  28.956  1.00  0.00     0.064 A 
ATOM     62  C   UNL A   1      41.062  28.352  27.813  1.00  0.00     0.173 A 
ATOM     63  C   UNL A   1      39.624  26.808  28.964  1.00  0.00     0.173 A 
ATOM     64  F   UNL A   1      41.744  29.506  27.753  1.00  0.00    -0.203 F 
ATOM     65  C   UNL A   1      41.079  27.507  26.707  1.00  0.00     0.198 A 
ATOM     66  C   UNL A   1      39.685  25.942  27.877  1.00  0.00     0.198 A 
ATOM     67  F   UNL A   1      38.904  26.442  30.035  1.00  0.00    -0.203 F 
ATOM     68  F   UNL A   1      41.743  27.868  25.601  1.00  0.00    -0.200 F 
ATOM     69  C   UNL A   1      40.399  26.298  26.744  1.00  0.00     0.200 A 
ATOM     70  F   UNL A   1      39.053  24.761  27.928  1.00  0.00    -0.200 F 
ATOM     71  F   UNL A   1      40.427  25.479  25.684  1.00  0.00    -0.200 F 
ENDBRANCH  47  61
BRANCH  48  72
ATOM     72  C   UNL A   1      39.586  33.955  36.964  1.00  0.00     0.064 A 
ATOM     73  C   UNL A   1      38.795  33.547  38.047  1.00  0.00     0.173 A 
ATOM     74  C   UNL A   1      40.217  35.206  37.055  1.00  0.00     0.173 A 
ATOM     75  F   UNL A   1      38.158  32.367  38.005  1.00  0.00    -0.203 F 
ATOM     76  C   UNL A   1      38.607  34.374  39.152  1.00  0.00     0.198 A 
ATOM     77  C   UNL A   1      40.070  36.009  38.182  1.00  0.00     0.198 A 
ATOM     78  F   UNL A   1      40.988  35.646  36.049  1.00  0.00    -0.203 F 
ATOM     79  F   UNL A   1      37.780  33.993  40.136  1.00  0.00    -0.200 F 
ATOM     80  C   UNL A   1      39.251  35.600  39.223  1.00  0.00     0.200 A 
ATOM     81  F   UNL A   1      40.714  37.181  38.254  1.00  0.00    -0.200 F 
ATOM     82  F   UNL A   1      39.070  36.394  40.287  1.00  0.00    -0.200 F 
ENDBRANCH  48  72
BRANCH  60  83
ATOM     83  C   UNL A   1      43.615  28.499  35.332  1.00  0.00     0.064 A 
ATOM     84  C   UNL A   1      44.971  28.835  35.200  1.00  0.00     0.173 A 
ATOM     85  C   UNL A   1      43.278  27.480  36.237  1.00  0.00     0.173 A 
ATOM     86  F   UNL A   1      45.347  29.799  34.347  1.00  0.00    -0.203 F 
ATOM     87  C   UNL A   1      45.950  28.153  35.915  1.00  0.00     0.198 A 
ATOM     88  C   UNL A   1      44.256  26.835  36.988  1.00  0.00     0.198 A 
ATOM     89  F   UNL A   1      41.995  27.127  36.414  1.00  0.00    -0.203 F 
ATOM     90  F   UNL A   1      47.243  28.446  35.722  1.00  0.00    -0.200 F 
ATOM     91  C   UNL A   1      45.591  27.162  36.816  1.00  0.00     0.200 A 
ATOM     92  F   UNL A   1      43.903  25.900  37.881  1.00  0.00    -0.200 F 
ATOM     93  F   UNL A   1      46.535  26.518  37.518  1.00  0.00    -0.200 F 
ENDBRANCH  60  83
ENDBRANCH  34  35
ENDBRANCH  26  29
ENDBRANCH  24  25
ENDBRANCH  23  24
ENDBRANCH  22  23
ENDBRANCH   1  22
TORSDOF 15
ENDMDL
MODEL 2
REMARK VINA RESULT:     -12.0      5.920     10.960
REMARK SMILES C[C@H](CC(=O)NCCCCNC(=O)c1ccc(-c2c3nc(c(-c4c(F)c(F)c(F)c(F)c4F)c4ccc([nH]4)c(-c4c(F)c(F)c(F)c(F)c4F)c4nc(c(-c5c(F)c(F)c(F)c(F)c5F)c5ccc2[nH]5)C=C4)C=C3)cc1)NC(=O)Cc1cn2ccsc2n1
REMARK SMILES IDX 7 1 6 2 4 3 5 4 3 6 2 7 1 8 77 9 78 10 79 12 80 13 81 14
REMARK SMILES IDX 82 15 88 16 83 17 87 18 84 19 86 20 85 21 8 22 9 23 10 24
REMARK SMILES IDX 11 25 12 26 13 28 14 29 15 30 76 31 16 32 75 33 17 34 18 35
REMARK SMILES IDX 19 36 69 37 20 38 74 39 68 40 70 41 21 42 73 43 67 44 66 45
REMARK SMILES IDX 22 47 54 48 34 49 53 50 35 51 38 52 52 53 71 54 36 55 37 56
REMARK SMILES IDX 51 58 72 59 39 60 23 61 24 62 32 63 25 64 26 65 30 66 33 67
REMARK SMILES IDX 27 68 28 69 31 70 29 71 55 72 56 73 64 74 57 75 58 76 62 77
REMARK SMILES IDX 65 78 59 79 60 80 63 81 61 82 40 83 41 84 49 85 42 86 43 87
REMARK SMILES IDX 47 88 50 89 44 90 45 91 48 92 46 93
REMARK H PARENT 6 5 77 11 11 27 70 46 38 57
REMARK Flexibility Score: inf
ROOT
ATOM      1  C   UNL A   1      35.862  20.001  25.000  1.00  0.00     0.116 C 
ENDROOT
BRANCH   1   2
ATOM      2  N   UNL A   1      35.547  21.096  25.895  1.00  0.00    -0.356 N 
ATOM      3  C   UNL A   1      34.592  22.059  25.760  1.00  0.00     0.222 C 
ATOM      4  O   UNL A   1      34.515  22.943  26.612  1.00  0.00    -0.275 OA
ATOM      5  H   UNL A   1      36.097  21.153  26.710  1.00  0.00     0.163 HD
BRANCH   3   6
ATOM      6  C   UNL A   1      33.591  21.970  24.624  1.00  0.00     0.124 C 
BRANCH   6   7
ATOM      7  C   UNL A   1      32.196  21.379  24.926  1.00  0.00     0.088 C 
ATOM      8  C   UNL A   1      32.210  19.854  24.877  1.00  0.00     0.031 C 
BRANCH   7   9
ATOM      9  N   UNL A   1      31.564  21.827  26.152  1.00  0.00    -0.353 N 
ATOM     10  C   UNL A   1      30.947  22.988  26.515  1.00  0.00     0.226 C 
ATOM     11  H   UNL A   1      31.583  21.153  26.871  1.00  0.00     0.163 HD
ATOM     12  O   UNL A   1      30.385  22.970  27.619  1.00  0.00    -0.275 OA
BRANCH  10  13
ATOM     13  C   UNL A   1      30.809  24.212  25.628  1.00  0.00     0.157 C 
BRANCH  13  14
ATOM     14  C   UNL A   1      31.527  25.466  26.013  1.00  0.00     0.070 A 
ATOM     15  C   UNL A   1      32.832  25.844  25.728  1.00  0.00     0.118 A 
ATOM     16  N   UNL A   1      30.846  26.540  26.594  1.00  0.00    -0.223 NA
ATOM     17  N   UNL A   1      32.980  27.072  26.282  1.00  0.00    -0.297 N 
ATOM     18  C   UNL A   1      31.749  27.482  26.678  1.00  0.00     0.193 A 
ATOM     19  C   UNL A   1      34.017  27.946  26.482  1.00  0.00     0.104 A 
ATOM     20  S   UNL A   1      31.813  29.127  27.229  1.00  0.00    -0.105 S 
ATOM     21  C   UNL A   1      33.575  29.114  26.973  1.00  0.00     0.087 A 
ENDBRANCH  13  14
ENDBRANCH  10  13
ENDBRANCH   7   9
ENDBRANCH   6   7
ENDBRANCH   3   6
ENDBRANCH   1   2
BRANCH   1  22
ATOM     22  C   UNL A   1      37.372  19.787  24.920  1.00  0.00     0.023 C 
BRANCH  22  23
ATOM     23  C   UNL A   1      38.201  21.046  25.026  1.00  0.00     0.023 C 
BRANCH  23  24
ATOM     24  C   UNL A   1      39.228  20.959  26.128  1.00  0.00     0.116 C 
BRANCH  24  25
ATOM     25  N   UNL A   1      40.016  19.735  26.052  1.00  0.00    -0.352 N 
ATOM     26  C   UNL A   1      41.380  19.580  26.127  1.00  0.00     0.251 C 
ATOM     27  H   UNL A   1      39.501  18.905  25.931  1.00  0.00     0.163 HD
ATOM     28  O   UNL A   1      41.918  18.526  25.844  1.00  0.00    -0.269 OA
BRANCH  26  29
ATOM     29  C   UNL A   1      42.184  20.754  26.519  1.00  0.00     0.039 A 
ATOM     30  C   UNL A   1      42.681  21.586  25.518  1.00  0.00     0.014 A 
ATOM     31  C   UNL A   1      42.338  21.079  27.868  1.00  0.00     0.014 A 
ATOM     32  C   UNL A   1      43.252  22.802  25.878  1.00  0.00     0.010 A 
ATOM     33  C   UNL A   1      42.774  22.347  28.214  1.00  0.00     0.010 A 
ATOM     34  C   UNL A   1      43.232  23.221  27.220  1.00  0.00    -0.014 A 
BRANCH  34  35
ATOM     35  C   UNL A   1      43.633  24.595  27.595  1.00  0.00     0.031 A 
ATOM     36  C   UNL A   1      42.595  25.620  27.935  1.00  0.00     0.074 A 
ATOM     37  C   UNL A   1      44.938  24.927  27.564  1.00  0.00     0.049 A 
ATOM     38  N   UNL A   1      42.756  26.885  28.228  1.00  0.00    -0.248 NA
ATOM     39  C   UNL A   1      41.192  25.175  27.929  1.00  0.00     0.031 C 
ATOM     40  C   UNL A   1      46.032  24.019  27.215  1.00  0.00     0.029 A 
ATOM     41  N   UNL A   1      45.567  26.118  27.828  1.00  0.00    -0.354 N 
ATOM     42  C   UNL A   1      41.480  27.384  28.441  1.00  0.00     0.074 A 
ATOM     43  C   UNL A   1      40.552  26.305  28.187  1.00  0.00     0.031 C 
ATOM     44  C   UNL A   1      47.198  24.672  27.324  1.00  0.00     0.029 A 
ATOM     45  C   UNL A   1      46.931  26.062  27.674  1.00  0.00     0.049 A 
ATOM     46  H   UNL A   1      45.087  26.932  28.100  1.00  0.00     0.167 HD
ATOM     47  C   UNL A   1      41.125  28.630  28.833  1.00  0.00     0.037 A 
ATOM     48  C   UNL A   1      47.861  27.029  27.773  1.00  0.00     0.037 A 
ATOM     49  C   UNL A   1      42.060  29.697  29.071  1.00  0.00     0.049 A 
ATOM     50  C   UNL A   1      47.426  28.423  28.131  1.00  0.00     0.074 A 
ATOM     51  C   UNL A   1      41.797  30.983  29.503  1.00  0.00     0.029 A 
ATOM     52  N   UNL A   1      43.430  29.613  28.873  1.00  0.00    -0.354 N 
ATOM     53  N   UNL A   1      46.224  28.867  28.408  1.00  0.00    -0.248 NA
ATOM     54  C   UNL A   1      48.473  29.452  28.189  1.00  0.00     0.031 C 
ATOM     55  C   UNL A   1      42.991  31.705  29.474  1.00  0.00     0.029 A 
ATOM     56  C   UNL A   1      44.016  30.845  29.121  1.00  0.00     0.049 A 
ATOM     57  H   UNL A   1      43.914  28.801  28.598  1.00  0.00     0.167 HD
ATOM     58  C   UNL A   1      46.374  30.216  28.697  1.00  0.00     0.074 A 
ATOM     59  C   UNL A   1      47.787  30.511  28.592  1.00  0.00     0.031 C 
ATOM     60  C   UNL A   1      45.424  31.129  29.014  1.00  0.00     0.037 A 
BRANCH  47  61
ATOM     61  C   UNL A   1      39.661  28.919  28.994  1.00  0.00     0.064 A 
ATOM     62  C   UNL A   1      39.022  28.843  30.241  1.00  0.00     0.173 A 
ATOM     63  C   UNL A   1      38.897  29.328  27.890  1.00  0.00     0.173 A 
ATOM     64  F   UNL A   1      39.705  28.462  31.331  1.00  0.00    -0.203 F 
ATOM     65  C   UNL A   1      37.663  29.118  30.366  1.00  0.00     0.198 A 
ATOM     66  C   UNL A   1      37.552  29.652  28.028  1.00  0.00     0.198 A 
ATOM     67  F   UNL A   1      39.460  29.432  26.676  1.00  0.00    -0.203 F 
ATOM     68  F   UNL A   1      37.059  28.971  31.552  1.00  0.00    -0.200 F 
ATOM     69  C   UNL A   1      36.931  29.532  29.262  1.00  0.00     0.200 A 
ATOM     70  F   UNL A   1      36.856  30.082  26.967  1.00  0.00    -0.200 F 
ATOM     71  F   UNL A   1      35.627  29.811  29.387  1.00  0.00    -0.200 F 
ENDBRANCH  47  61
BRANCH  48  72
ATOM     72  C   UNL A   1      49.290  26.720  27.503  1.00  0.00     0.064 A 
ATOM     73  C   UNL A   1      49.781  26.640  26.193  1.00  0.00     0.173 A 
ATOM     74  C   UNL A   1      50.190  26.467  28.551  1.00  0.00     0.173 A 
ATOM     75  F   UNL A   1      48.959  26.859  25.155  1.00  0.00    -0.203 F 
ATOM     76  C   UNL A   1      51.102  26.279  25.940  1.00  0.00     0.198 A 
ATOM     77  C   UNL A   1      51.523  26.157  28.298  1.00  0.00     0.198 A 
ATOM     78  F   UNL A   1      49.776  26.533  29.826  1.00  0.00    -0.203 F 
ATOM     79  F   UNL A   1      51.521  26.130  24.676  1.00  0.00    -0.200 F 
ATOM     80  C   UNL A   1      51.974  26.045  26.993  1.00  0.00     0.200 A 
ATOM     81  F   UNL A   1      52.366  25.956  29.320  1.00  0.00    -0.200 F 
ATOM     82  F   UNL A   1      53.244  25.698  26.748  1.00  0.00    -0.200 F 
ENDBRANCH  48  72
BRANCH  60  83
ATOM     83  C   UNL A   1      45.875  32.534  29.293  1.00  0.00     0.064 A 
ATOM     84  C   UNL A   1      46.201  32.959  30.590  1.00  0.00     0.173 A 
ATOM     85  C   UNL A   1      46.039  33.452  28.243  1.00  0.00     0.173 A 
ATOM     86  F   UNL A   1      46.060  32.124  31.630  1.00  0.00    -0.203 F 
ATOM     87  C   UNL A   1      46.635  34.260  30.829  1.00  0.00     0.198 A 
ATOM     88  C   UNL A   1      46.522  34.735  28.480  1.00  0.00     0.198 A 
ATOM     89  F   UNL A   1      45.756  33.095  26.981  1.00  0.00    -0.203 F 
ATOM     90  F   UNL A   1      46.876  34.662  32.085  1.00  0.00    -0.200 F 
ATOM     91  C   UNL A   1      46.806  35.143  29.773  1.00  0.00     0.200 A 
ATOM     92  F   UNL A   1      46.717  35.575  27.454  1.00  0.00    -0.200 F 
ATOM     93  F   UNL A   1      47.242  36.389  30.004  1.00  0.00    -0.200 F 
ENDBRANCH  60  83
ENDBRANCH  34  35
ENDBRANCH  26  29
ENDBRANCH  24  25
ENDBRANCH  23  24
ENDBRANCH  22  23
ENDBRANCH   1  22
TORSDOF 15
ENDMDL
MODEL 3
REMARK VINA RESULT:     -12.0      0.805      7.493
REMARK SMILES C[C@H](CC(=O)NCCCCNC(=O)c1ccc(-c2c3nc(c(-c4c(F)c(F)c(F)c(F)c4F)c4ccc([nH]4)c(-c4c(F)c(F)c(F)c(F)c4F)c4nc(c(-c5c(F)c(F)c(F)c(F)c5F)c5ccc2[nH]5)C=C4)C=C3)cc1)NC(=O)Cc1cn2ccsc2n1
REMARK SMILES IDX 7 1 6 2 4 3 5 4 3 6 2 7 1 8 77 9 78 10 79 12 80 13 81 14
REMARK SMILES IDX 82 15 88 16 83 17 87 18 84 19 86 20 85 21 8 22 9 23 10 24
REMARK SMILES IDX 11 25 12 26 13 28 14 29 15 30 76 31 16 32 75 33 17 34 18 35
REMARK SMILES IDX 19 36 69 37 20 38 74 39 68 40 70 41 21 42 73 43 67 44 66 45
REMARK SMILES IDX 22 47 54 48 34 49 53 50 35 51 38 52 52 53 71 54 36 55 37 56
REMARK SMILES IDX 51 58 72 59 39 60 23 61 24 62 32 63 25 64 26 65 30 66 33 67
REMARK SMILES IDX 27 68 28 69 31 70 29 71 55 72 56 73 64 74 57 75 58 76 62 77
REMARK SMILES IDX 65 78 59 79 60 80 63 81 61 82 40 83 41 84 49 85 42 86 43 87
REMARK SMILES IDX 47 88 50 89 44 90 45 91 48 92 46 93
REMARK H PARENT 6 5 77 11 11 27 70 46 38 57
REMARK Flexibility Score: inf
ROOT
ATOM      1  C   UNL A   1      33.459  29.860  26.774  1.00  0.00     0.116 C 
ENDROOT
BRANCH   1   2
ATOM      2  N   UNL A   1      33.728  29.576  25.379  1.00  0.00    -0.356 N 
ATOM      3  C   UNL A   1      33.819  28.367  24.757  1.00  0.00     0.222 C 
ATOM      4  O   UNL A   1      34.111  28.335  23.562  1.00  0.00    -0.275 OA
ATOM      5  H   UNL A   1      33.864  30.363  24.802  1.00  0.00     0.163 HD
BRANCH   3   6
ATOM      6  C   UNL A   1      33.470  27.104  25.518  1.00  0.00     0.124 C 
BRANCH   6   7
ATOM      7  C   UNL A   1      34.090  25.771  25.043  1.00  0.00     0.088 C 
ATOM      8  C   UNL A   1      33.753  24.625  25.992  1.00  0.00     0.031 C 
BRANCH   7   9
ATOM      9  N   UNL A   1      33.795  25.381  23.677  1.00  0.00    -0.353 N 
ATOM     10  C   UNL A   1      32.633  25.217  22.981  1.00  0.00     0.226 C 
ATOM     11  H   UNL A   1      34.601  25.200  23.140  1.00  0.00     0.163 HD
ATOM     12  O   UNL A   1      32.764  25.013  21.766  1.00  0.00    -0.275 OA
BRANCH  10  13
ATOM     13  C   UNL A   1      31.242  25.386  23.563  1.00  0.00     0.157 C 
BRANCH  13  14
ATOM     14  C   UNL A   1      30.482  26.637  23.262  1.00  0.00     0.070 A 
ATOM     15  C   UNL A   1      30.829  27.686  22.422  1.00  0.00     0.118 A 
ATOM     16  N   UNL A   1      29.163  26.804  23.697  1.00  0.00    -0.223 NA
ATOM     17  N   UNL A   1      29.792  28.556  22.485  1.00  0.00    -0.297 N 
ATOM     18  C   UNL A   1      28.791  27.936  23.158  1.00  0.00     0.193 A 
ATOM     19  C   UNL A   1      29.535  29.820  22.020  1.00  0.00     0.104 A 
ATOM     20  S   UNL A   1      27.353  28.908  23.123  1.00  0.00    -0.105 S 
ATOM     21  C   UNL A   1      28.263  30.172  22.260  1.00  0.00     0.087 A 
ENDBRANCH  13  14
ENDBRANCH  10  13
ENDBRANCH   7   9
ENDBRANCH   6   7
ENDBRANCH   3   6
ENDBRANCH   1   2
BRANCH   1  22
ATOM     22  C   UNL A   1      32.037  30.386  26.954  1.00  0.00     0.023 C 
BRANCH  22  23
ATOM     23  C   UNL A   1      31.883  31.879  26.777  1.00  0.00     0.023 C 
BRANCH  23  24
ATOM     24  C   UNL A   1      32.915  32.653  27.561  1.00  0.00     0.116 C 
BRANCH  24  25
ATOM     25  N   UNL A   1      32.550  34.056  27.719  1.00  0.00    -0.352 N 
ATOM     26  C   UNL A   1      33.032  34.977  28.618  1.00  0.00     0.251 C 
ATOM     27  H   UNL A   1      31.865  34.389  27.096  1.00  0.00     0.163 HD
ATOM     28  O   UNL A   1      32.494  36.057  28.775  1.00  0.00    -0.269 OA
BRANCH  26  29
ATOM     29  C   UNL A   1      34.204  34.597  29.431  1.00  0.00     0.039 A 
ATOM     30  C   UNL A   1      33.994  34.112  30.720  1.00  0.00     0.014 A 
ATOM     31  C   UNL A   1      35.482  34.613  28.868  1.00  0.00     0.014 A 
ATOM     32  C   UNL A   1      35.063  33.553  31.410  1.00  0.00     0.010 A 
ATOM     33  C   UNL A   1      36.509  33.930  29.497  1.00  0.00     0.010 A 
ATOM     34  C   UNL A   1      36.307  33.390  30.773  1.00  0.00    -0.014 A 
BRANCH  34  35
ATOM     35  C   UNL A   1      37.389  32.607  31.407  1.00  0.00     0.031 A 
ATOM     36  C   UNL A   1      37.899  32.982  32.765  1.00  0.00     0.074 A 
ATOM     37  C   UNL A   1      37.951  31.592  30.722  1.00  0.00     0.049 A 
ATOM     38  N   UNL A   1      38.878  32.449  33.449  1.00  0.00    -0.248 NA
ATOM     39  C   UNL A   1      37.238  34.112  33.436  1.00  0.00     0.031 C 
ATOM     40  C   UNL A   1      37.557  31.161  29.380  1.00  0.00     0.029 A 
ATOM     41  N   UNL A   1      38.975  30.743  31.057  1.00  0.00    -0.354 N 
ATOM     42  C   UNL A   1      38.949  33.177  34.628  1.00  0.00     0.074 A 
ATOM     43  C   UNL A   1      37.957  34.225  34.542  1.00  0.00     0.031 C 
ATOM     44  C   UNL A   1      38.300  30.104  29.021  1.00  0.00     0.029 A 
ATOM     45  C   UNL A   1      39.274  29.832  30.072  1.00  0.00     0.049 A 
ATOM     46  H   UNL A   1      39.449  30.782  31.918  1.00  0.00     0.167 HD
ATOM     47  C   UNL A   1      39.762  32.970  35.690  1.00  0.00     0.037 A 
ATOM     48  C   UNL A   1      40.244  28.902  30.008  1.00  0.00     0.037 A 
ATOM     49  C   UNL A   1      40.753  31.930  35.756  1.00  0.00     0.049 A 
ATOM     50  C   UNL A   1      41.184  28.750  31.173  1.00  0.00     0.074 A 
ATOM     51  C   UNL A   1      41.600  31.620  36.804  1.00  0.00     0.029 A 
ATOM     52  N   UNL A   1      41.050  31.047  34.727  1.00  0.00    -0.354 N 
ATOM     53  N   UNL A   1      41.192  29.391  32.316  1.00  0.00    -0.248 NA
ATOM     54  C   UNL A   1      42.250  27.748  31.040  1.00  0.00     0.031 C 
ATOM     55  C   UNL A   1      42.474  30.619  36.377  1.00  0.00     0.029 A 
ATOM     56  C   UNL A   1      42.108  30.232  35.099  1.00  0.00     0.049 A 
ATOM     57  H   UNL A   1      40.581  31.006  33.863  1.00  0.00     0.167 HD
ATOM     58  C   UNL A   1      42.244  28.855  33.045  1.00  0.00     0.074 A 
ATOM     59  C   UNL A   1      42.830  27.814  32.228  1.00  0.00     0.031 C 
ATOM     60  C   UNL A   1      42.686  29.199  34.279  1.00  0.00     0.037 A 
BRANCH  47  61
ATOM     61  C   UNL A   1      39.639  33.908  36.855  1.00  0.00     0.064 A 
ATOM     62  C   UNL A   1      40.254  35.169  36.862  1.00  0.00     0.173 A 
ATOM     63  C   UNL A   1      38.851  33.558  37.962  1.00  0.00     0.173 A 
ATOM     64  F   UNL A   1      41.015  35.557  35.827  1.00  0.00    -0.203 F 
ATOM     65  C   UNL A   1      40.124  36.023  37.953  1.00  0.00     0.198 A 
ATOM     66  C   UNL A   1      38.681  34.434  39.029  1.00  0.00     0.198 A 
ATOM     67  F   UNL A   1      38.228  32.370  38.004  1.00  0.00    -0.203 F 
ATOM     68  F   UNL A   1      40.777  37.192  37.968  1.00  0.00    -0.200 F 
ATOM     69  C   UNL A   1      39.329  35.659  39.031  1.00  0.00     0.200 A 
ATOM     70  F   UNL A   1      37.888  34.093  40.053  1.00  0.00    -0.200 F 
ATOM     71  F   UNL A   1      39.194  36.488  40.075  1.00  0.00    -0.200 F 
ENDBRANCH  47  61
BRANCH  48  72
ATOM     72  C   UNL A   1      40.394  28.062  28.790  1.00  0.00     0.064 A 
ATOM     73  C   UNL A   1      41.144  28.504  27.692  1.00  0.00     0.173 A 
ATOM     74  C   UNL A   1      39.764  26.812  28.687  1.00  0.00     0.173 A 
ATOM     75  F   UNL A   1      41.755  29.698  27.734  1.00  0.00    -0.203 F 
ATOM     76  C   UNL A   1      41.223  27.750  26.524  1.00  0.00     0.198 A 
ATOM     77  C   UNL A   1      39.887  26.036  27.538  1.00  0.00     0.198 A 
ATOM     78  F   UNL A   1      39.036  26.337  29.709  1.00  0.00    -0.203 F 
ATOM     79  F   UNL A   1      41.878  28.234  25.461  1.00  0.00    -0.200 F 
ATOM     80  C   UNL A   1      40.601  26.512  26.451  1.00  0.00     0.200 A 
ATOM     81  F   UNL A   1      39.303  24.831  27.483  1.00  0.00    -0.200 F 
ATOM     82  F   UNL A   1      40.678  25.787  25.327  1.00  0.00    -0.200 F 
ENDBRANCH  48  72
BRANCH  60  83
ATOM     83  C   UNL A   1      43.851  28.433  34.839  1.00  0.00     0.064 A 
ATOM     84  C   UNL A   1      43.673  27.233  35.544  1.00  0.00     0.173 A 
ATOM     85  C   UNL A   1      45.165  28.875  34.619  1.00  0.00     0.173 A 
ATOM     86  F   UNL A   1      42.438  26.767  35.784  1.00  0.00    -0.203 F 
ATOM     87  C   UNL A   1      44.764  26.526  36.041  1.00  0.00     0.198 A 
ATOM     88  C   UNL A   1      46.255  28.138  35.073  1.00  0.00     0.198 A 
ATOM     89  F   UNL A   1      45.395  30.008  33.939  1.00  0.00    -0.203 F 
ATOM     90  F   UNL A   1      44.566  25.419  36.769  1.00  0.00    -0.200 F 
ATOM     91  C   UNL A   1      46.054  26.973  35.795  1.00  0.00     0.200 A 
ATOM     92  F   UNL A   1      47.501  28.556  34.807  1.00  0.00    -0.200 F 
ATOM     93  F   UNL A   1      47.103  26.280  36.259  1.00  0.00    -0.200 F 
ENDBRANCH  60  83
ENDBRANCH  34  35
ENDBRANCH  26  29
ENDBRANCH  24  25
ENDBRANCH  23  24
ENDBRANCH  22  23
ENDBRANCH   1  22
TORSDOF 15
ENDMDL
