MODEL 1
REMARK VINA RESULT:     -11.8      0.000      0.000
REMARK SMILES CC[C@@H](O)C[NH+]1CC(n2cc(C(=O)NCCCCNC(=O)c3ccc(-c4c5nc(c(-c6c(F)c(F)c(F)c(F)c6F)c6ccc([nH]6)c(-c6c(F)c(F)c(F)c(F)c6F)c6nc(c(-c7c(F)c(F)c(F)c(F)c7F)c7ccc4[nH]7)C=C6)C=C5)cc3)nn2)C1
REMARK SMILES IDX 15 1 14 2 12 3 13 4 11 6 9 7 10 8 86 9 85 10 8 11 6 12 7 13
REMARK SMILES IDX 87 14 5 16 3 17 2 18 1 19 4 20 16 22 17 23 18 24 19 25 20 26
REMARK SMILES IDX 21 28 22 29 23 30 84 31 24 32 83 33 25 34 26 35 27 36 77 37
REMARK SMILES IDX 28 38 82 39 76 40 78 41 29 42 81 43 75 44 74 45 30 47 62 48
REMARK SMILES IDX 42 49 61 50 43 51 46 52 60 53 79 54 44 55 45 56 59 58 80 59
REMARK SMILES IDX 47 60 31 61 32 62 40 63 33 64 34 65 38 66 41 67 35 68 36 69
REMARK SMILES IDX 39 70 37 71 63 72 64 73 72 74 65 75 66 76 70 77 73 78 67 79
REMARK SMILES IDX 68 80 71 81 69 82 48 83 49 84 57 85 50 86 51 87 55 88 58 89
REMARK SMILES IDX 52 90 53 91 56 92 54 93
REMARK H PARENT 14 5 6 15 4 21 19 27 78 46 46 57
REMARK Flexibility Score: inf
ROOT
ATOM      1  C   UNL A   1      35.826  21.251  25.209  1.00  0.00     0.116 C 
ENDROOT
BRANCH   1   2
ATOM      2  N   UNL A   1      35.017  20.065  24.998  1.00  0.00    -0.351 N 
ATOM      3  C   UNL A   1      33.695  19.907  24.635  1.00  0.00     0.273 C 
ATOM      4  O   UNL A   1      33.330  18.758  24.388  1.00  0.00    -0.267 OA
ATOM      5  H   UNL A   1      35.499  19.218  25.140  1.00  0.00     0.163 HD
BRANCH   3   6
ATOM      6  C   UNL A   1      32.788  21.045  24.518  1.00  0.00     0.170 A 
ATOM      7  N   UNL A   1      31.492  22.772  24.799  1.00  0.00    -0.237 N 
ATOM      8  C   UNL A   1      32.077  21.735  25.478  1.00  0.00     0.145 A 
ATOM      9  N   UNL A   1      31.743  22.693  23.487  1.00  0.00    -0.066 NA
ATOM     10  N   UNL A   1      32.500  21.618  23.294  1.00  0.00    -0.125 NA
BRANCH   7  11
ATOM     11  C   UNL A   1      30.935  23.901  25.475  1.00  0.00     0.218 C 
ATOM     12  N   UNL A   1      31.451  25.693  26.422  1.00  0.00    -0.329 N 
ATOM     13  C   UNL A   1      31.253  25.326  24.969  1.00  0.00     0.296 C 
ATOM     14  C   UNL A   1      31.883  24.293  26.630  1.00  0.00     0.296 C 
ATOM     15  H   UNL A   1      30.723  26.122  26.995  1.00  0.00     0.348 HD
BRANCH  12  16
ATOM     16  C   UNL A   1      32.555  26.656  26.576  1.00  0.00     0.294 C 
BRANCH  16  17
ATOM     17  C   UNL A   1      32.204  28.029  27.229  1.00  0.00     0.169 C 
BRANCH  17  18
ATOM     18  C   UNL A   1      31.787  29.098  26.203  1.00  0.00     0.034 C 
ATOM     19  C   UNL A   1      31.847  30.533  26.703  1.00  0.00     0.007 C 
ENDBRANCH  17  18
BRANCH  17  20
ATOM     20  O   UNL A   1      31.115  27.804  28.131  1.00  0.00    -0.387 OA
ATOM     21  H   UNL A   1      31.205  26.926  28.535  1.00  0.00     0.211 HD
ENDBRANCH  17  20
ENDBRANCH  16  17
ENDBRANCH  12  16
ENDBRANCH   7  11
ENDBRANCH   3   6
ENDBRANCH   1   2
BRANCH   1  22
ATOM     22  C   UNL A   1      37.324  20.931  25.274  1.00  0.00     0.023 C 
BRANCH  22  23
ATOM     23  C   UNL A   1      38.264  22.132  25.474  1.00  0.00     0.023 C 
BRANCH  23  24
ATOM     24  C   UNL A   1      39.347  21.940  26.529  1.00  0.00     0.116 C 
BRANCH  24  25
ATOM     25  N   UNL A   1      40.696  21.782  25.975  1.00  0.00    -0.352 N 
ATOM     26  C   UNL A   1      41.700  22.741  25.884  1.00  0.00     0.251 C 
ATOM     27  H   UNL A   1      40.919  20.890  25.625  1.00  0.00     0.163 HD
ATOM     28  O   UNL A   1      42.621  22.636  25.093  1.00  0.00    -0.269 OA
BRANCH  26  29
ATOM     29  C   UNL A   1      41.634  23.886  26.808  1.00  0.00     0.039 A 
ATOM     30  C   UNL A   1      42.398  23.980  27.974  1.00  0.00     0.014 A 
ATOM     31  C   UNL A   1      40.805  24.924  26.411  1.00  0.00     0.014 A 
ATOM     32  C   UNL A   1      42.365  25.176  28.693  1.00  0.00     0.010 A 
ATOM     33  C   UNL A   1      40.981  26.157  26.958  1.00  0.00     0.010 A 
ATOM     34  C   UNL A   1      41.656  26.264  28.164  1.00  0.00    -0.014 A 
BRANCH  34  35
ATOM     35  C   UNL A   1      41.617  27.573  28.797  1.00  0.00     0.031 A 
ATOM     36  C   UNL A   1      42.703  28.501  28.386  1.00  0.00     0.074 A 
ATOM     37  C   UNL A   1      40.516  27.979  29.472  1.00  0.00     0.049 A 
ATOM     38  N   UNL A   1      43.622  29.023  29.129  1.00  0.00    -0.248 NA
ATOM     39  C   UNL A   1      42.866  28.793  26.952  1.00  0.00     0.031 C 
ATOM     40  C   UNL A   1      39.236  27.276  29.663  1.00  0.00     0.029 A 
ATOM     41  N   UNL A   1      40.269  29.182  30.051  1.00  0.00    -0.354 N 
ATOM     42  C   UNL A   1      44.369  29.854  28.298  1.00  0.00     0.074 A 
ATOM     43  C   UNL A   1      43.972  29.540  26.951  1.00  0.00     0.031 C 
ATOM     44  C   UNL A   1      38.291  28.145  30.086  1.00  0.00     0.029 A 
ATOM     45  C   UNL A   1      38.936  29.408  30.380  1.00  0.00     0.049 A 
ATOM     46  H   UNL A   1      40.977  29.843  30.224  1.00  0.00     0.167 HD
ATOM     47  C   UNL A   1      45.088  30.894  28.807  1.00  0.00     0.037 A 
ATOM     48  C   UNL A   1      38.410  30.571  30.838  1.00  0.00     0.037 A 
ATOM     49  C   UNL A   1      45.256  30.753  30.231  1.00  0.00     0.049 A 
ATOM     50  C   UNL A   1      39.546  31.377  31.358  1.00  0.00     0.074 A 
ATOM     51  C   UNL A   1      45.873  29.823  31.044  1.00  0.00     0.029 A 
ATOM     52  N   UNL A   1      44.398  31.448  31.049  1.00  0.00    -0.354 N 
ATOM     53  N   UNL A   1      40.258  31.030  32.395  1.00  0.00    -0.248 NA
ATOM     54  C   UNL A   1      40.196  32.285  30.424  1.00  0.00     0.031 C 
ATOM     55  C   UNL A   1      44.995  29.671  32.158  1.00  0.00     0.029 A 
ATOM     56  C   UNL A   1      43.942  30.574  32.003  1.00  0.00     0.049 A 
ATOM     57  H   UNL A   1      44.154  32.398  30.965  1.00  0.00     0.167 HD
ATOM     58  C   UNL A   1      41.567  31.326  32.043  1.00  0.00     0.074 A 
ATOM     59  C   UNL A   1      41.459  32.150  30.839  1.00  0.00     0.031 C 
ATOM     60  C   UNL A   1      42.617  30.635  32.577  1.00  0.00     0.037 A 
BRANCH  47  61
ATOM     61  C   UNL A   1      45.328  32.210  28.105  1.00  0.00     0.064 A 
ATOM     62  C   UNL A   1      44.228  33.048  27.829  1.00  0.00     0.173 A 
ATOM     63  C   UNL A   1      46.523  32.539  27.432  1.00  0.00     0.173 A 
ATOM     64  F   UNL A   1      43.038  32.828  28.407  1.00  0.00    -0.203 F 
ATOM     65  C   UNL A   1      44.299  34.074  26.883  1.00  0.00     0.198 A 
ATOM     66  C   UNL A   1      46.605  33.597  26.527  1.00  0.00     0.198 A 
ATOM     67  F   UNL A   1      47.628  31.789  27.529  1.00  0.00    -0.203 F 
ATOM     68  F   UNL A   1      43.193  34.758  26.558  1.00  0.00    -0.200 F 
ATOM     69  C   UNL A   1      45.486  34.342  26.226  1.00  0.00     0.200 A 
ATOM     70  F   UNL A   1      47.761  33.830  25.890  1.00  0.00    -0.200 F 
ATOM     71  F   UNL A   1      45.540  35.279  25.271  1.00  0.00    -0.200 F 
ENDBRANCH  47  61
BRANCH  48  72
ATOM     72  C   UNL A   1      37.090  31.164  30.511  1.00  0.00     0.064 A 
ATOM     73  C   UNL A   1      36.174  31.503  31.518  1.00  0.00     0.173 A 
ATOM     74  C   UNL A   1      36.821  31.670  29.223  1.00  0.00     0.173 A 
ATOM     75  F   UNL A   1      36.384  31.102  32.780  1.00  0.00    -0.203 F 
ATOM     76  C   UNL A   1      35.065  32.319  31.258  1.00  0.00     0.198 A 
ATOM     77  C   UNL A   1      35.715  32.483  28.964  1.00  0.00     0.198 A 
ATOM     78  F   UNL A   1      37.679  31.465  28.213  1.00  0.00    -0.203 F 
ATOM     79  F   UNL A   1      34.244  32.670  32.257  1.00  0.00    -0.200 F 
ATOM     80  C   UNL A   1      34.844  32.818  29.984  1.00  0.00     0.200 A 
ATOM     81  F   UNL A   1      35.537  32.992  27.737  1.00  0.00    -0.200 F 
ATOM     82  F   UNL A   1      33.821  33.650  29.749  1.00  0.00    -0.200 F 
ENDBRANCH  48  72
BRANCH  60  83
ATOM     83  C   UNL A   1      42.337  29.693  33.717  1.00  0.00     0.064 A 
ATOM     84  C   UNL A   1      42.034  28.329  33.557  1.00  0.00     0.173 A 
ATOM     85  C   UNL A   1      42.560  30.148  35.021  1.00  0.00     0.173 A 
ATOM     86  F   UNL A   1      41.899  27.789  32.341  1.00  0.00    -0.203 F 
ATOM     87  C   UNL A   1      41.931  27.472  34.653  1.00  0.00     0.198 A 
ATOM     88  C   UNL A   1      42.491  29.286  36.113  1.00  0.00     0.198 A 
ATOM     89  F   UNL A   1      42.907  31.427  35.233  1.00  0.00    -0.203 F 
ATOM     90  F   UNL A   1      41.644  26.174  34.470  1.00  0.00    -0.200 F 
ATOM     91  C   UNL A   1      42.170  27.950  35.930  1.00  0.00     0.200 A 
ATOM     92  F   UNL A   1      42.772  29.743  37.340  1.00  0.00    -0.200 F 
ATOM     93  F   UNL A   1      42.120  27.120  36.981  1.00  0.00    -0.200 F 
ENDBRANCH  60  83
ENDBRANCH  34  35
ENDBRANCH  26  29
ENDBRANCH  24  25
ENDBRANCH  23  24
ENDBRANCH  22  23
ENDBRANCH   1  22
TORSDOF 16
ENDMDL
MODEL 2
REMARK VINA RESULT:     -11.7      1.768      2.324
REMARK SMILES CC[C@@H](O)C[NH+]1CC(n2cc(C(=O)NCCCCNC(=O)c3ccc(-c4c5nc(c(-c6c(F)c(F)c(F)c(F)c6F)c6ccc([nH]6)c(-c6c(F)c(F)c(F)c(F)c6F)c6nc(c(-c7c(F)c(F)c(F)c(F)c7F)c7ccc4[nH]7)C=C6)C=C5)cc3)nn2)C1
REMARK SMILES IDX 15 1 14 2 12 3 13 4 11 6 9 7 10 8 86 9 85 10 8 11 6 12 7 13
REMARK SMILES IDX 87 14 5 16 3 17 2 18 1 19 4 20 16 22 17 23 18 24 19 25 20 26
REMARK SMILES IDX 21 28 22 29 23 30 84 31 24 32 83 33 25 34 26 35 27 36 77 37
REMARK SMILES IDX 28 38 82 39 76 40 78 41 29 42 81 43 75 44 74 45 30 47 62 48
REMARK SMILES IDX 42 49 61 50 43 51 46 52 60 53 79 54 44 55 45 56 59 58 80 59
REMARK SMILES IDX 47 60 31 61 32 62 40 63 33 64 34 65 38 66 41 67 35 68 36 69
REMARK SMILES IDX 39 70 37 71 63 72 64 73 72 74 65 75 66 76 70 77 73 78 67 79
REMARK SMILES IDX 68 80 71 81 69 82 48 83 49 84 57 85 50 86 51 87 55 88 58 89
REMARK SMILES IDX 52 90 53 91 56 92 54 93
REMARK H PARENT 14 5 6 15 4 21 19 27 78 46 46 57
REMARK Flexibility Score: inf
ROOT
ATOM      1  C   UNL A   1      35.064  21.900  26.211  1.00  0.00     0.116 C 
ENDROOT
BRANCH   1   2
ATOM      2  N   UNL A   1      33.737  21.346  26.017  1.00  0.00    -0.351 N 
ATOM      3  C   UNL A   1      32.752  21.622  25.090  1.00  0.00     0.273 C 
ATOM      4  O   UNL A   1      31.777  20.871  25.088  1.00  0.00    -0.267 OA
ATOM      5  H   UNL A   1      33.494  20.645  26.664  1.00  0.00     0.163 HD
BRANCH   3   6
ATOM      6  C   UNL A   1      32.877  22.724  24.140  1.00  0.00     0.170 A 
ATOM      7  N   UNL A   1      32.902  24.622  23.073  1.00  0.00    -0.237 N 
ATOM      8  C   UNL A   1      32.361  24.003  24.170  1.00  0.00     0.145 A 
ATOM      9  N   UNL A   1      33.639  23.769  22.353  1.00  0.00    -0.066 NA
ATOM     10  N   UNL A   1      33.600  22.593  22.970  1.00  0.00    -0.125 NA
BRANCH   7  11
ATOM     11  C   UNL A   1      32.878  26.042  22.916  1.00  0.00     0.218 C 
ATOM     12  N   UNL A   1      31.587  27.659  22.610  1.00  0.00    -0.329 N 
ATOM     13  C   UNL A   1      31.992  26.897  23.851  1.00  0.00     0.296 C 
ATOM     14  C   UNL A   1      31.801  26.397  21.867  1.00  0.00     0.296 C 
ATOM     15  H   UNL A   1      32.027  28.534  22.322  1.00  0.00     0.348 HD
BRANCH  12  16
ATOM     16  C   UNL A   1      30.167  28.047  22.672  1.00  0.00     0.294 C 
BRANCH  16  17
ATOM     17  C   UNL A   1      29.822  29.515  22.271  1.00  0.00     0.169 C 
BRANCH  17  18
ATOM     18  C   UNL A   1      29.407  30.388  23.468  1.00  0.00     0.034 C 
ATOM     19  C   UNL A   1      27.948  30.817  23.483  1.00  0.00     0.007 C 
ENDBRANCH  17  18
BRANCH  17  20
ATOM     20  O   UNL A   1      30.994  30.078  21.671  1.00  0.00    -0.387 OA
ATOM     21  H   UNL A   1      31.067  31.014  21.920  1.00  0.00     0.211 HD
ENDBRANCH  17  20
ENDBRANCH  16  17
ENDBRANCH  12  16
ENDBRANCH   7  11
ENDBRANCH   3   6
ENDBRANCH   1   2
BRANCH   1  22
ATOM     22  C   UNL A   1      36.128  21.167  25.387  1.00  0.00     0.023 C 
BRANCH  22  23
ATOM     23  C   UNL A   1      37.218  22.048  24.753  1.00  0.00     0.023 C 
BRANCH  23  24
ATOM     24  C   UNL A   1      38.036  22.877  25.737  1.00  0.00     0.116 C 
BRANCH  24  25
ATOM     25  N   UNL A   1      39.023  22.097  26.494  1.00  0.00    -0.352 N 
ATOM     26  C   UNL A   1      40.191  22.554  27.096  1.00  0.00     0.251 C 
ATOM     27  H   UNL A   1      38.836  21.136  26.587  1.00  0.00     0.163 HD
ATOM     28  O   UNL A   1      41.112  21.802  27.367  1.00  0.00    -0.269 OA
BRANCH  26  29
ATOM     29  C   UNL A   1      40.269  23.985  27.434  1.00  0.00     0.039 A 
ATOM     30  C   UNL A   1      39.211  24.879  27.252  1.00  0.00     0.014 A 
ATOM     31  C   UNL A   1      41.456  24.392  28.024  1.00  0.00     0.014 A 
ATOM     32  C   UNL A   1      39.347  26.177  27.747  1.00  0.00     0.010 A 
ATOM     33  C   UNL A   1      41.478  25.556  28.729  1.00  0.00     0.010 A 
ATOM     34  C   UNL A   1      40.488  26.498  28.496  1.00  0.00    -0.014 A 
BRANCH  34  35
ATOM     35  C   UNL A   1      40.695  27.799  29.115  1.00  0.00     0.031 A 
ATOM     36  C   UNL A   1      41.765  28.625  28.496  1.00  0.00     0.074 A 
ATOM     37  C   UNL A   1      39.788  28.299  29.988  1.00  0.00     0.049 A 
ATOM     38  N   UNL A   1      42.855  29.049  29.044  1.00  0.00    -0.248 NA
ATOM     39  C   UNL A   1      41.675  28.916  27.056  1.00  0.00     0.031 C 
ATOM     40  C   UNL A   1      38.508  27.718  30.427  1.00  0.00     0.029 A 
ATOM     41  N   UNL A   1      39.773  29.512  30.595  1.00  0.00    -0.354 N 
ATOM     42  C   UNL A   1      43.503  29.815  28.079  1.00  0.00     0.074 A 
ATOM     43  C   UNL A   1      42.826  29.555  26.836  1.00  0.00     0.031 C 
ATOM     44  C   UNL A   1      37.750  28.666  31.018  1.00  0.00     0.029 A 
ATOM     45  C   UNL A   1      38.555  29.860  31.173  1.00  0.00     0.049 A 
ATOM     46  H   UNL A   1      40.561  30.102  30.623  1.00  0.00     0.167 HD
ATOM     47  C   UNL A   1      44.401  30.777  28.432  1.00  0.00     0.037 A 
ATOM     48  C   UNL A   1      38.240  31.062  31.715  1.00  0.00     0.037 A 
ATOM     49  C   UNL A   1      44.827  30.605  29.798  1.00  0.00     0.049 A 
ATOM     50  C   UNL A   1      39.526  31.751  32.001  1.00  0.00     0.074 A 
ATOM     51  C   UNL A   1      45.498  29.611  30.483  1.00  0.00     0.029 A 
ATOM     52  N   UNL A   1      44.212  31.368  30.761  1.00  0.00    -0.354 N 
ATOM     53  N   UNL A   1      40.389  31.327  32.884  1.00  0.00    -0.248 NA
ATOM     54  C   UNL A   1      40.067  32.605  30.953  1.00  0.00     0.031 C 
ATOM     55  C   UNL A   1      44.841  29.531  31.747  1.00  0.00     0.029 A 
ATOM     56  C   UNL A   1      43.868  30.530  31.791  1.00  0.00     0.049 A 
ATOM     57  H   UNL A   1      44.047  32.338  30.719  1.00  0.00     0.167 HD
ATOM     58  C   UNL A   1      41.627  31.503  32.283  1.00  0.00     0.074 A 
ATOM     59  C   UNL A   1      41.368  32.346  31.117  1.00  0.00     0.031 C 
ATOM     60  C   UNL A   1      42.691  30.710  32.609  1.00  0.00     0.037 A 
BRANCH  47  61
ATOM     61  C   UNL A   1      44.626  32.072  27.688  1.00  0.00     0.064 A 
ATOM     62  C   UNL A   1      45.814  32.237  26.946  1.00  0.00     0.173 A 
ATOM     63  C   UNL A   1      43.885  33.251  27.914  1.00  0.00     0.173 A 
ATOM     64  F   UNL A   1      46.603  31.186  26.674  1.00  0.00    -0.203 F 
ATOM     65  C   UNL A   1      46.267  33.497  26.546  1.00  0.00     0.198 A 
ATOM     66  C   UNL A   1      44.314  34.500  27.468  1.00  0.00     0.198 A 
ATOM     67  F   UNL A   1      42.781  33.268  28.669  1.00  0.00    -0.203 F 
ATOM     68  F   UNL A   1      47.467  33.617  25.959  1.00  0.00    -0.200 F 
ATOM     69  C   UNL A   1      45.521  34.629  26.815  1.00  0.00     0.200 A 
ATOM     70  F   UNL A   1      43.583  35.587  27.752  1.00  0.00    -0.200 F 
ATOM     71  F   UNL A   1      45.985  35.843  26.493  1.00  0.00    -0.200 F 
ENDBRANCH  47  61
BRANCH  48  72
ATOM     72  C   UNL A   1      36.944  31.780  31.645  1.00  0.00     0.064 A 
ATOM     73  C   UNL A   1      36.257  32.159  32.808  1.00  0.00     0.173 A 
ATOM     74  C   UNL A   1      36.499  32.358  30.438  1.00  0.00     0.173 A 
ATOM     75  F   UNL A   1      36.649  31.692  34.002  1.00  0.00    -0.203 F 
ATOM     76  C   UNL A   1      35.200  33.078  32.771  1.00  0.00     0.198 A 
ATOM     77  C   UNL A   1      35.446  33.273  30.402  1.00  0.00     0.198 A 
ATOM     78  F   UNL A   1      37.142  32.118  29.286  1.00  0.00    -0.203 F 
ATOM     79  F   UNL A   1      34.606  33.461  33.909  1.00  0.00    -0.200 F 
ATOM     80  C   UNL A   1      34.804  33.643  31.569  1.00  0.00     0.200 A 
ATOM     81  F   UNL A   1      35.100  33.843  29.238  1.00  0.00    -0.200 F 
ATOM     82  F   UNL A   1      33.837  34.571  31.541  1.00  0.00    -0.200 F 
ENDBRANCH  48  72
BRANCH  60  83
ATOM     83  C   UNL A   1      42.547  29.785  33.789  1.00  0.00     0.064 A 
ATOM     84  C   UNL A   1      42.069  28.465  33.704  1.00  0.00     0.173 A 
ATOM     85  C   UNL A   1      43.081  30.192  35.017  1.00  0.00     0.173 A 
ATOM     86  F   UNL A   1      41.630  27.964  32.545  1.00  0.00    -0.203 F 
ATOM     87  C   UNL A   1      42.099  27.607  34.803  1.00  0.00     0.198 A 
ATOM     88  C   UNL A   1      43.143  29.325  36.105  1.00  0.00     0.198 A 
ATOM     89  F   UNL A   1      43.604  31.422  35.144  1.00  0.00    -0.203 F 
ATOM     90  F   UNL A   1      41.639  26.352  34.692  1.00  0.00    -0.200 F 
ATOM     91  C   UNL A   1      42.646  28.035  36.000  1.00  0.00     0.200 A 
ATOM     92  F   UNL A   1      43.718  29.729  37.245  1.00  0.00    -0.200 F 
ATOM     93  F   UNL A   1      42.721  27.199  37.044  1.00  0.00    -0.200 F 
ENDBRANCH  60  83
ENDBRANCH  34  35
ENDBRANCH  26  29
ENDBRANCH  24  25
ENDBRANCH  23  24
ENDBRANCH  22  23
ENDBRANCH   1  22
TORSDOF 16
ENDMDL
MODEL 3
REMARK VINA RESULT:     -11.6      3.063      8.920
REMARK SMILES CC[C@@H](O)C[NH+]1CC(n2cc(C(=O)NCCCCNC(=O)c3ccc(-c4c5nc(c(-c6c(F)c(F)c(F)c(F)c6F)c6ccc([nH]6)c(-c6c(F)c(F)c(F)c(F)c6F)c6nc(c(-c7c(F)c(F)c(F)c(F)c7F)c7ccc4[nH]7)C=C6)C=C5)cc3)nn2)C1
REMARK SMILES IDX 15 1 14 2 12 3 13 4 11 6 9 7 10 8 86 9 85 10 8 11 6 12 7 13
REMARK SMILES IDX 87 14 5 16 3 17 2 18 1 19 4 20 16 22 17 23 18 24 19 25 20 26
REMARK SMILES IDX 21 28 22 29 23 30 84 31 24 32 83 33 25 34 26 35 27 36 77 37
REMARK SMILES IDX 28 38 82 39 76 40 78 41 29 42 81 43 75 44 74 45 30 47 62 48
REMARK SMILES IDX 42 49 61 50 43 51 46 52 60 53 79 54 44 55 45 56 59 58 80 59
REMARK SMILES IDX 47 60 31 61 32 62 40 63 33 64 34 65 38 66 41 67 35 68 36 69
REMARK SMILES IDX 39 70 37 71 63 72 64 73 72 74 65 75 66 76 70 77 73 78 67 79
REMARK SMILES IDX 68 80 71 81 69 82 48 83 49 84 57 85 50 86 51 87 55 88 58 89
REMARK SMILES IDX 52 90 53 91 56 92 54 93
REMARK H PARENT 14 5 6 15 4 21 19 27 78 46 46 57
REMARK Flexibility Score: inf
ROOT
ATOM      1  C   UNL A   1      33.953  28.513  25.644  1.00  0.00     0.116 C 
ENDROOT
BRANCH   1   2
ATOM      2  N   UNL A   1      32.619  28.349  25.096  1.00  0.00    -0.351 N 
ATOM      3  C   UNL A   1      31.856  27.225  24.854  1.00  0.00     0.273 C 
ATOM      4  O   UNL A   1      30.688  27.419  24.518  1.00  0.00    -0.267 OA
ATOM      5  H   UNL A   1      32.178  29.195  24.852  1.00  0.00     0.163 HD
BRANCH   3   6
ATOM      6  C   UNL A   1      32.396  25.878  25.023  1.00  0.00     0.170 A 
ATOM      7  N   UNL A   1      32.892  23.843  25.614  1.00  0.00    -0.237 N 
ATOM      8  C   UNL A   1      32.266  24.978  26.060  1.00  0.00     0.145 A 
ATOM      9  N   UNL A   1      33.453  24.040  24.415  1.00  0.00    -0.066 NA
ATOM     10  N   UNL A   1      33.195  25.293  24.059  1.00  0.00    -0.125 NA
BRANCH   7  11
ATOM     11  C   UNL A   1      32.706  22.577  26.250  1.00  0.00     0.218 C 
ATOM     12  N   UNL A   1      32.729  20.516  25.891  1.00  0.00    -0.329 N 
ATOM     13  C   UNL A   1      33.826  21.515  26.176  1.00  0.00     0.296 C 
ATOM     14  C   UNL A   1      31.993  21.632  25.256  1.00  0.00     0.296 C 
ATOM     15  H   UNL A   1      32.302  19.932  26.611  1.00  0.00     0.348 HD
BRANCH  12  16
ATOM     16  C   UNL A   1      33.177  19.506  24.917  1.00  0.00     0.294 C 
BRANCH  16  17
ATOM     17  C   UNL A   1      32.720  18.036  25.169  1.00  0.00     0.169 C 
BRANCH  17  18
ATOM     18  C   UNL A   1      33.754  16.993  24.710  1.00  0.00     0.034 C 
ATOM     19  C   UNL A   1      34.002  16.942  23.210  1.00  0.00     0.007 C 
ENDBRANCH  17  18
BRANCH  17  20
ATOM     20  O   UNL A   1      32.511  17.891  26.579  1.00  0.00    -0.387 OA
ATOM     21  H   UNL A   1      32.587  16.955  26.823  1.00  0.00     0.211 HD
ENDBRANCH  17  20
ENDBRANCH  16  17
ENDBRANCH  12  16
ENDBRANCH   7  11
ENDBRANCH   3   6
ENDBRANCH   1   2
BRANCH   1  22
ATOM     22  C   UNL A   1      33.931  28.957  27.110  1.00  0.00     0.023 C 
BRANCH  22  23
ATOM     23  C   UNL A   1      33.424  30.384  27.378  1.00  0.00     0.023 C 
BRANCH  23  24
ATOM     24  C   UNL A   1      34.510  31.419  27.645  1.00  0.00     0.116 C 
BRANCH  24  25
ATOM     25  N   UNL A   1      34.411  32.059  28.962  1.00  0.00    -0.352 N 
ATOM     26  C   UNL A   1      35.188  31.817  30.090  1.00  0.00     0.251 C 
ATOM     27  H   UNL A   1      33.710  32.743  29.059  1.00  0.00     0.163 HD
ATOM     28  O   UNL A   1      34.804  32.107  31.210  1.00  0.00    -0.269 OA
BRANCH  26  29
ATOM     29  C   UNL A   1      36.519  31.223  29.886  1.00  0.00     0.039 A 
ATOM     30  C   UNL A   1      37.674  31.978  29.665  1.00  0.00     0.014 A 
ATOM     31  C   UNL A   1      36.579  29.842  30.000  1.00  0.00     0.014 A 
ATOM     32  C   UNL A   1      38.903  31.316  29.635  1.00  0.00     0.010 A 
ATOM     33  C   UNL A   1      37.780  29.249  30.234  1.00  0.00     0.010 A 
ATOM     34  C   UNL A   1      38.940  29.947  29.933  1.00  0.00    -0.014 A 
BRANCH  34  35
ATOM     35  C   UNL A   1      40.174  29.178  29.999  1.00  0.00     0.031 A 
ATOM     36  C   UNL A   1      40.700  28.953  31.371  1.00  0.00     0.074 A 
ATOM     37  C   UNL A   1      40.622  28.499  28.917  1.00  0.00     0.049 A 
ATOM     38  N   UNL A   1      41.826  29.350  31.863  1.00  0.00    -0.248 NA
ATOM     39  C   UNL A   1      39.817  28.311  32.360  1.00  0.00     0.031 C 
ATOM     40  C   UNL A   1      40.005  28.369  27.586  1.00  0.00     0.029 A 
ATOM     41  N   UNL A   1      41.695  27.675  28.814  1.00  0.00    -0.354 N 
ATOM     42  C   UNL A   1      41.881  28.854  33.163  1.00  0.00     0.074 A 
ATOM     43  C   UNL A   1      40.556  28.379  33.468  1.00  0.00     0.031 C 
ATOM     44  C   UNL A   1      40.572  27.344  26.913  1.00  0.00     0.029 A 
ATOM     45  C   UNL A   1      41.709  26.874  27.676  1.00  0.00     0.049 A 
ATOM     46  H   UNL A   1      42.408  27.645  29.492  1.00  0.00     0.167 HD
ATOM     47  C   UNL A   1      43.073  28.669  33.796  1.00  0.00     0.037 A 
ATOM     48  C   UNL A   1      42.589  25.878  27.409  1.00  0.00     0.037 A 
ATOM     49  C   UNL A   1      44.128  29.382  33.120  1.00  0.00     0.049 A 
ATOM     50  C   UNL A   1      43.770  26.106  28.283  1.00  0.00     0.074 A 
ATOM     51  C   UNL A   1      44.381  30.714  32.859  1.00  0.00     0.029 A 
ATOM     52  N   UNL A   1      44.919  28.676  32.247  1.00  0.00    -0.354 N 
ATOM     53  N   UNL A   1      44.560  27.139  28.168  1.00  0.00    -0.248 NA
ATOM     54  C   UNL A   1      43.764  25.461  29.587  1.00  0.00     0.031 C 
ATOM     55  C   UNL A   1      44.902  30.733  31.531  1.00  0.00     0.029 A 
ATOM     56  C   UNL A   1      45.015  29.413  31.093  1.00  0.00     0.049 A 
ATOM     57  H   UNL A   1      45.340  27.802  32.416  1.00  0.00     0.167 HD
ATOM     58  C   UNL A   1      44.825  27.529  29.473  1.00  0.00     0.074 A 
ATOM     59  C   UNL A   1      44.352  26.423  30.304  1.00  0.00     0.031 C 
ATOM     60  C   UNL A   1      45.124  28.827  29.777  1.00  0.00     0.037 A 
BRANCH  47  61
ATOM     61  C   UNL A   1      43.367  27.574  34.793  1.00  0.00     0.064 A 
ATOM     62  C   UNL A   1      43.671  27.926  36.125  1.00  0.00     0.173 A 
ATOM     63  C   UNL A   1      43.658  26.240  34.438  1.00  0.00     0.173 A 
ATOM     64  F   UNL A   1      43.443  29.170  36.573  1.00  0.00    -0.203 F 
ATOM     65  C   UNL A   1      44.303  27.037  36.999  1.00  0.00     0.198 A 
ATOM     66  C   UNL A   1      44.241  25.340  35.329  1.00  0.00     0.198 A 
ATOM     67  F   UNL A   1      43.501  25.782  33.191  1.00  0.00    -0.203 F 
ATOM     68  F   UNL A   1      44.692  27.459  38.210  1.00  0.00    -0.200 F 
ATOM     69  C   UNL A   1      44.596  25.747  36.598  1.00  0.00     0.200 A 
ATOM     70  F   UNL A   1      44.529  24.098  34.915  1.00  0.00    -0.200 F 
ATOM     71  F   UNL A   1      45.261  24.916  37.408  1.00  0.00    -0.200 F 
ENDBRANCH  47  61
BRANCH  48  72
ATOM     72  C   UNL A   1      42.318  24.576  26.752  1.00  0.00     0.064 A 
ATOM     73  C   UNL A   1      43.145  24.088  25.730  1.00  0.00     0.173 A 
ATOM     74  C   UNL A   1      41.407  23.656  27.313  1.00  0.00     0.173 A 
ATOM     75  F   UNL A   1      44.071  24.886  25.177  1.00  0.00    -0.203 F 
ATOM     76  C   UNL A   1      43.083  22.754  25.306  1.00  0.00     0.198 A 
ATOM     77  C   UNL A   1      41.345  22.327  26.890  1.00  0.00     0.198 A 
ATOM     78  F   UNL A   1      40.630  24.007  28.348  1.00  0.00    -0.203 F 
ATOM     79  F   UNL A   1      43.929  22.310  24.367  1.00  0.00    -0.200 F 
ATOM     80  C   UNL A   1      42.191  21.873  25.895  1.00  0.00     0.200 A 
ATOM     81  F   UNL A   1      40.507  21.475  27.497  1.00  0.00    -0.200 F 
ATOM     82  F   UNL A   1      42.175  20.582  25.536  1.00  0.00    -0.200 F 
ENDBRANCH  48  72
BRANCH  60  83
ATOM     83  C   UNL A   1      45.371  29.781  28.638  1.00  0.00     0.064 A 
ATOM     84  C   UNL A   1      44.379  30.590  28.056  1.00  0.00     0.173 A 
ATOM     85  C   UNL A   1      46.694  30.012  28.245  1.00  0.00     0.173 A 
ATOM     86  F   UNL A   1      43.102  30.502  28.443  1.00  0.00    -0.203 F 
ATOM     87  C   UNL A   1      44.695  31.561  27.107  1.00  0.00     0.198 A 
ATOM     88  C   UNL A   1      47.014  31.005  27.322  1.00  0.00     0.198 A 
ATOM     89  F   UNL A   1      47.691  29.310  28.806  1.00  0.00    -0.203 F 
ATOM     90  F   UNL A   1      43.728  32.321  26.570  1.00  0.00    -0.200 F 
ATOM     91  C   UNL A   1      46.015  31.774  26.748  1.00  0.00     0.200 A 
ATOM     92  F   UNL A   1      48.297  31.240  27.017  1.00  0.00    -0.200 F 
ATOM     93  F   UNL A   1      46.328  32.740  25.873  1.00  0.00    -0.200 F 
ENDBRANCH  60  83
ENDBRANCH  34  35
ENDBRANCH  26  29
ENDBRANCH  24  25
ENDBRANCH  23  24
ENDBRANCH  22  23
ENDBRANCH   1  22
TORSDOF 16
ENDMDL
