MODEL 1
REMARK VINA RESULT:     -12.7      0.000      0.000
REMARK SMILES CC[C@@H](C(=O)NCCCCNC(=O)c1ccc(-c2c3nc(c(-c4c(F)c(F)c(F)c(F)c4F)c4ccc([nH]4)c(-c4c(F)c(F)c(F)c(F)c4F)c4nc(c(-c5c(F)c(F)c(F)c(F)c5F)c5ccc2[nH]5)C=C4)C=C3)cc1)N1C(=O)/C(=C/C(C)=C/c2ccccc2)SC1=S
REMARK SMILES IDX 8 1 7 2 6 3 4 4 5 5 3 7 2 8 1 9 77 10 78 11 92 12 79 13
REMARK SMILES IDX 80 14 91 15 93 16 81 17 82 18 83 19 84 20 85 21 86 22 90 23
REMARK SMILES IDX 87 24 89 25 88 26 9 27 10 28 11 29 12 30 13 32 14 33 15 34
REMARK SMILES IDX 76 35 16 36 75 37 17 38 18 39 19 40 69 41 20 42 74 43 68 44
REMARK SMILES IDX 70 45 21 46 73 47 67 48 66 49 22 51 54 52 34 53 53 54 35 55
REMARK SMILES IDX 38 56 52 57 71 58 36 59 37 60 51 62 72 63 39 64 23 65 24 66
REMARK SMILES IDX 32 67 25 68 26 69 30 70 33 71 27 72 28 73 31 74 29 75 55 76
REMARK SMILES IDX 56 77 64 78 57 79 58 80 62 81 65 82 59 83 60 84 63 85 61 86
REMARK SMILES IDX 40 87 41 88 49 89 42 90 43 91 47 92 50 93 44 94 45 95 48 96
REMARK SMILES IDX 46 97
REMARK H PARENT 6 6 11 31 70 50 38 61
REMARK Flexibility Score: inf
ROOT
ATOM      1  C   UNL A   1      31.422  31.262  26.252  1.00  0.00     0.023 C 
ENDROOT
BRANCH   1   2
ATOM      2  C   UNL A   1      32.623  30.492  26.817  1.00  0.00     0.116 C 
BRANCH   2   3
ATOM      3  N   UNL A   1      32.165  29.255  27.422  1.00  0.00    -0.354 N 
ATOM      4  C   UNL A   1      31.693  28.107  26.847  1.00  0.00     0.243 C 
ATOM      5  O   UNL A   1      31.047  27.346  27.574  1.00  0.00    -0.273 OA
ATOM      6  H   UNL A   1      32.200  29.239  28.406  1.00  0.00     0.163 HD
BRANCH   4   7
ATOM      7  C   UNL A   1      31.981  27.761  25.355  1.00  0.00     0.181 C 
BRANCH   7   8
ATOM      8  C   UNL A   1      30.854  28.263  24.427  1.00  0.00     0.032 C 
ATOM      9  C   UNL A   1      31.137  29.038  23.164  1.00  0.00     0.006 C 
ENDBRANCH   7   8
BRANCH   7  10
ATOM     10  N   UNL A   1      32.113  26.255  25.318  1.00  0.00    -0.280 N 
ATOM     11  C   UNL A   1      33.319  25.664  25.700  1.00  0.00     0.266 C 
ATOM     12  C   UNL A   1      31.172  25.328  24.923  1.00  0.00     0.149 C 
ATOM     13  O   UNL A   1      34.391  26.240  25.833  1.00  0.00    -0.268 OA
ATOM     14  C   UNL A   1      33.139  24.177  25.851  1.00  0.00     0.080 C 
ATOM     15  S   UNL A   1      31.453  23.842  25.799  1.00  0.00    -0.054 SA
ATOM     16  S   UNL A   1      30.038  25.361  23.697  1.00  0.00    -0.052 S 
ATOM     17  C   UNL A   1      34.134  23.274  25.913  1.00  0.00     0.024 C 
BRANCH  17  18
ATOM     18  C   UNL A   1      34.012  21.803  25.936  1.00  0.00    -0.049 C 
ATOM     19  C   UNL A   1      33.877  21.197  27.308  1.00  0.00     0.044 C 
ATOM     20  C   UNL A   1      34.129  21.070  24.805  1.00  0.00     0.011 C 
BRANCH  20  21
ATOM     21  C   UNL A   1      33.936  19.629  24.540  1.00  0.00    -0.025 A 
ATOM     22  C   UNL A   1      32.618  19.167  24.392  1.00  0.00     0.008 A 
ATOM     23  C   UNL A   1      34.964  18.682  24.601  1.00  0.00     0.008 A 
ATOM     24  C   UNL A   1      32.337  17.803  24.276  1.00  0.00     0.001 A 
ATOM     25  C   UNL A   1      34.687  17.315  24.473  1.00  0.00     0.001 A 
ATOM     26  C   UNL A   1      33.374  16.877  24.313  1.00  0.00     0.000 A 
ENDBRANCH  20  21
ENDBRANCH  17  18
ENDBRANCH   7  10
ENDBRANCH   4   7
ENDBRANCH   2   3
ENDBRANCH   1   2
BRANCH   1  27
ATOM     27  C   UNL A   1      31.422  32.761  26.511  1.00  0.00     0.023 C 
BRANCH  27  28
ATOM     28  C   UNL A   1      32.593  33.248  27.337  1.00  0.00     0.116 C 
BRANCH  28  29
ATOM     29  N   UNL A   1      32.408  34.594  27.864  1.00  0.00    -0.352 N 
ATOM     30  C   UNL A   1      33.098  35.231  28.866  1.00  0.00     0.251 C 
ATOM     31  H   UNL A   1      31.690  35.119  27.443  1.00  0.00     0.163 HD
ATOM     32  O   UNL A   1      32.737  36.334  29.264  1.00  0.00    -0.269 OA
BRANCH  30  33
ATOM     33  C   UNL A   1      34.259  34.561  29.484  1.00  0.00     0.039 A 
ATOM     34  C   UNL A   1      34.059  33.750  30.603  1.00  0.00     0.014 A 
ATOM     35  C   UNL A   1      35.536  34.705  28.937  1.00  0.00     0.014 A 
ATOM     36  C   UNL A   1      35.136  33.047  31.142  1.00  0.00     0.010 A 
ATOM     37  C   UNL A   1      36.577  33.912  29.397  1.00  0.00     0.010 A 
ATOM     38  C   UNL A   1      36.397  33.103  30.527  1.00  0.00    -0.014 A 
BRANCH  38  39
ATOM     39  C   UNL A   1      37.564  32.386  31.091  1.00  0.00     0.031 A 
ATOM     40  C   UNL A   1      38.057  32.741  32.468  1.00  0.00     0.074 A 
ATOM     41  C   UNL A   1      38.204  31.458  30.355  1.00  0.00     0.049 A 
ATOM     42  N   UNL A   1      39.080  32.267  33.133  1.00  0.00    -0.248 NA
ATOM     43  C   UNL A   1      37.327  33.806  33.179  1.00  0.00     0.031 C 
ATOM     44  C   UNL A   1      37.863  31.079  28.983  1.00  0.00     0.029 A 
ATOM     45  N   UNL A   1      39.278  30.663  30.662  1.00  0.00    -0.354 N 
ATOM     46  C   UNL A   1      39.123  32.988  34.319  1.00  0.00     0.074 A 
ATOM     47  C   UNL A   1      38.079  33.984  34.253  1.00  0.00     0.031 C 
ATOM     48  C   UNL A   1      38.686  30.097  28.580  1.00  0.00     0.029 A 
ATOM     49  C   UNL A   1      39.627  29.797  29.654  1.00  0.00     0.049 A 
ATOM     50  H   UNL A   1      39.754  30.708  31.522  1.00  0.00     0.167 HD
ATOM     51  C   UNL A   1      39.932  32.809  35.389  1.00  0.00     0.037 A 
ATOM     52  C   UNL A   1      40.595  28.862  29.613  1.00  0.00     0.037 A 
ATOM     53  C   UNL A   1      40.937  31.783  35.469  1.00  0.00     0.049 A 
ATOM     54  C   UNL A   1      41.459  28.657  30.829  1.00  0.00     0.074 A 
ATOM     55  C   UNL A   1      41.769  31.467  36.526  1.00  0.00     0.029 A 
ATOM     56  N   UNL A   1      41.238  30.900  34.441  1.00  0.00    -0.354 N 
ATOM     57  N   UNL A   1      41.440  29.291  31.978  1.00  0.00    -0.248 NA
ATOM     58  C   UNL A   1      42.470  27.594  30.747  1.00  0.00     0.031 C 
ATOM     59  C   UNL A   1      42.601  30.416  36.126  1.00  0.00     0.029 A 
ATOM     60  C   UNL A   1      42.255  30.046  34.836  1.00  0.00     0.049 A 
ATOM     61  H   UNL A   1      40.795  30.884  33.563  1.00  0.00     0.167 HD
ATOM     62  C   UNL A   1      42.414  28.688  32.762  1.00  0.00     0.074 A 
ATOM     63  C   UNL A   1      42.988  27.623  31.966  1.00  0.00     0.031 C 
ATOM     64  C   UNL A   1      42.804  28.990  34.026  1.00  0.00     0.037 A 
BRANCH  51  65
ATOM     65  C   UNL A   1      39.746  33.730  36.560  1.00  0.00     0.064 A 
ATOM     66  C   UNL A   1      40.394  34.976  36.627  1.00  0.00     0.173 A 
ATOM     67  C   UNL A   1      38.906  33.373  37.624  1.00  0.00     0.173 A 
ATOM     68  F   UNL A   1      41.223  35.359  35.645  1.00  0.00    -0.203 F 
ATOM     69  C   UNL A   1      40.236  35.808  37.732  1.00  0.00     0.198 A 
ATOM     70  C   UNL A   1      38.723  34.224  38.712  1.00  0.00     0.198 A 
ATOM     71  F   UNL A   1      38.261  32.196  37.612  1.00  0.00    -0.203 F 
ATOM     72  F   UNL A   1      40.915  36.962  37.801  1.00  0.00    -0.200 F 
ATOM     73  C   UNL A   1      39.397  35.435  38.769  1.00  0.00     0.200 A 
ATOM     74  F   UNL A   1      37.903  33.867  39.709  1.00  0.00    -0.200 F 
ATOM     75  F   UNL A   1      39.243  36.239  39.831  1.00  0.00    -0.200 F 
ENDBRANCH  51  65
BRANCH  52  76
ATOM     76  C   UNL A   1      40.763  28.013  28.405  1.00  0.00     0.064 A 
ATOM     77  C   UNL A   1      40.130  26.765  28.310  1.00  0.00     0.173 A 
ATOM     78  C   UNL A   1      41.563  28.421  27.328  1.00  0.00     0.173 A 
ATOM     79  F   UNL A   1      39.368  26.323  29.322  1.00  0.00    -0.203 F 
ATOM     80  C   UNL A   1      40.313  25.945  27.199  1.00  0.00     0.198 A 
ATOM     81  C   UNL A   1      41.722  27.613  26.204  1.00  0.00     0.198 A 
ATOM     82  F   UNL A   1      42.183  29.609  27.365  1.00  0.00    -0.203 F 
ATOM     83  F   UNL A   1      39.738  24.737  27.158  1.00  0.00    -0.200 F 
ATOM     84  C   UNL A   1      41.106  26.372  26.144  1.00  0.00     0.200 A 
ATOM     85  F   UNL A   1      42.477  28.035  25.180  1.00  0.00    -0.200 F 
ATOM     86  F   UNL A   1      41.282  25.585  25.074  1.00  0.00    -0.200 F 
ENDBRANCH  52  76
BRANCH  64  87
ATOM     87  C   UNL A   1      43.880  28.135  34.629  1.00  0.00     0.064 A 
ATOM     88  C   UNL A   1      43.580  26.941  35.302  1.00  0.00     0.173 A 
ATOM     89  C   UNL A   1      45.228  28.503  34.511  1.00  0.00     0.173 A 
ATOM     90  F   UNL A   1      42.304  26.553  35.452  1.00  0.00    -0.203 F 
ATOM     91  C   UNL A   1      44.589  26.168  35.869  1.00  0.00     0.198 A 
ATOM     92  C   UNL A   1      46.236  27.710  35.048  1.00  0.00     0.198 A 
ATOM     93  F   UNL A   1      45.568  29.629  33.867  1.00  0.00    -0.203 F 
ATOM     94  F   UNL A   1      44.275  25.064  36.560  1.00  0.00    -0.200 F 
ATOM     95  C   UNL A   1      45.916  26.549  35.736  1.00  0.00     0.200 A 
ATOM     96  F   UNL A   1      47.519  28.072  34.907  1.00  0.00    -0.200 F 
ATOM     97  F   UNL A   1      46.886  25.803  36.282  1.00  0.00    -0.200 F 
ENDBRANCH  64  87
ENDBRANCH  38  39
ENDBRANCH  30  33
ENDBRANCH  28  29
ENDBRANCH  27  28
ENDBRANCH   1  27
TORSDOF 15
ENDMDL
MODEL 2
REMARK VINA RESULT:     -12.7      0.109      1.561
REMARK SMILES CC[C@@H](C(=O)NCCCCNC(=O)c1ccc(-c2c3nc(c(-c4c(F)c(F)c(F)c(F)c4F)c4ccc([nH]4)c(-c4c(F)c(F)c(F)c(F)c4F)c4nc(c(-c5c(F)c(F)c(F)c(F)c5F)c5ccc2[nH]5)C=C4)C=C3)cc1)N1C(=O)/C(=C/C(C)=C/c2ccccc2)SC1=S
REMARK SMILES IDX 8 1 7 2 6 3 4 4 5 5 3 7 2 8 1 9 77 10 78 11 92 12 79 13
REMARK SMILES IDX 80 14 91 15 93 16 81 17 82 18 83 19 84 20 85 21 86 22 90 23
REMARK SMILES IDX 87 24 89 25 88 26 9 27 10 28 11 29 12 30 13 32 14 33 15 34
REMARK SMILES IDX 76 35 16 36 75 37 17 38 18 39 19 40 69 41 20 42 74 43 68 44
REMARK SMILES IDX 70 45 21 46 73 47 67 48 66 49 22 51 54 52 34 53 53 54 35 55
REMARK SMILES IDX 38 56 52 57 71 58 36 59 37 60 51 62 72 63 39 64 23 65 24 66
REMARK SMILES IDX 32 67 25 68 26 69 30 70 33 71 27 72 28 73 31 74 29 75 55 76
REMARK SMILES IDX 56 77 64 78 57 79 58 80 62 81 65 82 59 83 60 84 63 85 61 86
REMARK SMILES IDX 40 87 41 88 49 89 42 90 43 91 47 92 50 93 44 94 45 95 48 96
REMARK SMILES IDX 46 97
REMARK H PARENT 6 6 11 31 70 50 38 61
REMARK Flexibility Score: inf
ROOT
ATOM      1  C   UNL A   1      31.409  31.249  26.260  1.00  0.00     0.023 C 
ENDROOT
BRANCH   1   2
ATOM      2  C   UNL A   1      32.619  30.496  26.830  1.00  0.00     0.116 C 
BRANCH   2   3
ATOM      3  N   UNL A   1      32.175  29.258  27.443  1.00  0.00    -0.354 N 
ATOM      4  C   UNL A   1      31.675  28.117  26.879  1.00  0.00     0.243 C 
ATOM      5  O   UNL A   1      31.049  27.356  27.624  1.00  0.00    -0.273 OA
ATOM      6  H   UNL A   1      32.245  29.236  28.425  1.00  0.00     0.163 HD
BRANCH   4   7
ATOM      7  C   UNL A   1      31.906  27.778  25.376  1.00  0.00     0.181 C 
BRANCH   7   8
ATOM      8  C   UNL A   1      30.725  28.246  24.498  1.00  0.00     0.032 C 
ATOM      9  C   UNL A   1      30.929  29.042  23.233  1.00  0.00     0.006 C 
ENDBRANCH   7   8
BRANCH   7  10
ATOM     10  N   UNL A   1      32.080  26.276  25.333  1.00  0.00    -0.280 N 
ATOM     11  C   UNL A   1      33.300  25.717  25.717  1.00  0.00     0.266 C 
ATOM     12  C   UNL A   1      31.167  25.325  24.929  1.00  0.00     0.149 C 
ATOM     13  O   UNL A   1      34.355  26.322  25.857  1.00  0.00    -0.268 OA
ATOM     14  C   UNL A   1      33.161  24.226  25.860  1.00  0.00     0.080 C 
ATOM     15  S   UNL A   1      31.485  23.844  25.799  1.00  0.00    -0.054 SA
ATOM     16  S   UNL A   1      30.038  25.334  23.698  1.00  0.00    -0.052 S 
ATOM     17  C   UNL A   1      34.180  23.351  25.922  1.00  0.00     0.024 C 
BRANCH  17  18
ATOM     18  C   UNL A   1      34.099  21.876  25.937  1.00  0.00    -0.049 C 
ATOM     19  C   UNL A   1      34.057  21.256  27.309  1.00  0.00     0.044 C 
ATOM     20  C   UNL A   1      34.172  21.156  24.795  1.00  0.00     0.011 C 
BRANCH  20  21
ATOM     21  C   UNL A   1      34.003  19.713  24.527  1.00  0.00    -0.025 A 
ATOM     22  C   UNL A   1      32.695  19.235  24.341  1.00  0.00     0.008 A 
ATOM     23  C   UNL A   1      35.040  18.777  24.621  1.00  0.00     0.008 A 
ATOM     24  C   UNL A   1      32.434  17.868  24.220  1.00  0.00     0.001 A 
ATOM     25  C   UNL A   1      34.782  17.406  24.487  1.00  0.00     0.001 A 
ATOM     26  C   UNL A   1      33.480  16.954  24.289  1.00  0.00     0.000 A 
ENDBRANCH  20  21
ENDBRANCH  17  18
ENDBRANCH   7  10
ENDBRANCH   4   7
ENDBRANCH   2   3
ENDBRANCH   1   2
BRANCH   1  27
ATOM     27  C   UNL A   1      31.397  32.751  26.502  1.00  0.00     0.023 C 
BRANCH  27  28
ATOM     28  C   UNL A   1      32.572  33.259  27.310  1.00  0.00     0.116 C 
BRANCH  28  29
ATOM     29  N   UNL A   1      32.361  34.592  27.859  1.00  0.00    -0.352 N 
ATOM     30  C   UNL A   1      33.031  35.220  28.880  1.00  0.00     0.251 C 
ATOM     31  H   UNL A   1      31.639  35.114  27.441  1.00  0.00     0.163 HD
ATOM     32  O   UNL A   1      32.650  36.311  29.294  1.00  0.00    -0.269 OA
BRANCH  30  33
ATOM     33  C   UNL A   1      34.195  34.556  29.498  1.00  0.00     0.039 A 
ATOM     34  C   UNL A   1      34.022  33.855  30.693  1.00  0.00     0.014 A 
ATOM     35  C   UNL A   1      35.447  34.596  28.880  1.00  0.00     0.014 A 
ATOM     36  C   UNL A   1      35.097  33.155  31.240  1.00  0.00     0.010 A 
ATOM     37  C   UNL A   1      36.479  33.802  29.357  1.00  0.00     0.010 A 
ATOM     38  C   UNL A   1      36.326  33.102  30.561  1.00  0.00    -0.014 A 
BRANCH  38  39
ATOM     39  C   UNL A   1      37.492  32.386  31.130  1.00  0.00     0.031 A 
ATOM     40  C   UNL A   1      37.978  32.740  32.509  1.00  0.00     0.074 A 
ATOM     41  C   UNL A   1      38.137  31.460  30.395  1.00  0.00     0.049 A 
ATOM     42  N   UNL A   1      38.999  32.267  33.178  1.00  0.00    -0.248 NA
ATOM     43  C   UNL A   1      37.243  33.803  33.219  1.00  0.00     0.031 C 
ATOM     44  C   UNL A   1      37.802  31.082  29.021  1.00  0.00     0.029 A 
ATOM     45  N   UNL A   1      39.211  30.666  30.705  1.00  0.00    -0.354 N 
ATOM     46  C   UNL A   1      39.036  32.987  34.365  1.00  0.00     0.074 A 
ATOM     47  C   UNL A   1      37.991  33.981  34.296  1.00  0.00     0.031 C 
ATOM     48  C   UNL A   1      38.628  30.102  28.621  1.00  0.00     0.029 A 
ATOM     49  C   UNL A   1      39.566  29.802  29.698  1.00  0.00     0.049 A 
ATOM     50  H   UNL A   1      39.683  30.711  31.568  1.00  0.00     0.167 HD
ATOM     51  C   UNL A   1      39.842  32.807  35.438  1.00  0.00     0.037 A 
ATOM     52  C   UNL A   1      40.534  28.868  29.660  1.00  0.00     0.037 A 
ATOM     53  C   UNL A   1      40.848  31.784  35.521  1.00  0.00     0.049 A 
ATOM     54  C   UNL A   1      41.394  28.664  30.880  1.00  0.00     0.074 A 
ATOM     55  C   UNL A   1      41.676  31.467  36.581  1.00  0.00     0.029 A 
ATOM     56  N   UNL A   1      41.154  30.902  34.493  1.00  0.00    -0.354 N 
ATOM     57  N   UNL A   1      41.369  29.296  32.028  1.00  0.00    -0.248 NA
ATOM     58  C   UNL A   1      42.407  27.603  30.800  1.00  0.00     0.031 C 
ATOM     59  C   UNL A   1      42.511  30.418  36.183  1.00  0.00     0.029 A 
ATOM     60  C   UNL A   1      42.171  30.049  34.891  1.00  0.00     0.049 A 
ATOM     61  H   UNL A   1      40.715  30.886  33.613  1.00  0.00     0.167 HD
ATOM     62  C   UNL A   1      42.341  28.694  32.816  1.00  0.00     0.074 A 
ATOM     63  C   UNL A   1      42.920  27.631  32.022  1.00  0.00     0.031 C 
ATOM     64  C   UNL A   1      42.725  28.995  34.082  1.00  0.00     0.037 A 
BRANCH  51  65
ATOM     65  C   UNL A   1      39.648  33.727  36.609  1.00  0.00     0.064 A 
ATOM     66  C   UNL A   1      40.294  34.974  36.680  1.00  0.00     0.173 A 
ATOM     67  C   UNL A   1      38.806  33.366  37.670  1.00  0.00     0.173 A 
ATOM     68  F   UNL A   1      41.125  35.361  35.701  1.00  0.00    -0.203 F 
ATOM     69  C   UNL A   1      40.130  35.804  37.785  1.00  0.00     0.198 A 
ATOM     70  C   UNL A   1      38.617  34.216  38.758  1.00  0.00     0.198 A 
ATOM     71  F   UNL A   1      38.164  32.189  37.654  1.00  0.00    -0.203 F 
ATOM     72  F   UNL A   1      40.806  36.960  37.858  1.00  0.00    -0.200 F 
ATOM     73  C   UNL A   1      39.287  35.429  38.819  1.00  0.00     0.200 A 
ATOM     74  F   UNL A   1      37.794  33.856  39.752  1.00  0.00    -0.200 F 
ATOM     75  F   UNL A   1      39.128  36.231  39.881  1.00  0.00    -0.200 F 
ENDBRANCH  51  65
BRANCH  52  76
ATOM     76  C   UNL A   1      40.709  28.022  28.452  1.00  0.00     0.064 A 
ATOM     77  C   UNL A   1      41.512  28.450  27.385  1.00  0.00     0.173 A 
ATOM     78  C   UNL A   1      40.073  26.778  28.330  1.00  0.00     0.173 A 
ATOM     79  F   UNL A   1      42.128  29.640  27.446  1.00  0.00    -0.203 F 
ATOM     80  C   UNL A   1      41.650  27.680  26.231  1.00  0.00     0.198 A 
ATOM     81  C   UNL A   1      40.235  25.996  27.188  1.00  0.00     0.198 A 
ATOM     82  F   UNL A   1      39.301  26.319  29.325  1.00  0.00    -0.203 F 
ATOM     83  F   UNL A   1      42.382  28.137  25.207  1.00  0.00    -0.200 F 
ATOM     84  C   UNL A   1      41.014  26.452  26.136  1.00  0.00     0.200 A 
ATOM     85  F   UNL A   1      39.631  24.802  27.105  1.00  0.00    -0.200 F 
ATOM     86  F   UNL A   1      41.147  25.711  25.027  1.00  0.00    -0.200 F 
ENDBRANCH  52  76
BRANCH  64  87
ATOM     87  C   UNL A   1      43.800  28.141  34.688  1.00  0.00     0.064 A 
ATOM     88  C   UNL A   1      45.156  28.487  34.592  1.00  0.00     0.173 A 
ATOM     89  C   UNL A   1      43.466  26.975  35.393  1.00  0.00     0.173 A 
ATOM     90  F   UNL A   1      45.526  29.586  33.916  1.00  0.00    -0.203 F 
ATOM     91  C   UNL A   1      46.141  27.674  35.146  1.00  0.00     0.198 A 
ATOM     92  C   UNL A   1      44.451  26.184  35.976  1.00  0.00     0.198 A 
ATOM     93  F   UNL A   1      42.183  26.607  35.523  1.00  0.00    -0.203 F 
ATOM     94  F   UNL A   1      47.433  27.992  34.990  1.00  0.00    -0.200 F 
ATOM     95  C   UNL A   1      45.788  26.528  35.843  1.00  0.00     0.200 A 
ATOM     96  F   UNL A   1      44.108  25.085  36.661  1.00  0.00    -0.200 F 
ATOM     97  F   UNL A   1      46.738  25.749  36.376  1.00  0.00    -0.200 F 
ENDBRANCH  64  87
ENDBRANCH  38  39
ENDBRANCH  30  33
ENDBRANCH  28  29
ENDBRANCH  27  28
ENDBRANCH   1  27
TORSDOF 15
ENDMDL
MODEL 3
REMARK VINA RESULT:     -12.6      5.454     10.397
REMARK SMILES CC[C@@H](C(=O)NCCCCNC(=O)c1ccc(-c2c3nc(c(-c4c(F)c(F)c(F)c(F)c4F)c4ccc([nH]4)c(-c4c(F)c(F)c(F)c(F)c4F)c4nc(c(-c5c(F)c(F)c(F)c(F)c5F)c5ccc2[nH]5)C=C4)C=C3)cc1)N1C(=O)/C(=C/C(C)=C/c2ccccc2)SC1=S
REMARK SMILES IDX 8 1 7 2 6 3 4 4 5 5 3 7 2 8 1 9 77 10 78 11 92 12 79 13
REMARK SMILES IDX 80 14 91 15 93 16 81 17 82 18 83 19 84 20 85 21 86 22 90 23
REMARK SMILES IDX 87 24 89 25 88 26 9 27 10 28 11 29 12 30 13 32 14 33 15 34
REMARK SMILES IDX 76 35 16 36 75 37 17 38 18 39 19 40 69 41 20 42 74 43 68 44
REMARK SMILES IDX 70 45 21 46 73 47 67 48 66 49 22 51 54 52 34 53 53 54 35 55
REMARK SMILES IDX 38 56 52 57 71 58 36 59 37 60 51 62 72 63 39 64 23 65 24 66
REMARK SMILES IDX 32 67 25 68 26 69 30 70 33 71 27 72 28 73 31 74 29 75 55 76
REMARK SMILES IDX 56 77 64 78 57 79 58 80 62 81 65 82 59 83 60 84 63 85 61 86
REMARK SMILES IDX 40 87 41 88 49 89 42 90 43 91 47 92 50 93 44 94 45 95 48 96
REMARK SMILES IDX 46 97
REMARK H PARENT 6 6 11 31 70 50 38 61
REMARK Flexibility Score: inf
ROOT
ATOM      1  C   UNL A   1      37.300  20.517  24.943  1.00  0.00     0.023 C 
ENDROOT
BRANCH   1   2
ATOM      2  C   UNL A   1      37.650  22.006  25.073  1.00  0.00     0.116 C 
BRANCH   2   3
ATOM      3  N   UNL A   1      37.023  22.748  23.996  1.00  0.00    -0.354 N 
ATOM      4  C   UNL A   1      35.718  23.114  23.811  1.00  0.00     0.243 C 
ATOM      5  O   UNL A   1      35.385  23.424  22.663  1.00  0.00    -0.273 OA
ATOM      6  H   UNL A   1      37.637  23.036  23.281  1.00  0.00     0.163 HD
BRANCH   4   7
ATOM      7  C   UNL A   1      34.707  23.164  24.995  1.00  0.00     0.181 C 
BRANCH   7   8
ATOM      8  C   UNL A   1      34.244  21.751  25.410  1.00  0.00     0.032 C 
ATOM      9  C   UNL A   1      33.854  21.416  26.828  1.00  0.00     0.006 C 
ENDBRANCH   7   8
BRANCH   7  10
ATOM     10  N   UNL A   1      33.557  24.010  24.496  1.00  0.00    -0.280 N 
ATOM     11  C   UNL A   1      33.272  25.221  25.130  1.00  0.00     0.266 C 
ATOM     12  C   UNL A   1      32.687  23.739  23.462  1.00  0.00     0.149 C 
ATOM     13  O   UNL A   1      33.696  25.577  26.222  1.00  0.00    -0.268 OA
ATOM     14  C   UNL A   1      32.289  26.013  24.311  1.00  0.00     0.080 C 
ATOM     15  S   UNL A   1      32.149  25.253  22.774  1.00  0.00    -0.054 SA
ATOM     16  S   UNL A   1      31.990  22.308  22.954  1.00  0.00    -0.052 S 
ATOM     17  C   UNL A   1      31.578  27.066  24.751  1.00  0.00     0.024 C 
BRANCH  17  18
ATOM     18  C   UNL A   1      30.515  27.796  24.033  1.00  0.00    -0.049 C 
ATOM     19  C   UNL A   1      29.283  26.986  23.725  1.00  0.00     0.044 C 
ATOM     20  C   UNL A   1      30.702  29.062  23.596  1.00  0.00     0.011 C 
BRANCH  20  21
ATOM     21  C   UNL A   1      29.783  30.036  22.971  1.00  0.00    -0.025 A 
ATOM     22  C   UNL A   1      29.103  30.925  23.819  1.00  0.00     0.008 A 
ATOM     23  C   UNL A   1      29.423  30.008  21.618  1.00  0.00     0.008 A 
ATOM     24  C   UNL A   1      28.116  31.783  23.327  1.00  0.00     0.001 A 
ATOM     25  C   UNL A   1      28.443  30.877  21.121  1.00  0.00     0.001 A 
ATOM     26  C   UNL A   1      27.789  31.761  21.976  1.00  0.00     0.000 A 
ENDBRANCH  20  21
ENDBRANCH  17  18
ENDBRANCH   7  10
ENDBRANCH   4   7
ENDBRANCH   2   3
ENDBRANCH   1   2
BRANCH   1  27
ATOM     27  C   UNL A   1      38.484  19.562  24.943  1.00  0.00     0.023 C 
BRANCH  27  28
ATOM     28  C   UNL A   1      39.557  19.904  25.954  1.00  0.00     0.116 C 
BRANCH  28  29
ATOM     29  N   UNL A   1      40.616  18.906  26.032  1.00  0.00    -0.352 N 
ATOM     30  C   UNL A   1      41.968  19.092  26.190  1.00  0.00     0.251 C 
ATOM     31  H   UNL A   1      40.322  17.969  25.961  1.00  0.00     0.163 HD
ATOM     32  O   UNL A   1      42.737  18.139  26.124  1.00  0.00    -0.269 OA
BRANCH  30  33
ATOM     33  C   UNL A   1      42.489  20.455  26.408  1.00  0.00     0.039 A 
ATOM     34  C   UNL A   1      42.854  21.228  25.304  1.00  0.00     0.014 A 
ATOM     35  C   UNL A   1      42.585  20.981  27.699  1.00  0.00     0.014 A 
ATOM     36  C   UNL A   1      43.268  22.546  25.495  1.00  0.00     0.010 A 
ATOM     37  C   UNL A   1      42.878  22.325  27.877  1.00  0.00     0.010 A 
ATOM     38  C   UNL A   1      43.258  23.111  26.781  1.00  0.00    -0.014 A 
BRANCH  38  39
ATOM     39  C   UNL A   1      43.716  24.501  27.017  1.00  0.00     0.031 A 
ATOM     40  C   UNL A   1      42.743  25.522  27.544  1.00  0.00     0.074 A 
ATOM     41  C   UNL A   1      44.980  24.853  26.716  1.00  0.00     0.049 A 
ATOM     42  N   UNL A   1      42.924  26.796  27.784  1.00  0.00    -0.248 NA
ATOM     43  C   UNL A   1      41.367  25.058  27.794  1.00  0.00     0.031 C 
ATOM     44  C   UNL A   1      45.992  23.969  26.135  1.00  0.00     0.029 A 
ATOM     45  N   UNL A   1      45.629  26.052  26.860  1.00  0.00    -0.354 N 
ATOM     46  C   UNL A   1      41.687  27.280  28.188  1.00  0.00     0.074 A 
ATOM     47  C   UNL A   1      40.745  26.190  28.086  1.00  0.00     0.031 C 
ATOM     48  C   UNL A   1      47.145  24.646  26.009  1.00  0.00     0.029 A 
ATOM     49  C   UNL A   1      46.946  26.014  26.474  1.00  0.00     0.049 A 
ATOM     50  H   UNL A   1      45.192  26.863  27.208  1.00  0.00     0.167 HD
ATOM     51  C   UNL A   1      41.371  28.514  28.647  1.00  0.00     0.037 A 
ATOM     52  C   UNL A   1      47.885  26.979  26.505  1.00  0.00     0.037 A 
ATOM     53  C   UNL A   1      42.323  29.581  28.793  1.00  0.00     0.049 A 
ATOM     54  C   UNL A   1      47.518  28.333  27.053  1.00  0.00     0.074 A 
ATOM     55  C   UNL A   1      42.130  30.849  29.307  1.00  0.00     0.029 A 
ATOM     56  N   UNL A   1      43.659  29.495  28.425  1.00  0.00    -0.354 N 
ATOM     57  N   UNL A   1      46.364  28.759  27.508  1.00  0.00    -0.248 NA
ATOM     58  C   UNL A   1      48.591  29.335  27.104  1.00  0.00     0.031 C 
ATOM     59  C   UNL A   1      43.340  31.545  29.216  1.00  0.00     0.029 A 
ATOM     60  C   UNL A   1      44.299  30.694  28.690  1.00  0.00     0.049 A 
ATOM     61  H   UNL A   1      44.087  28.700  28.034  1.00  0.00     0.167 HD
ATOM     62  C   UNL A   1      46.577  30.066  27.925  1.00  0.00     0.074 A 
ATOM     63  C   UNL A   1      47.977  30.354  27.689  1.00  0.00     0.031 C 
ATOM     64  C   UNL A   1      45.696  30.952  28.451  1.00  0.00     0.037 A 
BRANCH  51  65
ATOM     65  C   UNL A   1      39.943  28.761  29.039  1.00  0.00     0.064 A 
ATOM     66  C   UNL A   1      39.485  28.519  30.346  1.00  0.00     0.173 A 
ATOM     67  C   UNL A   1      39.019  29.252  28.105  1.00  0.00     0.173 A 
ATOM     68  F   UNL A   1      40.322  28.032  31.275  1.00  0.00    -0.203 F 
ATOM     69  C   UNL A   1      38.152  28.723  30.689  1.00  0.00     0.198 A 
ATOM     70  C   UNL A   1      37.694  29.488  28.461  1.00  0.00     0.198 A 
ATOM     71  F   UNL A   1      39.401  29.502  26.843  1.00  0.00    -0.203 F 
ATOM     72  F   UNL A   1      37.727  28.424  31.925  1.00  0.00    -0.200 F 
ATOM     73  C   UNL A   1      37.260  29.214  29.750  1.00  0.00     0.200 A 
ATOM     74  F   UNL A   1      36.834  29.973  27.555  1.00  0.00    -0.200 F 
ATOM     75  F   UNL A   1      35.977  29.414  30.082  1.00  0.00    -0.200 F 
ENDBRANCH  51  65
BRANCH  52  76
ATOM     76  C   UNL A   1      49.271  26.687  26.056  1.00  0.00     0.064 A 
ATOM     77  C   UNL A   1      50.206  26.119  26.934  1.00  0.00     0.173 A 
ATOM     78  C   UNL A   1      49.695  26.976  24.751  1.00  0.00     0.173 A 
ATOM     79  F   UNL A   1      49.854  25.841  28.198  1.00  0.00    -0.203 F 
ATOM     80  C   UNL A   1      51.519  25.879  26.533  1.00  0.00     0.198 A 
ATOM     81  C   UNL A   1      51.000  26.708  24.342  1.00  0.00     0.198 A 
ATOM     82  F   UNL A   1      48.838  27.511  23.870  1.00  0.00    -0.203 F 
ATOM     83  F   UNL A   1      52.404  25.384  27.408  1.00  0.00    -0.200 F 
ATOM     84  C   UNL A   1      51.913  26.169  25.236  1.00  0.00     0.200 A 
ATOM     85  F   UNL A   1      51.374  26.976  23.083  1.00  0.00    -0.200 F 
ATOM     86  F   UNL A   1      53.176  25.937  24.849  1.00  0.00    -0.200 F 
ENDBRANCH  52  76
BRANCH  64  87
ATOM     87  C   UNL A   1      46.232  32.301  28.832  1.00  0.00     0.064 A 
ATOM     88  C   UNL A   1      46.752  32.552  30.111  1.00  0.00     0.173 A 
ATOM     89  C   UNL A   1      46.247  33.348  27.899  1.00  0.00     0.173 A 
ATOM     90  F   UNL A   1      46.747  31.585  31.042  1.00  0.00    -0.203 F 
ATOM     91  C   UNL A   1      47.230  33.813  30.452  1.00  0.00     0.198 A 
ATOM     92  C   UNL A   1      46.758  34.598  28.233  1.00  0.00     0.198 A 
ATOM     93  F   UNL A   1      45.771  33.156  26.659  1.00  0.00    -0.203 F 
ATOM     94  F   UNL A   1      47.666  34.046  31.698  1.00  0.00    -0.200 F 
ATOM     95  C   UNL A   1      47.239  34.833  29.513  1.00  0.00     0.200 A 
ATOM     96  F   UNL A   1      46.780  35.578  27.319  1.00  0.00    -0.200 F 
ATOM     97  F   UNL A   1      47.702  36.046  29.843  1.00  0.00    -0.200 F 
ENDBRANCH  64  87
ENDBRANCH  38  39
ENDBRANCH  30  33
ENDBRANCH  28  29
ENDBRANCH  27  28
ENDBRANCH   1  27
TORSDOF 15
ENDMDL
