MODEL 1
REMARK VINA RESULT:     -12.6      0.000      0.000
REMARK SMILES CN(Cc1ncc(C(=O)NCCCCNC(=O)c2ccc(-c3c4nc(c(-c5c(F)c(F)c(F)c(F)c5F)c5ccc([nH]5)c(-c5c(F)c(F)c(F)c(F)c5F)c5nc(c(-c6c(F)c(F)c(F)c(F)c6F)c6ccc3[nH]6)C=C5)C=C4)cc2)cn1)S(=O)(=O)c1ccc(Cl)cc1
REMARK SMILES IDX 11 1 10 2 8 3 9 4 7 6 4 7 5 8 82 9 6 10 81 11 3 12 2 13 1 14
REMARK SMILES IDX 83 15 84 16 85 17 86 18 87 19 92 20 88 21 91 22 89 23 90 24
REMARK SMILES IDX 12 25 13 26 14 27 15 28 16 29 17 31 18 32 19 33 80 34 20 35
REMARK SMILES IDX 79 36 21 37 22 38 23 39 73 40 24 41 78 42 72 43 74 44 25 45
REMARK SMILES IDX 77 46 71 47 70 48 26 50 58 51 38 52 57 53 39 54 42 55 56 56
REMARK SMILES IDX 75 57 40 58 41 59 55 61 76 62 43 63 27 64 28 65 36 66 29 67
REMARK SMILES IDX 30 68 34 69 37 70 31 71 32 72 35 73 33 74 59 75 60 76 68 77
REMARK SMILES IDX 61 78 62 79 66 80 69 81 63 82 64 83 67 84 65 85 44 86 45 87
REMARK SMILES IDX 53 88 46 89 47 90 51 91 54 92 48 93 49 94 52 95 50 96
REMARK H PARENT 10 5 15 30 74 49 42 60
REMARK Flexibility Score: inf
ROOT
ATOM      1  C   UNL A   1      31.966  29.812  25.379  1.00  0.00     0.116 C 
ENDROOT
BRANCH   1   2
ATOM      2  N   UNL A   1      31.060  30.074  24.277  1.00  0.00    -0.352 N 
ATOM      3  C   UNL A   1      30.387  29.217  23.444  1.00  0.00     0.254 C 
ATOM      4  O   UNL A   1      29.564  29.687  22.662  1.00  0.00    -0.269 OA
ATOM      5  H   UNL A   1      30.900  31.029  24.097  1.00  0.00     0.163 HD
BRANCH   3   6
ATOM      6  C   UNL A   1      30.588  27.761  23.473  1.00  0.00     0.076 A 
ATOM      7  C   UNL A   1      30.773  25.050  23.549  1.00  0.00     0.143 A 
ATOM      8  N   UNL A   1      31.456  25.699  22.586  1.00  0.00    -0.239 NA
ATOM      9  N   UNL A   1      30.036  25.651  24.503  1.00  0.00    -0.239 NA
ATOM     10  C   UNL A   1      31.325  27.040  22.564  1.00  0.00     0.128 A 
ATOM     11  C   UNL A   1      29.940  26.999  24.423  1.00  0.00     0.128 A 
BRANCH   7  12
ATOM     12  C   UNL A   1      30.722  23.542  23.446  1.00  0.00     0.179 C 
BRANCH  12  13
ATOM     13  N   UNL A   1      32.019  22.810  23.635  1.00  0.00    -0.193 NA
ATOM     14  C   UNL A   1      32.262  21.830  22.544  1.00  0.00     0.125 C 
BRANCH  13  15
ATOM     15  S   UNL A   1      32.301  22.120  25.176  1.00  0.00     0.243 S 
ATOM     16  O   UNL A   1      31.772  23.021  26.176  1.00  0.00    -0.207 OA
ATOM     17  O   UNL A   1      31.851  20.745  25.118  1.00  0.00    -0.207 OA
BRANCH  15  18
ATOM     18  C   UNL A   1      34.069  22.071  25.326  1.00  0.00     0.082 A 
ATOM     19  C   UNL A   1      34.760  20.905  24.983  1.00  0.00     0.023 A 
ATOM     20  C   UNL A   1      34.749  23.189  25.821  1.00  0.00     0.023 A 
ATOM     21  C   UNL A   1      36.145  20.856  25.147  1.00  0.00     0.022 A 
ATOM     22  C   UNL A   1      36.131  23.126  26.005  1.00  0.00     0.022 A 
ATOM     23  C   UNL A   1      36.823  21.961  25.667  1.00  0.00     0.041 A 
ATOM     24  Cl  UNL A   1      38.526  21.885  25.899  1.00  0.00    -0.084 Cl
ENDBRANCH  15  18
ENDBRANCH  13  15
ENDBRANCH  12  13
ENDBRANCH   7  12
ENDBRANCH   3   6
ENDBRANCH   1   2
BRANCH   1  25
ATOM     25  C   UNL A   1      31.487  30.501  26.659  1.00  0.00     0.023 C 
BRANCH  25  26
ATOM     26  C   UNL A   1      31.444  32.030  26.578  1.00  0.00     0.023 C 
BRANCH  26  27
ATOM     27  C   UNL A   1      32.629  32.741  27.219  1.00  0.00     0.116 C 
BRANCH  27  28
ATOM     28  N   UNL A   1      32.331  34.104  27.628  1.00  0.00    -0.352 N 
ATOM     29  C   UNL A   1      32.972  34.877  28.563  1.00  0.00     0.251 C 
ATOM     30  H   UNL A   1      31.567  34.528  27.173  1.00  0.00     0.163 HD
ATOM     31  O   UNL A   1      32.523  35.977  28.869  1.00  0.00    -0.269 OA
BRANCH  29  32
ATOM     32  C   UNL A   1      34.179  34.356  29.235  1.00  0.00     0.039 A 
ATOM     33  C   UNL A   1      34.018  33.581  30.385  1.00  0.00     0.014 A 
ATOM     34  C   UNL A   1      35.456  34.605  28.723  1.00  0.00     0.014 A 
ATOM     35  C   UNL A   1      35.136  33.009  30.990  1.00  0.00     0.010 A 
ATOM     36  C   UNL A   1      36.561  33.969  29.282  1.00  0.00     0.010 A 
ATOM     37  C   UNL A   1      36.413  33.169  30.424  1.00  0.00    -0.014 A 
BRANCH  37  38
ATOM     38  C   UNL A   1      37.587  32.485  31.017  1.00  0.00     0.031 A 
ATOM     39  C   UNL A   1      38.080  32.861  32.387  1.00  0.00     0.074 A 
ATOM     40  C   UNL A   1      38.228  31.542  30.302  1.00  0.00     0.049 A 
ATOM     41  N   UNL A   1      39.059  32.340  33.083  1.00  0.00    -0.248 NA
ATOM     42  C   UNL A   1      37.403  33.985  33.052  1.00  0.00     0.031 C 
ATOM     43  C   UNL A   1      37.891  31.147  28.932  1.00  0.00     0.029 A 
ATOM     44  N   UNL A   1      39.290  30.737  30.628  1.00  0.00    -0.354 N 
ATOM     45  C   UNL A   1      39.117  33.073  34.261  1.00  0.00     0.074 A 
ATOM     46  C   UNL A   1      38.119  34.115  34.160  1.00  0.00     0.031 C 
ATOM     47  C   UNL A   1      38.700  30.147  28.552  1.00  0.00     0.029 A 
ATOM     48  C   UNL A   1      39.629  29.848  29.637  1.00  0.00     0.049 A 
ATOM     49  H   UNL A   1      39.765  30.792  31.488  1.00  0.00     0.167 HD
ATOM     50  C   UNL A   1      39.909  32.875  35.342  1.00  0.00     0.037 A 
ATOM     51  C   UNL A   1      40.572  28.889  29.615  1.00  0.00     0.037 A 
ATOM     52  C   UNL A   1      40.889  31.825  35.443  1.00  0.00     0.049 A 
ATOM     53  C   UNL A   1      41.418  28.670  30.840  1.00  0.00     0.074 A 
ATOM     54  C   UNL A   1      41.705  31.503  36.514  1.00  0.00     0.029 A 
ATOM     55  N   UNL A   1      41.190  30.926  34.429  1.00  0.00    -0.354 N 
ATOM     56  N   UNL A   1      41.402  29.310  31.984  1.00  0.00    -0.248 NA
ATOM     57  C   UNL A   1      42.400  27.580  30.775  1.00  0.00     0.031 C 
ATOM     58  C   UNL A   1      42.530  30.439  36.132  1.00  0.00     0.029 A 
ATOM     59  C   UNL A   1      42.190  30.061  34.843  1.00  0.00     0.049 A 
ATOM     60  H   UNL A   1      40.756  30.906  33.545  1.00  0.00     0.167 HD
ATOM     61  C   UNL A   1      42.349  28.686  32.784  1.00  0.00     0.074 A 
ATOM     62  C   UNL A   1      42.901  27.599  32.001  1.00  0.00     0.031 C 
ATOM     63  C   UNL A   1      42.729  28.985  34.050  1.00  0.00     0.037 A 
BRANCH  50  64
ATOM     64  C   UNL A   1      39.740  33.810  36.506  1.00  0.00     0.064 A 
ATOM     65  C   UNL A   1      38.917  33.484  37.597  1.00  0.00     0.173 A 
ATOM     66  C   UNL A   1      40.430  35.030  36.549  1.00  0.00     0.173 A 
ATOM     67  F   UNL A   1      38.223  32.337  37.601  1.00  0.00    -0.203 F 
ATOM     68  C   UNL A   1      38.769  34.359  38.670  1.00  0.00     0.198 A 
ATOM     69  C   UNL A   1      40.306  35.887  37.639  1.00  0.00     0.198 A 
ATOM     70  F   UNL A   1      41.234  35.390  35.536  1.00  0.00    -0.203 F 
ATOM     71  F   UNL A   1      37.936  34.050  39.674  1.00  0.00    -0.200 F 
ATOM     72  C   UNL A   1      39.468  35.556  38.694  1.00  0.00     0.200 A 
ATOM     73  F   UNL A   1      40.992  37.038  37.667  1.00  0.00    -0.200 F 
ATOM     74  F   UNL A   1      39.331  36.394  39.731  1.00  0.00    -0.200 F 
ENDBRANCH  50  64
BRANCH  51  75
ATOM     75  C   UNL A   1      40.730  28.028  28.414  1.00  0.00     0.064 A 
ATOM     76  C   UNL A   1      40.086  26.785  28.328  1.00  0.00     0.173 A 
ATOM     77  C   UNL A   1      41.527  28.425  27.331  1.00  0.00     0.173 A 
ATOM     78  F   UNL A   1      39.325  26.354  29.346  1.00  0.00    -0.203 F 
ATOM     79  C   UNL A   1      40.255  25.960  27.219  1.00  0.00     0.198 A 
ATOM     80  C   UNL A   1      41.671  27.613  26.208  1.00  0.00     0.198 A 
ATOM     81  F   UNL A   1      42.157  29.609  27.359  1.00  0.00    -0.203 F 
ATOM     82  F   UNL A   1      39.669  24.756  27.186  1.00  0.00    -0.200 F 
ATOM     83  C   UNL A   1      41.043  26.378  26.157  1.00  0.00     0.200 A 
ATOM     84  F   UNL A   1      42.420  28.027  25.177  1.00  0.00    -0.200 F 
ATOM     85  F   UNL A   1      41.204  25.586  25.087  1.00  0.00    -0.200 F 
ENDBRANCH  51  75
BRANCH  63  86
ATOM     86  C   UNL A   1      43.773  28.101  34.673  1.00  0.00     0.064 A 
ATOM     87  C   UNL A   1      43.434  26.917  35.344  1.00  0.00     0.173 A 
ATOM     88  C   UNL A   1      45.131  28.447  34.597  1.00  0.00     0.173 A 
ATOM     89  F   UNL A   1      42.147  26.550  35.456  1.00  0.00    -0.203 F 
ATOM     90  C   UNL A   1      44.409  26.136  35.956  1.00  0.00     0.198 A 
ATOM     91  C   UNL A   1      46.108  27.644  35.180  1.00  0.00     0.198 A 
ATOM     92  F   UNL A   1      45.512  29.563  33.959  1.00  0.00    -0.203 F 
ATOM     93  F   UNL A   1      44.054  25.046  36.651  1.00  0.00    -0.200 F 
ATOM     94  C   UNL A   1      45.746  26.497  35.870  1.00  0.00     0.200 A 
ATOM     95  F   UNL A   1      47.400  27.987  35.083  1.00  0.00    -0.200 F 
ATOM     96  F   UNL A   1      46.684  25.746  36.463  1.00  0.00    -0.200 F 
ENDBRANCH  63  86
ENDBRANCH  37  38
ENDBRANCH  29  32
ENDBRANCH  27  28
ENDBRANCH  26  27
ENDBRANCH  25  26
ENDBRANCH   1  25
TORSDOF 15
ENDMDL
MODEL 2
REMARK VINA RESULT:     -12.6      5.437      9.976
REMARK SMILES CN(Cc1ncc(C(=O)NCCCCNC(=O)c2ccc(-c3c4nc(c(-c5c(F)c(F)c(F)c(F)c5F)c5ccc([nH]5)c(-c5c(F)c(F)c(F)c(F)c5F)c5nc(c(-c6c(F)c(F)c(F)c(F)c6F)c6ccc3[nH]6)C=C5)C=C4)cc2)cn1)S(=O)(=O)c1ccc(Cl)cc1
REMARK SMILES IDX 11 1 10 2 8 3 9 4 7 6 4 7 5 8 82 9 6 10 81 11 3 12 2 13 1 14
REMARK SMILES IDX 83 15 84 16 85 17 86 18 87 19 92 20 88 21 91 22 89 23 90 24
REMARK SMILES IDX 12 25 13 26 14 27 15 28 16 29 17 31 18 32 19 33 80 34 20 35
REMARK SMILES IDX 79 36 21 37 22 38 23 39 73 40 24 41 78 42 72 43 74 44 25 45
REMARK SMILES IDX 77 46 71 47 70 48 26 50 58 51 38 52 57 53 39 54 42 55 56 56
REMARK SMILES IDX 75 57 40 58 41 59 55 61 76 62 43 63 27 64 28 65 36 66 29 67
REMARK SMILES IDX 30 68 34 69 37 70 31 71 32 72 35 73 33 74 59 75 60 76 68 77
REMARK SMILES IDX 61 78 62 79 66 80 69 81 63 82 64 83 67 84 65 85 44 86 45 87
REMARK SMILES IDX 53 88 46 89 47 90 51 91 54 92 48 93 49 94 52 95 50 96
REMARK H PARENT 10 5 15 30 74 49 42 60
REMARK Flexibility Score: inf
ROOT
ATOM      1  C   UNL A   1      36.048  21.121  25.348  1.00  0.00     0.116 C 
ENDROOT
BRANCH   1   2
ATOM      2  N   UNL A   1      35.273  19.920  25.102  1.00  0.00    -0.352 N 
ATOM      3  C   UNL A   1      33.993  19.756  24.636  1.00  0.00     0.254 C 
ATOM      4  O   UNL A   1      33.604  18.618  24.384  1.00  0.00    -0.269 OA
ATOM      5  H   UNL A   1      35.746  19.080  25.302  1.00  0.00     0.163 HD
BRANCH   3   6
ATOM      6  C   UNL A   1      33.085  20.886  24.397  1.00  0.00     0.076 A 
ATOM      7  C   UNL A   1      31.433  23.030  24.137  1.00  0.00     0.143 A 
ATOM      8  N   UNL A   1      32.334  22.809  23.159  1.00  0.00    -0.239 NA
ATOM      9  N   UNL A   1      31.264  22.241  25.216  1.00  0.00    -0.239 NA
ATOM     10  C   UNL A   1      33.151  21.751  23.331  1.00  0.00     0.128 A 
ATOM     11  C   UNL A   1      32.119  21.198  25.333  1.00  0.00     0.128 A 
BRANCH   7  12
ATOM     12  C   UNL A   1      30.673  24.335  24.076  1.00  0.00     0.179 C 
BRANCH  12  13
ATOM     13  N   UNL A   1      31.394  25.558  24.567  1.00  0.00    -0.193 NA
ATOM     14  C   UNL A   1      32.265  26.143  23.513  1.00  0.00     0.125 C 
BRANCH  13  15
ATOM     15  S   UNL A   1      32.218  25.422  26.061  1.00  0.00     0.243 S 
ATOM     16  O   UNL A   1      31.301  24.867  27.031  1.00  0.00    -0.207 OA
ATOM     17  O   UNL A   1      33.484  24.772  25.794  1.00  0.00    -0.207 OA
BRANCH  15  18
ATOM     18  C   UNL A   1      32.592  27.097  26.517  1.00  0.00     0.082 A 
ATOM     19  C   UNL A   1      31.572  27.930  26.987  1.00  0.00     0.023 A 
ATOM     20  C   UNL A   1      33.898  27.575  26.367  1.00  0.00     0.023 A 
ATOM     21  C   UNL A   1      31.862  29.259  27.300  1.00  0.00     0.022 A 
ATOM     22  C   UNL A   1      34.177  28.911  26.660  1.00  0.00     0.022 A 
ATOM     23  C   UNL A   1      33.159  29.746  27.126  1.00  0.00     0.041 A 
ATOM     24  Cl  UNL A   1      33.506  31.393  27.481  1.00  0.00    -0.084 Cl
ENDBRANCH  15  18
ENDBRANCH  13  15
ENDBRANCH  12  13
ENDBRANCH   7  12
ENDBRANCH   3   6
ENDBRANCH   1   2
BRANCH   1  25
ATOM     25  C   UNL A   1      37.400  21.058  24.635  1.00  0.00     0.023 C 
BRANCH  25  26
ATOM     26  C   UNL A   1      38.235  19.819  24.968  1.00  0.00     0.023 C 
BRANCH  26  27
ATOM     27  C   UNL A   1      39.363  20.053  25.967  1.00  0.00     0.116 C 
BRANCH  27  28
ATOM     28  N   UNL A   1      40.384  19.019  25.936  1.00  0.00    -0.352 N 
ATOM     29  C   UNL A   1      41.743  19.154  26.070  1.00  0.00     0.251 C 
ATOM     30  H   UNL A   1      40.057  18.100  25.801  1.00  0.00     0.163 HD
ATOM     31  O   UNL A   1      42.479  18.185  25.910  1.00  0.00    -0.269 OA
BRANCH  29  32
ATOM     32  C   UNL A   1      42.318  20.483  26.360  1.00  0.00     0.039 A 
ATOM     33  C   UNL A   1      42.803  21.245  25.296  1.00  0.00     0.014 A 
ATOM     34  C   UNL A   1      42.355  20.985  27.664  1.00  0.00     0.014 A 
ATOM     35  C   UNL A   1      43.274  22.535  25.533  1.00  0.00     0.010 A 
ATOM     36  C   UNL A   1      42.753  22.300  27.887  1.00  0.00     0.010 A 
ATOM     37  C   UNL A   1      43.220  23.086  26.825  1.00  0.00    -0.014 A 
BRANCH  37  38
ATOM     38  C   UNL A   1      43.638  24.490  27.058  1.00  0.00     0.031 A 
ATOM     39  C   UNL A   1      42.645  25.516  27.529  1.00  0.00     0.074 A 
ATOM     40  C   UNL A   1      44.914  24.844  26.814  1.00  0.00     0.049 A 
ATOM     41  N   UNL A   1      42.839  26.776  27.828  1.00  0.00    -0.248 NA
ATOM     42  C   UNL A   1      41.246  25.079  27.652  1.00  0.00     0.031 C 
ATOM     43  C   UNL A   1      45.949  23.956  26.281  1.00  0.00     0.029 A 
ATOM     44  N   UNL A   1      45.561  26.040  26.989  1.00  0.00    -0.354 N 
ATOM     45  C   UNL A   1      41.592  27.279  28.173  1.00  0.00     0.074 A 
ATOM     46  C   UNL A   1      40.637  26.209  27.982  1.00  0.00     0.031 C 
ATOM     47  C   UNL A   1      47.110  24.625  26.214  1.00  0.00     0.029 A 
ATOM     48  C   UNL A   1      46.897  25.994  26.673  1.00  0.00     0.049 A 
ATOM     49  H   UNL A   1      45.112  26.856  27.309  1.00  0.00     0.167 HD
ATOM     50  C   UNL A   1      41.277  28.513  28.635  1.00  0.00     0.037 A 
ATOM     51  C   UNL A   1      47.845  26.945  26.759  1.00  0.00     0.037 A 
ATOM     52  C   UNL A   1      42.235  29.568  28.839  1.00  0.00     0.049 A 
ATOM     53  C   UNL A   1      47.474  28.296  27.305  1.00  0.00     0.074 A 
ATOM     54  C   UNL A   1      42.028  30.836  29.355  1.00  0.00     0.029 A 
ATOM     55  N   UNL A   1      43.585  29.478  28.531  1.00  0.00    -0.354 N 
ATOM     56  N   UNL A   1      46.308  28.734  27.714  1.00  0.00    -0.248 NA
ATOM     57  C   UNL A   1      48.559  29.280  27.420  1.00  0.00     0.031 C 
ATOM     58  C   UNL A   1      43.245  31.527  29.316  1.00  0.00     0.029 A 
ATOM     59  C   UNL A   1      44.220  30.673  28.829  1.00  0.00     0.049 A 
ATOM     60  H   UNL A   1      44.026  28.682  28.155  1.00  0.00     0.167 HD
ATOM     61  C   UNL A   1      46.521  30.032  28.159  1.00  0.00     0.074 A 
ATOM     62  C   UNL A   1      47.936  30.298  27.993  1.00  0.00     0.031 C 
ATOM     63  C   UNL A   1      45.629  30.922  28.656  1.00  0.00     0.037 A 
BRANCH  50  64
ATOM     64  C   UNL A   1      39.835  28.782  28.962  1.00  0.00     0.064 A 
ATOM     65  C   UNL A   1      39.313  28.540  30.243  1.00  0.00     0.173 A 
ATOM     66  C   UNL A   1      38.972  29.319  27.995  1.00  0.00     0.173 A 
ATOM     67  F   UNL A   1      40.091  28.014  31.201  1.00  0.00    -0.203 F 
ATOM     68  C   UNL A   1      37.976  28.795  30.533  1.00  0.00     0.198 A 
ATOM     69  C   UNL A   1      37.643  29.604  28.299  1.00  0.00     0.198 A 
ATOM     70  F   UNL A   1      39.418  29.575  26.756  1.00  0.00    -0.203 F 
ATOM     71  F   UNL A   1      37.488  28.504  31.748  1.00  0.00    -0.200 F 
ATOM     72  C   UNL A   1      37.143  29.332  29.564  1.00  0.00     0.200 A 
ATOM     73  F   UNL A   1      36.843  30.136  27.365  1.00  0.00    -0.200 F 
ATOM     74  F   UNL A   1      35.857  29.585  29.847  1.00  0.00    -0.200 F 
ENDBRANCH  50  64
BRANCH  51  75
ATOM     75  C   UNL A   1      49.246  26.635  26.371  1.00  0.00     0.064 A 
ATOM     76  C   UNL A   1      49.690  26.834  25.056  1.00  0.00     0.173 A 
ATOM     77  C   UNL A   1      50.167  26.132  27.301  1.00  0.00     0.173 A 
ATOM     78  F   UNL A   1      48.841  27.298  24.126  1.00  0.00    -0.203 F 
ATOM     79  C   UNL A   1      50.992  26.516  24.679  1.00  0.00     0.198 A 
ATOM     80  C   UNL A   1      51.479  25.844  26.930  1.00  0.00     0.198 A 
ATOM     81  F   UNL A   1      49.795  25.933  28.574  1.00  0.00    -0.203 F 
ATOM     82  F   UNL A   1      51.375  26.668  23.404  1.00  0.00    -0.200 F 
ATOM     83  C   UNL A   1      51.887  26.026  25.618  1.00  0.00     0.200 A 
ATOM     84  F   UNL A   1      52.345  25.386  27.844  1.00  0.00    -0.200 F 
ATOM     85  F   UNL A   1      53.142  25.723  25.256  1.00  0.00    -0.200 F 
ENDBRANCH  51  75
BRANCH  63  86
ATOM     86  C   UNL A   1      46.169  32.258  29.085  1.00  0.00     0.064 A 
ATOM     87  C   UNL A   1      46.256  33.340  28.196  1.00  0.00     0.173 A 
ATOM     88  C   UNL A   1      46.606  32.455  30.404  1.00  0.00     0.173 A 
ATOM     89  F   UNL A   1      45.864  33.198  26.920  1.00  0.00    -0.203 F 
ATOM     90  C   UNL A   1      46.803  34.554  28.598  1.00  0.00     0.198 A 
ATOM     91  C   UNL A   1      47.120  33.683  30.812  1.00  0.00     0.198 A 
ATOM     92  F   UNL A   1      46.537  31.458  31.297  1.00  0.00    -0.203 F 
ATOM     93  F   UNL A   1      46.940  35.551  27.713  1.00  0.00    -0.200 F 
ATOM     94  C   UNL A   1      47.230  34.727  29.906  1.00  0.00     0.200 A 
ATOM     95  F   UNL A   1      47.519  33.852  32.081  1.00  0.00    -0.200 F 
ATOM     96  F   UNL A   1      47.761  35.896  30.291  1.00  0.00    -0.200 F 
ENDBRANCH  63  86
ENDBRANCH  37  38
ENDBRANCH  29  32
ENDBRANCH  27  28
ENDBRANCH  26  27
ENDBRANCH  25  26
ENDBRANCH   1  25
TORSDOF 15
ENDMDL
MODEL 3
REMARK VINA RESULT:     -12.5      5.234     10.788
REMARK SMILES CN(Cc1ncc(C(=O)NCCCCNC(=O)c2ccc(-c3c4nc(c(-c5c(F)c(F)c(F)c(F)c5F)c5ccc([nH]5)c(-c5c(F)c(F)c(F)c(F)c5F)c5nc(c(-c6c(F)c(F)c(F)c(F)c6F)c6ccc3[nH]6)C=C5)C=C4)cc2)cn1)S(=O)(=O)c1ccc(Cl)cc1
REMARK SMILES IDX 11 1 10 2 8 3 9 4 7 6 4 7 5 8 82 9 6 10 81 11 3 12 2 13 1 14
REMARK SMILES IDX 83 15 84 16 85 17 86 18 87 19 92 20 88 21 91 22 89 23 90 24
REMARK SMILES IDX 12 25 13 26 14 27 15 28 16 29 17 31 18 32 19 33 80 34 20 35
REMARK SMILES IDX 79 36 21 37 22 38 23 39 73 40 24 41 78 42 72 43 74 44 25 45
REMARK SMILES IDX 77 46 71 47 70 48 26 50 58 51 38 52 57 53 39 54 42 55 56 56
REMARK SMILES IDX 75 57 40 58 41 59 55 61 76 62 43 63 27 64 28 65 36 66 29 67
REMARK SMILES IDX 30 68 34 69 37 70 31 71 32 72 35 73 33 74 59 75 60 76 68 77
REMARK SMILES IDX 61 78 62 79 66 80 69 81 63 82 64 83 67 84 65 85 44 86 45 87
REMARK SMILES IDX 53 88 46 89 47 90 51 91 54 92 48 93 49 94 52 95 50 96
REMARK H PARENT 10 5 15 30 74 49 42 60
REMARK Flexibility Score: inf
ROOT
ATOM      1  C   UNL A   1      35.870  21.141  25.477  1.00  0.00     0.116 C 
ENDROOT
BRANCH   1   2
ATOM      2  N   UNL A   1      35.078  19.934  25.330  1.00  0.00    -0.352 N 
ATOM      3  C   UNL A   1      33.810  19.745  24.843  1.00  0.00     0.254 C 
ATOM      4  O   UNL A   1      33.406  18.594  24.697  1.00  0.00    -0.269 OA
ATOM      5  H   UNL A   1      35.528  19.112  25.632  1.00  0.00     0.163 HD
BRANCH   3   6
ATOM      6  C   UNL A   1      32.933  20.860  24.460  1.00  0.00     0.076 A 
ATOM      7  C   UNL A   1      31.369  23.014  23.907  1.00  0.00     0.143 A 
ATOM      8  N   UNL A   1      32.098  22.493  22.901  1.00  0.00    -0.239 NA
ATOM      9  N   UNL A   1      31.328  22.519  25.160  1.00  0.00    -0.239 NA
ATOM     10  C   UNL A   1      32.879  21.440  23.215  1.00  0.00     0.128 A 
ATOM     11  C   UNL A   1      32.138  21.464  25.412  1.00  0.00     0.128 A 
BRANCH   7  12
ATOM     12  C   UNL A   1      30.674  24.328  23.632  1.00  0.00     0.179 C 
BRANCH  12  13
ATOM     13  N   UNL A   1      31.152  25.519  24.412  1.00  0.00    -0.193 NA
ATOM     14  C   UNL A   1      30.024  26.241  25.059  1.00  0.00     0.125 C 
BRANCH  13  15
ATOM     15  S   UNL A   1      32.212  26.596  23.609  1.00  0.00     0.243 S 
ATOM     16  O   UNL A   1      33.439  25.887  23.321  1.00  0.00    -0.207 OA
ATOM     17  O   UNL A   1      31.460  27.220  22.541  1.00  0.00    -0.207 OA
BRANCH  15  18
ATOM     18  C   UNL A   1      32.548  27.864  24.804  1.00  0.00     0.082 A 
ATOM     19  C   UNL A   1      31.826  29.061  24.764  1.00  0.00     0.023 A 
ATOM     20  C   UNL A   1      33.559  27.667  25.751  1.00  0.00     0.023 A 
ATOM     21  C   UNL A   1      32.127  30.074  25.676  1.00  0.00     0.022 A 
ATOM     22  C   UNL A   1      33.870  28.692  26.646  1.00  0.00     0.022 A 
ATOM     23  C   UNL A   1      33.153  29.890  26.605  1.00  0.00     0.041 A 
ATOM     24  Cl  UNL A   1      33.543  31.153  27.706  1.00  0.00    -0.084 Cl
ENDBRANCH  15  18
ENDBRANCH  13  15
ENDBRANCH  12  13
ENDBRANCH   7  12
ENDBRANCH   3   6
ENDBRANCH   1   2
BRANCH   1  25
ATOM     25  C   UNL A   1      37.154  21.059  24.648  1.00  0.00     0.023 C 
BRANCH  25  26
ATOM     26  C   UNL A   1      38.040  19.852  24.969  1.00  0.00     0.023 C 
BRANCH  26  27
ATOM     27  C   UNL A   1      39.232  20.152  25.870  1.00  0.00     0.116 C 
BRANCH  27  28
ATOM     28  N   UNL A   1      40.269  19.135  25.812  1.00  0.00    -0.352 N 
ATOM     29  C   UNL A   1      41.616  19.271  26.038  1.00  0.00     0.251 C 
ATOM     30  H   UNL A   1      39.964  18.228  25.579  1.00  0.00     0.163 HD
ATOM     31  O   UNL A   1      42.374  18.327  25.840  1.00  0.00    -0.269 OA
BRANCH  29  32
ATOM     32  C   UNL A   1      42.152  20.575  26.475  1.00  0.00     0.039 A 
ATOM     33  C   UNL A   1      42.528  21.500  25.499  1.00  0.00     0.014 A 
ATOM     34  C   UNL A   1      42.261  20.895  27.831  1.00  0.00     0.014 A 
ATOM     35  C   UNL A   1      42.960  22.769  25.885  1.00  0.00     0.010 A 
ATOM     36  C   UNL A   1      42.616  22.185  28.211  1.00  0.00     0.010 A 
ATOM     37  C   UNL A   1      42.974  23.133  27.242  1.00  0.00    -0.014 A 
BRANCH  37  38
ATOM     38  C   UNL A   1      43.347  24.511  27.643  1.00  0.00     0.031 A 
ATOM     39  C   UNL A   1      44.786  24.945  27.647  1.00  0.00     0.074 A 
ATOM     40  C   UNL A   1      42.381  25.365  28.034  1.00  0.00     0.049 A 
ATOM     41  N   UNL A   1      45.294  26.120  27.922  1.00  0.00    -0.248 NA
ATOM     42  C   UNL A   1      45.791  23.918  27.327  1.00  0.00     0.031 C 
ATOM     43  C   UNL A   1      40.959  25.036  28.147  1.00  0.00     0.029 A 
ATOM     44  N   UNL A   1      42.447  26.685  28.401  1.00  0.00    -0.354 N 
ATOM     45  C   UNL A   1      46.670  25.973  27.811  1.00  0.00     0.074 A 
ATOM     46  C   UNL A   1      46.923  24.581  27.508  1.00  0.00     0.031 C 
ATOM     47  C   UNL A   1      40.282  26.135  28.512  1.00  0.00     0.029 A 
ATOM     48  C   UNL A   1      41.222  27.237  28.685  1.00  0.00     0.049 A 
ATOM     49  H   UNL A   1      43.291  27.188  28.457  1.00  0.00     0.167 HD
ATOM     50  C   UNL A   1      47.633  26.920  27.921  1.00  0.00     0.037 A 
ATOM     51  C   UNL A   1      40.895  28.496  29.031  1.00  0.00     0.037 A 
ATOM     52  C   UNL A   1      47.373  28.307  28.206  1.00  0.00     0.049 A 
ATOM     53  C   UNL A   1      41.980  29.534  29.116  1.00  0.00     0.074 A 
ATOM     54  C   UNL A   1      48.271  29.357  28.285  1.00  0.00     0.029 A 
ATOM     55  N   UNL A   1      46.116  28.837  28.465  1.00  0.00    -0.354 N 
ATOM     56  N   UNL A   1      43.269  29.404  28.919  1.00  0.00    -0.248 NA
ATOM     57  C   UNL A   1      41.558  30.900  29.452  1.00  0.00     0.031 C 
ATOM     58  C   UNL A   1      47.564  30.513  28.635  1.00  0.00     0.029 A 
ATOM     59  C   UNL A   1      46.218  30.195  28.720  1.00  0.00     0.049 A 
ATOM     60  H   UNL A   1      45.276  28.323  28.467  1.00  0.00     0.167 HD
ATOM     61  C   UNL A   1      43.810  30.672  29.080  1.00  0.00     0.074 A 
ATOM     62  C   UNL A   1      42.702  31.561  29.365  1.00  0.00     0.031 C 
ATOM     63  C   UNL A   1      45.105  31.066  29.003  1.00  0.00     0.037 A 
BRANCH  50  64
ATOM     64  C   UNL A   1      49.057  26.485  27.723  1.00  0.00     0.064 A 
ATOM     65  C   UNL A   1      49.608  26.334  26.439  1.00  0.00     0.173 A 
ATOM     66  C   UNL A   1      49.892  26.247  28.824  1.00  0.00     0.173 A 
ATOM     67  F   UNL A   1      48.851  26.536  25.351  1.00  0.00    -0.203 F 
ATOM     68  C   UNL A   1      50.930  25.932  26.269  1.00  0.00     0.198 A 
ATOM     69  C   UNL A   1      51.223  25.877  28.650  1.00  0.00     0.198 A 
ATOM     70  F   UNL A   1      49.420  26.380  30.073  1.00  0.00    -0.203 F 
ATOM     71  F   UNL A   1      51.417  25.742  25.034  1.00  0.00    -0.200 F 
ATOM     72  C   UNL A   1      51.739  25.710  27.373  1.00  0.00     0.200 A 
ATOM     73  F   UNL A   1      52.007  25.676  29.718  1.00  0.00    -0.200 F 
ATOM     74  F   UNL A   1      53.013  25.330  27.207  1.00  0.00    -0.200 F 
ENDBRANCH  50  64
BRANCH  51  75
ATOM     75  C   UNL A   1      39.472  28.856  29.268  1.00  0.00     0.064 A 
ATOM     76  C   UNL A   1      38.671  29.348  28.228  1.00  0.00     0.173 A 
ATOM     77  C   UNL A   1      38.886  28.719  30.534  1.00  0.00     0.173 A 
ATOM     78  F   UNL A   1      39.191  29.513  27.002  1.00  0.00    -0.203 F 
ATOM     79  C   UNL A   1      37.346  29.717  28.451  1.00  0.00     0.198 A 
ATOM     80  C   UNL A   1      37.552  29.058  30.749  1.00  0.00     0.198 A 
ATOM     81  F   UNL A   1      39.607  28.243  31.560  1.00  0.00    -0.203 F 
ATOM     82  F   UNL A   1      36.618  30.233  27.451  1.00  0.00    -0.200 F 
ATOM     83  C   UNL A   1      36.786  29.567  29.710  1.00  0.00     0.200 A 
ATOM     84  F   UNL A   1      37.009  28.896  31.964  1.00  0.00    -0.200 F 
ATOM     85  F   UNL A   1      35.511  29.918  29.926  1.00  0.00    -0.200 F 
ENDBRANCH  51  75
BRANCH  63  86
ATOM     86  C   UNL A   1      45.383  32.529  29.200  1.00  0.00     0.064 A 
ATOM     87  C   UNL A   1      45.375  33.434  28.128  1.00  0.00     0.173 A 
ATOM     88  C   UNL A   1      45.664  33.031  30.480  1.00  0.00     0.173 A 
ATOM     89  F   UNL A   1      45.126  33.001  26.882  1.00  0.00    -0.203 F 
ATOM     90  C   UNL A   1      45.682  34.777  28.322  1.00  0.00     0.198 A 
ATOM     91  C   UNL A   1      45.936  34.382  30.676  1.00  0.00     0.198 A 
ATOM     92  F   UNL A   1      45.675  32.212  31.542  1.00  0.00    -0.203 F 
ATOM     93  F   UNL A   1      45.736  35.608  27.272  1.00  0.00    -0.200 F 
ATOM     94  C   UNL A   1      45.957  35.251  29.596  1.00  0.00     0.200 A 
ATOM     95  F   UNL A   1      46.187  34.842  31.910  1.00  0.00    -0.200 F 
ATOM     96  F   UNL A   1      46.258  36.545  29.781  1.00  0.00    -0.200 F 
ENDBRANCH  63  86
ENDBRANCH  37  38
ENDBRANCH  29  32
ENDBRANCH  27  28
ENDBRANCH  26  27
ENDBRANCH  25  26
ENDBRANCH   1  25
TORSDOF 15
ENDMDL
