MODEL 1
REMARK VINA RESULT:     -12.9      0.000      0.000
REMARK SMILES O=C(NCCCCNC(=O)[C@@]1(c2ccccc2)CCCC[NH2+]1)c1ccc(-c2c3nc(c(-c4c(F)c(F)c(F)c(F)c4F)c4ccc([nH]4)c(-c4c(F)c(F)c(F)c(F)c4F)c4nc(c(-c5c(F)c(F)c(F)c(F)c5F)c5ccc2[nH]5)C=C4)C=C3)cc1
REMARK SMILES IDX 5 1 4 2 3 3 1 4 2 5 23 7 24 8 85 9 25 10 84 11 26 12 27 13
REMARK SMILES IDX 28 14 78 15 29 16 83 17 77 18 79 19 30 20 82 21 76 22 75 23
REMARK SMILES IDX 31 25 63 26 43 27 62 28 44 29 47 30 61 31 80 32 45 33 46 34
REMARK SMILES IDX 60 36 81 37 48 38 32 39 33 40 41 41 34 42 35 43 39 44 42 45
REMARK SMILES IDX 36 46 37 47 40 48 38 49 64 50 65 51 73 52 66 53 67 54 71 55
REMARK SMILES IDX 74 56 68 57 69 58 72 59 70 60 49 61 50 62 58 63 51 64 52 65
REMARK SMILES IDX 56 66 59 67 53 68 54 69 57 70 55 71 6 72 7 73 8 74 9 75
REMARK SMILES IDX 10 77 11 78 18 79 22 80 19 81 21 82 20 85 12 86 13 87 17 88
REMARK SMILES IDX 14 89 16 90 15 91
REMARK H PARENT 3 6 79 24 47 35 8 76 22 83 22 84
REMARK Flexibility Score: inf
ROOT
ATOM      1  C   UNL A   1      31.855  31.830  26.858  1.00  0.00     0.023 C 
ENDROOT
BRANCH   1   2
ATOM      2  C   UNL A   1      32.949  32.750  27.366  1.00  0.00     0.116 C 
BRANCH   2   3
ATOM      3  N   UNL A   1      32.493  34.102  27.663  1.00  0.00    -0.352 N 
ATOM      4  O   UNL A   1      32.451  36.076  28.774  1.00  0.00    -0.269 OA
ATOM      5  C   UNL A   1      32.997  34.994  28.582  1.00  0.00     0.251 C 
ATOM      6  H   UNL A   1      31.724  34.419  27.137  1.00  0.00     0.163 HD
BRANCH   5   7
ATOM      7  C   UNL A   1      34.178  34.602  29.373  1.00  0.00     0.039 A 
ATOM      8  C   UNL A   1      35.453  34.719  28.819  1.00  0.00     0.014 A 
ATOM      9  C   UNL A   1      33.999  34.016  30.628  1.00  0.00     0.014 A 
ATOM     10  C   UNL A   1      36.514  34.058  29.417  1.00  0.00     0.010 A 
ATOM     11  C   UNL A   1      35.096  33.452  31.286  1.00  0.00     0.010 A 
ATOM     12  C   UNL A   1      36.350  33.416  30.658  1.00  0.00    -0.014 A 
BRANCH  12  13
ATOM     13  C   UNL A   1      37.518  32.725  31.262  1.00  0.00     0.031 A 
ATOM     14  C   UNL A   1      37.953  33.013  32.673  1.00  0.00     0.074 A 
ATOM     15  C   UNL A   1      38.140  31.770  30.542  1.00  0.00     0.049 A 
ATOM     16  N   UNL A   1      38.924  32.467  33.363  1.00  0.00    -0.248 NA
ATOM     17  C   UNL A   1      37.215  34.052  33.407  1.00  0.00     0.031 C 
ATOM     18  C   UNL A   1      37.805  31.410  29.162  1.00  0.00     0.029 A 
ATOM     19  N   UNL A   1      39.144  30.902  30.878  1.00  0.00    -0.354 N 
ATOM     20  C   UNL A   1      38.943  33.125  34.586  1.00  0.00     0.074 A 
ATOM     21  C   UNL A   1      37.889  34.114  34.547  1.00  0.00     0.031 C 
ATOM     22  C   UNL A   1      38.527  30.341  28.800  1.00  0.00     0.029 A 
ATOM     23  C   UNL A   1      39.430  29.992  29.890  1.00  0.00     0.049 A 
ATOM     24  H   UNL A   1      39.614  30.927  31.742  1.00  0.00     0.167 HD
ATOM     25  C   UNL A   1      39.766  32.917  35.641  1.00  0.00     0.037 A 
ATOM     26  C   UNL A   1      40.325  28.988  29.861  1.00  0.00     0.037 A 
ATOM     27  C   UNL A   1      40.780  31.894  35.693  1.00  0.00     0.049 A 
ATOM     28  C   UNL A   1      41.199  28.762  31.058  1.00  0.00     0.074 A 
ATOM     29  C   UNL A   1      41.641  31.581  36.730  1.00  0.00     0.029 A 
ATOM     30  N   UNL A   1      41.059  31.009  34.661  1.00  0.00    -0.354 N 
ATOM     31  N   UNL A   1      41.206  29.394  32.205  1.00  0.00    -0.248 NA
ATOM     32  C   UNL A   1      42.197  27.690  30.951  1.00  0.00     0.031 C 
ATOM     33  C   UNL A   1      42.464  30.529  36.313  1.00  0.00     0.029 A 
ATOM     34  C   UNL A   1      42.089  30.158  35.033  1.00  0.00     0.049 A 
ATOM     35  H   UNL A   1      40.596  30.989  33.792  1.00  0.00     0.167 HD
ATOM     36  C   UNL A   1      42.203  28.795  32.961  1.00  0.00     0.074 A 
ATOM     37  C   UNL A   1      42.761  27.732  32.150  1.00  0.00     0.031 C 
ATOM     38  C   UNL A   1      42.627  29.106  34.211  1.00  0.00     0.037 A 
BRANCH  25  39
ATOM     39  C   UNL A   1      39.628  33.829  36.827  1.00  0.00     0.064 A 
ATOM     40  C   UNL A   1      40.264  35.077  36.882  1.00  0.00     0.173 A 
ATOM     41  C   UNL A   1      38.802  33.465  37.903  1.00  0.00     0.173 A 
ATOM     42  F   UNL A   1      41.073  35.467  35.887  1.00  0.00    -0.203 F 
ATOM     43  C   UNL A   1      40.093  35.919  37.980  1.00  0.00     0.198 A 
ATOM     44  C   UNL A   1      38.615  34.319  38.986  1.00  0.00     0.198 A 
ATOM     45  F   UNL A   1      38.167  32.283  37.897  1.00  0.00    -0.203 F 
ATOM     46  F   UNL A   1      40.739  37.093  38.029  1.00  0.00    -0.200 F 
ATOM     47  C   UNL A   1      39.264  35.543  39.027  1.00  0.00     0.200 A 
ATOM     48  F   UNL A   1      37.804  33.958  39.991  1.00  0.00    -0.200 F 
ATOM     49  F   UNL A   1      39.094  36.358  40.077  1.00  0.00    -0.200 F 
ENDBRANCH  25  39
BRANCH  26  50
ATOM     50  C   UNL A   1      40.422  28.127  28.656  1.00  0.00     0.064 A 
ATOM     51  C   UNL A   1      41.219  28.503  27.567  1.00  0.00     0.173 A 
ATOM     52  C   UNL A   1      39.751  26.897  28.584  1.00  0.00     0.173 A 
ATOM     53  F   UNL A   1      41.866  29.677  27.584  1.00  0.00    -0.203 F 
ATOM     54  C   UNL A   1      41.336  27.682  26.446  1.00  0.00     0.198 A 
ATOM     55  C   UNL A   1      39.893  26.064  27.477  1.00  0.00     0.198 A 
ATOM     56  F   UNL A   1      38.983  26.490  29.605  1.00  0.00    -0.203 F 
ATOM     57  F   UNL A   1      42.080  28.078  25.405  1.00  0.00    -0.200 F 
ATOM     58  C   UNL A   1      40.680  26.461  26.407  1.00  0.00     0.200 A 
ATOM     59  F   UNL A   1      39.275  24.877  27.452  1.00  0.00    -0.200 F 
ATOM     60  F   UNL A   1      40.807  25.665  25.335  1.00  0.00    -0.200 F 
ENDBRANCH  26  50
BRANCH  38  61
ATOM     61  C   UNL A   1      43.731  28.266  34.776  1.00  0.00     0.064 A 
ATOM     62  C   UNL A   1      45.076  28.631  34.628  1.00  0.00     0.173 A 
ATOM     63  C   UNL A   1      43.438  27.089  35.479  1.00  0.00     0.173 A 
ATOM     64  F   UNL A   1      45.405  29.739  33.947  1.00  0.00    -0.203 F 
ATOM     65  C   UNL A   1      46.093  27.830  35.140  1.00  0.00     0.198 A 
ATOM     66  C   UNL A   1      44.456  26.303  36.011  1.00  0.00     0.198 A 
ATOM     67  F   UNL A   1      42.165  26.701  35.649  1.00  0.00    -0.203 F 
ATOM     68  F   UNL A   1      47.374  28.169  34.944  1.00  0.00    -0.200 F 
ATOM     69  C   UNL A   1      45.782  26.670  35.834  1.00  0.00     0.200 A 
ATOM     70  F   UNL A   1      44.154  25.186  36.687  1.00  0.00    -0.200 F 
ATOM     71  F   UNL A   1      46.762  25.897  36.323  1.00  0.00    -0.200 F 
ENDBRANCH  38  61
ENDBRANCH  12  13
ENDBRANCH   5   7
ENDBRANCH   2   3
ENDBRANCH   1   2
BRANCH   1  72
ATOM     72  C   UNL A   1      32.158  30.341  26.998  1.00  0.00     0.023 C 
BRANCH  72  73
ATOM     73  C   UNL A   1      32.797  29.691  25.766  1.00  0.00     0.116 C 
BRANCH  73  74
ATOM     74  N   UNL A   1      32.430  28.291  25.698  1.00  0.00    -0.350 N 
ATOM     75  C   UNL A   1      31.456  27.678  24.964  1.00  0.00     0.286 C 
ATOM     76  H   UNL A   1      32.964  27.691  26.268  1.00  0.00     0.163 HD
ATOM     77  O   UNL A   1      30.980  26.678  25.520  1.00  0.00    -0.267 OA
BRANCH  75  78
ATOM     78  C   UNL A   1      31.058  28.090  23.470  1.00  0.00     0.201 C 
ATOM     79  C   UNL A   1      32.353  28.622  22.791  1.00  0.00     0.085 C 
ATOM     80  N   UNL A   1      30.576  26.883  22.722  1.00  0.00    -0.330 N 
ATOM     81  C   UNL A   1      33.418  27.549  22.571  1.00  0.00     0.013 C 
ATOM     82  C   UNL A   1      31.575  25.856  22.429  1.00  0.00     0.261 C 
ATOM     83  H   UNL A   1      30.190  27.202  21.834  1.00  0.00     0.347 HD
ATOM     84  H   UNL A   1      29.901  26.434  23.341  1.00  0.00     0.347 HD
ATOM     85  C   UNL A   1      32.828  26.403  21.764  1.00  0.00     0.062 C 
BRANCH  78  86
ATOM     86  C   UNL A   1      29.894  29.117  23.412  1.00  0.00     0.022 A 
ATOM     87  C   UNL A   1      30.021  30.452  23.849  1.00  0.00     0.011 A 
ATOM     88  C   UNL A   1      28.639  28.735  22.899  1.00  0.00     0.011 A 
ATOM     89  C   UNL A   1      28.933  31.331  23.844  1.00  0.00     0.001 A 
ATOM     90  C   UNL A   1      27.543  29.606  22.921  1.00  0.00     0.001 A 
ATOM     91  C   UNL A   1      27.688  30.901  23.401  1.00  0.00     0.000 A 
ENDBRANCH  78  86
ENDBRANCH  75  78
ENDBRANCH  73  74
ENDBRANCH  72  73
ENDBRANCH   1  72
TORSDOF 12
ENDMDL
MODEL 2
REMARK VINA RESULT:     -12.9      1.901      3.113
REMARK SMILES O=C(NCCCCNC(=O)[C@@]1(c2ccccc2)CCCC[NH2+]1)c1ccc(-c2c3nc(c(-c4c(F)c(F)c(F)c(F)c4F)c4ccc([nH]4)c(-c4c(F)c(F)c(F)c(F)c4F)c4nc(c(-c5c(F)c(F)c(F)c(F)c5F)c5ccc2[nH]5)C=C4)C=C3)cc1
REMARK SMILES IDX 5 1 4 2 3 3 1 4 2 5 23 7 24 8 85 9 25 10 84 11 26 12 27 13
REMARK SMILES IDX 28 14 78 15 29 16 83 17 77 18 79 19 30 20 82 21 76 22 75 23
REMARK SMILES IDX 31 25 63 26 43 27 62 28 44 29 47 30 61 31 80 32 45 33 46 34
REMARK SMILES IDX 60 36 81 37 48 38 32 39 33 40 41 41 34 42 35 43 39 44 42 45
REMARK SMILES IDX 36 46 37 47 40 48 38 49 64 50 65 51 73 52 66 53 67 54 71 55
REMARK SMILES IDX 74 56 68 57 69 58 72 59 70 60 49 61 50 62 58 63 51 64 52 65
REMARK SMILES IDX 56 66 59 67 53 68 54 69 57 70 55 71 6 72 7 73 8 74 9 75
REMARK SMILES IDX 10 77 11 78 18 79 22 80 19 81 21 82 20 85 12 86 13 87 17 88
REMARK SMILES IDX 14 89 16 90 15 91
REMARK H PARENT 3 6 79 24 47 35 8 76 22 83 22 84
REMARK Flexibility Score: inf
ROOT
ATOM      1  C   UNL A   1      31.776  28.907  25.809  1.00  0.00     0.023 C 
ENDROOT
BRANCH   1   2
ATOM      2  C   UNL A   1      32.919  29.903  25.859  1.00  0.00     0.116 C 
BRANCH   2   3
ATOM      3  N   UNL A   1      32.544  31.205  26.396  1.00  0.00    -0.352 N 
ATOM      4  O   UNL A   1      32.757  33.046  27.698  1.00  0.00    -0.269 OA
ATOM      5  C   UNL A   1      33.243  32.005  27.271  1.00  0.00     0.251 C 
ATOM      6  H   UNL A   1      31.677  31.559  26.092  1.00  0.00     0.163 HD
BRANCH   5   7
ATOM      7  C   UNL A   1      34.571  31.557  27.731  1.00  0.00     0.039 A 
ATOM      8  C   UNL A   1      34.778  30.215  28.048  1.00  0.00     0.014 A 
ATOM      9  C   UNL A   1      35.576  32.502  27.949  1.00  0.00     0.014 A 
ATOM     10  C   UNL A   1      35.899  29.857  28.780  1.00  0.00     0.010 A 
ATOM     11  C   UNL A   1      36.759  32.114  28.583  1.00  0.00     0.010 A 
ATOM     12  C   UNL A   1      36.904  30.801  29.057  1.00  0.00    -0.014 A 
BRANCH  12  13
ATOM     13  C   UNL A   1      38.090  30.368  29.840  1.00  0.00     0.031 A 
ATOM     14  C   UNL A   1      38.242  30.729  31.292  1.00  0.00     0.074 A 
ATOM     15  C   UNL A   1      38.998  29.573  29.240  1.00  0.00     0.049 A 
ATOM     16  N   UNL A   1      39.194  30.396  32.128  1.00  0.00    -0.248 NA
ATOM     17  C   UNL A   1      37.202  31.582  31.887  1.00  0.00     0.031 C 
ATOM     18  C   UNL A   1      38.953  29.161  27.835  1.00  0.00     0.029 A 
ATOM     19  N   UNL A   1      40.102  28.934  29.738  1.00  0.00    -0.354 N 
ATOM     20  C   UNL A   1      38.894  31.033  33.326  1.00  0.00     0.074 A 
ATOM     21  C   UNL A   1      37.672  31.776  33.111  1.00  0.00     0.031 C 
ATOM     22  C   UNL A   1      39.930  28.273  27.606  1.00  0.00     0.029 A 
ATOM     23  C   UNL A   1      40.715  28.114  28.824  1.00  0.00     0.049 A 
ATOM     24  H   UNL A   1      40.424  29.051  30.661  1.00  0.00     0.167 HD
ATOM     25  C   UNL A   1      39.578  30.995  34.494  1.00  0.00     0.037 A 
ATOM     26  C   UNL A   1      41.796  27.322  28.949  1.00  0.00     0.037 A 
ATOM     27  C   UNL A   1      40.766  30.210  34.716  1.00  0.00     0.049 A 
ATOM     28  C   UNL A   1      42.513  27.277  30.265  1.00  0.00     0.074 A 
ATOM     29  C   UNL A   1      41.512  30.077  35.875  1.00  0.00     0.029 A 
ATOM     30  N   UNL A   1      41.374  29.413  33.757  1.00  0.00    -0.354 N 
ATOM     31  N   UNL A   1      42.218  27.886  31.386  1.00  0.00    -0.248 NA
ATOM     32  C   UNL A   1      43.719  26.442  30.329  1.00  0.00     0.031 C 
ATOM     33  C   UNL A   1      42.590  29.227  35.606  1.00  0.00     0.029 A 
ATOM     34  C   UNL A   1      42.494  28.796  34.294  1.00  0.00     0.049 A 
ATOM     35  H   UNL A   1      41.059  29.302  32.831  1.00  0.00     0.167 HD
ATOM     36  C   UNL A   1      43.197  27.506  32.293  1.00  0.00     0.074 A 
ATOM     37  C   UNL A   1      44.079  26.592  31.596  1.00  0.00     0.031 C 
ATOM     38  C   UNL A   1      43.356  27.889  33.583  1.00  0.00     0.037 A 
BRANCH  25  39
ATOM     39  C   UNL A   1      39.078  31.847  35.626  1.00  0.00     0.064 A 
ATOM     40  C   UNL A   1      38.224  31.340  36.616  1.00  0.00     0.173 A 
ATOM     41  C   UNL A   1      39.503  33.180  35.746  1.00  0.00     0.173 A 
ATOM     42  F   UNL A   1      37.779  30.078  36.542  1.00  0.00    -0.203 F 
ATOM     43  C   UNL A   1      37.800  32.142  37.675  1.00  0.00     0.198 A 
ATOM     44  C   UNL A   1      39.098  33.970  36.817  1.00  0.00     0.198 A 
ATOM     45  F   UNL A   1      40.324  33.711  34.828  1.00  0.00    -0.203 F 
ATOM     46  F   UNL A   1      36.956  31.648  38.591  1.00  0.00    -0.200 F 
ATOM     47  C   UNL A   1      38.243  33.453  37.779  1.00  0.00     0.200 A 
ATOM     48  F   UNL A   1      39.536  35.233  36.921  1.00  0.00    -0.200 F 
ATOM     49  F   UNL A   1      37.842  34.220  38.802  1.00  0.00    -0.200 F 
ENDBRANCH  25  39
BRANCH  26  50
ATOM     50  C   UNL A   1      42.249  26.512  27.791  1.00  0.00     0.064 A 
ATOM     51  C   UNL A   1      43.228  26.996  26.913  1.00  0.00     0.173 A 
ATOM     52  C   UNL A   1      41.740  25.226  27.559  1.00  0.00     0.173 A 
ATOM     53  F   UNL A   1      43.732  28.227  27.086  1.00  0.00    -0.203 F 
ATOM     54  C   UNL A   1      43.677  26.225  25.843  1.00  0.00     0.198 A 
ATOM     55  C   UNL A   1      42.211  24.445  26.507  1.00  0.00     0.198 A 
ATOM     56  F   UNL A   1      40.807  24.715  28.376  1.00  0.00    -0.203 F 
ATOM     57  F   UNL A   1      44.592  26.723  25.001  1.00  0.00    -0.200 F 
ATOM     58  C   UNL A   1      43.174  24.948  25.646  1.00  0.00     0.200 A 
ATOM     59  F   UNL A   1      41.738  23.204  26.333  1.00  0.00    -0.200 F 
ATOM     60  F   UNL A   1      43.619  24.201  24.626  1.00  0.00    -0.200 F 
ENDBRANCH  26  50
BRANCH  38  61
ATOM     61  C   UNL A   1      44.517  27.298  34.322  1.00  0.00     0.064 A 
ATOM     62  C   UNL A   1      44.405  26.079  35.005  1.00  0.00     0.173 A 
ATOM     63  C   UNL A   1      45.756  27.954  34.339  1.00  0.00     0.173 A 
ATOM     64  F   UNL A   1      43.234  25.425  35.032  1.00  0.00    -0.203 F 
ATOM     65  C   UNL A   1      45.486  25.552  35.706  1.00  0.00     0.198 A 
ATOM     66  C   UNL A   1      46.843  27.412  35.019  1.00  0.00     0.198 A 
ATOM     67  F   UNL A   1      45.913  29.121  33.696  1.00  0.00    -0.203 F 
ATOM     68  F   UNL A   1      45.345  24.411  36.394  1.00  0.00    -0.200 F 
ATOM     69  C   UNL A   1      46.705  26.216  35.708  1.00  0.00     0.200 A 
ATOM     70  F   UNL A   1      48.021  28.051  35.015  1.00  0.00    -0.200 F 
ATOM     71  F   UNL A   1      47.744  25.709  36.386  1.00  0.00    -0.200 F 
ENDBRANCH  38  61
ENDBRANCH  12  13
ENDBRANCH   5   7
ENDBRANCH   2   3
ENDBRANCH   1   2
BRANCH   1  72
ATOM     72  C   UNL A   1      31.994  27.644  26.636  1.00  0.00     0.023 C 
BRANCH  72  73
ATOM     73  C   UNL A   1      33.106  26.720  26.127  1.00  0.00     0.116 C 
BRANCH  73  74
ATOM     74  N   UNL A   1      32.632  25.352  26.078  1.00  0.00    -0.350 N 
ATOM     75  C   UNL A   1      31.748  24.764  25.220  1.00  0.00     0.286 C 
ATOM     76  H   UNL A   1      33.002  24.757  26.770  1.00  0.00     0.163 HD
ATOM     77  O   UNL A   1      31.094  23.850  25.740  1.00  0.00    -0.267 OA
BRANCH  75  78
ATOM     78  C   UNL A   1      31.653  25.094  23.656  1.00  0.00     0.201 C 
ATOM     79  C   UNL A   1      33.111  25.309  23.155  1.00  0.00     0.085 C 
ATOM     80  N   UNL A   1      31.054  23.929  22.928  1.00  0.00    -0.330 N 
ATOM     81  C   UNL A   1      33.964  24.042  23.180  1.00  0.00     0.013 C 
ATOM     82  C   UNL A   1      31.862  22.712  22.868  1.00  0.00     0.261 C 
ATOM     83  H   UNL A   1      30.867  24.224  21.970  1.00  0.00     0.347 HD
ATOM     84  H   UNL A   1      30.223  23.675  23.462  1.00  0.00     0.347 HD
ATOM     85  C   UNL A   1      33.280  22.950  22.372  1.00  0.00     0.062 C 
BRANCH  78  86
ATOM     86  C   UNL A   1      30.735  26.307  23.345  1.00  0.00     0.022 A 
ATOM     87  C   UNL A   1      31.153  27.416  22.580  1.00  0.00     0.011 A 
ATOM     88  C   UNL A   1      29.411  26.334  23.828  1.00  0.00     0.011 A 
ATOM     89  C   UNL A   1      30.321  28.521  22.376  1.00  0.00     0.001 A 
ATOM     90  C   UNL A   1      28.589  27.452  23.648  1.00  0.00     0.001 A 
ATOM     91  C   UNL A   1      29.047  28.549  22.930  1.00  0.00     0.000 A 
ENDBRANCH  78  86
ENDBRANCH  75  78
ENDBRANCH  73  74
ENDBRANCH  72  73
ENDBRANCH   1  72
TORSDOF 12
ENDMDL
MODEL 3
REMARK VINA RESULT:     -12.8      1.851      2.860
REMARK SMILES O=C(NCCCCNC(=O)[C@@]1(c2ccccc2)CCCC[NH2+]1)c1ccc(-c2c3nc(c(-c4c(F)c(F)c(F)c(F)c4F)c4ccc([nH]4)c(-c4c(F)c(F)c(F)c(F)c4F)c4nc(c(-c5c(F)c(F)c(F)c(F)c5F)c5ccc2[nH]5)C=C4)C=C3)cc1
REMARK SMILES IDX 5 1 4 2 3 3 1 4 2 5 23 7 24 8 85 9 25 10 84 11 26 12 27 13
REMARK SMILES IDX 28 14 78 15 29 16 83 17 77 18 79 19 30 20 82 21 76 22 75 23
REMARK SMILES IDX 31 25 63 26 43 27 62 28 44 29 47 30 61 31 80 32 45 33 46 34
REMARK SMILES IDX 60 36 81 37 48 38 32 39 33 40 41 41 34 42 35 43 39 44 42 45
REMARK SMILES IDX 36 46 37 47 40 48 38 49 64 50 65 51 73 52 66 53 67 54 71 55
REMARK SMILES IDX 74 56 68 57 69 58 72 59 70 60 49 61 50 62 58 63 51 64 52 65
REMARK SMILES IDX 56 66 59 67 53 68 54 69 57 70 55 71 6 72 7 73 8 74 9 75
REMARK SMILES IDX 10 77 11 78 18 79 22 80 19 81 21 82 20 85 12 86 13 87 17 88
REMARK SMILES IDX 14 89 16 90 15 91
REMARK H PARENT 3 6 79 24 47 35 8 76 22 83 22 84
REMARK Flexibility Score: inf
ROOT
ATOM      1  C   UNL A   1      31.581  29.020  26.141  1.00  0.00     0.023 C 
ENDROOT
BRANCH   1   2
ATOM      2  C   UNL A   1      32.762  29.972  26.106  1.00  0.00     0.116 C 
BRANCH   2   3
ATOM      3  N   UNL A   1      32.444  31.324  26.549  1.00  0.00    -0.352 N 
ATOM      4  O   UNL A   1      32.760  33.258  27.685  1.00  0.00    -0.269 OA
ATOM      5  C   UNL A   1      33.200  32.172  27.325  1.00  0.00     0.251 C 
ATOM      6  H   UNL A   1      31.574  31.676  26.254  1.00  0.00     0.163 HD
BRANCH   5   7
ATOM      7  C   UNL A   1      34.536  31.725  27.765  1.00  0.00     0.039 A 
ATOM      8  C   UNL A   1      34.760  30.377  28.039  1.00  0.00     0.014 A 
ATOM      9  C   UNL A   1      35.531  32.675  28.007  1.00  0.00     0.014 A 
ATOM     10  C   UNL A   1      35.890  30.009  28.753  1.00  0.00     0.010 A 
ATOM     11  C   UNL A   1      36.722  32.281  28.622  1.00  0.00     0.010 A 
ATOM     12  C   UNL A   1      36.885  30.956  29.054  1.00  0.00    -0.014 A 
BRANCH  12  13
ATOM     13  C   UNL A   1      38.080  30.513  29.818  1.00  0.00     0.031 A 
ATOM     14  C   UNL A   1      38.260  30.875  31.266  1.00  0.00     0.074 A 
ATOM     15  C   UNL A   1      38.970  29.709  29.204  1.00  0.00     0.049 A 
ATOM     16  N   UNL A   1      39.224  30.534  32.087  1.00  0.00    -0.248 NA
ATOM     17  C   UNL A   1      37.238  31.738  31.877  1.00  0.00     0.031 C 
ATOM     18  C   UNL A   1      38.897  29.295  27.800  1.00  0.00     0.029 A 
ATOM     19  N   UNL A   1      40.076  29.060  29.684  1.00  0.00    -0.354 N 
ATOM     20  C   UNL A   1      38.950  31.175  33.288  1.00  0.00     0.074 A 
ATOM     21  C   UNL A   1      37.732  31.930  33.093  1.00  0.00     0.031 C 
ATOM     22  C   UNL A   1      39.861  28.398  27.556  1.00  0.00     0.029 A 
ATOM     23  C   UNL A   1      40.666  28.232  28.760  1.00  0.00     0.049 A 
ATOM     24  H   UNL A   1      40.415  29.176  30.601  1.00  0.00     0.167 HD
ATOM     25  C   UNL A   1      39.653  31.133  34.445  1.00  0.00     0.037 A 
ATOM     26  C   UNL A   1      41.742  27.431  28.868  1.00  0.00     0.037 A 
ATOM     27  C   UNL A   1      40.838  30.336  34.647  1.00  0.00     0.049 A 
ATOM     28  C   UNL A   1      42.480  27.381  30.171  1.00  0.00     0.074 A 
ATOM     29  C   UNL A   1      41.602  30.198  35.793  1.00  0.00     0.029 A 
ATOM     30  N   UNL A   1      41.422  29.532  33.679  1.00  0.00    -0.354 N 
ATOM     31  N   UNL A   1      42.210  27.995  31.297  1.00  0.00    -0.248 NA
ATOM     32  C   UNL A   1      43.679  26.535  30.216  1.00  0.00     0.031 C 
ATOM     33  C   UNL A   1      42.668  29.338  35.508  1.00  0.00     0.029 A 
ATOM     34  C   UNL A   1      42.545  28.906  34.197  1.00  0.00     0.049 A 
ATOM     35  H   UNL A   1      41.089  29.423  32.759  1.00  0.00     0.167 HD
ATOM     36  C   UNL A   1      43.201  27.607  32.187  1.00  0.00     0.074 A 
ATOM     37  C   UNL A   1      44.062  26.683  31.476  1.00  0.00     0.031 C 
ATOM     38  C   UNL A   1      43.386  27.990  33.474  1.00  0.00     0.037 A 
BRANCH  25  39
ATOM     39  C   UNL A   1      39.181  31.991  35.584  1.00  0.00     0.064 A 
ATOM     40  C   UNL A   1      38.376  31.483  36.612  1.00  0.00     0.173 A 
ATOM     41  C   UNL A   1      39.586  33.333  35.669  1.00  0.00     0.173 A 
ATOM     42  F   UNL A   1      37.951  30.212  36.571  1.00  0.00    -0.203 F 
ATOM     43  C   UNL A   1      37.977  32.291  37.676  1.00  0.00     0.198 A 
ATOM     44  C   UNL A   1      39.207  34.130  36.745  1.00  0.00     0.198 A 
ATOM     45  F   UNL A   1      40.361  33.866  34.714  1.00  0.00    -0.203 F 
ATOM     46  F   UNL A   1      37.177  31.795  38.630  1.00  0.00    -0.200 F 
ATOM     47  C   UNL A   1      38.399  33.611  37.745  1.00  0.00     0.200 A 
ATOM     48  F   UNL A   1      39.625  35.402  36.816  1.00  0.00    -0.200 F 
ATOM     49  F   UNL A   1      38.023  34.384  38.773  1.00  0.00    -0.200 F 
ENDBRANCH  25  39
BRANCH  26  50
ATOM     50  C   UNL A   1      42.167  26.615  27.703  1.00  0.00     0.064 A 
ATOM     51  C   UNL A   1      43.153  27.078  26.823  1.00  0.00     0.173 A 
ATOM     52  C   UNL A   1      41.623  25.343  27.469  1.00  0.00     0.173 A 
ATOM     53  F   UNL A   1      43.690  28.294  26.998  1.00  0.00    -0.203 F 
ATOM     54  C   UNL A   1      43.576  26.301  25.746  1.00  0.00     0.198 A 
ATOM     55  C   UNL A   1      42.068  24.555  26.410  1.00  0.00     0.198 A 
ATOM     56  F   UNL A   1      40.682  24.853  28.289  1.00  0.00    -0.203 F 
ATOM     57  F   UNL A   1      44.499  26.779  24.901  1.00  0.00    -0.200 F 
ATOM     58  C   UNL A   1      43.039  25.038  25.546  1.00  0.00     0.200 A 
ATOM     59  F   UNL A   1      41.561  23.328  26.233  1.00  0.00    -0.200 F 
ATOM     60  F   UNL A   1      43.458  24.284  24.520  1.00  0.00    -0.200 F 
ENDBRANCH  26  50
BRANCH  38  61
ATOM     61  C   UNL A   1      44.554  27.388  34.193  1.00  0.00     0.064 A 
ATOM     62  C   UNL A   1      45.808  28.014  34.204  1.00  0.00     0.173 A 
ATOM     63  C   UNL A   1      44.414  26.177  34.885  1.00  0.00     0.173 A 
ATOM     64  F   UNL A   1      45.994  29.165  33.540  1.00  0.00    -0.203 F 
ATOM     65  C   UNL A   1      46.890  27.434  34.859  1.00  0.00     0.198 A 
ATOM     66  C   UNL A   1      45.491  25.611  35.561  1.00  0.00     0.198 A 
ATOM     67  F   UNL A   1      43.232  25.543  34.907  1.00  0.00    -0.203 F 
ATOM     68  F   UNL A   1      48.093  28.022  34.815  1.00  0.00    -0.200 F 
ATOM     69  C   UNL A   1      46.730  26.235  35.540  1.00  0.00     0.200 A 
ATOM     70  F   UNL A   1      45.333  24.458  36.224  1.00  0.00    -0.200 F 
ATOM     71  F   UNL A   1      47.773  25.675  36.167  1.00  0.00    -0.200 F 
ENDBRANCH  38  61
ENDBRANCH  12  13
ENDBRANCH   5   7
ENDBRANCH   2   3
ENDBRANCH   1   2
BRANCH   1  72
ATOM     72  C   UNL A   1      31.879  27.658  26.760  1.00  0.00     0.023 C 
BRANCH  72  73
ATOM     73  C   UNL A   1      33.091  26.928  26.170  1.00  0.00     0.116 C 
BRANCH  73  74
ATOM     74  N   UNL A   1      32.837  25.503  26.123  1.00  0.00    -0.350 N 
ATOM     75  C   UNL A   1      32.038  24.785  25.280  1.00  0.00     0.286 C 
ATOM     76  H   UNL A   1      33.312  24.971  26.803  1.00  0.00     0.163 HD
ATOM     77  O   UNL A   1      31.548  23.777  25.809  1.00  0.00    -0.267 OA
BRANCH  75  78
ATOM     78  C   UNL A   1      31.858  25.099  23.721  1.00  0.00     0.201 C 
ATOM     79  C   UNL A   1      33.287  25.286  23.133  1.00  0.00     0.085 C 
ATOM     80  N   UNL A   1      31.199  23.936  23.042  1.00  0.00    -0.330 N 
ATOM     81  C   UNL A   1      34.120  24.005  23.123  1.00  0.00     0.013 C 
ATOM     82  C   UNL A   1      31.983  22.706  22.949  1.00  0.00     0.261 C 
ATOM     83  H   UNL A   1      30.961  24.225  22.093  1.00  0.00     0.347 HD
ATOM     84  H   UNL A   1      30.397  23.701  23.626  1.00  0.00     0.347 HD
ATOM     85  C   UNL A   1      33.373  22.916  22.370  1.00  0.00     0.062 C 
BRANCH  78  86
ATOM     86  C   UNL A   1      30.942  26.324  23.449  1.00  0.00     0.022 A 
ATOM     87  C   UNL A   1      29.591  26.381  23.849  1.00  0.00     0.011 A 
ATOM     88  C   UNL A   1      31.453  27.453  22.779  1.00  0.00     0.011 A 
ATOM     89  C   UNL A   1      28.778  27.473  23.528  1.00  0.00     0.001 A 
ATOM     90  C   UNL A   1      30.632  28.533  22.433  1.00  0.00     0.001 A 
ATOM     91  C   UNL A   1      29.293  28.539  22.801  1.00  0.00     0.000 A 
ENDBRANCH  78  86
ENDBRANCH  75  78
ENDBRANCH  73  74
ENDBRANCH  72  73
ENDBRANCH   1  72
TORSDOF 12
ENDMDL
