MODEL 1
REMARK VINA RESULT:     -10.5      0.000      0.000
REMARK SMILES C[C@]1(O)CC[C@H]2[C@H]3CCC4=C/C(=N/OCC(=O)N[C@@H](CO)C(=O)NCCCCNC(=O)c5ccc(-c6c7nc(c(-c8c(F)c(F)c(F)c(F)c8F)c8ccc([nH]8)c(-c8c(F)c(F)c(F)c(F)c8F)c8nc(c(-c9c(F)c(F)c(F)c(F)c9F)c9ccc6[nH]9)C=C8)C=C7)cc5)CC[C@@]4(C)[C@@H]3CC[C@]21C
REMARK SMILES IDX 25 1 24 2 22 3 23 4 19 6 18 7 16 8 17 9 15 11 14 12 13 13
REMARK SMILES IDX 98 14 97 15 96 16 10 17 99 18 95 19 11 20 9 21 7 22 100 23
REMARK SMILES IDX 12 24 8 25 6 26 101 27 102 28 5 29 2 30 103 31 4 32 1 33
REMARK SMILES IDX 3 34 20 36 21 37 26 39 27 40 28 41 29 42 30 43 31 45 32 46
REMARK SMILES IDX 33 47 94 48 34 49 93 50 35 51 36 52 37 53 87 54 38 55 92 56
REMARK SMILES IDX 86 57 88 58 39 59 91 60 85 61 84 62 40 64 72 65 52 66 71 67
REMARK SMILES IDX 53 68 56 69 70 70 89 71 54 72 55 73 69 75 90 76 57 77 41 78
REMARK SMILES IDX 42 79 50 80 43 81 44 82 48 83 51 84 45 85 46 86 49 87 47 88
REMARK SMILES IDX 73 89 74 90 82 91 75 92 76 93 80 94 83 95 77 96 78 97 81 98
REMARK SMILES IDX 79 99 58 100 59 101 67 102 60 103 61 104 65 105 68 106
REMARK SMILES IDX 62 107 63 108 66 109 64 110
REMARK H PARENT 24 5 18 10 3 35 21 38 29 44 88 63 56 74
REMARK Flexibility Score: inf
ROOT
ATOM      1  C   UNL A   1      44.402  21.884  24.939  1.00  0.00     0.116 C 
ENDROOT
BRANCH   1   2
ATOM      2  N   UNL A   1      44.472  20.486  24.553  1.00  0.00    -0.354 N 
ATOM      3  C   UNL A   1      43.750  19.405  24.961  1.00  0.00     0.244 C 
ATOM      4  O   UNL A   1      43.848  18.380  24.276  1.00  0.00    -0.273 OA
ATOM      5  H   UNL A   1      45.161  20.285  23.879  1.00  0.00     0.163 HD
BRANCH   3   6
ATOM      6  C   UNL A   1      42.799  19.432  26.173  1.00  0.00     0.197 C 
BRANCH   6   7
ATOM      7  N   UNL A   1      41.441  19.779  25.770  1.00  0.00    -0.339 N 
ATOM      8  C   UNL A   1      40.594  20.662  26.371  1.00  0.00     0.261 C 
ATOM      9  O   UNL A   1      39.668  21.091  25.676  1.00  0.00    -0.271 OA
ATOM     10  H   UNL A   1      41.094  19.321  24.971  1.00  0.00     0.164 HD
BRANCH   8  11
ATOM     11  C   UNL A   1      40.818  21.136  27.819  1.00  0.00     0.363 C 
BRANCH  11  12
ATOM     12  O   UNL A   1      41.514  22.381  27.924  1.00  0.00    -0.385 OA
BRANCH  12  13
ATOM     13  N   UNL A   1      41.361  23.135  26.729  1.00  0.00    -0.091 NA
ATOM     14  C   UNL A   1      39.955  25.520  28.219  1.00  0.00     0.016 C 
ATOM     15  C   UNL A   1      41.336  26.251  28.123  1.00  0.00    -0.008 C 
ATOM     16  C   UNL A   1      42.497  25.379  28.751  1.00  0.00     0.018 C 
ATOM     17  C   UNL A   1      41.563  26.451  26.611  1.00  0.00    -0.062 C 
ATOM     18  C   UNL A   1      41.259  27.565  28.964  1.00  0.00     0.002 C 
ATOM     19  C   UNL A   1      43.188  24.433  27.779  1.00  0.00     0.061 C 
ATOM     20  C   UNL A   1      41.923  25.370  25.869  1.00  0.00     0.027 C 
ATOM     21  C   UNL A   1      41.146  27.768  25.988  1.00  0.00     0.032 C 
ATOM     22  C   UNL A   1      40.333  28.582  28.268  1.00  0.00    -0.003 C 
ATOM     23  C   UNL A   1      40.904  27.235  30.428  1.00  0.00     0.005 C 
ATOM     24  C   UNL A   1      42.167  24.159  26.719  1.00  0.00     0.080 C 
ATOM     25  C   UNL A   1      41.014  28.979  26.945  1.00  0.00     0.008 C 
ATOM     26  C   UNL A   1      39.829  29.731  29.159  1.00  0.00     0.001 C 
ATOM     27  C   UNL A   1      40.502  28.435  31.245  1.00  0.00     0.010 C 
ATOM     28  C   UNL A   1      39.387  29.281  30.584  1.00  0.00    -0.001 C 
ATOM     29  C   UNL A   1      40.759  30.901  29.451  1.00  0.00     0.007 C 
ATOM     30  C   UNL A   1      39.225  30.635  31.368  1.00  0.00     0.068 C 
ATOM     31  C   UNL A   1      38.091  28.446  30.494  1.00  0.00     0.015 C 
ATOM     32  C   UNL A   1      39.962  31.685  30.502  1.00  0.00     0.036 C 
ATOM     33  C   UNL A   1      37.783  31.048  31.665  1.00  0.00     0.042 C 
BRANCH  30  34
ATOM     34  O   UNL A   1      39.882  30.561  32.640  1.00  0.00    -0.390 OA
ATOM     35  H   UNL A   1      39.225  30.391  33.334  1.00  0.00     0.211 HD
ENDBRANCH  30  34
ENDBRANCH  12  13
ENDBRANCH  11  12
ENDBRANCH   8  11
ENDBRANCH   6   7
BRANCH   6  36
ATOM     36  C   UNL A   1      42.907  18.161  27.020  1.00  0.00     0.191 C 
BRANCH  36  37
ATOM     37  O   UNL A   1      44.153  17.482  26.877  1.00  0.00    -0.394 OA
ATOM     38  H   UNL A   1      44.040  16.720  26.287  1.00  0.00     0.210 HD
ENDBRANCH  36  37
ENDBRANCH   6  36
ENDBRANCH   3   6
ENDBRANCH   1   2
BRANCH   1  39
ATOM     39  C   UNL A   1      45.739  22.420  25.452  1.00  0.00     0.023 C 
BRANCH  39  40
ATOM     40  C   UNL A   1      45.765  23.909  25.794  1.00  0.00     0.023 C 
BRANCH  40  41
ATOM     41  C   UNL A   1      47.152  24.531  25.913  1.00  0.00     0.116 C 
BRANCH  41  42
ATOM     42  N   UNL A   1      47.537  25.303  24.741  1.00  0.00    -0.352 N 
ATOM     43  C   UNL A   1      47.302  26.627  24.445  1.00  0.00     0.251 C 
ATOM     44  H   UNL A   1      48.040  24.804  24.057  1.00  0.00     0.163 HD
ATOM     45  O   UNL A   1      47.591  27.078  23.348  1.00  0.00    -0.269 OA
BRANCH  43  46
ATOM     46  C   UNL A   1      46.659  27.496  25.456  1.00  0.00     0.039 A 
ATOM     47  C   UNL A   1      45.264  27.523  25.533  1.00  0.00     0.014 A 
ATOM     48  C   UNL A   1      47.429  28.252  26.343  1.00  0.00     0.014 A 
ATOM     49  C   UNL A   1      44.643  28.236  26.561  1.00  0.00     0.010 A 
ATOM     50  C   UNL A   1      46.813  28.897  27.411  1.00  0.00     0.010 A 
ATOM     51  C   UNL A   1      45.415  28.887  27.537  1.00  0.00    -0.014 A 
BRANCH  51  52
ATOM     52  C   UNL A   1      44.786  29.541  28.713  1.00  0.00     0.031 A 
ATOM     53  C   UNL A   1      44.447  31.004  28.672  1.00  0.00     0.074 A 
ATOM     54  C   UNL A   1      44.597  28.838  29.847  1.00  0.00     0.049 A 
ATOM     55  N   UNL A   1      43.989  31.777  29.624  1.00  0.00    -0.248 NA
ATOM     56  C   UNL A   1      44.683  31.699  27.396  1.00  0.00     0.031 C 
ATOM     57  C   UNL A   1      44.928  27.423  30.029  1.00  0.00     0.029 A 
ATOM     58  N   UNL A   1      44.098  29.220  31.067  1.00  0.00    -0.354 N 
ATOM     59  C   UNL A   1      43.897  33.046  29.069  1.00  0.00     0.074 A 
ATOM     60  C   UNL A   1      44.397  32.953  27.714  1.00  0.00     0.031 C 
ATOM     61  C   UNL A   1      44.601  27.052  31.278  1.00  0.00     0.029 A 
ATOM     62  C   UNL A   1      44.081  28.210  31.998  1.00  0.00     0.049 A 
ATOM     63  H   UNL A   1      43.780  30.133  31.257  1.00  0.00     0.167 HD
ATOM     64  C   UNL A   1      43.416  34.181  29.630  1.00  0.00     0.037 A 
ATOM     65  C   UNL A   1      43.702  28.221  33.290  1.00  0.00     0.037 A 
ATOM     66  C   UNL A   1      42.899  34.266  30.971  1.00  0.00     0.049 A 
ATOM     67  C   UNL A   1      43.189  29.499  33.895  1.00  0.00     0.074 A 
ATOM     68  C   UNL A   1      42.335  35.355  31.612  1.00  0.00     0.029 A 
ATOM     69  N   UNL A   1      42.888  33.217  31.880  1.00  0.00    -0.354 N 
ATOM     70  N   UNL A   1      43.043  30.678  33.340  1.00  0.00    -0.248 NA
ATOM     71  C   UNL A   1      42.787  29.447  35.308  1.00  0.00     0.031 C 
ATOM     72  C   UNL A   1      42.025  34.980  32.923  1.00  0.00     0.029 A 
ATOM     73  C   UNL A   1      42.349  33.641  33.085  1.00  0.00     0.049 A 
ATOM     74  H   UNL A   1      43.215  32.307  31.697  1.00  0.00     0.167 HD
ATOM     75  C   UNL A   1      42.507  31.499  34.323  1.00  0.00     0.074 A 
ATOM     76  C   UNL A   1      42.341  30.680  35.506  1.00  0.00     0.031 C 
ATOM     77  C   UNL A   1      42.182  32.813  34.251  1.00  0.00     0.037 A 
BRANCH  64  78
ATOM     78  C   UNL A   1      43.425  35.426  28.791  1.00  0.00     0.064 A 
ATOM     79  C   UNL A   1      42.264  35.891  28.153  1.00  0.00     0.173 A 
ATOM     80  C   UNL A   1      44.599  36.180  28.646  1.00  0.00     0.173 A 
ATOM     81  F   UNL A   1      41.118  35.201  28.251  1.00  0.00    -0.203 F 
ATOM     82  C   UNL A   1      42.288  37.045  27.374  1.00  0.00     0.198 A 
ATOM     83  C   UNL A   1      44.611  37.352  27.892  1.00  0.00     0.198 A 
ATOM     84  F   UNL A   1      45.735  35.785  29.239  1.00  0.00    -0.203 F 
ATOM     85  F   UNL A   1      41.180  37.439  26.731  1.00  0.00    -0.200 F 
ATOM     86  C   UNL A   1      43.458  37.778  27.250  1.00  0.00     0.200 A 
ATOM     87  F   UNL A   1      45.739  38.066  27.785  1.00  0.00    -0.200 F 
ATOM     88  F   UNL A   1      43.477  38.891  26.504  1.00  0.00    -0.200 F 
ENDBRANCH  64  78
BRANCH  65  89
ATOM     89  C   UNL A   1      43.768  26.972  34.094  1.00  0.00     0.064 A 
ATOM     90  C   UNL A   1      42.605  26.253  34.400  1.00  0.00     0.173 A 
ATOM     91  C   UNL A   1      44.989  26.474  34.574  1.00  0.00     0.173 A 
ATOM     92  F   UNL A   1      41.412  26.701  33.981  1.00  0.00    -0.203 F 
ATOM     93  C   UNL A   1      42.656  25.093  35.171  1.00  0.00     0.198 A 
ATOM     94  C   UNL A   1      45.041  25.299  35.322  1.00  0.00     0.198 A 
ATOM     95  F   UNL A   1      46.131  27.122  34.305  1.00  0.00    -0.203 F 
ATOM     96  F   UNL A   1      41.523  24.451  35.487  1.00  0.00    -0.200 F 
ATOM     97  C   UNL A   1      43.875  24.614  35.626  1.00  0.00     0.200 A 
ATOM     98  F   UNL A   1      46.223  24.832  35.748  1.00  0.00    -0.200 F 
ATOM     99  F   UNL A   1      43.925  23.497  36.365  1.00  0.00    -0.200 F 
ENDBRANCH  65  89
BRANCH  77 100
ATOM    100  C   UNL A   1      41.580  33.442  35.473  1.00  0.00     0.064 A 
ATOM    101  C   UNL A   1      42.374  34.055  36.454  1.00  0.00     0.173 A 
ATOM    102  C   UNL A   1      40.187  33.473  35.642  1.00  0.00     0.173 A 
ATOM    103  F   UNL A   1      43.711  34.037  36.347  1.00  0.00    -0.203 F 
ATOM    104  C   UNL A   1      41.796  34.656  37.569  1.00  0.00     0.198 A 
ATOM    105  C   UNL A   1      39.611  34.101  36.742  1.00  0.00     0.198 A 
ATOM    106  F   UNL A   1      39.383  32.906  34.729  1.00  0.00    -0.203 F 
ATOM    107  F   UNL A   1      42.575  35.197  38.516  1.00  0.00    -0.200 F 
ATOM    108  C   UNL A   1      40.416  34.687  37.707  1.00  0.00     0.200 A 
ATOM    109  F   UNL A   1      38.277  34.142  36.867  1.00  0.00    -0.200 F 
ATOM    110  F   UNL A   1      39.861  35.275  38.776  1.00  0.00    -0.200 F 
ENDBRANCH  77 100
ENDBRANCH  51  52
ENDBRANCH  43  46
ENDBRANCH  41  42
ENDBRANCH  40  41
ENDBRANCH  39  40
ENDBRANCH   1  39
TORSDOF 18
ENDMDL
MODEL 2
REMARK VINA RESULT:     -10.4      4.104     12.201
REMARK SMILES C[C@]1(O)CC[C@H]2[C@H]3CCC4=C/C(=N/OCC(=O)N[C@@H](CO)C(=O)NCCCCNC(=O)c5ccc(-c6c7nc(c(-c8c(F)c(F)c(F)c(F)c8F)c8ccc([nH]8)c(-c8c(F)c(F)c(F)c(F)c8F)c8nc(c(-c9c(F)c(F)c(F)c(F)c9F)c9ccc6[nH]9)C=C8)C=C7)cc5)CC[C@@]4(C)[C@@H]3CC[C@]21C
REMARK SMILES IDX 25 1 24 2 22 3 23 4 19 6 18 7 16 8 17 9 15 11 14 12 13 13
REMARK SMILES IDX 98 14 97 15 96 16 10 17 99 18 95 19 11 20 9 21 7 22 100 23
REMARK SMILES IDX 12 24 8 25 6 26 101 27 102 28 5 29 2 30 103 31 4 32 1 33
REMARK SMILES IDX 3 34 20 36 21 37 26 39 27 40 28 41 29 42 30 43 31 45 32 46
REMARK SMILES IDX 33 47 94 48 34 49 93 50 35 51 36 52 37 53 87 54 38 55 92 56
REMARK SMILES IDX 86 57 88 58 39 59 91 60 85 61 84 62 40 64 72 65 52 66 71 67
REMARK SMILES IDX 53 68 56 69 70 70 89 71 54 72 55 73 69 75 90 76 57 77 41 78
REMARK SMILES IDX 42 79 50 80 43 81 44 82 48 83 51 84 45 85 46 86 49 87 47 88
REMARK SMILES IDX 73 89 74 90 82 91 75 92 76 93 80 94 83 95 77 96 78 97 81 98
REMARK SMILES IDX 79 99 58 100 59 101 67 102 60 103 61 104 65 105 68 106
REMARK SMILES IDX 62 107 63 108 66 109 64 110
REMARK H PARENT 24 5 18 10 3 35 21 38 29 44 88 63 56 74
REMARK Flexibility Score: inf
ROOT
ATOM      1  C   UNL A   1      34.359  34.053  32.294  1.00  0.00     0.116 C 
ENDROOT
BRANCH   1   2
ATOM      2  N   UNL A   1      33.359  35.076  32.039  1.00  0.00    -0.354 N 
ATOM      3  C   UNL A   1      32.945  35.656  30.878  1.00  0.00     0.244 C 
ATOM      4  O   UNL A   1      31.898  36.312  30.927  1.00  0.00    -0.273 OA
ATOM      5  H   UNL A   1      32.903  35.407  32.846  1.00  0.00     0.163 HD
BRANCH   3   6
ATOM      6  C   UNL A   1      33.680  35.478  29.535  1.00  0.00     0.197 C 
BRANCH   6   7
ATOM      7  N   UNL A   1      33.223  34.281  28.839  1.00  0.00    -0.339 N 
ATOM      8  C   UNL A   1      33.987  33.290  28.298  1.00  0.00     0.261 C 
ATOM      9  O   UNL A   1      33.423  32.208  28.106  1.00  0.00    -0.271 OA
ATOM     10  H   UNL A   1      32.248  34.176  28.747  1.00  0.00     0.164 HD
BRANCH   8  11
ATOM     11  C   UNL A   1      35.483  33.498  27.997  1.00  0.00     0.363 C 
BRANCH  11  12
ATOM     12  O   UNL A   1      36.347  33.181  29.092  1.00  0.00    -0.385 OA
BRANCH  12  13
ATOM     13  N   UNL A   1      35.858  32.046  29.795  1.00  0.00    -0.091 NA
ATOM     14  C   UNL A   1      38.013  30.133  28.537  1.00  0.00     0.016 C 
ATOM     15  C   UNL A   1      38.763  30.256  29.905  1.00  0.00    -0.008 C 
ATOM     16  C   UNL A   1      39.037  31.769  30.281  1.00  0.00     0.018 C 
ATOM     17  C   UNL A   1      37.810  29.606  30.929  1.00  0.00    -0.062 C 
ATOM     18  C   UNL A   1      40.160  29.571  29.767  1.00  0.00     0.002 C 
ATOM     19  C   UNL A   1      37.933  32.441  31.085  1.00  0.00     0.061 C 
ATOM     20  C   UNL A   1      36.707  30.303  31.310  1.00  0.00     0.027 C 
ATOM     21  C   UNL A   1      38.014  28.145  31.276  1.00  0.00     0.032 C 
ATOM     22  C   UNL A   1      39.987  28.043  29.658  1.00  0.00    -0.003 C 
ATOM     23  C   UNL A   1      40.962  30.233  28.629  1.00  0.00     0.005 C 
ATOM     24  C   UNL A   1      36.689  31.688  30.734  1.00  0.00     0.080 C 
ATOM     25  C   UNL A   1      39.422  27.556  31.004  1.00  0.00     0.008 C 
ATOM     26  C   UNL A   1      41.204  27.281  29.101  1.00  0.00     0.001 C 
ATOM     27  C   UNL A   1      42.182  29.456  28.208  1.00  0.00     0.010 C 
ATOM     28  C   UNL A   1      41.882  27.974  27.881  1.00  0.00    -0.001 C 
ATOM     29  C   UNL A   1      42.382  27.000  30.024  1.00  0.00     0.007 C 
ATOM     30  C   UNL A   1      43.235  27.190  27.714  1.00  0.00     0.068 C 
ATOM     31  C   UNL A   1      40.953  27.895  26.650  1.00  0.00     0.015 C 
ATOM     32  C   UNL A   1      43.419  26.427  29.048  1.00  0.00     0.036 C 
ATOM     33  C   UNL A   1      43.304  26.255  26.505  1.00  0.00     0.042 C 
BRANCH  30  34
ATOM     34  O   UNL A   1      44.329  28.105  27.565  1.00  0.00    -0.390 OA
ATOM     35  H   UNL A   1      44.087  28.964  27.945  1.00  0.00     0.211 HD
ENDBRANCH  30  34
ENDBRANCH  12  13
ENDBRANCH  11  12
ENDBRANCH   8  11
ENDBRANCH   6   7
BRANCH   6  36
ATOM     36  C   UNL A   1      33.654  36.755  28.690  1.00  0.00     0.191 C 
BRANCH  36  37
ATOM     37  O   UNL A   1      33.652  37.953  29.464  1.00  0.00    -0.394 OA
ATOM     38  H   UNL A   1      33.581  37.730  30.405  1.00  0.00     0.210 HD
ENDBRANCH  36  37
ENDBRANCH   6  36
ENDBRANCH   3   6
ENDBRANCH   1   2
BRANCH   1  39
ATOM     39  C   UNL A   1      35.424  34.507  33.291  1.00  0.00     0.023 C 
BRANCH  39  40
ATOM     40  C   UNL A   1      36.000  33.410  34.186  1.00  0.00     0.023 C 
BRANCH  40  41
ATOM     41  C   UNL A   1      36.960  33.885  35.271  1.00  0.00     0.116 C 
BRANCH  41  42
ATOM     42  N   UNL A   1      37.069  32.957  36.387  1.00  0.00    -0.352 N 
ATOM     43  C   UNL A   1      37.909  31.879  36.554  1.00  0.00     0.251 C 
ATOM     44  H   UNL A   1      36.449  33.125  37.133  1.00  0.00     0.163 HD
ATOM     45  O   UNL A   1      37.774  31.129  37.508  1.00  0.00    -0.269 OA
BRANCH  43  46
ATOM     46  C   UNL A   1      38.959  31.611  35.547  1.00  0.00     0.039 A 
ATOM     47  C   UNL A   1      40.237  32.139  35.746  1.00  0.00     0.014 A 
ATOM     48  C   UNL A   1      38.693  30.815  34.430  1.00  0.00     0.014 A 
ATOM     49  C   UNL A   1      41.272  31.793  34.875  1.00  0.00     0.010 A 
ATOM     50  C   UNL A   1      39.740  30.407  33.610  1.00  0.00     0.010 A 
ATOM     51  C   UNL A   1      41.042  30.883  33.830  1.00  0.00    -0.014 A 
BRANCH  51  52
ATOM     52  C   UNL A   1      42.151  30.395  32.970  1.00  0.00     0.031 A 
ATOM     53  C   UNL A   1      42.819  29.083  33.270  1.00  0.00     0.074 A 
ATOM     54  C   UNL A   1      42.611  31.172  31.970  1.00  0.00     0.049 A 
ATOM     55  N   UNL A   1      43.863  28.535  32.702  1.00  0.00    -0.248 NA
ATOM     56  C   UNL A   1      42.255  28.296  34.378  1.00  0.00     0.031 C 
ATOM     57  C   UNL A   1      42.078  32.486  31.607  1.00  0.00     0.029 A 
ATOM     58  N   UNL A   1      43.643  30.977  31.085  1.00  0.00    -0.354 N 
ATOM     59  C   UNL A   1      44.088  27.351  33.391  1.00  0.00     0.074 A 
ATOM     60  C   UNL A   1      43.109  27.286  34.453  1.00  0.00     0.031 C 
ATOM     61  C   UNL A   1      42.771  32.969  30.563  1.00  0.00     0.029 A 
ATOM     62  C   UNL A   1      43.824  32.021  30.210  1.00  0.00     0.049 A 
ATOM     63  H   UNL A   1      44.200  30.165  31.078  1.00  0.00     0.167 HD
ATOM     64  C   UNL A   1      45.015  26.394  33.144  1.00  0.00     0.037 A 
ATOM     65  C   UNL A   1      44.744  32.199  29.243  1.00  0.00     0.037 A 
ATOM     66  C   UNL A   1      45.974  26.451  32.074  1.00  0.00     0.049 A 
ATOM     67  C   UNL A   1      45.774  31.129  29.002  1.00  0.00     0.074 A 
ATOM     68  C   UNL A   1      46.914  25.505  31.704  1.00  0.00     0.029 A 
ATOM     69  N   UNL A   1      46.119  27.520  31.201  1.00  0.00    -0.354 N 
ATOM     70  N   UNL A   1      45.935  29.982  29.616  1.00  0.00    -0.248 NA
ATOM     71  C   UNL A   1      46.748  31.379  27.931  1.00  0.00     0.031 C 
ATOM     72  C   UNL A   1      47.660  26.020  30.639  1.00  0.00     0.029 A 
ATOM     73  C   UNL A   1      47.150  27.267  30.309  1.00  0.00     0.049 A 
ATOM     74  H   UNL A   1      45.571  28.338  31.212  1.00  0.00     0.167 HD
ATOM     75  C   UNL A   1      47.007  29.362  28.990  1.00  0.00     0.074 A 
ATOM     76  C   UNL A   1      47.450  30.254  27.939  1.00  0.00     0.031 C 
ATOM     77  C   UNL A   1      47.574  28.161  29.262  1.00  0.00     0.037 A 
BRANCH  64  78
ATOM     78  C   UNL A   1      45.032  25.197  34.052  1.00  0.00     0.064 A 
ATOM     79  C   UNL A   1      44.426  23.985  33.681  1.00  0.00     0.173 A 
ATOM     80  C   UNL A   1      45.685  25.251  35.292  1.00  0.00     0.173 A 
ATOM     81  F   UNL A   1      43.778  23.884  32.511  1.00  0.00    -0.203 F 
ATOM     82  C   UNL A   1      44.445  22.885  34.535  1.00  0.00     0.198 A 
ATOM     83  C   UNL A   1      45.730  24.137  36.128  1.00  0.00     0.198 A 
ATOM     84  F   UNL A   1      46.286  26.381  35.692  1.00  0.00    -0.203 F 
ATOM     85  F   UNL A   1      43.813  21.756  34.183  1.00  0.00    -0.200 F 
ATOM     86  C   UNL A   1      45.103  22.959  35.752  1.00  0.00     0.200 A 
ATOM     87  F   UNL A   1      46.378  24.207  37.298  1.00  0.00    -0.200 F 
ATOM     88  F   UNL A   1      45.125  21.897  36.569  1.00  0.00    -0.200 F 
ENDBRANCH  64  78
BRANCH  65  89
ATOM     89  C   UNL A   1      44.718  33.431  28.412  1.00  0.00     0.064 A 
ATOM     90  C   UNL A   1      45.266  34.630  28.888  1.00  0.00     0.173 A 
ATOM     91  C   UNL A   1      44.146  33.439  27.130  1.00  0.00     0.173 A 
ATOM     92  F   UNL A   1      45.805  34.677  30.115  1.00  0.00    -0.203 F 
ATOM     93  C   UNL A   1      45.227  35.794  28.124  1.00  0.00     0.198 A 
ATOM     94  C   UNL A   1      44.132  34.597  26.356  1.00  0.00     0.198 A 
ATOM     95  F   UNL A   1      43.612  32.317  26.627  1.00  0.00    -0.203 F 
ATOM     96  F   UNL A   1      45.718  36.937  28.622  1.00  0.00    -0.200 F 
ATOM     97  C   UNL A   1      44.665  35.776  26.856  1.00  0.00     0.200 A 
ATOM     98  F   UNL A   1      43.601  34.572  25.126  1.00  0.00    -0.200 F 
ATOM     99  F   UNL A   1      44.631  36.894  26.119  1.00  0.00    -0.200 F 
ENDBRANCH  65  89
BRANCH  77 100
ATOM    100  C   UNL A   1      48.713  27.721  28.389  1.00  0.00     0.064 A 
ATOM    101  C   UNL A   1      50.047  27.995  28.725  1.00  0.00     0.173 A 
ATOM    102  C   UNL A   1      48.467  26.978  27.224  1.00  0.00     0.173 A 
ATOM    103  F   UNL A   1      50.333  28.717  29.818  1.00  0.00    -0.203 F 
ATOM    104  C   UNL A   1      51.092  27.558  27.915  1.00  0.00     0.198 A 
ATOM    105  C   UNL A   1      49.515  26.516  26.434  1.00  0.00     0.198 A 
ATOM    106  F   UNL A   1      47.209  26.685  26.862  1.00  0.00    -0.203 F 
ATOM    107  F   UNL A   1      52.357  27.868  28.231  1.00  0.00    -0.200 F 
ATOM    108  C   UNL A   1      50.826  26.811  26.776  1.00  0.00     0.200 A 
ATOM    109  F   UNL A   1      49.257  25.784  25.341  1.00  0.00    -0.200 F 
ATOM    110  F   UNL A   1      51.834  26.383  26.004  1.00  0.00    -0.200 F 
ENDBRANCH  77 100
ENDBRANCH  51  52
ENDBRANCH  43  46
ENDBRANCH  41  42
ENDBRANCH  40  41
ENDBRANCH  39  40
ENDBRANCH   1  39
TORSDOF 18
ENDMDL
MODEL 3
REMARK VINA RESULT:      -9.8      5.638     12.457
REMARK SMILES C[C@]1(O)CC[C@H]2[C@H]3CCC4=C/C(=N/OCC(=O)N[C@@H](CO)C(=O)NCCCCNC(=O)c5ccc(-c6c7nc(c(-c8c(F)c(F)c(F)c(F)c8F)c8ccc([nH]8)c(-c8c(F)c(F)c(F)c(F)c8F)c8nc(c(-c9c(F)c(F)c(F)c(F)c9F)c9ccc6[nH]9)C=C8)C=C7)cc5)CC[C@@]4(C)[C@@H]3CC[C@]21C
REMARK SMILES IDX 25 1 24 2 22 3 23 4 19 6 18 7 16 8 17 9 15 11 14 12 13 13
REMARK SMILES IDX 98 14 97 15 96 16 10 17 99 18 95 19 11 20 9 21 7 22 100 23
REMARK SMILES IDX 12 24 8 25 6 26 101 27 102 28 5 29 2 30 103 31 4 32 1 33
REMARK SMILES IDX 3 34 20 36 21 37 26 39 27 40 28 41 29 42 30 43 31 45 32 46
REMARK SMILES IDX 33 47 94 48 34 49 93 50 35 51 36 52 37 53 87 54 38 55 92 56
REMARK SMILES IDX 86 57 88 58 39 59 91 60 85 61 84 62 40 64 72 65 52 66 71 67
REMARK SMILES IDX 53 68 56 69 70 70 89 71 54 72 55 73 69 75 90 76 57 77 41 78
REMARK SMILES IDX 42 79 50 80 43 81 44 82 48 83 51 84 45 85 46 86 49 87 47 88
REMARK SMILES IDX 73 89 74 90 82 91 75 92 76 93 80 94 83 95 77 96 78 97 81 98
REMARK SMILES IDX 79 99 58 100 59 101 67 102 60 103 61 104 65 105 68 106
REMARK SMILES IDX 62 107 63 108 66 109 64 110
REMARK H PARENT 24 5 18 10 3 35 21 38 29 44 88 63 56 74
REMARK Flexibility Score: inf
ROOT
ATOM      1  C   UNL A   1      35.860  33.544  28.537  1.00  0.00     0.116 C 
ENDROOT
BRANCH   1   2
ATOM      2  N   UNL A   1      34.497  33.924  28.205  1.00  0.00    -0.354 N 
ATOM      3  C   UNL A   1      33.431  33.178  27.802  1.00  0.00     0.244 C 
ATOM      4  O   UNL A   1      32.323  33.725  27.838  1.00  0.00    -0.273 OA
ATOM      5  H   UNL A   1      34.313  34.887  28.285  1.00  0.00     0.163 HD
BRANCH   3   6
ATOM      6  C   UNL A   1      33.546  31.702  27.373  1.00  0.00     0.197 C 
BRANCH   6   7
ATOM      7  N   UNL A   1      34.212  30.905  28.397  1.00  0.00    -0.339 N 
ATOM      8  C   UNL A   1      35.112  29.898  28.214  1.00  0.00     0.261 C 
ATOM      9  O   UNL A   1      35.830  29.625  29.181  1.00  0.00    -0.271 OA
ATOM     10  H   UNL A   1      33.984  31.119  29.331  1.00  0.00     0.164 HD
BRANCH   8  11
ATOM     11  C   UNL A   1      35.258  29.183  26.858  1.00  0.00     0.363 C 
BRANCH  11  12
ATOM     12  O   UNL A   1      34.132  28.376  26.501  1.00  0.00    -0.385 OA
BRANCH  12  13
ATOM     13  N   UNL A   1      33.971  28.349  25.089  1.00  0.00    -0.091 NA
ATOM     14  C   UNL A   1      34.599  25.274  24.908  1.00  0.00     0.016 C 
ATOM     15  C   UNL A   1      33.053  25.077  24.767  1.00  0.00    -0.008 C 
ATOM     16  C   UNL A   1      32.272  25.750  25.968  1.00  0.00     0.018 C 
ATOM     17  C   UNL A   1      32.695  25.764  23.434  1.00  0.00    -0.062 C 
ATOM     18  C   UNL A   1      32.741  23.548  24.833  1.00  0.00     0.002 C 
ATOM     19  C   UNL A   1      31.877  27.203  25.744  1.00  0.00     0.061 C 
ATOM     20  C   UNL A   1      32.668  27.123  23.400  1.00  0.00     0.027 C 
ATOM     21  C   UNL A   1      32.628  24.914  22.181  1.00  0.00     0.032 C 
ATOM     22  C   UNL A   1      33.248  22.852  23.554  1.00  0.00    -0.003 C 
ATOM     23  C   UNL A   1      33.259  22.960  26.161  1.00  0.00     0.005 C 
ATOM     24  C   UNL A   1      32.875  27.725  24.759  1.00  0.00     0.080 C 
ATOM     25  C   UNL A   1      32.408  23.394  22.383  1.00  0.00     0.008 C 
ATOM     26  C   UNL A   1      33.397  21.323  23.651  1.00  0.00     0.001 C 
ATOM     27  C   UNL A   1      33.290  21.454  26.192  1.00  0.00     0.010 C 
ATOM     28  C   UNL A   1      34.034  20.832  24.986  1.00  0.00    -0.001 C 
ATOM     29  C   UNL A   1      32.154  20.453  23.533  1.00  0.00     0.007 C 
ATOM     30  C   UNL A   1      33.787  19.279  24.965  1.00  0.00     0.068 C 
ATOM     31  C   UNL A   1      35.524  21.232  25.036  1.00  0.00     0.015 C 
ATOM     32  C   UNL A   1      32.705  19.063  23.880  1.00  0.00     0.036 C 
ATOM     33  C   UNL A   1      35.030  18.423  24.713  1.00  0.00     0.042 C 
BRANCH  30  34
ATOM     34  O   UNL A   1      33.257  18.838  26.222  1.00  0.00    -0.390 OA
ATOM     35  H   UNL A   1      33.574  19.421  26.930  1.00  0.00     0.211 HD
ENDBRANCH  30  34
ENDBRANCH  12  13
ENDBRANCH  11  12
ENDBRANCH   8  11
ENDBRANCH   6   7
BRANCH   6  36
ATOM     36  C   UNL A   1      32.206  31.134  26.895  1.00  0.00     0.191 C 
BRANCH  36  37
ATOM     37  O   UNL A   1      32.209  30.737  25.525  1.00  0.00    -0.394 OA
ATOM     38  H   UNL A   1      31.984  31.498  24.968  1.00  0.00     0.210 HD
ENDBRANCH  36  37
ENDBRANCH   6  36
ENDBRANCH   3   6
ENDBRANCH   1   2
BRANCH   1  39
ATOM     39  C   UNL A   1      36.213  33.837  29.995  1.00  0.00     0.023 C 
BRANCH  39  40
ATOM     40  C   UNL A   1      35.137  33.477  31.019  1.00  0.00     0.023 C 
BRANCH  40  41
ATOM     41  C   UNL A   1      35.299  32.116  31.689  1.00  0.00     0.116 C 
BRANCH  41  42
ATOM     42  N   UNL A   1      35.887  32.197  33.017  1.00  0.00    -0.352 N 
ATOM     43  C   UNL A   1      37.099  31.728  33.471  1.00  0.00     0.251 C 
ATOM     44  H   UNL A   1      35.336  32.655  33.693  1.00  0.00     0.163 HD
ATOM     45  O   UNL A   1      37.377  31.774  34.659  1.00  0.00    -0.269 OA
BRANCH  43  46
ATOM     46  C   UNL A   1      38.054  31.131  32.512  1.00  0.00     0.039 A 
ATOM     47  C   UNL A   1      37.913  31.417  31.151  1.00  0.00     0.014 A 
ATOM     48  C   UNL A   1      39.103  30.322  32.955  1.00  0.00     0.014 A 
ATOM     49  C   UNL A   1      38.877  30.968  30.246  1.00  0.00     0.010 A 
ATOM     50  C   UNL A   1      40.103  29.942  32.066  1.00  0.00     0.010 A 
ATOM     51  C   UNL A   1      40.006  30.271  30.704  1.00  0.00    -0.014 A 
BRANCH  51  52
ATOM     52  C   UNL A   1      41.111  29.896  29.785  1.00  0.00     0.031 A 
ATOM     53  C   UNL A   1      41.141  28.532  29.156  1.00  0.00     0.074 A 
ATOM     54  C   UNL A   1      42.131  30.753  29.584  1.00  0.00     0.049 A 
ATOM     55  N   UNL A   1      42.066  27.982  28.411  1.00  0.00    -0.248 NA
ATOM     56  C   UNL A   1      39.989  27.657  29.427  1.00  0.00     0.031 C 
ATOM     57  C   UNL A   1      42.243  32.088  30.174  1.00  0.00     0.029 A 
ATOM     58  N   UNL A   1      43.278  30.623  28.840  1.00  0.00    -0.354 N 
ATOM     59  C   UNL A   1      41.616  26.698  28.137  1.00  0.00     0.074 A 
ATOM     60  C   UNL A   1      40.363  26.529  28.840  1.00  0.00     0.031 C 
ATOM     61  C   UNL A   1      43.382  32.662  29.752  1.00  0.00     0.029 A 
ATOM     62  C   UNL A   1      44.102  31.721  28.899  1.00  0.00     0.049 A 
ATOM     63  H   UNL A   1      43.490  29.818  28.313  1.00  0.00     0.167 HD
ATOM     64  C   UNL A   1      42.185  25.753  27.350  1.00  0.00     0.037 A 
ATOM     65  C   UNL A   1      45.307  31.939  28.340  1.00  0.00     0.037 A 
ATOM     66  C   UNL A   1      43.421  25.931  26.635  1.00  0.00     0.049 A 
ATOM     67  C   UNL A   1      45.926  30.866  27.486  1.00  0.00     0.074 A 
ATOM     68  C   UNL A   1      44.050  25.056  25.766  1.00  0.00     0.029 A 
ATOM     69  N   UNL A   1      44.220  27.063  26.711  1.00  0.00    -0.354 N 
ATOM     70  N   UNL A   1      45.459  29.680  27.179  1.00  0.00    -0.248 NA
ATOM     71  C   UNL A   1      47.240  31.164  26.899  1.00  0.00     0.031 C 
ATOM     72  C   UNL A   1      45.252  25.638  25.352  1.00  0.00     0.029 A 
ATOM     73  C   UNL A   1      45.349  26.898  25.923  1.00  0.00     0.049 A 
ATOM     74  H   UNL A   1      44.017  27.864  27.245  1.00  0.00     0.167 HD
ATOM     75  C   UNL A   1      46.405  29.102  26.343  1.00  0.00     0.074 A 
ATOM     76  C   UNL A   1      47.467  30.073  26.180  1.00  0.00     0.031 C 
ATOM     77  C   UNL A   1      46.393  27.877  25.763  1.00  0.00     0.037 A 
BRANCH  64  78
ATOM     78  C   UNL A   1      41.471  24.438  27.221  1.00  0.00     0.064 A 
ATOM     79  C   UNL A   1      40.237  24.333  26.558  1.00  0.00     0.173 A 
ATOM     80  C   UNL A   1      42.038  23.264  27.740  1.00  0.00     0.173 A 
ATOM     81  F   UNL A   1      39.647  25.427  26.054  1.00  0.00    -0.203 F 
ATOM     82  C   UNL A   1      39.584  23.108  26.450  1.00  0.00     0.198 A 
ATOM     83  C   UNL A   1      41.396  22.035  27.601  1.00  0.00     0.198 A 
ATOM     84  F   UNL A   1      43.217  23.306  28.377  1.00  0.00    -0.203 F 
ATOM     85  F   UNL A   1      38.382  23.043  25.860  1.00  0.00    -0.200 F 
ATOM     86  C   UNL A   1      40.167  21.960  26.964  1.00  0.00     0.200 A 
ATOM     87  F   UNL A   1      41.967  20.925  28.086  1.00  0.00    -0.200 F 
ATOM     88  F   UNL A   1      39.538  20.781  26.854  1.00  0.00    -0.200 F 
ENDBRANCH  64  78
BRANCH  65  89
ATOM     89  C   UNL A   1      45.998  33.238  28.548  1.00  0.00     0.064 A 
ATOM     90  C   UNL A   1      45.812  34.302  27.655  1.00  0.00     0.173 A 
ATOM     91  C   UNL A   1      46.859  33.444  29.637  1.00  0.00     0.173 A 
ATOM     92  F   UNL A   1      45.015  34.147  26.588  1.00  0.00    -0.203 F 
ATOM     93  C   UNL A   1      46.473  35.516  27.831  1.00  0.00     0.198 A 
ATOM     94  C   UNL A   1      47.499  34.667  29.826  1.00  0.00     0.198 A 
ATOM     95  F   UNL A   1      47.069  32.460  30.522  1.00  0.00    -0.203 F 
ATOM     96  F   UNL A   1      46.311  36.500  26.936  1.00  0.00    -0.200 F 
ATOM     97  C   UNL A   1      47.312  35.700  28.920  1.00  0.00     0.200 A 
ATOM     98  F   UNL A   1      48.297  34.846  30.888  1.00  0.00    -0.200 F 
ATOM     99  F   UNL A   1      47.944  36.868  29.091  1.00  0.00    -0.200 F 
ENDBRANCH  65  89
BRANCH  77 100
ATOM    100  C   UNL A   1      47.546  27.527  24.868  1.00  0.00     0.064 A 
ATOM    101  C   UNL A   1      47.532  27.828  23.498  1.00  0.00     0.173 A 
ATOM    102  C   UNL A   1      48.698  26.924  25.397  1.00  0.00     0.173 A 
ATOM    103  F   UNL A   1      46.449  28.389  22.941  1.00  0.00    -0.203 F 
ATOM    104  C   UNL A   1      48.621  27.519  22.688  1.00  0.00     0.198 A 
ATOM    105  C   UNL A   1      49.797  26.645  24.590  1.00  0.00     0.198 A 
ATOM    106  F   UNL A   1      48.763  26.621  26.703  1.00  0.00    -0.203 F 
ATOM    107  F   UNL A   1      48.570  27.775  21.372  1.00  0.00    -0.200 F 
ATOM    108  C   UNL A   1      49.755  26.937  23.235  1.00  0.00     0.200 A 
ATOM    109  F   UNL A   1      50.896  26.094  25.124  1.00  0.00    -0.200 F 
ATOM    110  F   UNL A   1      50.806  26.650  22.455  1.00  0.00    -0.200 F 
ENDBRANCH  77 100
ENDBRANCH  51  52
ENDBRANCH  43  46
ENDBRANCH  41  42
ENDBRANCH  40  41
ENDBRANCH  39  40
ENDBRANCH   1  39
TORSDOF 18
ENDMDL
