MODEL 1
REMARK VINA RESULT:     -12.9      0.000      0.000
REMARK SMILES O=C(COc1ccc(Br)cc1/C=C1\NC(=O)N(Cc2ccc(F)cc2)C1=O)NCCCCNC(=O)c1ccc(-c2c3nc(c(-c4c(F)c(F)c(F)c(F)c4F)c4ccc([nH]4)c(-c4c(F)c(F)c(F)c(F)c4F)c4nc(c(-c5c(F)c(F)c(F)c(F)c5F)c5ccc2[nH]5)C=C4)C=C3)cc1
REMARK SMILES IDX 29 1 28 2 1 3 2 4 3 6 4 7 5 8 6 9 11 10 7 11 10 12 8 13 9 14
REMARK SMILES IDX 12 15 13 16 14 17 26 18 15 19 17 21 27 22 16 23 18 24 19 25
REMARK SMILES IDX 20 26 25 27 21 28 24 29 22 30 23 31 30 32 31 33 32 34 33 35
REMARK SMILES IDX 34 36 35 38 36 39 37 40 98 41 38 42 97 43 39 44 40 45 41 46
REMARK SMILES IDX 91 47 42 48 96 49 90 50 92 51 43 52 95 53 89 54 88 55 44 57
REMARK SMILES IDX 76 58 56 59 75 60 57 61 60 62 74 63 93 64 58 65 59 66 73 68
REMARK SMILES IDX 94 69 61 70 45 71 46 72 54 73 47 74 48 75 52 76 55 77 49 78
REMARK SMILES IDX 50 79 53 80 51 81 77 82 78 83 86 84 79 85 80 86 84 87 87 88
REMARK SMILES IDX 81 89 82 90 85 91 83 92 62 93 63 94 71 95 64 96 65 97 69 98
REMARK SMILES IDX 72 99 66 100 67 101 70 102 68 103
REMARK H PARENT 28 5 14 20 33 37 92 56 60 67
REMARK Flexibility Score: inf
ROOT
ATOM      1  C   UNL A   1      41.223  21.762  26.518  1.00  0.00     0.116 C 
ENDROOT
BRANCH   1   2
ATOM      2  N   UNL A   1      39.930  22.100  25.965  1.00  0.00    -0.353 N 
ATOM      3  O   UNL A   1      39.399  23.701  27.531  1.00  0.00    -0.271 OA
ATOM      4  C   UNL A   1      39.156  23.122  26.477  1.00  0.00     0.257 C 
ATOM      5  H   UNL A   1      39.590  21.584  25.199  1.00  0.00     0.163 HD
BRANCH   4   6
ATOM      6  C   UNL A   1      37.963  23.496  25.597  1.00  0.00     0.329 C 
BRANCH   6   7
ATOM      7  O   UNL A   1      36.693  23.393  26.244  1.00  0.00    -0.483 OA
BRANCH   7   8
ATOM      8  C   UNL A   1      35.813  22.548  25.609  1.00  0.00     0.127 A 
ATOM      9  C   UNL A   1      36.071  21.178  25.515  1.00  0.00     0.048 A 
ATOM     10  C   UNL A   1      34.569  23.054  25.194  1.00  0.00     0.020 A 
ATOM     11  C   UNL A   1      35.108  20.309  25.001  1.00  0.00     0.019 A 
ATOM     12  C   UNL A   1      33.602  22.176  24.683  1.00  0.00     0.027 A 
ATOM     13  C   UNL A   1      33.876  20.811  24.593  1.00  0.00     0.018 A 
ATOM     14  Br  UNL A   1      32.556  19.624  23.943  1.00  0.00    -0.051 Br
BRANCH  10  15
ATOM     15  C   UNL A   1      34.228  24.474  25.304  1.00  0.00     0.044 C 
ATOM     16  C   UNL A   1      33.920  25.263  24.271  1.00  0.00     0.109 C 
ATOM     17  N   UNL A   1      33.833  24.948  22.948  1.00  0.00    -0.303 N 
ATOM     18  C   UNL A   1      33.568  26.707  24.395  1.00  0.00     0.278 C 
ATOM     19  C   UNL A   1      33.424  26.062  22.227  1.00  0.00     0.329 C 
ATOM     20  H   UNL A   1      34.029  24.065  22.562  1.00  0.00     0.172 HD
ATOM     21  N   UNL A   1      33.237  27.093  23.122  1.00  0.00    -0.254 N 
ATOM     22  O   UNL A   1      33.597  27.363  25.422  1.00  0.00    -0.267 OA
ATOM     23  O   UNL A   1      33.278  26.089  21.016  1.00  0.00    -0.248 OA
BRANCH  21  24
ATOM     24  C   UNL A   1      32.750  28.407  22.769  1.00  0.00     0.166 C 
BRANCH  24  25
ATOM     25  C   UNL A   1      31.239  28.479  22.869  1.00  0.00    -0.028 A 
ATOM     26  C   UNL A   1      30.517  27.428  23.459  1.00  0.00     0.008 A 
ATOM     27  C   UNL A   1      30.533  29.572  22.339  1.00  0.00     0.008 A 
ATOM     28  C   UNL A   1      29.123  27.455  23.502  1.00  0.00     0.039 A 
ATOM     29  C   UNL A   1      29.138  29.605  22.401  1.00  0.00     0.039 A 
ATOM     30  C   UNL A   1      28.447  28.544  22.973  1.00  0.00     0.123 A 
ATOM     31  F   UNL A   1      27.108  28.571  23.014  1.00  0.00    -0.207 F 
ENDBRANCH  24  25
ENDBRANCH  21  24
ENDBRANCH  10  15
ENDBRANCH   7   8
ENDBRANCH   6   7
ENDBRANCH   4   6
ENDBRANCH   1   2
BRANCH   1  32
ATOM     32  C   UNL A   1      41.321  20.309  26.964  1.00  0.00     0.023 C 
BRANCH  32  33
ATOM     33  C   UNL A   1      41.803  19.336  25.887  1.00  0.00     0.023 C 
BRANCH  33  34
ATOM     34  C   UNL A   1      43.129  18.638  26.175  1.00  0.00     0.116 C 
BRANCH  34  35
ATOM     35  N   UNL A   1      43.976  18.512  25.000  1.00  0.00    -0.352 N 
ATOM     36  C   UNL A   1      44.641  19.482  24.289  1.00  0.00     0.251 C 
ATOM     37  H   UNL A   1      44.091  17.594  24.663  1.00  0.00     0.163 HD
ATOM     38  O   UNL A   1      45.198  19.197  23.234  1.00  0.00    -0.269 OA
BRANCH  36  39
ATOM     39  C   UNL A   1      44.660  20.883  24.771  1.00  0.00     0.039 A 
ATOM     40  C   UNL A   1      45.141  21.145  26.056  1.00  0.00     0.014 A 
ATOM     41  C   UNL A   1      44.207  21.933  23.968  1.00  0.00     0.014 A 
ATOM     42  C   UNL A   1      45.237  22.465  26.507  1.00  0.00     0.010 A 
ATOM     43  C   UNL A   1      44.374  23.251  24.389  1.00  0.00     0.010 A 
ATOM     44  C   UNL A   1      44.896  23.532  25.660  1.00  0.00    -0.014 A 
BRANCH  44  45
ATOM     45  C   UNL A   1      45.093  24.944  26.082  1.00  0.00     0.031 A 
ATOM     46  C   UNL A   1      46.448  25.588  25.985  1.00  0.00     0.074 A 
ATOM     47  C   UNL A   1      44.060  25.632  26.609  1.00  0.00     0.049 A 
ATOM     48  N   UNL A   1      46.826  26.782  26.367  1.00  0.00    -0.248 NA
ATOM     49  C   UNL A   1      47.528  24.777  25.401  1.00  0.00     0.031 C 
ATOM     50  C   UNL A   1      42.704  25.112  26.789  1.00  0.00     0.029 A 
ATOM     51  N   UNL A   1      43.988  26.916  27.094  1.00  0.00    -0.354 N 
ATOM     52  C   UNL A   1      48.182  26.860  26.080  1.00  0.00     0.074 A 
ATOM     53  C   UNL A   1      48.576  25.577  25.540  1.00  0.00     0.031 C 
ATOM     54  C   UNL A   1      41.929  26.074  27.314  1.00  0.00     0.029 A 
ATOM     55  C   UNL A   1      42.740  27.264  27.552  1.00  0.00     0.049 A 
ATOM     56  H   UNL A   1      44.758  27.529  27.111  1.00  0.00     0.167 HD
ATOM     57  C   UNL A   1      49.016  27.917  26.229  1.00  0.00     0.037 A 
ATOM     58  C   UNL A   1      42.298  28.408  28.110  1.00  0.00     0.037 A 
ATOM     59  C   UNL A   1      48.615  29.201  26.741  1.00  0.00     0.049 A 
ATOM     60  C   UNL A   1      43.253  29.557  28.290  1.00  0.00     0.074 A 
ATOM     61  C   UNL A   1      49.378  30.348  26.877  1.00  0.00     0.029 A 
ATOM     62  N   UNL A   1      47.344  29.511  27.202  1.00  0.00    -0.354 N 
ATOM     63  N   UNL A   1      44.520  29.636  27.964  1.00  0.00    -0.248 NA
ATOM     64  C   UNL A   1      42.718  30.777  28.915  1.00  0.00     0.031 C 
ATOM     65  C   UNL A   1      48.587  31.333  27.471  1.00  0.00     0.029 A 
ATOM     66  C   UNL A   1      47.312  30.822  27.648  1.00  0.00     0.049 A 
ATOM     67  H   UNL A   1      46.579  28.890  27.211  1.00  0.00     0.167 HD
ATOM     68  C   UNL A   1      44.926  30.917  28.315  1.00  0.00     0.074 A 
ATOM     69  C   UNL A   1      43.768  31.585  28.870  1.00  0.00     0.031 C 
ATOM     70  C   UNL A   1      46.151  31.484  28.188  1.00  0.00     0.037 A 
BRANCH  57  71
ATOM     71  C   UNL A   1      50.451  27.746  25.822  1.00  0.00     0.064 A 
ATOM     72  C   UNL A   1      50.828  27.860  24.475  1.00  0.00     0.173 A 
ATOM     73  C   UNL A   1      51.437  27.379  26.750  1.00  0.00     0.173 A 
ATOM     74  F   UNL A   1      49.922  28.201  23.546  1.00  0.00    -0.203 F 
ATOM     75  C   UNL A   1      52.133  27.592  24.071  1.00  0.00     0.198 A 
ATOM     76  C   UNL A   1      52.749  27.143  26.346  1.00  0.00     0.198 A 
ATOM     77  F   UNL A   1      51.132  27.266  28.052  1.00  0.00    -0.203 F 
ATOM     78  F   UNL A   1      52.458  27.666  22.772  1.00  0.00    -0.200 F 
ATOM     79  C   UNL A   1      53.092  27.237  25.007  1.00  0.00     0.200 A 
ATOM     80  F   UNL A   1      53.680  26.822  27.255  1.00  0.00    -0.200 F 
ATOM     81  F   UNL A   1      54.349  26.984  24.616  1.00  0.00    -0.200 F 
ENDBRANCH  57  71
BRANCH  58  82
ATOM     82  C   UNL A   1      40.871  28.532  28.507  1.00  0.00     0.064 A 
ATOM     83  C   UNL A   1      39.898  28.998  27.611  1.00  0.00     0.173 A 
ATOM     84  C   UNL A   1      40.456  28.205  29.805  1.00  0.00     0.173 A 
ATOM     85  F   UNL A   1      40.242  29.328  26.357  1.00  0.00    -0.203 F 
ATOM     86  C   UNL A   1      38.570  29.153  28.004  1.00  0.00     0.198 A 
ATOM     87  C   UNL A   1      39.121  28.331  30.189  1.00  0.00     0.198 A 
ATOM     88  F   UNL A   1      41.344  27.733  30.692  1.00  0.00    -0.203 F 
ATOM     89  F   UNL A   1      37.669  29.636  27.138  1.00  0.00    -0.200 F 
ATOM     90  C   UNL A   1      38.182  28.815  29.292  1.00  0.00     0.200 A 
ATOM     91  F   UNL A   1      38.746  27.978  31.426  1.00  0.00    -0.200 F 
ATOM     92  F   UNL A   1      36.902  28.951  29.666  1.00  0.00    -0.200 F 
ENDBRANCH  58  82
BRANCH  70  93
ATOM     93  C   UNL A   1      46.314  32.910  28.627  1.00  0.00     0.064 A 
ATOM     94  C   UNL A   1      46.127  33.959  27.712  1.00  0.00     0.173 A 
ATOM     95  C   UNL A   1      46.743  33.238  29.921  1.00  0.00     0.173 A 
ATOM     96  F   UNL A   1      45.725  33.699  26.458  1.00  0.00    -0.203 F 
ATOM     97  C   UNL A   1      46.386  35.279  28.071  1.00  0.00     0.198 A 
ATOM     98  C   UNL A   1      46.971  34.562  30.285  1.00  0.00     0.198 A 
ATOM     99  F   UNL A   1      46.925  32.274  30.836  1.00  0.00    -0.203 F 
ATOM    100  F   UNL A   1      46.243  36.257  27.166  1.00  0.00    -0.200 F 
ATOM    101  C   UNL A   1      46.805  35.580  29.357  1.00  0.00     0.200 A 
ATOM    102  F   UNL A   1      47.351  34.855  31.536  1.00  0.00    -0.200 F 
ATOM    103  F   UNL A   1      47.047  36.852  29.704  1.00  0.00    -0.200 F 
ENDBRANCH  70  93
ENDBRANCH  44  45
ENDBRANCH  36  39
ENDBRANCH  34  35
ENDBRANCH  33  34
ENDBRANCH  32  33
ENDBRANCH   1  32
TORSDOF 16
ENDMDL
MODEL 2
REMARK VINA RESULT:     -12.7      6.533     12.280
REMARK SMILES O=C(COc1ccc(Br)cc1/C=C1\NC(=O)N(Cc2ccc(F)cc2)C1=O)NCCCCNC(=O)c1ccc(-c2c3nc(c(-c4c(F)c(F)c(F)c(F)c4F)c4ccc([nH]4)c(-c4c(F)c(F)c(F)c(F)c4F)c4nc(c(-c5c(F)c(F)c(F)c(F)c5F)c5ccc2[nH]5)C=C4)C=C3)cc1
REMARK SMILES IDX 29 1 28 2 1 3 2 4 3 6 4 7 5 8 6 9 11 10 7 11 10 12 8 13 9 14
REMARK SMILES IDX 12 15 13 16 14 17 26 18 15 19 17 21 27 22 16 23 18 24 19 25
REMARK SMILES IDX 20 26 25 27 21 28 24 29 22 30 23 31 30 32 31 33 32 34 33 35
REMARK SMILES IDX 34 36 35 38 36 39 37 40 98 41 38 42 97 43 39 44 40 45 41 46
REMARK SMILES IDX 91 47 42 48 96 49 90 50 92 51 43 52 95 53 89 54 88 55 44 57
REMARK SMILES IDX 76 58 56 59 75 60 57 61 60 62 74 63 93 64 58 65 59 66 73 68
REMARK SMILES IDX 94 69 61 70 45 71 46 72 54 73 47 74 48 75 52 76 55 77 49 78
REMARK SMILES IDX 50 79 53 80 51 81 77 82 78 83 86 84 79 85 80 86 84 87 87 88
REMARK SMILES IDX 81 89 82 90 85 91 83 92 62 93 63 94 71 95 64 96 65 97 69 98
REMARK SMILES IDX 72 99 66 100 67 101 70 102 68 103
REMARK H PARENT 28 5 14 20 33 37 92 56 60 67
REMARK Flexibility Score: inf
ROOT
ATOM      1  C   UNL A   1      34.574  32.030  29.344  1.00  0.00     0.116 C 
ENDROOT
BRANCH   1   2
ATOM      2  N   UNL A   1      34.196  31.098  28.303  1.00  0.00    -0.353 N 
ATOM      3  O   UNL A   1      36.326  30.349  27.855  1.00  0.00    -0.271 OA
ATOM      4  C   UNL A   1      35.112  30.259  27.701  1.00  0.00     0.257 C 
ATOM      5  H   UNL A   1      33.257  31.062  28.013  1.00  0.00     0.163 HD
BRANCH   4   6
ATOM      6  C   UNL A   1      34.478  29.174  26.830  1.00  0.00     0.329 C 
BRANCH   6   7
ATOM      7  O   UNL A   1      33.184  28.749  27.260  1.00  0.00    -0.483 OA
BRANCH   7   8
ATOM      8  C   UNL A   1      32.223  28.813  26.278  1.00  0.00     0.127 A 
ATOM      9  C   UNL A   1      31.769  30.043  25.795  1.00  0.00     0.048 A 
ATOM     10  C   UNL A   1      31.814  27.623  25.652  1.00  0.00     0.020 A 
ATOM     11  C   UNL A   1      30.904  30.098  24.701  1.00  0.00     0.019 A 
ATOM     12  C   UNL A   1      30.949  27.685  24.549  1.00  0.00     0.027 A 
ATOM     13  C   UNL A   1      30.503  28.920  24.080  1.00  0.00     0.018 A 
ATOM     14  Br  UNL A   1      29.370  29.003  22.568  1.00  0.00    -0.051 Br
BRANCH  10  15
ATOM     15  C   UNL A   1      32.286  26.308  26.091  1.00  0.00     0.044 C 
ATOM     16  C   UNL A   1      32.960  25.448  25.325  1.00  0.00     0.109 C 
ATOM     17  N   UNL A   1      33.364  25.587  24.030  1.00  0.00    -0.303 N 
ATOM     18  C   UNL A   1      33.441  24.113  25.784  1.00  0.00     0.278 C 
ATOM     19  C   UNL A   1      34.089  24.469  23.642  1.00  0.00     0.329 C 
ATOM     20  H   UNL A   1      33.171  26.363  23.458  1.00  0.00     0.172 HD
ATOM     21  N   UNL A   1      34.152  23.616  24.722  1.00  0.00    -0.254 N 
ATOM     22  O   UNL A   1      33.215  23.609  26.872  1.00  0.00    -0.267 OA
ATOM     23  O   UNL A   1      34.561  24.300  22.530  1.00  0.00    -0.248 OA
BRANCH  21  24
ATOM     24  C   UNL A   1      34.876  22.366  24.740  1.00  0.00     0.166 C 
BRANCH  24  25
ATOM     25  C   UNL A   1      36.275  22.547  25.294  1.00  0.00    -0.028 A 
ATOM     26  C   UNL A   1      36.682  23.796  25.796  1.00  0.00     0.008 A 
ATOM     27  C   UNL A   1      37.200  21.490  25.278  1.00  0.00     0.008 A 
ATOM     28  C   UNL A   1      37.985  23.991  26.253  1.00  0.00     0.039 A 
ATOM     29  C   UNL A   1      38.499  21.684  25.754  1.00  0.00     0.039 A 
ATOM     30  C   UNL A   1      38.881  22.933  26.228  1.00  0.00     0.123 A 
ATOM     31  F   UNL A   1      40.133  23.120  26.666  1.00  0.00    -0.207 F 
ENDBRANCH  24  25
ENDBRANCH  21  24
ENDBRANCH  10  15
ENDBRANCH   7   8
ENDBRANCH   6   7
ENDBRANCH   4   6
ENDBRANCH   1   2
BRANCH   1  32
ATOM     32  C   UNL A   1      34.696  33.464  28.846  1.00  0.00     0.023 C 
BRANCH  32  33
ATOM     33  C   UNL A   1      33.396  34.270  28.878  1.00  0.00     0.023 C 
BRANCH  33  34
ATOM     34  C   UNL A   1      33.520  35.702  29.389  1.00  0.00     0.116 C 
BRANCH  34  35
ATOM     35  N   UNL A   1      32.604  36.001  30.478  1.00  0.00    -0.352 N 
ATOM     36  C   UNL A   1      32.681  35.664  31.808  1.00  0.00     0.251 C 
ATOM     37  H   UNL A   1      31.809  36.525  30.224  1.00  0.00     0.163 HD
ATOM     38  O   UNL A   1      31.733  35.889  32.554  1.00  0.00    -0.269 OA
BRANCH  36  39
ATOM     39  C   UNL A   1      33.890  34.997  32.343  1.00  0.00     0.039 A 
ATOM     40  C   UNL A   1      33.789  33.676  32.786  1.00  0.00     0.014 A 
ATOM     41  C   UNL A   1      35.116  35.665  32.413  1.00  0.00     0.014 A 
ATOM     42  C   UNL A   1      34.931  33.001  33.228  1.00  0.00     0.010 A 
ATOM     43  C   UNL A   1      36.265  34.968  32.781  1.00  0.00     0.010 A 
ATOM     44  C   UNL A   1      36.187  33.628  33.187  1.00  0.00    -0.014 A 
BRANCH  44  45
ATOM     45  C   UNL A   1      37.427  32.893  33.551  1.00  0.00     0.031 A 
ATOM     46  C   UNL A   1      38.140  33.190  34.841  1.00  0.00     0.074 A 
ATOM     47  C   UNL A   1      37.946  31.995  32.689  1.00  0.00     0.049 A 
ATOM     48  N   UNL A   1      39.268  32.701  35.294  1.00  0.00    -0.248 NA
ATOM     49  C   UNL A   1      37.518  34.181  35.731  1.00  0.00     0.031 C 
ATOM     50  C   UNL A   1      37.370  31.641  31.391  1.00  0.00     0.029 A 
ATOM     51  N   UNL A   1      39.076  31.217  32.771  1.00  0.00    -0.354 N 
ATOM     52  C   UNL A   1      39.492  33.331  36.510  1.00  0.00     0.074 A 
ATOM     53  C   UNL A   1      38.413  34.275  36.704  1.00  0.00     0.031 C 
ATOM     54  C   UNL A   1      38.130  30.698  30.814  1.00  0.00     0.029 A 
ATOM     55  C   UNL A   1      39.272  30.411  31.676  1.00  0.00     0.049 A 
ATOM     56  H   UNL A   1      39.688  31.237  33.542  1.00  0.00     0.167 HD
ATOM     57  C   UNL A   1      40.493  33.120  37.398  1.00  0.00     0.037 A 
ATOM     58  C   UNL A   1      40.264  29.545  31.392  1.00  0.00     0.037 A 
ATOM     59  C   UNL A   1      41.550  32.160  37.215  1.00  0.00     0.049 A 
ATOM     60  C   UNL A   1      41.380  29.350  32.382  1.00  0.00     0.074 A 
ATOM     61  C   UNL A   1      42.578  31.838  38.085  1.00  0.00     0.029 A 
ATOM     62  N   UNL A   1      41.718  31.368  36.089  1.00  0.00    -0.354 N 
ATOM     63  N   UNL A   1      41.551  29.913  33.554  1.00  0.00    -0.248 NA
ATOM     64  C   UNL A   1      42.441  28.401  32.014  1.00  0.00     0.031 C 
ATOM     65  C   UNL A   1      43.398  30.895  37.464  1.00  0.00     0.029 A 
ATOM     66  C   UNL A   1      42.848  30.580  36.232  1.00  0.00     0.049 A 
ATOM     67  H   UNL A   1      41.122  31.367  35.304  1.00  0.00     0.167 HD
ATOM     68  C   UNL A   1      42.717  29.367  34.074  1.00  0.00     0.074 A 
ATOM     69  C   UNL A   1      43.209  28.421  33.095  1.00  0.00     0.031 C 
ATOM     70  C   UNL A   1      43.324  29.631  35.257  1.00  0.00     0.037 A 
BRANCH  57  71
ATOM     71  C   UNL A   1      40.498  33.929  38.663  1.00  0.00     0.064 A 
ATOM     72  C   UNL A   1      41.285  35.086  38.765  1.00  0.00     0.173 A 
ATOM     73  C   UNL A   1      39.799  33.508  39.803  1.00  0.00     0.173 A 
ATOM     74  F   UNL A   1      41.980  35.528  37.705  1.00  0.00    -0.203 F 
ATOM     75  C   UNL A   1      41.386  35.780  39.968  1.00  0.00     0.198 A 
ATOM     76  C   UNL A   1      39.877  34.223  40.996  1.00  0.00     0.198 A 
ATOM     77  F   UNL A   1      39.025  32.413  39.757  1.00  0.00    -0.203 F 
ATOM     78  F   UNL A   1      42.177  36.860  40.051  1.00  0.00    -0.200 F 
ATOM     79  C   UNL A   1      40.680  35.350  41.081  1.00  0.00     0.200 A 
ATOM     80  F   UNL A   1      39.176  33.819  42.065  1.00  0.00    -0.200 F 
ATOM     81  F   UNL A   1      40.775  36.022  42.236  1.00  0.00    -0.200 F 
ENDBRANCH  57  71
BRANCH  58  82
ATOM     82  C   UNL A   1      40.226  28.770  30.123  1.00  0.00     0.064 A 
ATOM     83  C   UNL A   1      40.817  29.258  28.948  1.00  0.00     0.173 A 
ATOM     84  C   UNL A   1      39.573  27.532  30.057  1.00  0.00     0.173 A 
ATOM     85  F   UNL A   1      41.452  30.440  28.956  1.00  0.00    -0.203 F 
ATOM     86  C   UNL A   1      40.738  28.547  27.753  1.00  0.00     0.198 A 
ATOM     87  C   UNL A   1      39.520  26.807  28.867  1.00  0.00     0.198 A 
ATOM     88  F   UNL A   1      39.010  27.013  31.158  1.00  0.00    -0.203 F 
ATOM     89  F   UNL A   1      41.280  29.054  26.637  1.00  0.00    -0.200 F 
ATOM     90  C   UNL A   1      40.094  27.320  27.714  1.00  0.00     0.200 A 
ATOM     91  F   UNL A   1      38.919  25.610  28.841  1.00  0.00    -0.200 F 
ATOM     92  F   UNL A   1      40.030  26.630  26.567  1.00  0.00    -0.200 F 
ENDBRANCH  58  82
BRANCH  70  93
ATOM     93  C   UNL A   1      44.576  28.872  35.589  1.00  0.00     0.064 A 
ATOM     94  C   UNL A   1      44.502  27.648  36.274  1.00  0.00     0.173 A 
ATOM     95  C   UNL A   1      45.848  29.394  35.316  1.00  0.00     0.173 A 
ATOM     96  F   UNL A   1      43.309  27.109  36.568  1.00  0.00    -0.203 F 
ATOM     97  C   UNL A   1      45.654  26.989  36.691  1.00  0.00     0.198 A 
ATOM     98  C   UNL A   1      46.999  28.716  35.707  1.00  0.00     0.198 A 
ATOM     99  F   UNL A   1      45.974  30.554  34.654  1.00  0.00    -0.203 F 
ATOM    100  F   UNL A   1      45.557  25.845  37.382  1.00  0.00    -0.200 F 
ATOM    101  C   UNL A   1      46.902  27.521  36.405  1.00  0.00     0.200 A 
ATOM    102  F   UNL A   1      48.205  29.218  35.409  1.00  0.00    -0.200 F 
ATOM    103  F   UNL A   1      48.011  26.882  36.802  1.00  0.00    -0.200 F 
ENDBRANCH  70  93
ENDBRANCH  44  45
ENDBRANCH  36  39
ENDBRANCH  34  35
ENDBRANCH  33  34
ENDBRANCH  32  33
ENDBRANCH   1  32
TORSDOF 16
ENDMDL
MODEL 3
REMARK VINA RESULT:     -12.7      6.647     12.285
REMARK SMILES O=C(COc1ccc(Br)cc1/C=C1\NC(=O)N(Cc2ccc(F)cc2)C1=O)NCCCCNC(=O)c1ccc(-c2c3nc(c(-c4c(F)c(F)c(F)c(F)c4F)c4ccc([nH]4)c(-c4c(F)c(F)c(F)c(F)c4F)c4nc(c(-c5c(F)c(F)c(F)c(F)c5F)c5ccc2[nH]5)C=C4)C=C3)cc1
REMARK SMILES IDX 29 1 28 2 1 3 2 4 3 6 4 7 5 8 6 9 11 10 7 11 10 12 8 13 9 14
REMARK SMILES IDX 12 15 13 16 14 17 26 18 15 19 17 21 27 22 16 23 18 24 19 25
REMARK SMILES IDX 20 26 25 27 21 28 24 29 22 30 23 31 30 32 31 33 32 34 33 35
REMARK SMILES IDX 34 36 35 38 36 39 37 40 98 41 38 42 97 43 39 44 40 45 41 46
REMARK SMILES IDX 91 47 42 48 96 49 90 50 92 51 43 52 95 53 89 54 88 55 44 57
REMARK SMILES IDX 76 58 56 59 75 60 57 61 60 62 74 63 93 64 58 65 59 66 73 68
REMARK SMILES IDX 94 69 61 70 45 71 46 72 54 73 47 74 48 75 52 76 55 77 49 78
REMARK SMILES IDX 50 79 53 80 51 81 77 82 78 83 86 84 79 85 80 86 84 87 87 88
REMARK SMILES IDX 81 89 82 90 85 91 83 92 62 93 63 94 71 95 64 96 65 97 69 98
REMARK SMILES IDX 72 99 66 100 67 101 70 102 68 103
REMARK H PARENT 28 5 14 20 33 37 92 56 60 67
REMARK Flexibility Score: inf
ROOT
ATOM      1  C   UNL A   1      34.617  32.011  29.451  1.00  0.00     0.116 C 
ENDROOT
BRANCH   1   2
ATOM      2  N   UNL A   1      34.266  31.161  28.334  1.00  0.00    -0.353 N 
ATOM      3  O   UNL A   1      36.415  30.513  27.829  1.00  0.00    -0.271 OA
ATOM      4  C   UNL A   1      35.205  30.402  27.665  1.00  0.00     0.257 C 
ATOM      5  H   UNL A   1      33.328  31.124  28.040  1.00  0.00     0.163 HD
BRANCH   4   6
ATOM      6  C   UNL A   1      34.601  29.378  26.704  1.00  0.00     0.329 C 
BRANCH   6   7
ATOM      7  O   UNL A   1      33.399  28.763  27.170  1.00  0.00    -0.483 OA
BRANCH   7   8
ATOM      8  C   UNL A   1      32.374  28.778  26.253  1.00  0.00     0.127 A 
ATOM      9  C   UNL A   1      31.891  29.983  25.734  1.00  0.00     0.048 A 
ATOM     10  C   UNL A   1      31.923  27.558  25.720  1.00  0.00     0.020 A 
ATOM     11  C   UNL A   1      30.955  29.983  24.699  1.00  0.00     0.019 A 
ATOM     12  C   UNL A   1      30.986  27.565  24.676  1.00  0.00     0.027 A 
ATOM     13  C   UNL A   1      30.511  28.775  24.171  1.00  0.00     0.018 A 
ATOM     14  Br  UNL A   1      29.280  28.781  22.737  1.00  0.00    -0.051 Br
BRANCH  10  15
ATOM     15  C   UNL A   1      32.421  26.267  26.199  1.00  0.00     0.044 C 
ATOM     16  C   UNL A   1      33.152  25.418  25.472  1.00  0.00     0.109 C 
ATOM     17  N   UNL A   1      33.600  25.552  24.191  1.00  0.00    -0.303 N 
ATOM     18  C   UNL A   1      33.660  24.108  25.971  1.00  0.00     0.278 C 
ATOM     19  C   UNL A   1      34.377  24.454  23.849  1.00  0.00     0.329 C 
ATOM     20  H   UNL A   1      33.404  26.313  23.600  1.00  0.00     0.172 HD
ATOM     21  N   UNL A   1      34.426  23.620  24.944  1.00  0.00    -0.254 N 
ATOM     22  O   UNL A   1      33.409  23.612  27.057  1.00  0.00    -0.267 OA
ATOM     23  O   UNL A   1      34.896  24.284  22.758  1.00  0.00    -0.248 OA
BRANCH  21  24
ATOM     24  C   UNL A   1      35.191  22.395  25.009  1.00  0.00     0.166 C 
BRANCH  24  25
ATOM     25  C   UNL A   1      34.336  21.193  24.659  1.00  0.00    -0.028 A 
ATOM     26  C   UNL A   1      34.763  19.897  24.998  1.00  0.00     0.008 A 
ATOM     27  C   UNL A   1      33.129  21.346  23.956  1.00  0.00     0.008 A 
ATOM     28  C   UNL A   1      34.015  18.780  24.628  1.00  0.00     0.039 A 
ATOM     29  C   UNL A   1      32.373  20.226  23.603  1.00  0.00     0.039 A 
ATOM     30  C   UNL A   1      32.827  18.954  23.934  1.00  0.00     0.123 A 
ATOM     31  F   UNL A   1      32.108  17.882  23.578  1.00  0.00    -0.207 F 
ENDBRANCH  24  25
ENDBRANCH  21  24
ENDBRANCH  10  15
ENDBRANCH   7   8
ENDBRANCH   6   7
ENDBRANCH   4   6
ENDBRANCH   1   2
BRANCH   1  32
ATOM     32  C   UNL A   1      34.757  33.478  29.065  1.00  0.00     0.023 C 
BRANCH  32  33
ATOM     33  C   UNL A   1      33.436  34.236  28.923  1.00  0.00     0.023 C 
BRANCH  33  34
ATOM     34  C   UNL A   1      33.472  35.705  29.332  1.00  0.00     0.116 C 
BRANCH  34  35
ATOM     35  N   UNL A   1      32.554  36.019  30.415  1.00  0.00    -0.352 N 
ATOM     36  C   UNL A   1      32.626  35.694  31.749  1.00  0.00     0.251 C 
ATOM     37  H   UNL A   1      31.762  36.544  30.155  1.00  0.00     0.163 HD
ATOM     38  O   UNL A   1      31.677  35.930  32.490  1.00  0.00    -0.269 OA
BRANCH  36  39
ATOM     39  C   UNL A   1      33.831  35.027  32.293  1.00  0.00     0.039 A 
ATOM     40  C   UNL A   1      33.711  33.731  32.801  1.00  0.00     0.014 A 
ATOM     41  C   UNL A   1      35.071  35.670  32.309  1.00  0.00     0.014 A 
ATOM     42  C   UNL A   1      34.846  33.053  33.254  1.00  0.00     0.010 A 
ATOM     43  C   UNL A   1      36.213  34.966  32.689  1.00  0.00     0.010 A 
ATOM     44  C   UNL A   1      36.114  33.649  33.161  1.00  0.00    -0.014 A 
BRANCH  44  45
ATOM     45  C   UNL A   1      37.345  32.905  33.537  1.00  0.00     0.031 A 
ATOM     46  C   UNL A   1      38.041  33.188  34.839  1.00  0.00     0.074 A 
ATOM     47  C   UNL A   1      37.871  32.011  32.676  1.00  0.00     0.049 A 
ATOM     48  N   UNL A   1      39.159  32.691  35.305  1.00  0.00    -0.248 NA
ATOM     49  C   UNL A   1      37.410  34.177  35.728  1.00  0.00     0.031 C 
ATOM     50  C   UNL A   1      37.312  31.669  31.367  1.00  0.00     0.029 A 
ATOM     51  N   UNL A   1      38.997  31.227  32.769  1.00  0.00    -0.354 N 
ATOM     52  C   UNL A   1      39.368  33.310  36.529  1.00  0.00     0.074 A 
ATOM     53  C   UNL A   1      38.292  34.258  36.714  1.00  0.00     0.031 C 
ATOM     54  C   UNL A   1      38.076  30.726  30.794  1.00  0.00     0.029 A 
ATOM     55  C   UNL A   1      39.205  30.427  31.671  1.00  0.00     0.049 A 
ATOM     56  H   UNL A   1      39.597  31.237  33.549  1.00  0.00     0.167 HD
ATOM     57  C   UNL A   1      40.356  33.088  37.429  1.00  0.00     0.037 A 
ATOM     58  C   UNL A   1      40.196  29.558  31.394  1.00  0.00     0.037 A 
ATOM     59  C   UNL A   1      41.410  32.123  37.255  1.00  0.00     0.049 A 
ATOM     60  C   UNL A   1      41.297  29.351  32.399  1.00  0.00     0.074 A 
ATOM     61  C   UNL A   1      42.424  31.790  38.137  1.00  0.00     0.029 A 
ATOM     62  N   UNL A   1      41.591  31.339  36.125  1.00  0.00    -0.354 N 
ATOM     63  N   UNL A   1      41.453  29.904  33.578  1.00  0.00    -0.248 NA
ATOM     64  C   UNL A   1      42.358  28.399  32.039  1.00  0.00     0.031 C 
ATOM     65  C   UNL A   1      43.248  30.847  37.521  1.00  0.00     0.029 A 
ATOM     66  C   UNL A   1      42.715  30.544  36.279  1.00  0.00     0.049 A 
ATOM     67  H   UNL A   1      41.006  31.347  35.332  1.00  0.00     0.167 HD
ATOM     68  C   UNL A   1      42.609  29.348  34.110  1.00  0.00     0.074 A 
ATOM     69  C   UNL A   1      43.110  28.407  33.132  1.00  0.00     0.031 C 
ATOM     70  C   UNL A   1      43.200  29.600  35.304  1.00  0.00     0.037 A 
BRANCH  57  71
ATOM     71  C   UNL A   1      40.346  33.887  38.700  1.00  0.00     0.064 A 
ATOM     72  C   UNL A   1      39.552  33.488  39.786  1.00  0.00     0.173 A 
ATOM     73  C   UNL A   1      41.048  35.096  38.811  1.00  0.00     0.173 A 
ATOM     74  F   UNL A   1      38.854  32.343  39.730  1.00  0.00    -0.203 F 
ATOM     75  C   UNL A   1      39.446  34.280  40.926  1.00  0.00     0.198 A 
ATOM     76  C   UNL A   1      40.965  35.871  39.965  1.00  0.00     0.198 A 
ATOM     77  F   UNL A   1      41.829  35.519  37.805  1.00  0.00    -0.203 F 
ATOM     78  F   UNL A   1      38.648  33.898  41.934  1.00  0.00    -0.200 F 
ATOM     79  C   UNL A   1      40.155  35.469  41.016  1.00  0.00     0.200 A 
ATOM     80  F   UNL A   1      41.668  37.008  40.059  1.00  0.00    -0.200 F 
ATOM     81  F   UNL A   1      40.055  36.228  42.116  1.00  0.00    -0.200 F 
ENDBRANCH  57  71
BRANCH  58  82
ATOM     82  C   UNL A   1      40.172  28.794  30.119  1.00  0.00     0.064 A 
ATOM     83  C   UNL A   1      40.785  29.286  28.958  1.00  0.00     0.173 A 
ATOM     84  C   UNL A   1      39.512  27.560  30.034  1.00  0.00     0.173 A 
ATOM     85  F   UNL A   1      41.428  30.463  28.984  1.00  0.00    -0.203 F 
ATOM     86  C   UNL A   1      40.720  28.585  27.755  1.00  0.00     0.198 A 
ATOM     87  C   UNL A   1      39.473  26.845  28.838  1.00  0.00     0.198 A 
ATOM     88  F   UNL A   1      38.929  27.037  31.122  1.00  0.00    -0.203 F 
ATOM     89  F   UNL A   1      41.283  29.096  26.652  1.00  0.00    -0.200 F 
ATOM     90  C   UNL A   1      40.068  27.362  27.698  1.00  0.00     0.200 A 
ATOM     91  F   UNL A   1      38.865  25.652  28.793  1.00  0.00    -0.200 F 
ATOM     92  F   UNL A   1      40.018  26.681  26.545  1.00  0.00    -0.200 F 
ENDBRANCH  58  82
BRANCH  70  93
ATOM     93  C   UNL A   1      44.443  28.832  35.649  1.00  0.00     0.064 A 
ATOM     94  C   UNL A   1      44.357  27.635  36.378  1.00  0.00     0.173 A 
ATOM     95  C   UNL A   1      45.720  29.322  35.342  1.00  0.00     0.173 A 
ATOM     96  F   UNL A   1      43.159  27.127  36.704  1.00  0.00    -0.203 F 
ATOM     97  C   UNL A   1      45.504  26.971  36.805  1.00  0.00     0.198 A 
ATOM     98  C   UNL A   1      46.864  28.639  35.744  1.00  0.00     0.198 A 
ATOM     99  F   UNL A   1      45.857  30.456  34.638  1.00  0.00    -0.203 F 
ATOM    100  F   UNL A   1      45.395  25.854  37.537  1.00  0.00    -0.200 F 
ATOM    101  C   UNL A   1      46.756  27.472  36.486  1.00  0.00     0.200 A 
ATOM    102  F   UNL A   1      48.075  29.110  35.413  1.00  0.00    -0.200 F 
ATOM    103  F   UNL A   1      47.859  26.829  36.891  1.00  0.00    -0.200 F 
ENDBRANCH  70  93
ENDBRANCH  44  45
ENDBRANCH  36  39
ENDBRANCH  34  35
ENDBRANCH  33  34
ENDBRANCH  32  33
ENDBRANCH   1  32
TORSDOF 16
ENDMDL
