MODEL 1
REMARK VINA RESULT:     -12.1      0.000      0.000
REMARK SMILES O=C(CCn1cc(/C=C2/[NH+]=C(S)N(c3ccccc3)C2=O)c(-c2ccc(Br)cc2)n1)NCCCCNC(=O)c1ccc(-c2c3nc(c(-c4c(F)c(F)c(F)c(F)c4F)c4ccc([nH]4)c(-c4c(F)c(F)c(F)c(F)c4F)c4nc(c(-c5c(F)c(F)c(F)c(F)c5F)c5ccc2[nH]5)C=C4)C=C3)cc1
REMARK SMILES IDX 32 1 31 2 1 3 2 4 3 6 4 7 5 8 6 9 30 10 7 11 22 12 8 13 9 14
REMARK SMILES IDX 10 15 20 16 11 17 13 19 21 20 12 21 14 23 15 24 19 25 16 26
REMARK SMILES IDX 18 27 17 28 23 29 24 30 29 31 25 32 28 33 26 34 27 35 33 36
REMARK SMILES IDX 34 37 35 38 36 39 37 40 38 42 39 43 40 44 101 45 41 46
REMARK SMILES IDX 100 47 42 48 43 49 44 50 94 51 45 52 99 53 93 54 95 55 46 56
REMARK SMILES IDX 98 57 92 58 91 59 47 61 79 62 59 63 78 64 60 65 63 66 77 67
REMARK SMILES IDX 96 68 61 69 62 70 76 72 97 73 64 74 48 75 49 76 57 77 50 78
REMARK SMILES IDX 51 79 55 80 58 81 52 82 53 83 56 84 54 85 80 86 81 87 89 88
REMARK SMILES IDX 82 89 83 90 87 91 90 92 84 93 85 94 88 95 86 96 65 97 66 98
REMARK SMILES IDX 74 99 67 100 68 101 72 102 75 103 69 104 70 105 73 106
REMARK SMILES IDX 71 107
REMARK H PARENT 31 5 10 18 12 22 36 41 95 60 63 71
REMARK Flexibility Score: inf
ROOT
ATOM      1  C   UNL A   1      37.908  32.027  33.839  1.00  0.00     0.116 C 
ENDROOT
BRANCH   1   2
ATOM      2  N   UNL A   1      38.850  32.159  32.741  1.00  0.00    -0.356 N 
ATOM      3  O   UNL A   1      40.361  33.456  33.885  1.00  0.00    -0.275 OA
ATOM      4  C   UNL A   1      40.055  32.812  32.888  1.00  0.00     0.221 C 
ATOM      5  H   UNL A   1      38.621  31.770  31.866  1.00  0.00     0.163 HD
BRANCH   4   6
ATOM      6  C   UNL A   1      41.022  32.608  31.747  1.00  0.00     0.123 C 
BRANCH   6   7
ATOM      7  C   UNL A   1      41.927  33.829  31.580  1.00  0.00     0.154 C 
BRANCH   7   8
ATOM      8  N   UNL A   1      42.273  34.120  30.195  1.00  0.00    -0.271 N 
ATOM      9  C   UNL A   1      41.534  34.767  29.227  1.00  0.00     0.117 A 
ATOM     10  N   UNL A   1      43.523  33.845  29.795  1.00  0.00    -0.172 NA
ATOM     11  C   UNL A   1      42.438  35.132  28.253  1.00  0.00     0.025 A 
ATOM     12  C   UNL A   1      43.629  34.461  28.618  1.00  0.00     0.100 A 
BRANCH  11  13
ATOM     13  C   UNL A   1      42.392  36.142  27.235  1.00  0.00     0.072 C 
ATOM     14  C   UNL A   1      42.433  37.490  27.401  1.00  0.00     0.217 C 
ATOM     15  N   UNL A   1      41.778  38.363  26.573  1.00  0.00    -0.228 N 
ATOM     16  C   UNL A   1      43.082  38.318  28.501  1.00  0.00     0.386 C 
ATOM     17  C   UNL A   1      41.837  39.523  27.182  1.00  0.00     0.321 C 
ATOM     18  H   UNL A   1      41.353  38.162  25.709  1.00  0.00     0.313 HD
ATOM     19  N   UNL A   1      42.588  39.618  28.361  1.00  0.00    -0.149 N 
ATOM     20  O   UNL A   1      44.015  37.887  29.154  1.00  0.00    -0.236 OA
BRANCH  17  21
ATOM     21  S   UNL A   1      41.093  40.821  26.301  1.00  0.00    -0.055 SA
ATOM     22  H   UNL A   1      41.892  41.920  26.351  1.00  0.00     0.116 HD
ENDBRANCH  17  21
BRANCH  19  23
ATOM     23  C   UNL A   1      43.158  40.829  29.202  1.00  0.00     0.137 A 
ATOM     24  C   UNL A   1      42.375  41.447  30.716  1.00  0.00     0.052 A 
ATOM     25  C   UNL A   1      44.383  41.915  28.404  1.00  0.00     0.052 A 
ATOM     26  C   UNL A   1      42.605  43.175  31.306  1.00  0.00     0.004 A 
ATOM     27  C   UNL A   1      44.895  43.535  29.120  1.00  0.00     0.004 A 
ATOM     28  C   UNL A   1      43.917  44.260  30.523  1.00  0.00     0.000 A 
ENDBRANCH  19  23
ENDBRANCH  11  13
BRANCH  12  29
ATOM     29  C   UNL A   1      44.819  34.391  27.810  1.00  0.00     0.003 A 
ATOM     30  C   UNL A   1      46.065  34.082  28.378  1.00  0.00     0.011 A 
ATOM     31  C   UNL A   1      44.732  34.938  26.535  1.00  0.00     0.011 A 
ATOM     32  C   UNL A   1      47.227  34.343  27.665  1.00  0.00     0.016 A 
ATOM     33  C   UNL A   1      45.887  35.072  25.780  1.00  0.00     0.016 A 
ATOM     34  C   UNL A   1      47.133  34.776  26.348  1.00  0.00     0.018 A 
ATOM     35  Br  UNL A   1      48.758  34.934  25.395  1.00  0.00    -0.051 Br
ENDBRANCH  12  29
ENDBRANCH   7   8
ENDBRANCH   6   7
ENDBRANCH   4   6
ENDBRANCH   1   2
BRANCH   1  36
ATOM     36  C   UNL A   1      36.526  32.594  33.504  1.00  0.00     0.023 C 
BRANCH  36  37
ATOM     37  C   UNL A   1      36.313  33.001  32.044  1.00  0.00     0.023 C 
BRANCH  37  38
ATOM     38  C   UNL A   1      35.605  31.948  31.220  1.00  0.00     0.116 C 
BRANCH  38  39
ATOM     39  N   UNL A   1      35.371  32.263  29.818  1.00  0.00    -0.352 N 
ATOM     40  C   UNL A   1      36.265  32.004  28.787  1.00  0.00     0.251 C 
ATOM     41  H   UNL A   1      34.517  32.692  29.583  1.00  0.00     0.163 HD
ATOM     42  O   UNL A   1      36.203  32.571  27.705  1.00  0.00    -0.269 OA
BRANCH  40  43
ATOM     43  C   UNL A   1      37.197  30.873  28.975  1.00  0.00     0.039 A 
ATOM     44  C   UNL A   1      36.848  29.531  29.032  1.00  0.00     0.014 A 
ATOM     45  C   UNL A   1      38.481  31.223  29.354  1.00  0.00     0.014 A 
ATOM     46  C   UNL A   1      37.774  28.668  29.667  1.00  0.00     0.010 A 
ATOM     47  C   UNL A   1      39.451  30.287  29.371  1.00  0.00     0.010 A 
ATOM     48  C   UNL A   1      39.103  29.126  29.990  1.00  0.00    -0.014 A 
BRANCH  48  49
ATOM     49  C   UNL A   1      40.350  28.307  30.108  1.00  0.00     0.031 A 
ATOM     50  C   UNL A   1      40.710  28.562  31.627  1.00  0.00     0.074 A 
ATOM     51  C   UNL A   1      40.781  27.393  29.072  1.00  0.00     0.049 A 
ATOM     52  N   UNL A   1      41.803  29.021  32.112  1.00  0.00    -0.248 NA
ATOM     53  C   UNL A   1      39.756  28.784  32.790  1.00  0.00     0.031 C 
ATOM     54  C   UNL A   1      40.279  27.219  27.640  1.00  0.00     0.029 A 
ATOM     55  N   UNL A   1      41.841  26.416  28.959  1.00  0.00    -0.354 N 
ATOM     56  C   UNL A   1      41.795  28.533  33.444  1.00  0.00     0.074 A 
ATOM     57  C   UNL A   1      40.535  28.995  33.863  1.00  0.00     0.031 C 
ATOM     58  C   UNL A   1      40.797  26.122  26.989  1.00  0.00     0.029 A 
ATOM     59  C   UNL A   1      41.789  25.451  27.813  1.00  0.00     0.049 A 
ATOM     60  H   UNL A   1      42.575  26.385  29.615  1.00  0.00     0.167 HD
ATOM     61  C   UNL A   1      42.649  27.399  33.759  1.00  0.00     0.037 A 
ATOM     62  C   UNL A   1      42.695  24.447  27.383  1.00  0.00     0.037 A 
ATOM     63  C   UNL A   1      43.749  28.043  32.662  1.00  0.00     0.049 A 
ATOM     64  C   UNL A   1      43.968  24.677  28.098  1.00  0.00     0.074 A 
ATOM     65  C   UNL A   1      44.405  29.273  32.577  1.00  0.00     0.029 A 
ATOM     66  N   UNL A   1      43.599  27.606  31.378  1.00  0.00    -0.354 N 
ATOM     67  N   UNL A   1      44.674  25.750  27.880  1.00  0.00    -0.248 NA
ATOM     68  C   UNL A   1      43.972  24.076  29.424  1.00  0.00     0.031 C 
ATOM     69  C   UNL A   1      44.648  29.469  31.195  1.00  0.00     0.029 A 
ATOM     70  C   UNL A   1      44.472  28.239  30.582  1.00  0.00     0.049 A 
ATOM     71  H   UNL A   1      42.948  26.930  31.082  1.00  0.00     0.167 HD
ATOM     72  C   UNL A   1      44.731  26.304  29.133  1.00  0.00     0.074 A 
ATOM     73  C   UNL A   1      44.251  25.231  30.031  1.00  0.00     0.031 C 
ATOM     74  C   UNL A   1      44.723  27.661  29.316  1.00  0.00     0.037 A 
BRANCH  61  75
ATOM     75  C   UNL A   1      42.958  25.707  35.037  1.00  0.00     0.064 A 
ATOM     76  C   UNL A   1      43.370  25.739  36.644  1.00  0.00     0.173 A 
ATOM     77  C   UNL A   1      43.421  24.284  34.803  1.00  0.00     0.173 A 
ATOM     78  F   UNL A   1      43.036  26.772  37.467  1.00  0.00    -0.203 F 
ATOM     79  C   UNL A   1      44.296  24.954  37.367  1.00  0.00     0.198 A 
ATOM     80  C   UNL A   1      44.170  23.388  35.678  1.00  0.00     0.198 A 
ATOM     81  F   UNL A   1      43.321  23.690  33.613  1.00  0.00    -0.203 F 
ATOM     82  F   UNL A   1      44.871  25.462  38.471  1.00  0.00    -0.200 F 
ATOM     83  C   UNL A   1      44.685  23.757  36.891  1.00  0.00     0.200 A 
ATOM     84  F   UNL A   1      44.464  22.155  35.235  1.00  0.00    -0.200 F 
ATOM     85  F   UNL A   1      45.525  22.978  37.585  1.00  0.00    -0.200 F 
ENDBRANCH  61  75
BRANCH  62  86
ATOM     86  C   UNL A   1      42.571  23.027  26.754  1.00  0.00     0.064 A 
ATOM     87  C   UNL A   1      43.498  22.363  25.868  1.00  0.00     0.173 A 
ATOM     88  C   UNL A   1      41.654  22.155  27.347  1.00  0.00     0.173 A 
ATOM     89  F   UNL A   1      44.509  23.033  25.290  1.00  0.00    -0.203 F 
ATOM     90  C   UNL A   1      43.450  20.961  25.600  1.00  0.00     0.198 A 
ATOM     91  C   UNL A   1      41.625  20.769  27.103  1.00  0.00     0.198 A 
ATOM     92  F   UNL A   1      40.817  22.632  28.274  1.00  0.00    -0.203 F 
ATOM     93  F   UNL A   1      44.335  20.375  24.774  1.00  0.00    -0.200 F 
ATOM     94  C   UNL A   1      42.513  20.168  26.232  1.00  0.00     0.200 A 
ATOM     95  F   UNL A   1      40.746  20.011  27.772  1.00  0.00    -0.200 F 
ATOM     96  F   UNL A   1      42.482  18.838  26.040  1.00  0.00    -0.200 F 
ENDBRANCH  62  86
BRANCH  74  97
ATOM     97  C   UNL A   1      44.907  28.643  28.225  1.00  0.00     0.064 A 
ATOM     98  C   UNL A   1      43.950  29.590  27.830  1.00  0.00     0.173 A 
ATOM     99  C   UNL A   1      46.228  28.864  27.842  1.00  0.00     0.173 A 
ATOM    100  F   UNL A   1      42.728  29.601  28.367  1.00  0.00    -0.203 F 
ATOM    101  C   UNL A   1      44.278  30.636  26.976  1.00  0.00     0.198 A 
ATOM    102  C   UNL A   1      46.572  29.951  27.058  1.00  0.00     0.198 A 
ATOM    103  F   UNL A   1      47.207  28.110  28.368  1.00  0.00    -0.203 F 
ATOM    104  F   UNL A   1      43.339  31.514  26.592  1.00  0.00    -0.200 F 
ATOM    105  C   UNL A   1      45.593  30.811  26.585  1.00  0.00     0.200 A 
ATOM    106  F   UNL A   1      47.865  30.204  26.826  1.00  0.00    -0.200 F 
ATOM    107  F   UNL A   1      45.930  31.839  25.797  1.00  0.00    -0.200 F 
ENDBRANCH  74  97
ENDBRANCH  48  49
ENDBRANCH  40  43
ENDBRANCH  38  39
ENDBRANCH  37  38
ENDBRANCH  36  37
ENDBRANCH   1  36
TORSDOF 17
ENDMDL
MODEL 2
REMARK VINA RESULT:     -12.1      5.134     10.232
REMARK SMILES O=C(CCn1cc(/C=C2/[NH+]=C(S)N(c3ccccc3)C2=O)c(-c2ccc(Br)cc2)n1)NCCCCNC(=O)c1ccc(-c2c3nc(c(-c4c(F)c(F)c(F)c(F)c4F)c4ccc([nH]4)c(-c4c(F)c(F)c(F)c(F)c4F)c4nc(c(-c5c(F)c(F)c(F)c(F)c5F)c5ccc2[nH]5)C=C4)C=C3)cc1
REMARK SMILES IDX 32 1 31 2 1 3 2 4 3 6 4 7 5 8 6 9 30 10 7 11 22 12 8 13 9 14
REMARK SMILES IDX 10 15 20 16 11 17 13 19 21 20 12 21 14 23 15 24 19 25 16 26
REMARK SMILES IDX 18 27 17 28 23 29 24 30 29 31 25 32 28 33 26 34 27 35 33 36
REMARK SMILES IDX 34 37 35 38 36 39 37 40 38 42 39 43 40 44 101 45 41 46
REMARK SMILES IDX 100 47 42 48 43 49 44 50 94 51 45 52 99 53 93 54 95 55 46 56
REMARK SMILES IDX 98 57 92 58 91 59 47 61 79 62 59 63 78 64 60 65 63 66 77 67
REMARK SMILES IDX 96 68 61 69 62 70 76 72 97 73 64 74 48 75 49 76 57 77 50 78
REMARK SMILES IDX 51 79 55 80 58 81 52 82 53 83 56 84 54 85 80 86 81 87 89 88
REMARK SMILES IDX 82 89 83 90 87 91 90 92 84 93 85 94 88 95 86 96 65 97 66 98
REMARK SMILES IDX 74 99 67 100 68 101 72 102 75 103 69 104 70 105 73 106
REMARK SMILES IDX 71 107
REMARK H PARENT 31 5 10 18 12 22 36 41 95 60 63 71
REMARK Flexibility Score: inf
ROOT
ATOM      1  C   UNL A   1      34.350  32.443  29.041  1.00  0.00     0.116 C 
ENDROOT
BRANCH   1   2
ATOM      2  N   UNL A   1      33.450  31.882  28.050  1.00  0.00    -0.356 N 
ATOM      3  O   UNL A   1      34.613  29.923  27.759  1.00  0.00    -0.275 OA
ATOM      4  C   UNL A   1      33.623  30.613  27.542  1.00  0.00     0.221 C 
ATOM      5  H   UNL A   1      32.692  32.425  27.731  1.00  0.00     0.163 HD
BRANCH   4   6
ATOM      6  C   UNL A   1      32.449  30.089  26.750  1.00  0.00     0.123 C 
BRANCH   6   7
ATOM      7  C   UNL A   1      31.734  28.975  27.514  1.00  0.00     0.154 C 
BRANCH   7   8
ATOM      8  N   UNL A   1      31.879  27.658  26.909  1.00  0.00    -0.271 N 
ATOM      9  C   UNL A   1      30.915  26.708  26.643  1.00  0.00     0.117 A 
ATOM     10  N   UNL A   1      33.082  27.328  26.417  1.00  0.00    -0.172 NA
ATOM     11  C   UNL A   1      31.487  25.847  25.729  1.00  0.00     0.025 A 
ATOM     12  C   UNL A   1      32.848  26.232  25.697  1.00  0.00     0.100 A 
BRANCH  11  13
ATOM     13  C   UNL A   1      30.910  24.937  24.781  1.00  0.00     0.072 C 
ATOM     14  C   UNL A   1      31.356  23.700  24.443  1.00  0.00     0.217 C 
ATOM     15  N   UNL A   1      31.208  23.172  23.188  1.00  0.00    -0.228 N 
ATOM     16  C   UNL A   1      32.148  22.689  25.262  1.00  0.00     0.386 C 
ATOM     17  C   UNL A   1      31.967  22.102  23.173  1.00  0.00     0.321 C 
ATOM     18  H   UNL A   1      30.652  23.521  22.454  1.00  0.00     0.313 HD
ATOM     19  N   UNL A   1      32.595  21.716  24.364  1.00  0.00    -0.149 N 
ATOM     20  O   UNL A   1      32.119  22.697  26.480  1.00  0.00    -0.236 OA
BRANCH  17  21
ATOM     21  S   UNL A   1      31.922  21.225  21.674  1.00  0.00    -0.055 SA
ATOM     22  H   UNL A   1      31.924  19.890  21.931  1.00  0.00     0.116 HD
ENDBRANCH  17  21
BRANCH  19  23
ATOM     23  C   UNL A   1      33.303  20.389  24.849  1.00  0.00     0.137 A 
ATOM     24  C   UNL A   1      35.103  20.207  24.969  1.00  0.00     0.052 A 
ATOM     25  C   UNL A   1      32.316  18.858  24.872  1.00  0.00     0.052 A 
ATOM     26  C   UNL A   1      35.933  18.567  24.875  1.00  0.00     0.004 A 
ATOM     27  C   UNL A   1      33.069  17.189  25.095  1.00  0.00     0.004 A 
ATOM     28  C   UNL A   1      34.912  16.999  24.970  1.00  0.00     0.000 A 
ENDBRANCH  19  23
ENDBRANCH  11  13
BRANCH  12  29
ATOM     29  C   UNL A   1      33.893  25.515  25.013  1.00  0.00     0.003 A 
ATOM     30  C   UNL A   1      33.879  25.366  23.618  1.00  0.00     0.011 A 
ATOM     31  C   UNL A   1      34.724  24.730  25.806  1.00  0.00     0.011 A 
ATOM     32  C   UNL A   1      34.691  24.410  23.022  1.00  0.00     0.016 A 
ATOM     33  C   UNL A   1      35.624  23.873  25.194  1.00  0.00     0.016 A 
ATOM     34  C   UNL A   1      35.604  23.713  23.803  1.00  0.00     0.018 A 
ATOM     35  Br  UNL A   1      36.792  22.563  22.885  1.00  0.00    -0.051 Br
ENDBRANCH  12  29
ENDBRANCH   7   8
ENDBRANCH   6   7
ENDBRANCH   4   6
ENDBRANCH   1   2
BRANCH   1  36
ATOM     36  C   UNL A   1      35.255  33.535  28.468  1.00  0.00     0.023 C 
BRANCH  36  37
ATOM     37  C   UNL A   1      36.631  33.069  27.984  1.00  0.00     0.023 C 
BRANCH  37  38
ATOM     38  C   UNL A   1      37.777  33.597  28.819  1.00  0.00     0.116 C 
BRANCH  38  39
ATOM     39  N   UNL A   1      37.507  33.825  30.231  1.00  0.00    -0.352 N 
ATOM     40  C   UNL A   1      37.366  32.824  31.182  1.00  0.00     0.251 C 
ATOM     41  H   UNL A   1      37.416  34.758  30.533  1.00  0.00     0.163 HD
ATOM     42  O   UNL A   1      36.813  33.012  32.258  1.00  0.00    -0.269 OA
BRANCH  40  43
ATOM     43  C   UNL A   1      38.077  31.553  30.931  1.00  0.00     0.039 A 
ATOM     44  C   UNL A   1      37.489  30.350  30.567  1.00  0.00     0.014 A 
ATOM     45  C   UNL A   1      39.403  31.531  31.326  1.00  0.00     0.014 A 
ATOM     46  C   UNL A   1      38.242  29.180  30.826  1.00  0.00     0.010 A 
ATOM     47  C   UNL A   1      40.186  30.491  30.976  1.00  0.00     0.010 A 
ATOM     48  C   UNL A   1      39.632  29.268  31.200  1.00  0.00    -0.014 A 
BRANCH  48  49
ATOM     49  C   UNL A   1      40.709  28.255  30.967  1.00  0.00     0.031 A 
ATOM     50  C   UNL A   1      41.393  28.240  32.393  1.00  0.00     0.074 A 
ATOM     51  C   UNL A   1      40.761  27.435  29.775  1.00  0.00     0.049 A 
ATOM     52  N   UNL A   1      42.624  28.452  32.679  1.00  0.00    -0.248 NA
ATOM     53  C   UNL A   1      40.736  28.448  33.748  1.00  0.00     0.031 C 
ATOM     54  C   UNL A   1      39.971  27.539  28.472  1.00  0.00     0.029 A 
ATOM     55  N   UNL A   1      41.584  26.328  29.342  1.00  0.00    -0.354 N 
ATOM     56  C   UNL A   1      42.783  27.793  33.926  1.00  0.00     0.074 A 
ATOM     57  C   UNL A   1      41.731  28.385  34.647  1.00  0.00     0.031 C 
ATOM     58  C   UNL A   1      40.147  26.473  27.618  1.00  0.00     0.029 A 
ATOM     59  C   UNL A   1      41.140  25.549  28.141  1.00  0.00     0.049 A 
ATOM     60  H   UNL A   1      42.412  26.093  29.820  1.00  0.00     0.167 HD
ATOM     61  C   UNL A   1      43.461  26.507  33.936  1.00  0.00     0.037 A 
ATOM     62  C   UNL A   1      41.749  24.484  27.428  1.00  0.00     0.037 A 
ATOM     63  C   UNL A   1      44.429  27.114  32.702  1.00  0.00     0.049 A 
ATOM     64  C   UNL A   1      43.156  24.412  27.876  1.00  0.00     0.074 A 
ATOM     65  C   UNL A   1      45.268  28.226  32.605  1.00  0.00     0.029 A 
ATOM     66  N   UNL A   1      43.958  26.886  31.441  1.00  0.00    -0.354 N 
ATOM     67  N   UNL A   1      43.989  25.380  27.624  1.00  0.00    -0.248 NA
ATOM     68  C   UNL A   1      43.304  23.642  29.103  1.00  0.00     0.031 C 
ATOM     69  C   UNL A   1      45.274  28.568  31.231  1.00  0.00     0.029 A 
ATOM     70  C   UNL A   1      44.763  27.477  30.546  1.00  0.00     0.049 A 
ATOM     71  H   UNL A   1      43.151  26.367  31.223  1.00  0.00     0.167 HD
ATOM     72  C   UNL A   1      44.385  25.742  28.887  1.00  0.00     0.074 A 
ATOM     73  C   UNL A   1      43.899  24.645  29.752  1.00  0.00     0.031 C 
ATOM     74  C   UNL A   1      44.658  27.045  29.204  1.00  0.00     0.037 A 
BRANCH  61  75
ATOM     75  C   UNL A   1      43.696  24.629  34.940  1.00  0.00     0.064 A 
ATOM     76  C   UNL A   1      44.389  24.379  36.426  1.00  0.00     0.173 A 
ATOM     77  C   UNL A   1      43.857  23.198  34.469  1.00  0.00     0.173 A 
ATOM     78  F   UNL A   1      44.393  25.328  37.404  1.00  0.00    -0.203 F 
ATOM     79  C   UNL A   1      45.280  23.372  36.863  1.00  0.00     0.198 A 
ATOM     80  C   UNL A   1      44.584  22.089  35.077  1.00  0.00     0.198 A 
ATOM     81  F   UNL A   1      43.443  22.794  33.267  1.00  0.00    -0.203 F 
ATOM     82  F   UNL A   1      46.123  23.633  37.878  1.00  0.00    -0.200 F 
ATOM     83  C   UNL A   1      45.364  22.207  36.195  1.00  0.00     0.200 A 
ATOM     84  F   UNL A   1      44.575  20.898  34.457  1.00  0.00    -0.200 F 
ATOM     85  F   UNL A   1      46.167  21.223  36.621  1.00  0.00    -0.200 F 
ENDBRANCH  61  75
BRANCH  62  86
ATOM     86  C   UNL A   1      41.250  23.201  26.698  1.00  0.00     0.064 A 
ATOM     87  C   UNL A   1      41.989  21.990  26.425  1.00  0.00     0.173 A 
ATOM     88  C   UNL A   1      39.867  23.041  26.583  1.00  0.00     0.173 A 
ATOM     89  F   UNL A   1      43.322  21.938  26.586  1.00  0.00    -0.203 F 
ATOM     90  C   UNL A   1      41.363  20.767  26.037  1.00  0.00     0.198 A 
ATOM     91  C   UNL A   1      39.249  21.827  26.227  1.00  0.00     0.198 A 
ATOM     92  F   UNL A   1      39.069  24.059  26.923  1.00  0.00    -0.203 F 
ATOM     93  F   UNL A   1      42.083  19.656  25.797  1.00  0.00    -0.200 F 
ATOM     94  C   UNL A   1      39.987  20.692  25.950  1.00  0.00     0.200 A 
ATOM     95  F   UNL A   1      37.911  21.761  26.207  1.00  0.00    -0.200 F 
ATOM     96  F   UNL A   1      39.370  19.539  25.641  1.00  0.00    -0.200 F 
ENDBRANCH  62  86
BRANCH  74  97
ATOM     97  C   UNL A   1      44.805  28.126  28.205  1.00  0.00     0.064 A 
ATOM     98  C   UNL A   1      43.942  29.225  28.082  1.00  0.00     0.173 A 
ATOM     99  C   UNL A   1      46.067  28.229  27.622  1.00  0.00     0.173 A 
ATOM    100  F   UNL A   1      42.835  29.319  28.821  1.00  0.00    -0.203 F 
ATOM    101  C   UNL A   1      44.277  30.322  27.295  1.00  0.00     0.198 A 
ATOM    102  C   UNL A   1      46.433  29.355  26.907  1.00  0.00     0.198 A 
ATOM    103  F   UNL A   1      46.999  27.300  27.891  1.00  0.00    -0.203 F 
ATOM    104  F   UNL A   1      43.423  31.350  27.174  1.00  0.00    -0.200 F 
ATOM    105  C   UNL A   1      45.524  30.381  26.703  1.00  0.00     0.200 A 
ATOM    106  F   UNL A   1      47.696  29.474  26.481  1.00  0.00    -0.200 F 
ATOM    107  F   UNL A   1      45.875  31.451  25.978  1.00  0.00    -0.200 F 
ENDBRANCH  74  97
ENDBRANCH  48  49
ENDBRANCH  40  43
ENDBRANCH  38  39
ENDBRANCH  37  38
ENDBRANCH  36  37
ENDBRANCH   1  36
TORSDOF 17
ENDMDL
MODEL 3
REMARK VINA RESULT:     -11.9      4.752      9.559
REMARK SMILES O=C(CCn1cc(/C=C2/[NH+]=C(S)N(c3ccccc3)C2=O)c(-c2ccc(Br)cc2)n1)NCCCCNC(=O)c1ccc(-c2c3nc(c(-c4c(F)c(F)c(F)c(F)c4F)c4ccc([nH]4)c(-c4c(F)c(F)c(F)c(F)c4F)c4nc(c(-c5c(F)c(F)c(F)c(F)c5F)c5ccc2[nH]5)C=C4)C=C3)cc1
REMARK SMILES IDX 32 1 31 2 1 3 2 4 3 6 4 7 5 8 6 9 30 10 7 11 22 12 8 13 9 14
REMARK SMILES IDX 10 15 20 16 11 17 13 19 21 20 12 21 14 23 15 24 19 25 16 26
REMARK SMILES IDX 18 27 17 28 23 29 24 30 29 31 25 32 28 33 26 34 27 35 33 36
REMARK SMILES IDX 34 37 35 38 36 39 37 40 38 42 39 43 40 44 101 45 41 46
REMARK SMILES IDX 100 47 42 48 43 49 44 50 94 51 45 52 99 53 93 54 95 55 46 56
REMARK SMILES IDX 98 57 92 58 91 59 47 61 79 62 59 63 78 64 60 65 63 66 77 67
REMARK SMILES IDX 96 68 61 69 62 70 76 72 97 73 64 74 48 75 49 76 57 77 50 78
REMARK SMILES IDX 51 79 55 80 58 81 52 82 53 83 56 84 54 85 80 86 81 87 89 88
REMARK SMILES IDX 82 89 83 90 87 91 90 92 84 93 85 94 88 95 86 96 65 97 66 98
REMARK SMILES IDX 74 99 67 100 68 101 72 102 75 103 69 104 70 105 73 106
REMARK SMILES IDX 71 107
REMARK H PARENT 31 5 10 18 12 22 36 41 95 60 63 71
REMARK Flexibility Score: inf
ROOT
ATOM      1  C   UNL A   1      45.755  40.311  32.429  1.00  0.00     0.116 C 
ENDROOT
BRANCH   1   2
ATOM      2  N   UNL A   1      44.556  41.028  32.032  1.00  0.00    -0.356 N 
ATOM      3  O   UNL A   1      45.641  42.936  31.355  1.00  0.00    -0.275 OA
ATOM      4  C   UNL A   1      44.613  42.275  31.446  1.00  0.00     0.221 C 
ATOM      5  H   UNL A   1      43.677  40.611  32.184  1.00  0.00     0.163 HD
BRANCH   4   6
ATOM      6  C   UNL A   1      43.311  42.743  30.842  1.00  0.00     0.123 C 
BRANCH   6   7
ATOM      7  C   UNL A   1      42.201  41.722  31.089  1.00  0.00     0.154 C 
BRANCH   7   8
ATOM      8  N   UNL A   1      41.909  40.879  29.937  1.00  0.00    -0.271 N 
ATOM      9  C   UNL A   1      41.139  41.154  28.826  1.00  0.00     0.117 A 
ATOM     10  N   UNL A   1      42.557  39.708  29.841  1.00  0.00    -0.172 NA
ATOM     11  C   UNL A   1      41.507  40.220  27.880  1.00  0.00     0.025 A 
ATOM     12  C   UNL A   1      42.318  39.307  28.594  1.00  0.00     0.100 A 
BRANCH  11  13
ATOM     13  C   UNL A   1      41.394  40.211  26.450  1.00  0.00     0.072 C 
ATOM     14  C   UNL A   1      42.048  41.005  25.562  1.00  0.00     0.217 C 
ATOM     15  N   UNL A   1      41.494  41.410  24.376  1.00  0.00    -0.228 N 
ATOM     16  C   UNL A   1      43.412  41.672  25.669  1.00  0.00     0.386 C 
ATOM     17  C   UNL A   1      42.297  42.343  23.924  1.00  0.00     0.321 C 
ATOM     18  H   UNL A   1      40.670  41.074  23.956  1.00  0.00     0.313 HD
ATOM     19  N   UNL A   1      43.483  42.598  24.625  1.00  0.00    -0.149 N 
ATOM     20  O   UNL A   1      44.279  41.231  26.403  1.00  0.00    -0.236 OA
BRANCH  17  21
ATOM     21  S   UNL A   1      41.819  43.002  22.389  1.00  0.00    -0.055 SA
ATOM     22  H   UNL A   1      42.144  44.322  22.342  1.00  0.00     0.116 HD
ENDBRANCH  17  21
BRANCH  19  23
ATOM     23  C   UNL A   1      44.816  43.371  24.277  1.00  0.00     0.137 A 
ATOM     24  C   UNL A   1      45.902  42.914  22.898  1.00  0.00     0.052 A 
ATOM     25  C   UNL A   1      45.515  44.475  25.545  1.00  0.00     0.052 A 
ATOM     26  C   UNL A   1      47.695  43.331  22.879  1.00  0.00     0.004 A 
ATOM     27  C   UNL A   1      47.212  45.187  25.423  1.00  0.00     0.004 A 
ATOM     28  C   UNL A   1      48.388  44.523  24.148  1.00  0.00     0.000 A 
ENDBRANCH  19  23
ENDBRANCH  11  13
BRANCH  12  29
ATOM     29  C   UNL A   1      42.806  38.055  28.076  1.00  0.00     0.003 A 
ATOM     30  C   UNL A   1      44.111  37.936  27.572  1.00  0.00     0.011 A 
ATOM     31  C   UNL A   1      41.849  37.080  27.815  1.00  0.00     0.011 A 
ATOM     32  C   UNL A   1      44.445  36.841  26.787  1.00  0.00     0.016 A 
ATOM     33  C   UNL A   1      42.228  35.929  27.142  1.00  0.00     0.016 A 
ATOM     34  C   UNL A   1      43.525  35.813  26.628  1.00  0.00     0.018 A 
ATOM     35  Br  UNL A   1      44.126  34.282  25.695  1.00  0.00    -0.051 Br
ENDBRANCH  12  29
ENDBRANCH   7   8
ENDBRANCH   6   7
ENDBRANCH   4   6
ENDBRANCH   1   2
BRANCH   1  36
ATOM     36  C   UNL A   1      45.656  38.806  32.171  1.00  0.00     0.023 C 
BRANCH  36  37
ATOM     37  C   UNL A   1      46.990  38.062  32.072  1.00  0.00     0.023 C 
BRANCH  37  38
ATOM     38  C   UNL A   1      46.840  36.590  31.753  1.00  0.00     0.116 C 
BRANCH  38  39
ATOM     39  N   UNL A   1      46.921  36.213  30.349  1.00  0.00    -0.352 N 
ATOM     40  C   UNL A   1      46.125  35.253  29.739  1.00  0.00     0.251 C 
ATOM     41  H   UNL A   1      47.590  36.673  29.792  1.00  0.00     0.163 HD
ATOM     42  O   UNL A   1      46.432  34.720  28.681  1.00  0.00    -0.269 OA
BRANCH  40  43
ATOM     43  C   UNL A   1      44.787  35.021  30.320  1.00  0.00     0.039 A 
ATOM     44  C   UNL A   1      43.815  35.988  30.534  1.00  0.00     0.014 A 
ATOM     45  C   UNL A   1      44.603  33.779  30.901  1.00  0.00     0.014 A 
ATOM     46  C   UNL A   1      42.823  35.677  31.496  1.00  0.00     0.010 A 
ATOM     47  C   UNL A   1      43.370  33.401  31.293  1.00  0.00     0.010 A 
ATOM     48  C   UNL A   1      42.696  34.337  32.015  1.00  0.00    -0.014 A 
BRANCH  48  49
ATOM     49  C   UNL A   1      41.463  33.673  32.544  1.00  0.00     0.031 A 
ATOM     50  C   UNL A   1      41.941  33.321  34.009  1.00  0.00     0.074 A 
ATOM     51  C   UNL A   1      40.202  33.696  31.833  1.00  0.00     0.049 A 
ATOM     52  N   UNL A   1      41.956  32.174  34.580  1.00  0.00    -0.248 NA
ATOM     53  C   UNL A   1      42.900  34.102  34.894  1.00  0.00     0.031 C 
ATOM     54  C   UNL A   1      39.883  34.135  30.405  1.00  0.00     0.029 A 
ATOM     55  N   UNL A   1      38.859  33.258  32.139  1.00  0.00    -0.354 N 
ATOM     56  C   UNL A   1      41.928  32.501  35.961  1.00  0.00     0.074 A 
ATOM     57  C   UNL A   1      43.019  33.385  36.022  1.00  0.00     0.031 C 
ATOM     58  C   UNL A   1      38.538  34.195  30.120  1.00  0.00     0.029 A 
ATOM     59  C   UNL A   1      37.748  33.718  31.244  1.00  0.00     0.049 A 
ATOM     60  H   UNL A   1      38.678  32.677  32.912  1.00  0.00     0.167 HD
ATOM     61  C   UNL A   1      40.669  32.344  36.672  1.00  0.00     0.037 A 
ATOM     62  C   UNL A   1      36.363  33.410  31.222  1.00  0.00     0.037 A 
ATOM     63  C   UNL A   1      40.389  31.009  35.689  1.00  0.00     0.049 A 
ATOM     64  C   UNL A   1      36.168  32.234  32.097  1.00  0.00     0.074 A 
ATOM     65  C   UNL A   1      41.092  29.824  35.462  1.00  0.00     0.029 A 
ATOM     66  N   UNL A   1      39.727  31.283  34.527  1.00  0.00    -0.354 N 
ATOM     67  N   UNL A   1      36.679  31.077  31.788  1.00  0.00    -0.248 NA
ATOM     68  C   UNL A   1      36.038  32.606  33.499  1.00  0.00     0.031 C 
ATOM     69  C   UNL A   1      40.752  29.437  34.143  1.00  0.00     0.029 A 
ATOM     70  C   UNL A   1      39.628  30.167  33.791  1.00  0.00     0.049 A 
ATOM     71  H   UNL A   1      39.378  32.167  34.268  1.00  0.00     0.167 HD
ATOM     72  C   UNL A   1      37.473  30.823  32.877  1.00  0.00     0.074 A 
ATOM     73  C   UNL A   1      37.050  31.824  33.881  1.00  0.00     0.031 C 
ATOM     74  C   UNL A   1      38.667  30.165  32.753  1.00  0.00     0.037 A 
BRANCH  61  75
ATOM     75  C   UNL A   1      39.469  32.993  38.324  1.00  0.00     0.064 A 
ATOM     76  C   UNL A   1      39.915  33.030  39.921  1.00  0.00     0.173 A 
ATOM     77  C   UNL A   1      37.979  33.013  38.596  1.00  0.00     0.173 A 
ATOM     78  F   UNL A   1      41.210  33.182  40.318  1.00  0.00    -0.203 F 
ATOM     79  C   UNL A   1      39.198  32.660  41.081  1.00  0.00     0.198 A 
ATOM     80  C   UNL A   1      37.256  32.881  39.856  1.00  0.00     0.198 A 
ATOM     81  F   UNL A   1      37.076  33.001  37.614  1.00  0.00    -0.203 F 
ATOM     82  F   UNL A   1      39.871  32.253  42.171  1.00  0.00    -0.200 F 
ATOM     83  C   UNL A   1      37.853  32.605  41.056  1.00  0.00     0.200 A 
ATOM     84  F   UNL A   1      35.914  32.934  39.836  1.00  0.00    -0.200 F 
ATOM     85  F   UNL A   1      37.154  32.304  42.158  1.00  0.00    -0.200 F 
ENDBRANCH  61  75
BRANCH  62  86
ATOM     86  C   UNL A   1      35.051  34.189  30.907  1.00  0.00     0.064 A 
ATOM     87  C   UNL A   1      34.552  35.384  31.545  1.00  0.00     0.173 A 
ATOM     88  C   UNL A   1      34.446  33.927  29.675  1.00  0.00     0.173 A 
ATOM     89  F   UNL A   1      35.092  35.840  32.688  1.00  0.00    -0.203 F 
ATOM     90  C   UNL A   1      33.516  36.191  30.985  1.00  0.00     0.198 A 
ATOM     91  C   UNL A   1      33.443  34.738  29.111  1.00  0.00     0.198 A 
ATOM     92  F   UNL A   1      34.902  32.912  28.934  1.00  0.00    -0.203 F 
ATOM     93  F   UNL A   1      33.081  37.303  31.605  1.00  0.00    -0.200 F 
ATOM     94  C   UNL A   1      32.972  35.865  29.759  1.00  0.00     0.200 A 
ATOM     95  F   UNL A   1      32.972  34.436  27.894  1.00  0.00    -0.200 F 
ATOM     96  F   UNL A   1      32.035  36.637  29.184  1.00  0.00    -0.200 F 
ENDBRANCH  62  86
BRANCH  74  97
ATOM     97  C   UNL A   1      39.097  29.455  31.529  1.00  0.00     0.064 A 
ATOM     98  C   UNL A   1      40.218  29.795  30.757  1.00  0.00     0.173 A 
ATOM     99  C   UNL A   1      38.568  28.175  31.369  1.00  0.00     0.173 A 
ATOM    100  F   UNL A   1      40.940  30.883  31.032  1.00  0.00    -0.203 F 
ATOM    101  C   UNL A   1      40.703  28.942  29.773  1.00  0.00     0.198 A 
ATOM    102  C   UNL A   1      39.101  27.293  30.446  1.00  0.00     0.198 A 
ATOM    103  F   UNL A   1      37.636  27.730  32.228  1.00  0.00    -0.203 F 
ATOM    104  F   UNL A   1      41.762  29.301  29.031  1.00  0.00    -0.200 F 
ATOM    105  C   UNL A   1      40.137  27.690  29.615  1.00  0.00     0.200 A 
ATOM    106  F   UNL A   1      38.656  26.032  30.418  1.00  0.00    -0.200 F 
ATOM    107  F   UNL A   1      40.622  26.843  28.699  1.00  0.00    -0.200 F 
ENDBRANCH  74  97
ENDBRANCH  48  49
ENDBRANCH  40  43
ENDBRANCH  38  39
ENDBRANCH  37  38
ENDBRANCH  36  37
ENDBRANCH   1  36
TORSDOF 17
ENDMDL
