MODEL 1
REMARK VINA RESULT:     -11.6      0.000      0.000
REMARK SMILES CC#CC[C@H](C(=O)NCCCCNC(=O)c1ccc(-c2c3nc(c(-c4c(F)c(F)c(F)c(F)c4F)c4ccc([nH]4)c(-c4c(F)c(F)c(F)c(F)c4F)c4nc(c(-c5c(F)c(F)c(F)c(F)c5F)c5ccc2[nH]5)C=C4)C=C3)cc1)c1cccc(Br)c1
REMARK SMILES IDX 10 1 9 2 8 3 6 4 7 5 5 7 4 8 3 9 1 10 2 11 79 12 80 13 85 14
REMARK SMILES IDX 81 15 83 16 82 17 84 18 11 19 12 20 13 21 14 22 15 24 16 25
REMARK SMILES IDX 17 26 78 27 18 28 77 29 19 30 20 31 21 32 71 33 22 34 76 35
REMARK SMILES IDX 70 36 72 37 23 38 75 39 69 40 68 41 24 43 56 44 36 45 55 46
REMARK SMILES IDX 37 47 40 48 54 49 73 50 38 51 39 52 53 54 74 55 41 56 25 57
REMARK SMILES IDX 26 58 34 59 27 60 28 61 32 62 35 63 29 64 30 65 33 66 31 67
REMARK SMILES IDX 57 68 58 69 66 70 59 71 60 72 64 73 67 74 61 75 62 76 65 77
REMARK SMILES IDX 63 78 42 79 43 80 51 81 44 82 45 83 49 84 52 85 46 86 47 87
REMARK SMILES IDX 50 88 48 89
REMARK H PARENT 8 6 13 23 72 42 40 53
REMARK Flexibility Score: inf
ROOT
ATOM      1  C   UNL A   1      31.401  30.452  25.766  1.00  0.00     0.023 C 
ENDROOT
BRANCH   1   2
ATOM      2  C   UNL A   1      32.819  29.884  25.736  1.00  0.00     0.116 C 
BRANCH   2   3
ATOM      3  N   UNL A   1      33.287  29.703  24.376  1.00  0.00    -0.356 N 
ATOM      4  C   UNL A   1      33.114  28.646  23.529  1.00  0.00     0.228 C 
ATOM      5  O   UNL A   1      33.813  28.617  22.515  1.00  0.00    -0.274 OA
ATOM      6  H   UNL A   1      33.806  30.453  24.007  1.00  0.00     0.163 HD
BRANCH   4   7
ATOM      7  C   UNL A   1      32.120  27.533  23.894  1.00  0.00     0.120 C 
BRANCH   7   8
ATOM      8  C   UNL A   1      31.084  27.352  22.768  1.00  0.00     0.107 C 
BRANCH   8   9
ATOM      9  C   UNL A   1      29.977  28.322  22.830  1.00  0.00    -0.102 C 
ATOM     10  C   UNL A   1      28.272  30.541  23.206  1.00  0.00     0.107 C 
ATOM     11  C   UNL A   1      29.189  29.346  23.004  1.00  0.00    -0.107 C 
ENDBRANCH   8   9
ENDBRANCH   7   8
BRANCH   7  12
ATOM     12  C   UNL A   1      32.805  26.201  24.218  1.00  0.00    -0.034 A 
ATOM     13  C   UNL A   1      33.885  26.104  25.114  1.00  0.00     0.004 A 
ATOM     14  C   UNL A   1      32.368  25.023  23.585  1.00  0.00     0.020 A 
ATOM     15  C   UNL A   1      34.500  24.877  25.376  1.00  0.00     0.001 A 
ATOM     16  C   UNL A   1      33.000  23.803  23.835  1.00  0.00     0.018 A 
ATOM     17  C   UNL A   1      34.062  23.724  24.732  1.00  0.00     0.016 A 
ATOM     18  Br  UNL A   1      32.422  22.245  22.934  1.00  0.00    -0.051 Br
ENDBRANCH   7  12
ENDBRANCH   4   7
ENDBRANCH   2   3
ENDBRANCH   1   2
BRANCH   1  19
ATOM     19  C   UNL A   1      31.257  31.788  26.502  1.00  0.00     0.023 C 
BRANCH  19  20
ATOM     20  C   UNL A   1      32.565  32.472  26.887  1.00  0.00     0.116 C 
BRANCH  20  21
ATOM     21  N   UNL A   1      32.371  33.822  27.389  1.00  0.00    -0.352 N 
ATOM     22  C   UNL A   1      33.046  34.492  28.375  1.00  0.00     0.251 C 
ATOM     23  H   UNL A   1      31.647  34.330  26.956  1.00  0.00     0.163 HD
ATOM     24  O   UNL A   1      32.645  35.598  28.741  1.00  0.00    -0.269 OA
BRANCH  22  25
ATOM     25  C   UNL A   1      34.230  33.893  29.028  1.00  0.00     0.039 A 
ATOM     26  C   UNL A   1      34.027  32.901  29.992  1.00  0.00     0.014 A 
ATOM     27  C   UNL A   1      35.528  34.314  28.726  1.00  0.00     0.014 A 
ATOM     28  C   UNL A   1      35.122  32.299  30.614  1.00  0.00     0.010 A 
ATOM     29  C   UNL A   1      36.623  33.666  29.297  1.00  0.00     0.010 A 
ATOM     30  C   UNL A   1      36.431  32.657  30.254  1.00  0.00    -0.014 A 
BRANCH  30  31
ATOM     31  C   UNL A   1      37.600  31.986  30.877  1.00  0.00     0.031 A 
ATOM     32  C   UNL A   1      38.044  32.359  32.263  1.00  0.00     0.074 A 
ATOM     33  C   UNL A   1      38.288  31.064  30.175  1.00  0.00     0.049 A 
ATOM     34  N   UNL A   1      39.046  31.890  32.966  1.00  0.00    -0.248 NA
ATOM     35  C   UNL A   1      37.279  33.416  32.942  1.00  0.00     0.031 C 
ATOM     36  C   UNL A   1      37.992  30.655  28.801  1.00  0.00     0.029 A 
ATOM     37  N   UNL A   1      39.378  30.306  30.521  1.00  0.00    -0.354 N 
ATOM     38  C   UNL A   1      39.037  32.602  34.158  1.00  0.00     0.074 A 
ATOM     39  C   UNL A   1      37.964  33.569  34.066  1.00  0.00     0.031 C 
ATOM     40  C   UNL A   1      38.861  29.702  28.430  1.00  0.00     0.029 A 
ATOM     41  C   UNL A   1      39.789  29.450  29.529  1.00  0.00     0.049 A 
ATOM     42  H   UNL A   1      39.823  30.369  31.397  1.00  0.00     0.167 HD
ATOM     43  C   UNL A   1      39.834  32.447  35.243  1.00  0.00     0.037 A 
ATOM     44  C   UNL A   1      40.797  28.558  29.511  1.00  0.00     0.037 A 
ATOM     45  C   UNL A   1      40.885  31.467  35.346  1.00  0.00     0.049 A 
ATOM     46  C   UNL A   1      41.648  28.383  30.738  1.00  0.00     0.074 A 
ATOM     47  C   UNL A   1      41.714  31.198  36.421  1.00  0.00     0.029 A 
ATOM     48  N   UNL A   1      41.248  30.592  34.333  1.00  0.00    -0.354 N 
ATOM     49  N   UNL A   1      41.585  29.012  31.887  1.00  0.00    -0.248 NA
ATOM     50  C   UNL A   1      42.700  27.360  30.673  1.00  0.00     0.031 C 
ATOM     51  C   UNL A   1      42.602  30.183  36.047  1.00  0.00     0.029 A 
ATOM     52  C   UNL A   1      42.295  29.789  34.754  1.00  0.00     0.049 A 
ATOM     53  H   UNL A   1      40.823  30.547  33.445  1.00  0.00     0.167 HD
ATOM     54  C   UNL A   1      42.564  28.444  32.688  1.00  0.00     0.074 A 
ATOM     55  C   UNL A   1      43.198  27.407  31.901  1.00  0.00     0.031 C 
ATOM     56  C   UNL A   1      42.908  28.753  33.963  1.00  0.00     0.037 A 
BRANCH  43  57
ATOM     57  C   UNL A   1      39.595  33.357  36.413  1.00  0.00     0.064 A 
ATOM     58  C   UNL A   1      38.754  32.984  37.473  1.00  0.00     0.173 A 
ATOM     59  C   UNL A   1      40.239  34.601  36.493  1.00  0.00     0.173 A 
ATOM     60  F   UNL A   1      38.105  31.809  37.438  1.00  0.00    -0.203 F 
ATOM     61  C   UNL A   1      38.542  33.835  38.554  1.00  0.00     0.198 A 
ATOM     62  C   UNL A   1      40.047  35.437  37.590  1.00  0.00     0.198 A 
ATOM     63  F   UNL A   1      41.057  35.005  35.510  1.00  0.00    -0.203 F 
ATOM     64  F   UNL A   1      37.696  33.479  39.530  1.00  0.00    -0.200 F 
ATOM     65  C   UNL A   1      39.193  35.058  38.615  1.00  0.00     0.200 A 
ATOM     66  F   UNL A   1      40.687  36.613  37.654  1.00  0.00    -0.200 F 
ATOM     67  F   UNL A   1      38.993  35.873  39.659  1.00  0.00    -0.200 F 
ENDBRANCH  43  57
BRANCH  44  68
ATOM     68  C   UNL A   1      41.026  27.723  28.304  1.00  0.00     0.064 A 
ATOM     69  C   UNL A   1      40.392  26.481  28.159  1.00  0.00     0.173 A 
ATOM     70  C   UNL A   1      41.881  28.144  27.276  1.00  0.00     0.173 A 
ATOM     71  F   UNL A   1      39.581  26.027  29.125  1.00  0.00    -0.203 F 
ATOM     72  C   UNL A   1      40.621  25.682  27.041  1.00  0.00     0.198 A 
ATOM     73  C   UNL A   1      42.089  27.356  26.146  1.00  0.00     0.198 A 
ATOM     74  F   UNL A   1      42.506  29.328  27.365  1.00  0.00    -0.203 F 
ATOM     75  F   UNL A   1      40.036  24.480  26.948  1.00  0.00    -0.200 F 
ATOM     76  C   UNL A   1      41.465  26.123  26.032  1.00  0.00     0.200 A 
ATOM     77  F   UNL A   1      42.894  27.791  25.167  1.00  0.00    -0.200 F 
ATOM     78  F   UNL A   1      41.683  25.356  24.956  1.00  0.00    -0.200 F 
ENDBRANCH  44  68
BRANCH  56  79
ATOM     79  C   UNL A   1      43.990  27.929  34.598  1.00  0.00     0.064 A 
ATOM     80  C   UNL A   1      45.333  28.332  34.574  1.00  0.00     0.173 A 
ATOM     81  C   UNL A   1      43.675  26.730  35.254  1.00  0.00     0.173 A 
ATOM     82  F   UNL A   1      45.688  29.464  33.947  1.00  0.00    -0.203 F 
ATOM     83  C   UNL A   1      46.325  27.547  35.155  1.00  0.00     0.198 A 
ATOM     84  C   UNL A   1      44.666  25.962  35.859  1.00  0.00     0.198 A 
ATOM     85  F   UNL A   1      42.404  26.304  35.309  1.00  0.00    -0.203 F 
ATOM     86  F   UNL A   1      47.610  27.923  35.073  1.00  0.00    -0.200 F 
ATOM     87  C   UNL A   1      45.991  26.366  35.800  1.00  0.00     0.200 A 
ATOM     88  F   UNL A   1      44.338  24.827  36.491  1.00  0.00    -0.200 F 
ATOM     89  F   UNL A   1      46.948  25.612  36.359  1.00  0.00    -0.200 F 
ENDBRANCH  56  79
ENDBRANCH  30  31
ENDBRANCH  22  25
ENDBRANCH  20  21
ENDBRANCH  19  20
ENDBRANCH   1  19
TORSDOF 14
ENDMDL
MODEL 2
REMARK VINA RESULT:     -11.3      1.028      7.626
REMARK SMILES CC#CC[C@H](C(=O)NCCCCNC(=O)c1ccc(-c2c3nc(c(-c4c(F)c(F)c(F)c(F)c4F)c4ccc([nH]4)c(-c4c(F)c(F)c(F)c(F)c4F)c4nc(c(-c5c(F)c(F)c(F)c(F)c5F)c5ccc2[nH]5)C=C4)C=C3)cc1)c1cccc(Br)c1
REMARK SMILES IDX 10 1 9 2 8 3 6 4 7 5 5 7 4 8 3 9 1 10 2 11 79 12 80 13 85 14
REMARK SMILES IDX 81 15 83 16 82 17 84 18 11 19 12 20 13 21 14 22 15 24 16 25
REMARK SMILES IDX 17 26 78 27 18 28 77 29 19 30 20 31 21 32 71 33 22 34 76 35
REMARK SMILES IDX 70 36 72 37 23 38 75 39 69 40 68 41 24 43 56 44 36 45 55 46
REMARK SMILES IDX 37 47 40 48 54 49 73 50 38 51 39 52 53 54 74 55 41 56 25 57
REMARK SMILES IDX 26 58 34 59 27 60 28 61 32 62 35 63 29 64 30 65 33 66 31 67
REMARK SMILES IDX 57 68 58 69 66 70 59 71 60 72 64 73 67 74 61 75 62 76 65 77
REMARK SMILES IDX 63 78 42 79 43 80 51 81 44 82 45 83 49 84 52 85 46 86 47 87
REMARK SMILES IDX 50 88 48 89
REMARK H PARENT 8 6 13 23 72 42 40 53
REMARK Flexibility Score: inf
ROOT
ATOM      1  C   UNL A   1      31.406  30.766  26.156  1.00  0.00     0.023 C 
ENDROOT
BRANCH   1   2
ATOM      2  C   UNL A   1      32.816  30.185  26.063  1.00  0.00     0.116 C 
BRANCH   2   3
ATOM      3  N   UNL A   1      33.173  29.883  24.691  1.00  0.00    -0.356 N 
ATOM      4  C   UNL A   1      32.818  28.818  23.913  1.00  0.00     0.228 C 
ATOM      5  O   UNL A   1      33.444  28.653  22.865  1.00  0.00    -0.274 OA
ATOM      6  H   UNL A   1      33.759  30.542  24.255  1.00  0.00     0.163 HD
BRANCH   4   7
ATOM      7  C   UNL A   1      31.716  27.861  24.391  1.00  0.00     0.120 C 
BRANCH   7   8
ATOM      8  C   UNL A   1      30.759  27.525  23.231  1.00  0.00     0.107 C 
BRANCH   8   9
ATOM      9  C   UNL A   1      29.740  28.563  22.993  1.00  0.00    -0.102 C 
ATOM     10  C   UNL A   1      27.658  30.465  23.125  1.00  0.00     0.107 C 
ATOM     11  C   UNL A   1      28.779  29.441  23.054  1.00  0.00    -0.107 C 
ENDBRANCH   8   9
ENDBRANCH   7   8
BRANCH   7  12
ATOM     12  C   UNL A   1      32.269  26.579  25.025  1.00  0.00    -0.034 A 
ATOM     13  C   UNL A   1      33.647  26.348  25.183  1.00  0.00     0.004 A 
ATOM     14  C   UNL A   1      31.381  25.573  25.443  1.00  0.00     0.020 A 
ATOM     15  C   UNL A   1      34.121  25.162  25.749  1.00  0.00     0.001 A 
ATOM     16  C   UNL A   1      31.862  24.380  25.989  1.00  0.00     0.018 A 
ATOM     17  C   UNL A   1      33.228  24.172  26.147  1.00  0.00     0.016 A 
ATOM     18  Br  UNL A   1      30.646  23.025  26.500  1.00  0.00    -0.051 Br
ENDBRANCH   7  12
ENDBRANCH   4   7
ENDBRANCH   2   3
ENDBRANCH   1   2
BRANCH   1  19
ATOM     19  C   UNL A   1      31.344  32.258  26.501  1.00  0.00     0.023 C 
BRANCH  19  20
ATOM     20  C   UNL A   1      32.580  32.825  27.191  1.00  0.00     0.116 C 
BRANCH  20  21
ATOM     21  N   UNL A   1      32.404  34.201  27.625  1.00  0.00    -0.352 N 
ATOM     22  C   UNL A   1      33.064  34.901  28.601  1.00  0.00     0.251 C 
ATOM     23  H   UNL A   1      31.707  34.705  27.146  1.00  0.00     0.163 HD
ATOM     24  O   UNL A   1      32.679  36.031  28.903  1.00  0.00    -0.269 OA
BRANCH  22  25
ATOM     25  C   UNL A   1      34.211  34.304  29.319  1.00  0.00     0.039 A 
ATOM     26  C   UNL A   1      33.960  33.580  30.489  1.00  0.00     0.014 A 
ATOM     27  C   UNL A   1      35.525  34.473  28.874  1.00  0.00     0.014 A 
ATOM     28  C   UNL A   1      35.017  32.987  31.182  1.00  0.00     0.010 A 
ATOM     29  C   UNL A   1      36.573  33.824  29.528  1.00  0.00     0.010 A 
ATOM     30  C   UNL A   1      36.330  33.081  30.693  1.00  0.00    -0.014 A 
BRANCH  30  31
ATOM     31  C   UNL A   1      37.452  32.411  31.399  1.00  0.00     0.031 A 
ATOM     32  C   UNL A   1      38.185  31.268  30.753  1.00  0.00     0.074 A 
ATOM     33  C   UNL A   1      37.787  32.810  32.641  1.00  0.00     0.049 A 
ATOM     34  N   UNL A   1      39.182  30.556  31.217  1.00  0.00    -0.248 NA
ATOM     35  C   UNL A   1      37.722  30.853  29.420  1.00  0.00     0.031 C 
ATOM     36  C   UNL A   1      37.117  33.867  33.398  1.00  0.00     0.029 A 
ATOM     37  N   UNL A   1      38.775  32.369  33.486  1.00  0.00    -0.354 N 
ATOM     38  C   UNL A   1      39.454  29.606  30.242  1.00  0.00     0.074 A 
ATOM     39  C   UNL A   1      38.487  29.797  29.184  1.00  0.00     0.031 C 
ATOM     40  C   UNL A   1      37.729  34.013  34.584  1.00  0.00     0.029 A 
ATOM     41  C   UNL A   1      38.816  33.044  34.681  1.00  0.00     0.049 A 
ATOM     42  H   UNL A   1      39.394  31.638  33.258  1.00  0.00     0.167 HD
ATOM     43  C   UNL A   1      40.437  28.673  30.220  1.00  0.00     0.037 A 
ATOM     44  C   UNL A   1      39.644  32.902  35.733  1.00  0.00     0.037 A 
ATOM     45  C   UNL A   1      41.416  28.499  31.262  1.00  0.00     0.049 A 
ATOM     46  C   UNL A   1      40.746  31.881  35.671  1.00  0.00     0.074 A 
ATOM     47  C   UNL A   1      42.481  27.617  31.309  1.00  0.00     0.029 A 
ATOM     48  N   UNL A   1      41.449  29.228  32.441  1.00  0.00    -0.354 N 
ATOM     49  N   UNL A   1      41.038  31.035  34.713  1.00  0.00    -0.248 NA
ATOM     50  C   UNL A   1      41.646  31.807  36.830  1.00  0.00     0.031 C 
ATOM     51  C   UNL A   1      43.139  27.788  32.532  1.00  0.00     0.029 A 
ATOM     52  C   UNL A   1      42.510  28.808  33.227  1.00  0.00     0.049 A 
ATOM     53  H   UNL A   1      40.812  29.939  32.685  1.00  0.00     0.167 HD
ATOM     54  C   UNL A   1      42.168  30.351  35.138  1.00  0.00     0.074 A 
ATOM     55  C   UNL A   1      42.520  30.892  36.435  1.00  0.00     0.031 C 
ATOM     56  C   UNL A   1      42.854  29.365  34.510  1.00  0.00     0.037 A 
BRANCH  43  57
ATOM     57  C   UNL A   1      40.506  27.770  29.022  1.00  0.00     0.064 A 
ATOM     58  C   UNL A   1      41.360  28.047  27.943  1.00  0.00     0.173 A 
ATOM     59  C   UNL A   1      39.736  26.598  28.966  1.00  0.00     0.173 A 
ATOM     60  F   UNL A   1      42.108  29.161  27.943  1.00  0.00    -0.203 F 
ATOM     61  C   UNL A   1      41.418  27.200  26.839  1.00  0.00     0.198 A 
ATOM     62  C   UNL A   1      39.818  25.739  27.874  1.00  0.00     0.198 A 
ATOM     63  F   UNL A   1      38.908  26.283  29.973  1.00  0.00    -0.203 F 
ATOM     64  F   UNL A   1      42.203  27.511  25.799  1.00  0.00    -0.200 F 
ATOM     65  C   UNL A   1      40.652  26.044  26.808  1.00  0.00     0.200 A 
ATOM     66  F   UNL A   1      39.088  24.616  27.849  1.00  0.00    -0.200 F 
ATOM     67  F   UNL A   1      40.714  25.228  25.748  1.00  0.00    -0.200 F 
ENDBRANCH  43  57
BRANCH  44  68
ATOM     68  C   UNL A   1      39.494  33.785  36.919  1.00  0.00     0.064 A 
ATOM     69  C   UNL A   1      38.724  33.383  38.020  1.00  0.00     0.173 A 
ATOM     70  C   UNL A   1      40.109  35.043  36.975  1.00  0.00     0.173 A 
ATOM     71  F   UNL A   1      38.100  32.197  38.002  1.00  0.00    -0.203 F 
ATOM     72  C   UNL A   1      38.559  34.216  39.123  1.00  0.00     0.198 A 
ATOM     73  C   UNL A   1      39.965  35.864  38.092  1.00  0.00     0.198 A 
ATOM     74  F   UNL A   1      40.861  35.470  35.950  1.00  0.00    -0.203 F 
ATOM     75  F   UNL A   1      37.782  33.826  40.144  1.00  0.00    -0.200 F 
ATOM     76  C   UNL A   1      39.184  35.453  39.162  1.00  0.00     0.200 A 
ATOM     77  F   UNL A   1      40.581  37.053  38.131  1.00  0.00    -0.200 F 
ATOM     78  F   UNL A   1      39.026  36.253  40.225  1.00  0.00    -0.200 F 
ENDBRANCH  44  68
BRANCH  56  79
ATOM     79  C   UNL A   1      44.079  28.837  35.200  1.00  0.00     0.064 A 
ATOM     80  C   UNL A   1      44.015  27.754  36.090  1.00  0.00     0.173 A 
ATOM     81  C   UNL A   1      45.334  29.413  34.954  1.00  0.00     0.173 A 
ATOM     82  F   UNL A   1      42.836  27.178  36.370  1.00  0.00    -0.203 F 
ATOM     83  C   UNL A   1      45.159  27.289  36.732  1.00  0.00     0.198 A 
ATOM     84  C   UNL A   1      46.480  28.927  35.577  1.00  0.00     0.198 A 
ATOM     85  F   UNL A   1      45.448  30.448  34.107  1.00  0.00    -0.203 F 
ATOM     86  F   UNL A   1      45.068  26.289  37.620  1.00  0.00    -0.200 F 
ATOM     87  C   UNL A   1      46.391  27.873  36.472  1.00  0.00     0.200 A 
ATOM     88  F   UNL A   1      47.670  29.485  35.315  1.00  0.00    -0.200 F 
ATOM     89  F   UNL A   1      47.490  27.423  37.092  1.00  0.00    -0.200 F 
ENDBRANCH  56  79
ENDBRANCH  30  31
ENDBRANCH  22  25
ENDBRANCH  20  21
ENDBRANCH  19  20
ENDBRANCH   1  19
TORSDOF 14
ENDMDL
MODEL 3
REMARK VINA RESULT:     -11.3      5.631     11.192
REMARK SMILES CC#CC[C@H](C(=O)NCCCCNC(=O)c1ccc(-c2c3nc(c(-c4c(F)c(F)c(F)c(F)c4F)c4ccc([nH]4)c(-c4c(F)c(F)c(F)c(F)c4F)c4nc(c(-c5c(F)c(F)c(F)c(F)c5F)c5ccc2[nH]5)C=C4)C=C3)cc1)c1cccc(Br)c1
REMARK SMILES IDX 10 1 9 2 8 3 6 4 7 5 5 7 4 8 3 9 1 10 2 11 79 12 80 13 85 14
REMARK SMILES IDX 81 15 83 16 82 17 84 18 11 19 12 20 13 21 14 22 15 24 16 25
REMARK SMILES IDX 17 26 78 27 18 28 77 29 19 30 20 31 21 32 71 33 22 34 76 35
REMARK SMILES IDX 70 36 72 37 23 38 75 39 69 40 68 41 24 43 56 44 36 45 55 46
REMARK SMILES IDX 37 47 40 48 54 49 73 50 38 51 39 52 53 54 74 55 41 56 25 57
REMARK SMILES IDX 26 58 34 59 27 60 28 61 32 62 35 63 29 64 30 65 33 66 31 67
REMARK SMILES IDX 57 68 58 69 66 70 59 71 60 72 64 73 67 74 61 75 62 76 65 77
REMARK SMILES IDX 63 78 42 79 43 80 51 81 44 82 45 83 49 84 52 85 46 86 47 87
REMARK SMILES IDX 50 88 48 89
REMARK H PARENT 8 6 13 23 72 42 40 53
REMARK Flexibility Score: inf
ROOT
ATOM      1  C   UNL A   1      37.197  20.875  24.527  1.00  0.00     0.023 C 
ENDROOT
BRANCH   1   2
ATOM      2  C   UNL A   1      36.977  21.971  25.569  1.00  0.00     0.116 C 
BRANCH   2   3
ATOM      3  N   UNL A   1      35.917  21.616  26.492  1.00  0.00    -0.356 N 
ATOM      4  C   UNL A   1      34.581  21.456  26.263  1.00  0.00     0.228 C 
ATOM      5  O   UNL A   1      33.843  21.398  27.249  1.00  0.00    -0.274 OA
ATOM      6  H   UNL A   1      36.203  21.470  27.423  1.00  0.00     0.163 HD
BRANCH   4   7
ATOM      7  C   UNL A   1      34.056  21.412  24.820  1.00  0.00     0.120 C 
BRANCH   7   8
ATOM      8  C   UNL A   1      32.803  20.518  24.735  1.00  0.00     0.107 C 
BRANCH   8   9
ATOM      9  C   UNL A   1      33.105  19.120  24.381  1.00  0.00    -0.102 C 
ATOM     10  C   UNL A   1      34.030  16.693  23.272  1.00  0.00     0.107 C 
ATOM     11  C   UNL A   1      33.531  18.000  23.869  1.00  0.00    -0.107 C 
ENDBRANCH   8   9
ENDBRANCH   7   8
BRANCH   7  12
ATOM     12  C   UNL A   1      33.768  22.803  24.244  1.00  0.00    -0.034 A 
ATOM     13  C   UNL A   1      33.518  23.018  22.877  1.00  0.00     0.004 A 
ATOM     14  C   UNL A   1      33.778  23.922  25.095  1.00  0.00     0.020 A 
ATOM     15  C   UNL A   1      33.276  24.301  22.379  1.00  0.00     0.001 A 
ATOM     16  C   UNL A   1      33.556  25.205  24.588  1.00  0.00     0.018 A 
ATOM     17  C   UNL A   1      33.301  25.398  23.234  1.00  0.00     0.016 A 
ATOM     18  Br  UNL A   1      33.621  26.697  25.748  1.00  0.00    -0.051 Br
ENDBRANCH   7  12
ENDBRANCH   4   7
ENDBRANCH   2   3
ENDBRANCH   1   2
BRANCH   1  19
ATOM     19  C   UNL A   1      38.051  19.695  25.001  1.00  0.00     0.023 C 
BRANCH  19  20
ATOM     20  C   UNL A   1      39.124  20.032  26.031  1.00  0.00     0.116 C 
BRANCH  20  21
ATOM     21  N   UNL A   1      40.271  19.142  25.965  1.00  0.00    -0.352 N 
ATOM     22  C   UNL A   1      41.607  19.428  26.076  1.00  0.00     0.251 C 
ATOM     23  H   UNL A   1      40.056  18.192  25.818  1.00  0.00     0.163 HD
ATOM     24  O   UNL A   1      42.436  18.543  25.866  1.00  0.00    -0.269 OA
BRANCH  22  25
ATOM     25  C   UNL A   1      42.065  20.793  26.414  1.00  0.00     0.039 A 
ATOM     26  C   UNL A   1      42.241  21.712  25.375  1.00  0.00     0.014 A 
ATOM     27  C   UNL A   1      42.352  21.167  27.730  1.00  0.00     0.014 A 
ATOM     28  C   UNL A   1      42.654  23.015  25.660  1.00  0.00     0.010 A 
ATOM     29  C   UNL A   1      42.698  22.487  28.021  1.00  0.00     0.010 A 
ATOM     30  C   UNL A   1      42.861  23.422  26.987  1.00  0.00    -0.014 A 
BRANCH  30  31
ATOM     31  C   UNL A   1      43.253  24.820  27.300  1.00  0.00     0.031 A 
ATOM     32  C   UNL A   1      44.651  25.299  27.028  1.00  0.00     0.074 A 
ATOM     33  C   UNL A   1      42.355  25.650  27.867  1.00  0.00     0.049 A 
ATOM     34  N   UNL A   1      45.179  26.479  27.243  1.00  0.00    -0.248 NA
ATOM     35  C   UNL A   1      45.589  24.318  26.463  1.00  0.00     0.031 C 
ATOM     36  C   UNL A   1      40.985  25.289  28.233  1.00  0.00     0.029 A 
ATOM     37  N   UNL A   1      42.463  26.967  28.237  1.00  0.00    -0.354 N 
ATOM     38  C   UNL A   1      46.507  26.376  26.852  1.00  0.00     0.074 A 
ATOM     39  C   UNL A   1      46.720  25.007  26.435  1.00  0.00     0.031 C 
ATOM     40  C   UNL A   1      40.371  26.365  28.749  1.00  0.00     0.029 A 
ATOM     41  C   UNL A   1      41.310  27.483  28.774  1.00  0.00     0.049 A 
ATOM     42  H   UNL A   1      43.288  27.492  28.128  1.00  0.00     0.167 HD
ATOM     43  C   UNL A   1      47.457  27.342  26.821  1.00  0.00     0.037 A 
ATOM     44  C   UNL A   1      41.038  28.721  29.227  1.00  0.00     0.037 A 
ATOM     45  C   UNL A   1      47.239  28.710  27.211  1.00  0.00     0.049 A 
ATOM     46  C   UNL A   1      42.100  29.782  29.152  1.00  0.00     0.074 A 
ATOM     47  C   UNL A   1      48.123  29.774  27.167  1.00  0.00     0.029 A 
ATOM     48  N   UNL A   1      46.045  29.205  27.714  1.00  0.00    -0.354 N 
ATOM     49  N   UNL A   1      43.333  29.691  28.715  1.00  0.00    -0.248 NA
ATOM     50  C   UNL A   1      41.728  31.125  29.619  1.00  0.00     0.031 C 
ATOM     51  C   UNL A   1      47.475  30.905  27.676  1.00  0.00     0.029 A 
ATOM     52  C   UNL A   1      46.173  30.555  27.995  1.00  0.00     0.049 A 
ATOM     53  H   UNL A   1      45.227  28.674  27.852  1.00  0.00     0.167 HD
ATOM     54  C   UNL A   1      43.872  30.965  28.824  1.00  0.00     0.074 A 
ATOM     55  C   UNL A   1      42.828  31.816  29.355  1.00  0.00     0.031 C 
ATOM     56  C   UNL A   1      45.120  31.392  28.512  1.00  0.00     0.037 A 
BRANCH  43  57
ATOM     57  C   UNL A   1      48.825  26.950  26.338  1.00  0.00     0.064 A 
ATOM     58  C   UNL A   1      49.800  26.457  27.219  1.00  0.00     0.173 A 
ATOM     59  C   UNL A   1      49.154  27.038  24.977  1.00  0.00     0.173 A 
ATOM     60  F   UNL A   1      49.539  26.365  28.532  1.00  0.00    -0.203 F 
ATOM     61  C   UNL A   1      51.063  26.094  26.760  1.00  0.00     0.198 A 
ATOM     62  C   UNL A   1      50.408  26.647  24.517  1.00  0.00     0.198 A 
ATOM     63  F   UNL A   1      48.257  27.498  24.092  1.00  0.00    -0.203 F 
ATOM     64  F   UNL A   1      51.994  25.672  27.626  1.00  0.00    -0.200 F 
ATOM     65  C   UNL A   1      51.365  26.183  25.409  1.00  0.00     0.200 A 
ATOM     66  F   UNL A   1      50.695  26.721  23.210  1.00  0.00    -0.200 F 
ATOM     67  F   UNL A   1      52.579  25.828  24.968  1.00  0.00    -0.200 F 
ENDBRANCH  43  57
BRANCH  44  68
ATOM     68  C   UNL A   1      39.683  29.038  29.749  1.00  0.00     0.064 A 
ATOM     69  C   UNL A   1      38.679  29.515  28.895  1.00  0.00     0.173 A 
ATOM     70  C   UNL A   1      39.366  28.876  31.104  1.00  0.00     0.173 A 
ATOM     71  F   UNL A   1      38.942  29.706  27.594  1.00  0.00    -0.203 F 
ATOM     72  C   UNL A   1      37.415  29.838  29.382  1.00  0.00     0.198 A 
ATOM     73  C   UNL A   1      38.093  29.173  31.585  1.00  0.00     0.198 A 
ATOM     74  F   UNL A   1      40.291  28.416  31.961  1.00  0.00    -0.203 F 
ATOM     75  F   UNL A   1      36.486  30.334  28.552  1.00  0.00    -0.200 F 
ATOM     76  C   UNL A   1      37.120  29.661  30.725  1.00  0.00     0.200 A 
ATOM     77  F   UNL A   1      37.808  28.989  32.882  1.00  0.00    -0.200 F 
ATOM     78  F   UNL A   1      35.903  29.969  31.192  1.00  0.00    -0.200 F 
ENDBRANCH  44  68
BRANCH  56  79
ATOM     79  C   UNL A   1      45.409  32.853  28.697  1.00  0.00     0.064 A 
ATOM     80  C   UNL A   1      45.960  33.352  29.887  1.00  0.00     0.173 A 
ATOM     81  C   UNL A   1      45.147  33.763  27.662  1.00  0.00     0.173 A 
ATOM     82  F   UNL A   1      46.215  32.524  30.912  1.00  0.00    -0.203 F 
ATOM     83  C   UNL A   1      46.207  34.712  30.045  1.00  0.00     0.198 A 
ATOM     84  C   UNL A   1      45.422  35.119  27.814  1.00  0.00     0.198 A 
ATOM     85  F   UNL A   1      44.626  33.336  26.502  1.00  0.00    -0.203 F 
ATOM     86  F   UNL A   1      46.682  35.175  31.211  1.00  0.00    -0.200 F 
ATOM     87  C   UNL A   1      45.942  35.594  29.008  1.00  0.00     0.200 A 
ATOM     88  F   UNL A   1      45.176  35.968  26.806  1.00  0.00    -0.200 F 
ATOM     89  F   UNL A   1      46.180  36.904  29.163  1.00  0.00    -0.200 F 
ENDBRANCH  56  79
ENDBRANCH  30  31
ENDBRANCH  22  25
ENDBRANCH  20  21
ENDBRANCH  19  20
ENDBRANCH   1  19
TORSDOF 14
ENDMDL
