MODEL 1
REMARK VINA RESULT:     -12.6      0.000      0.000
REMARK SMILES CCCc1cc(OC(F)(F)F)cc2c1O[C@H](C(F)(F)F)C(C(=O)NCCCCNC(=O)c1ccc(-c3c4nc(c(-c5c(F)c(F)c(F)c(F)c5F)c5ccc([nH]5)c(-c5c(F)c(F)c(F)c(F)c5F)c5nc(c(-c6c(F)c(F)c(F)c(F)c6F)c6ccc3[nH]6)C=C5)C=C4)cc1)=C2
REMARK SMILES IDX 26 1 25 2 24 3 22 4 23 5 21 7 4 8 5 9 14 10 6 11 13 12 15 13
REMARK SMILES IDX 12 14 95 15 16 16 3 17 2 18 1 19 7 20 8 21 9 22 10 23 11 24
REMARK SMILES IDX 17 25 18 26 19 27 20 28 27 29 28 30 29 31 30 32 31 34 32 35
REMARK SMILES IDX 33 36 94 37 34 38 93 39 35 40 36 41 37 42 87 43 38 44 92 45
REMARK SMILES IDX 86 46 88 47 39 48 91 49 85 50 84 51 40 53 72 54 52 55 71 56
REMARK SMILES IDX 53 57 56 58 70 59 89 60 54 61 55 62 69 64 90 65 57 66 41 67
REMARK SMILES IDX 42 68 50 69 43 70 44 71 48 72 51 73 45 74 46 75 49 76 47 77
REMARK SMILES IDX 73 78 74 79 82 80 75 81 76 82 80 83 83 84 77 85 78 86 81 87
REMARK SMILES IDX 79 88 58 89 59 90 67 91 60 92 61 93 65 94 68 95 62 96 63 97
REMARK SMILES IDX 66 98 64 99
REMARK H PARENT 24 6 29 33 88 52 56 63
REMARK Flexibility Score: inf
ROOT
ATOM      1  C   UNL A   1      31.735  30.543  26.847  1.00  0.00     0.023 C 
ENDROOT
BRANCH   1   2
ATOM      2  C   UNL A   1      32.996  30.057  26.130  1.00  0.00     0.116 C 
BRANCH   2   3
ATOM      3  N   UNL A   1      32.742  29.884  24.717  1.00  0.00    -0.352 N 
ATOM      4  C   UNL A   1      32.752  28.788  23.921  1.00  0.00     0.251 C 
ATOM      5  O   UNL A   1      32.514  28.956  22.723  1.00  0.00    -0.270 OA
ATOM      6  H   UNL A   1      32.522  30.719  24.244  1.00  0.00     0.163 HD
BRANCH   4   7
ATOM      7  C   UNL A   1      32.941  27.396  24.429  1.00  0.00     0.067 C 
ATOM      8  C   UNL A   1      32.868  23.717  26.491  1.00  0.00    -0.002 A 
ATOM      9  C   UNL A   1      34.045  22.928  26.466  1.00  0.00     0.054 A 
ATOM     10  C   UNL A   1      32.882  24.941  25.805  1.00  0.00     0.131 A 
ATOM     11  C   UNL A   1      35.203  23.354  25.812  1.00  0.00     0.130 A 
ATOM     12  C   UNL A   1      34.040  25.374  25.146  1.00  0.00     0.021 A 
ATOM     13  O   UNL A   1      31.769  25.735  25.845  1.00  0.00    -0.475 OA
ATOM     14  C   UNL A   1      35.190  24.580  25.151  1.00  0.00     0.058 A 
ATOM     15  C   UNL A   1      34.080  26.698  24.534  1.00  0.00     0.025 C 
ATOM     16  C   UNL A   1      31.630  26.733  24.801  1.00  0.00     0.314 C 
BRANCH   8  17
ATOM     17  C   UNL A   1      31.682  23.125  27.236  1.00  0.00     0.039 C 
BRANCH  17  18
ATOM     18  C   UNL A   1      30.434  22.676  26.464  1.00  0.00     0.001 C 
ATOM     19  C   UNL A   1      29.182  22.627  27.333  1.00  0.00     0.004 C 
ENDBRANCH  17  18
ENDBRANCH   8  17
BRANCH  11  20
ATOM     20  O   UNL A   1      36.397  22.696  25.746  1.00  0.00    -0.406 OA
BRANCH  20  21
ATOM     21  C   UNL A   1      36.500  21.586  24.871  1.00  0.00     0.573 C 
ATOM     22  F   UNL A   1      37.775  21.397  24.472  1.00  0.00    -0.132 F 
ATOM     23  F   UNL A   1      36.037  20.463  25.457  1.00  0.00    -0.132 F 
ATOM     24  F   UNL A   1      35.749  21.832  23.774  1.00  0.00    -0.132 F 
ENDBRANCH  20  21
ENDBRANCH  11  20
BRANCH  16  25
ATOM     25  C   UNL A   1      30.881  26.167  23.574  1.00  0.00     0.429 C 
ATOM     26  F   UNL A   1      31.707  25.811  22.560  1.00  0.00    -0.167 F 
ATOM     27  F   UNL A   1      30.166  25.056  23.883  1.00  0.00    -0.167 F 
ATOM     28  F   UNL A   1      30.003  27.072  23.076  1.00  0.00    -0.167 F 
ENDBRANCH  16  25
ENDBRANCH   4   7
ENDBRANCH   2   3
ENDBRANCH   1   2
BRANCH   1  29
ATOM     29  C   UNL A   1      31.537  32.060  26.806  1.00  0.00     0.023 C 
BRANCH  29  30
ATOM     30  C   UNL A   1      32.758  32.860  27.234  1.00  0.00     0.116 C 
BRANCH  30  31
ATOM     31  N   UNL A   1      32.450  34.233  27.604  1.00  0.00    -0.352 N 
ATOM     32  C   UNL A   1      33.038  34.981  28.595  1.00  0.00     0.251 C 
ATOM     33  H   UNL A   1      31.739  34.676  27.086  1.00  0.00     0.163 HD
ATOM     34  O   UNL A   1      32.635  36.100  28.877  1.00  0.00    -0.269 OA
BRANCH  32  35
ATOM     35  C   UNL A   1      34.145  34.370  29.353  1.00  0.00     0.039 A 
ATOM     36  C   UNL A   1      33.843  33.544  30.438  1.00  0.00     0.014 A 
ATOM     37  C   UNL A   1      35.462  34.541  28.923  1.00  0.00     0.014 A 
ATOM     38  C   UNL A   1      34.869  32.832  31.060  1.00  0.00     0.010 A 
ATOM     39  C   UNL A   1      36.471  33.784  29.501  1.00  0.00     0.010 A 
ATOM     40  C   UNL A   1      36.181  32.921  30.572  1.00  0.00    -0.014 A 
BRANCH  40  41
ATOM     41  C   UNL A   1      37.291  32.146  31.174  1.00  0.00     0.031 A 
ATOM     42  C   UNL A   1      37.776  32.508  32.547  1.00  0.00     0.074 A 
ATOM     43  C   UNL A   1      37.919  31.199  30.453  1.00  0.00     0.049 A 
ATOM     44  N   UNL A   1      38.835  32.089  33.191  1.00  0.00    -0.248 NA
ATOM     45  C   UNL A   1      36.981  33.507  33.279  1.00  0.00     0.031 C 
ATOM     46  C   UNL A   1      37.557  30.785  29.098  1.00  0.00     0.029 A 
ATOM     47  N   UNL A   1      39.013  30.428  30.758  1.00  0.00    -0.354 N 
ATOM     48  C   UNL A   1      38.850  32.798  34.384  1.00  0.00     0.074 A 
ATOM     49  C   UNL A   1      37.719  33.699  34.362  1.00  0.00     0.031 C 
ATOM     50  C   UNL A   1      38.409  29.829  28.689  1.00  0.00     0.029 A 
ATOM     51  C   UNL A   1      39.397  29.593  29.737  1.00  0.00     0.049 A 
ATOM     52  H   UNL A   1      39.478  30.469  31.624  1.00  0.00     0.167 HD
ATOM     53  C   UNL A   1      39.723  32.692  35.413  1.00  0.00     0.037 A 
ATOM     54  C   UNL A   1      40.440  28.745  29.656  1.00  0.00     0.037 A 
ATOM     55  C   UNL A   1      40.820  31.763  35.446  1.00  0.00     0.049 A 
ATOM     56  C   UNL A   1      41.381  28.627  30.825  1.00  0.00     0.074 A 
ATOM     57  C   UNL A   1      41.733  31.540  36.462  1.00  0.00     0.029 A 
ATOM     58  N   UNL A   1      41.143  30.892  34.417  1.00  0.00    -0.354 N 
ATOM     59  N   UNL A   1      41.368  29.274  31.965  1.00  0.00    -0.248 NA
ATOM     60  C   UNL A   1      42.481  27.661  30.697  1.00  0.00     0.031 C 
ATOM     61  C   UNL A   1      42.625  30.550  36.035  1.00  0.00     0.029 A 
ATOM     62  C   UNL A   1      42.245  30.131  34.771  1.00  0.00     0.049 A 
ATOM     63  H   UNL A   1      40.661  30.824  33.561  1.00  0.00     0.167 HD
ATOM     64  C   UNL A   1      42.431  28.770  32.702  1.00  0.00     0.074 A 
ATOM     65  C   UNL A   1      43.068  27.762  31.881  1.00  0.00     0.031 C 
ATOM     66  C   UNL A   1      42.842  29.112  33.946  1.00  0.00     0.037 A 
BRANCH  53  67
ATOM     67  C   UNL A   1      39.523  33.607  36.584  1.00  0.00     0.064 A 
ATOM     68  C   UNL A   1      38.782  33.210  37.708  1.00  0.00     0.173 A 
ATOM     69  C   UNL A   1      40.091  34.889  36.590  1.00  0.00     0.173 A 
ATOM     70  F   UNL A   1      38.205  32.000  37.742  1.00  0.00    -0.203 F 
ATOM     71  C   UNL A   1      38.590  34.076  38.781  1.00  0.00     0.198 A 
ATOM     72  C   UNL A   1      39.921  35.742  37.678  1.00  0.00     0.198 A 
ATOM     73  F   UNL A   1      40.810  35.316  35.542  1.00  0.00    -0.203 F 
ATOM     74  F   UNL A   1      37.834  33.696  39.819  1.00  0.00    -0.200 F 
ATOM     75  C   UNL A   1      39.165  35.338  38.768  1.00  0.00     0.200 A 
ATOM     76  F   UNL A   1      40.485  36.958  37.668  1.00  0.00    -0.200 F 
ATOM     77  F   UNL A   1      38.981  36.170  39.802  1.00  0.00    -0.200 F 
ENDBRANCH  53  67
BRANCH  54  78
ATOM     78  C   UNL A   1      40.634  27.920  28.437  1.00  0.00     0.064 A 
ATOM     79  C   UNL A   1      40.047  26.653  28.330  1.00  0.00     0.173 A 
ATOM     80  C   UNL A   1      41.405  28.376  27.358  1.00  0.00     0.173 A 
ATOM     81  F   UNL A   1      39.317  26.166  29.346  1.00  0.00    -0.203 F 
ATOM     82  C   UNL A   1      40.238  25.863  27.198  1.00  0.00     0.198 A 
ATOM     83  C   UNL A   1      41.576  27.596  26.217  1.00  0.00     0.198 A 
ATOM     84  F   UNL A   1      41.984  29.585  27.409  1.00  0.00    -0.203 F 
ATOM     85  F   UNL A   1      39.698  24.638  27.141  1.00  0.00    -0.200 F 
ATOM     86  C   UNL A   1      40.999  26.337  26.141  1.00  0.00     0.200 A 
ATOM     87  F   UNL A   1      42.302  28.062  25.191  1.00  0.00    -0.200 F 
ATOM     88  F   UNL A   1      41.181  25.579  25.051  1.00  0.00    -0.200 F 
ENDBRANCH  54  78
BRANCH  66  89
ATOM     89  C   UNL A   1      43.998  28.352  34.523  1.00  0.00     0.064 A 
ATOM     90  C   UNL A   1      43.816  27.148  35.215  1.00  0.00     0.173 A 
ATOM     91  C   UNL A   1      45.311  28.810  34.326  1.00  0.00     0.173 A 
ATOM     92  F   UNL A   1      42.579  26.679  35.440  1.00  0.00    -0.203 F 
ATOM     93  C   UNL A   1      44.906  26.432  35.700  1.00  0.00     0.198 A 
ATOM     94  C   UNL A   1      46.399  28.080  34.791  1.00  0.00     0.198 A 
ATOM     95  F   UNL A   1      45.534  29.956  33.665  1.00  0.00    -0.203 F 
ATOM     96  F   UNL A   1      44.710  25.298  36.386  1.00  0.00    -0.200 F 
ATOM     97  C   UNL A   1      46.197  26.895  35.481  1.00  0.00     0.200 A 
ATOM     98  F   UNL A   1      47.645  28.522  34.570  1.00  0.00    -0.200 F 
ATOM     99  F   UNL A   1      47.246  26.198  35.940  1.00  0.00    -0.200 F 
ENDBRANCH  66  89
ENDBRANCH  40  41
ENDBRANCH  32  35
ENDBRANCH  30  31
ENDBRANCH  29  30
ENDBRANCH   1  29
TORSDOF 16
ENDMDL
MODEL 2
REMARK VINA RESULT:     -12.6      3.336      4.841
REMARK SMILES CCCc1cc(OC(F)(F)F)cc2c1O[C@H](C(F)(F)F)C(C(=O)NCCCCNC(=O)c1ccc(-c3c4nc(c(-c5c(F)c(F)c(F)c(F)c5F)c5ccc([nH]5)c(-c5c(F)c(F)c(F)c(F)c5F)c5nc(c(-c6c(F)c(F)c(F)c(F)c6F)c6ccc3[nH]6)C=C5)C=C4)cc1)=C2
REMARK SMILES IDX 26 1 25 2 24 3 22 4 23 5 21 7 4 8 5 9 14 10 6 11 13 12 15 13
REMARK SMILES IDX 12 14 95 15 16 16 3 17 2 18 1 19 7 20 8 21 9 22 10 23 11 24
REMARK SMILES IDX 17 25 18 26 19 27 20 28 27 29 28 30 29 31 30 32 31 34 32 35
REMARK SMILES IDX 33 36 94 37 34 38 93 39 35 40 36 41 37 42 87 43 38 44 92 45
REMARK SMILES IDX 86 46 88 47 39 48 91 49 85 50 84 51 40 53 72 54 52 55 71 56
REMARK SMILES IDX 53 57 56 58 70 59 89 60 54 61 55 62 69 64 90 65 57 66 41 67
REMARK SMILES IDX 42 68 50 69 43 70 44 71 48 72 51 73 45 74 46 75 49 76 47 77
REMARK SMILES IDX 73 78 74 79 82 80 75 81 76 82 80 83 83 84 77 85 78 86 81 87
REMARK SMILES IDX 79 88 58 89 59 90 67 91 60 92 61 93 65 94 68 95 62 96 63 97
REMARK SMILES IDX 66 98 64 99
REMARK H PARENT 24 6 29 33 88 52 56 63
REMARK Flexibility Score: inf
ROOT
ATOM      1  C   UNL A   1      33.038  28.664  24.928  1.00  0.00     0.023 C 
ENDROOT
BRANCH   1   2
ATOM      2  C   UNL A   1      32.095  27.609  24.343  1.00  0.00     0.116 C 
BRANCH   2   3
ATOM      3  N   UNL A   1      31.141  27.174  25.339  1.00  0.00    -0.352 N 
ATOM      4  C   UNL A   1      30.915  25.967  25.911  1.00  0.00     0.251 C 
ATOM      5  O   UNL A   1      29.997  25.892  26.730  1.00  0.00    -0.270 OA
ATOM      6  H   UNL A   1      30.543  27.887  25.660  1.00  0.00     0.163 HD
BRANCH   4   7
ATOM      7  C   UNL A   1      31.767  24.764  25.672  1.00  0.00     0.067 C 
ATOM      8  C   UNL A   1      33.421  20.909  25.225  1.00  0.00    -0.002 A 
ATOM      9  C   UNL A   1      34.813  20.763  25.451  1.00  0.00     0.054 A 
ATOM     10  C   UNL A   1      32.863  22.188  25.368  1.00  0.00     0.131 A 
ATOM     11  C   UNL A   1      35.613  21.839  25.837  1.00  0.00     0.130 A 
ATOM     12  C   UNL A   1      33.660  23.273  25.754  1.00  0.00     0.021 A 
ATOM     13  O   UNL A   1      31.516  22.347  25.189  1.00  0.00    -0.475 OA
ATOM     14  C   UNL A   1      35.027  23.095  25.984  1.00  0.00     0.058 A 
ATOM     15  C   UNL A   1      33.049  24.574  26.012  1.00  0.00     0.025 C 
ATOM     16  C   UNL A   1      31.041  23.685  24.894  1.00  0.00     0.314 C 
BRANCH   8  17
ATOM     17  C   UNL A   1      32.676  19.653  24.803  1.00  0.00     0.039 C 
BRANCH  17  18
ATOM     18  C   UNL A   1      33.424  18.320  24.675  1.00  0.00     0.001 C 
ATOM     19  C   UNL A   1      33.020  17.527  23.436  1.00  0.00     0.004 C 
ENDBRANCH  17  18
ENDBRANCH   8  17
BRANCH  11  20
ATOM     20  O   UNL A   1      36.950  21.811  26.110  1.00  0.00    -0.406 OA
BRANCH  20  21
ATOM     21  C   UNL A   1      37.839  21.482  25.056  1.00  0.00     0.573 C 
ATOM     22  F   UNL A   1      37.949  20.144  24.912  1.00  0.00    -0.132 F 
ATOM     23  F   UNL A   1      37.434  22.031  23.892  1.00  0.00    -0.132 F 
ATOM     24  F   UNL A   1      39.061  21.974  25.354  1.00  0.00    -0.132 F 
ENDBRANCH  20  21
ENDBRANCH  11  20
BRANCH  16  25
ATOM     25  C   UNL A   1      31.026  23.958  23.372  1.00  0.00     0.429 C 
ATOM     26  F   UNL A   1      29.994  24.742  22.979  1.00  0.00    -0.167 F 
ATOM     27  F   UNL A   1      32.155  24.587  22.958  1.00  0.00    -0.167 F 
ATOM     28  F   UNL A   1      30.942  22.802  22.670  1.00  0.00    -0.167 F 
ENDBRANCH  16  25
ENDBRANCH   4   7
ENDBRANCH   2   3
ENDBRANCH   1   2
BRANCH   1  29
ATOM     29  C   UNL A   1      34.006  28.122  25.981  1.00  0.00     0.023 C 
BRANCH  29  30
ATOM     30  C   UNL A   1      33.640  28.487  27.412  1.00  0.00     0.116 C 
BRANCH  30  31
ATOM     31  N   UNL A   1      33.580  29.921  27.646  1.00  0.00    -0.352 N 
ATOM     32  C   UNL A   1      34.582  30.729  28.129  1.00  0.00     0.251 C 
ATOM     33  H   UNL A   1      32.725  30.363  27.435  1.00  0.00     0.163 HD
ATOM     34  O   UNL A   1      34.389  31.912  28.370  1.00  0.00    -0.269 OA
BRANCH  32  35
ATOM     35  C   UNL A   1      35.892  30.111  28.400  1.00  0.00     0.039 A 
ATOM     36  C   UNL A   1      36.891  30.194  27.427  1.00  0.00     0.014 A 
ATOM     37  C   UNL A   1      36.149  29.544  29.650  1.00  0.00     0.014 A 
ATOM     38  C   UNL A   1      38.180  29.758  27.734  1.00  0.00     0.010 A 
ATOM     39  C   UNL A   1      37.446  29.171  29.973  1.00  0.00     0.010 A 
ATOM     40  C   UNL A   1      38.472  29.278  29.019  1.00  0.00    -0.014 A 
BRANCH  40  41
ATOM     41  C   UNL A   1      39.838  28.850  29.399  1.00  0.00     0.031 A 
ATOM     42  C   UNL A   1      40.691  29.770  30.222  1.00  0.00     0.074 A 
ATOM     43  C   UNL A   1      40.338  27.694  28.923  1.00  0.00     0.049 A 
ATOM     44  N   UNL A   1      41.962  29.681  30.517  1.00  0.00    -0.248 NA
ATOM     45  C   UNL A   1      40.032  30.974  30.750  1.00  0.00     0.031 C 
ATOM     46  C   UNL A   1      39.614  26.736  28.088  1.00  0.00     0.029 A 
ATOM     47  N   UNL A   1      41.587  27.142  29.058  1.00  0.00    -0.354 N 
ATOM     48  C   UNL A   1      42.260  30.831  31.235  1.00  0.00     0.074 A 
ATOM     49  C   UNL A   1      41.049  31.620  31.299  1.00  0.00     0.031 C 
ATOM     50  C   UNL A   1      40.429  25.709  27.791  1.00  0.00     0.029 A 
ATOM     51  C   UNL A   1      41.740  25.957  28.381  1.00  0.00     0.049 A 
ATOM     52  H   UNL A   1      42.306  27.555  29.590  1.00  0.00     0.167 HD
ATOM     53  C   UNL A   1      43.436  31.187  31.802  1.00  0.00     0.037 A 
ATOM     54  C   UNL A   1      42.825  25.170  28.244  1.00  0.00     0.037 A 
ATOM     55  C   UNL A   1      44.623  30.376  31.771  1.00  0.00     0.049 A 
ATOM     56  C   UNL A   1      44.114  25.576  28.907  1.00  0.00     0.074 A 
ATOM     57  C   UNL A   1      45.852  30.622  32.357  1.00  0.00     0.029 A 
ATOM     58  N   UNL A   1      44.722  29.154  31.124  1.00  0.00    -0.354 N 
ATOM     59  N   UNL A   1      44.377  26.647  29.614  1.00  0.00    -0.248 NA
ATOM     60  C   UNL A   1      45.255  24.663  28.754  1.00  0.00     0.031 C 
ATOM     61  C   UNL A   1      46.704  29.557  32.044  1.00  0.00     0.029 A 
ATOM     62  C   UNL A   1      45.994  28.632  31.294  1.00  0.00     0.049 A 
ATOM     63  H   UNL A   1      43.997  28.721  30.619  1.00  0.00     0.167 HD
ATOM     64  C   UNL A   1      45.699  26.522  30.020  1.00  0.00     0.074 A 
ATOM     65  C   UNL A   1      46.183  25.269  29.481  1.00  0.00     0.031 C 
ATOM     66  C   UNL A   1      46.443  27.368  30.771  1.00  0.00     0.037 A 
BRANCH  53  67
ATOM     67  C   UNL A   1      43.490  32.511  32.503  1.00  0.00     0.064 A 
ATOM     68  C   UNL A   1      43.187  32.633  33.868  1.00  0.00     0.173 A 
ATOM     69  C   UNL A   1      43.863  33.670  31.807  1.00  0.00     0.173 A 
ATOM     70  F   UNL A   1      42.809  31.556  34.573  1.00  0.00    -0.203 F 
ATOM     71  C   UNL A   1      43.226  33.871  34.502  1.00  0.00     0.198 A 
ATOM     72  C   UNL A   1      43.929  34.903  32.452  1.00  0.00     0.198 A 
ATOM     73  F   UNL A   1      44.164  33.608  30.501  1.00  0.00    -0.203 F 
ATOM     74  F   UNL A   1      42.881  33.972  35.793  1.00  0.00    -0.200 F 
ATOM     75  C   UNL A   1      43.603  35.003  33.796  1.00  0.00     0.200 A 
ATOM     76  F   UNL A   1      44.301  35.994  31.769  1.00  0.00    -0.200 F 
ATOM     77  F   UNL A   1      43.641  36.195  34.408  1.00  0.00    -0.200 F 
ENDBRANCH  53  67
BRANCH  54  78
ATOM     78  C   UNL A   1      42.732  23.907  27.469  1.00  0.00     0.064 A 
ATOM     79  C   UNL A   1      42.325  22.717  28.088  1.00  0.00     0.173 A 
ATOM     80  C   UNL A   1      43.047  23.859  26.104  1.00  0.00     0.173 A 
ATOM     81  F   UNL A   1      42.034  22.710  29.398  1.00  0.00    -0.203 F 
ATOM     82  C   UNL A   1      42.253  21.523  27.375  1.00  0.00     0.198 A 
ATOM     83  C   UNL A   1      42.951  22.669  25.386  1.00  0.00     0.198 A 
ATOM     84  F   UNL A   1      43.436  24.972  25.464  1.00  0.00    -0.203 F 
ATOM     85  F   UNL A   1      41.900  20.392  28.001  1.00  0.00    -0.200 F 
ATOM     86  C   UNL A   1      42.562  21.500  26.024  1.00  0.00     0.200 A 
ATOM     87  F   UNL A   1      43.239  22.652  24.077  1.00  0.00    -0.200 F 
ATOM     88  F   UNL A   1      42.491  20.352  25.337  1.00  0.00    -0.200 F 
ENDBRANCH  54  78
BRANCH  66  89
ATOM     89  C   UNL A   1      47.841  26.944  31.106  1.00  0.00     0.064 A 
ATOM     90  C   UNL A   1      48.119  26.134  32.216  1.00  0.00     0.173 A 
ATOM     91  C   UNL A   1      48.907  27.304  30.267  1.00  0.00     0.173 A 
ATOM     92  F   UNL A   1      47.134  25.776  33.054  1.00  0.00    -0.203 F 
ATOM     93  C   UNL A   1      49.417  25.711  32.482  1.00  0.00     0.198 A 
ATOM     94  C   UNL A   1      50.200  26.859  30.523  1.00  0.00     0.198 A 
ATOM     95  F   UNL A   1      48.688  28.074  29.190  1.00  0.00    -0.203 F 
ATOM     96  F   UNL A   1      49.667  24.963  33.566  1.00  0.00    -0.200 F 
ATOM     97  C   UNL A   1      50.455  26.066  31.632  1.00  0.00     0.200 A 
ATOM     98  F   UNL A   1      51.199  27.195  29.695  1.00  0.00    -0.200 F 
ATOM     99  F   UNL A   1      51.702  25.647  31.884  1.00  0.00    -0.200 F 
ENDBRANCH  66  89
ENDBRANCH  40  41
ENDBRANCH  32  35
ENDBRANCH  30  31
ENDBRANCH  29  30
ENDBRANCH   1  29
TORSDOF 16
ENDMDL
MODEL 3
REMARK VINA RESULT:     -12.6      1.957      7.705
REMARK SMILES CCCc1cc(OC(F)(F)F)cc2c1O[C@H](C(F)(F)F)C(C(=O)NCCCCNC(=O)c1ccc(-c3c4nc(c(-c5c(F)c(F)c(F)c(F)c5F)c5ccc([nH]5)c(-c5c(F)c(F)c(F)c(F)c5F)c5nc(c(-c6c(F)c(F)c(F)c(F)c6F)c6ccc3[nH]6)C=C5)C=C4)cc1)=C2
REMARK SMILES IDX 26 1 25 2 24 3 22 4 23 5 21 7 4 8 5 9 14 10 6 11 13 12 15 13
REMARK SMILES IDX 12 14 95 15 16 16 3 17 2 18 1 19 7 20 8 21 9 22 10 23 11 24
REMARK SMILES IDX 17 25 18 26 19 27 20 28 27 29 28 30 29 31 30 32 31 34 32 35
REMARK SMILES IDX 33 36 94 37 34 38 93 39 35 40 36 41 37 42 87 43 38 44 92 45
REMARK SMILES IDX 86 46 88 47 39 48 91 49 85 50 84 51 40 53 72 54 52 55 71 56
REMARK SMILES IDX 53 57 56 58 70 59 89 60 54 61 55 62 69 64 90 65 57 66 41 67
REMARK SMILES IDX 42 68 50 69 43 70 44 71 48 72 51 73 45 74 46 75 49 76 47 77
REMARK SMILES IDX 73 78 74 79 82 80 75 81 76 82 80 83 83 84 77 85 78 86 81 87
REMARK SMILES IDX 79 88 58 89 59 90 67 91 60 92 61 93 65 94 68 95 62 96 63 97
REMARK SMILES IDX 66 98 64 99
REMARK H PARENT 24 6 29 33 88 52 56 63
REMARK Flexibility Score: inf
ROOT
ATOM      1  C   UNL A   1      31.626  27.592  24.665  1.00  0.00     0.023 C 
ENDROOT
BRANCH   1   2
ATOM      2  C   UNL A   1      31.880  27.017  26.061  1.00  0.00     0.116 C 
BRANCH   2   3
ATOM      3  N   UNL A   1      30.763  26.203  26.485  1.00  0.00    -0.352 N 
ATOM      4  C   UNL A   1      30.550  24.865  26.447  1.00  0.00     0.251 C 
ATOM      5  O   UNL A   1      29.468  24.452  26.868  1.00  0.00    -0.270 OA
ATOM      6  H   UNL A   1      30.018  26.715  26.874  1.00  0.00     0.163 HD
BRANCH   4   7
ATOM      7  C   UNL A   1      31.579  23.874  26.012  1.00  0.00     0.067 C 
ATOM      8  C   UNL A   1      33.794  20.485  24.827  1.00  0.00    -0.002 A 
ATOM      9  C   UNL A   1      35.177  20.464  25.136  1.00  0.00     0.054 A 
ATOM     10  C   UNL A   1      33.050  21.610  25.213  1.00  0.00     0.131 A 
ATOM     11  C   UNL A   1      35.790  21.506  25.834  1.00  0.00     0.130 A 
ATOM     12  C   UNL A   1      33.659  22.659  25.913  1.00  0.00     0.021 A 
ATOM     13  O   UNL A   1      31.707  21.636  24.956  1.00  0.00    -0.475 OA
ATOM     14  C   UNL A   1      35.022  22.604  26.217  1.00  0.00     0.058 A 
ATOM     15  C   UNL A   1      32.854  23.770  26.412  1.00  0.00     0.025 C 
ATOM     16  C   UNL A   1      31.061  22.935  24.940  1.00  0.00     0.314 C 
BRANCH   8  17
ATOM     17  C   UNL A   1      33.263  19.286  24.057  1.00  0.00     0.039 C 
BRANCH  17  18
ATOM     18  C   UNL A   1      33.771  17.876  24.381  1.00  0.00     0.001 C 
ATOM     19  C   UNL A   1      33.850  16.973  23.154  1.00  0.00     0.004 C 
ENDBRANCH  17  18
ENDBRANCH   8  17
BRANCH  11  20
ATOM     20  O   UNL A   1      37.099  21.581  26.212  1.00  0.00    -0.406 OA
BRANCH  20  21
ATOM     21  C   UNL A   1      37.967  22.404  25.452  1.00  0.00     0.573 C 
ATOM     22  F   UNL A   1      37.516  22.552  24.188  1.00  0.00    -0.132 F 
ATOM     23  F   UNL A   1      38.111  23.617  26.026  1.00  0.00    -0.132 F 
ATOM     24  F   UNL A   1      39.182  21.815  25.398  1.00  0.00    -0.132 F 
ENDBRANCH  20  21
ENDBRANCH  11  20
BRANCH  16  25
ATOM     25  C   UNL A   1      31.095  23.567  23.530  1.00  0.00     0.429 C 
ATOM     26  F   UNL A   1      29.941  24.194  23.196  1.00  0.00    -0.167 F 
ATOM     27  F   UNL A   1      32.076  24.498  23.413  1.00  0.00    -0.167 F 
ATOM     28  F   UNL A   1      31.330  22.629  22.580  1.00  0.00    -0.167 F 
ENDBRANCH  16  25
ENDBRANCH   4   7
ENDBRANCH   2   3
ENDBRANCH   1   2
BRANCH   1  29
ATOM     29  C   UNL A   1      32.682  28.596  24.200  1.00  0.00     0.023 C 
BRANCH  29  30
ATOM     30  C   UNL A   1      33.450  29.263  25.331  1.00  0.00     0.116 C 
BRANCH  30  31
ATOM     31  N   UNL A   1      32.753  30.401  25.911  1.00  0.00    -0.352 N 
ATOM     32  C   UNL A   1      33.171  31.189  26.957  1.00  0.00     0.251 C 
ATOM     33  H   UNL A   1      31.884  30.632  25.509  1.00  0.00     0.163 HD
ATOM     34  O   UNL A   1      32.458  32.066  27.421  1.00  0.00    -0.269 OA
BRANCH  32  35
ATOM     35  C   UNL A   1      34.493  30.907  27.545  1.00  0.00     0.039 A 
ATOM     36  C   UNL A   1      35.408  31.954  27.679  1.00  0.00     0.014 A 
ATOM     37  C   UNL A   1      34.777  29.634  28.044  1.00  0.00     0.014 A 
ATOM     38  C   UNL A   1      36.595  31.737  28.379  1.00  0.00     0.010 A 
ATOM     39  C   UNL A   1      35.928  29.438  28.793  1.00  0.00     0.010 A 
ATOM     40  C   UNL A   1      36.845  30.489  28.969  1.00  0.00    -0.014 A 
BRANCH  40  41
ATOM     41  C   UNL A   1      38.071  30.232  29.759  1.00  0.00     0.031 A 
ATOM     42  C   UNL A   1      39.118  29.310  29.206  1.00  0.00     0.074 A 
ATOM     43  C   UNL A   1      38.191  30.740  30.999  1.00  0.00     0.049 A 
ATOM     44  N   UNL A   1      40.174  28.807  29.791  1.00  0.00    -0.248 NA
ATOM     45  C   UNL A   1      38.928  28.863  27.817  1.00  0.00     0.031 C 
ATOM     46  C   UNL A   1      37.223  31.620  31.653  1.00  0.00     0.029 A 
ATOM     47  N   UNL A   1      39.174  30.566  31.941  1.00  0.00    -0.354 N 
ATOM     48  C   UNL A   1      40.752  27.961  28.855  1.00  0.00     0.074 A 
ATOM     49  C   UNL A   1      39.912  27.988  27.678  1.00  0.00     0.031 C 
ATOM     50  C   UNL A   1      37.664  31.917  32.888  1.00  0.00     0.029 A 
ATOM     51  C   UNL A   1      38.923  31.216  33.124  1.00  0.00     0.049 A 
ATOM     52  H   UNL A   1      39.983  30.027  31.784  1.00  0.00     0.167 HD
ATOM     53  C   UNL A   1      41.892  27.239  28.965  1.00  0.00     0.037 A 
ATOM     54  C   UNL A   1      39.626  31.231  34.272  1.00  0.00     0.037 A 
ATOM     55  C   UNL A   1      42.744  27.251  30.123  1.00  0.00     0.049 A 
ATOM     56  C   UNL A   1      40.904  30.440  34.360  1.00  0.00     0.074 A 
ATOM     57  C   UNL A   1      43.947  26.595  30.317  1.00  0.00     0.029 A 
ATOM     58  N   UNL A   1      42.486  27.969  31.281  1.00  0.00    -0.354 N 
ATOM     59  N   UNL A   1      41.463  29.671  33.458  1.00  0.00    -0.248 NA
ATOM     60  C   UNL A   1      41.649  30.520  35.624  1.00  0.00     0.031 C 
ATOM     61  C   UNL A   1      44.404  26.897  31.604  1.00  0.00     0.029 A 
ATOM     62  C   UNL A   1      43.505  27.770  32.197  1.00  0.00     0.049 A 
ATOM     63  H   UNL A   1      41.695  28.536  31.430  1.00  0.00     0.167 HD
ATOM     64  C   UNL A   1      42.639  29.205  34.029  1.00  0.00     0.074 A 
ATOM     65  C   UNL A   1      42.715  29.779  35.355  1.00  0.00     0.031 C 
ATOM     66  C   UNL A   1      43.572  28.377  33.501  1.00  0.00     0.037 A 
BRANCH  53  67
ATOM     67  C   UNL A   1      42.276  26.377  27.801  1.00  0.00     0.064 A 
ATOM     68  C   UNL A   1      43.213  26.805  26.847  1.00  0.00     0.173 A 
ATOM     69  C   UNL A   1      41.714  25.101  27.643  1.00  0.00     0.173 A 
ATOM     70  F   UNL A   1      43.766  28.023  26.945  1.00  0.00    -0.203 F 
ATOM     71  C   UNL A   1      43.549  26.001  25.762  1.00  0.00     0.198 A 
ATOM     72  C   UNL A   1      42.074  24.288  26.571  1.00  0.00     0.198 A 
ATOM     73  F   UNL A   1      40.815  24.644  28.527  1.00  0.00    -0.203 F 
ATOM     74  F   UNL A   1      44.406  26.452  24.836  1.00  0.00    -0.200 F 
ATOM     75  C   UNL A   1      42.985  24.741  25.629  1.00  0.00     0.200 A 
ATOM     76  F   UNL A   1      41.535  23.068  26.448  1.00  0.00    -0.200 F 
ATOM     77  F   UNL A   1      43.310  23.967  24.584  1.00  0.00    -0.200 F 
ENDBRANCH  53  67
BRANCH  54  78
ATOM     78  C   UNL A   1      39.153  32.042  35.423  1.00  0.00     0.064 A 
ATOM     79  C   UNL A   1      39.471  33.403  35.517  1.00  0.00     0.173 A 
ATOM     80  C   UNL A   1      38.379  31.480  36.447  1.00  0.00     0.173 A 
ATOM     81  F   UNL A   1      40.228  33.980  34.570  1.00  0.00    -0.203 F 
ATOM     82  C   UNL A   1      39.049  34.169  36.601  1.00  0.00     0.198 A 
ATOM     83  C   UNL A   1      37.936  32.252  37.519  1.00  0.00     0.198 A 
ATOM     84  F   UNL A   1      38.043  30.182  36.401  1.00  0.00    -0.203 F 
ATOM     85  F   UNL A   1      39.402  35.459  36.685  1.00  0.00    -0.200 F 
ATOM     86  C   UNL A   1      38.278  33.594  37.599  1.00  0.00     0.200 A 
ATOM     87  F   UNL A   1      37.180  31.696  38.477  1.00  0.00    -0.200 F 
ATOM     88  F   UNL A   1      37.869  34.330  38.641  1.00  0.00    -0.200 F 
ENDBRANCH  54  78
BRANCH  66  89
ATOM     89  C   UNL A   1      44.785  28.086  34.333  1.00  0.00     0.064 A 
ATOM     90  C   UNL A   1      44.845  26.972  35.181  1.00  0.00     0.173 A 
ATOM     91  C   UNL A   1      45.922  28.902  34.230  1.00  0.00     0.173 A 
ATOM     92  F   UNL A   1      43.778  26.172  35.322  1.00  0.00    -0.203 F 
ATOM     93  C   UNL A   1      45.998  26.692  35.908  1.00  0.00     0.198 A 
ATOM     94  C   UNL A   1      47.081  28.605  34.939  1.00  0.00     0.198 A 
ATOM     95  F   UNL A   1      45.912  29.977  33.426  1.00  0.00    -0.203 F 
ATOM     96  F   UNL A   1      46.026  25.640  36.737  1.00  0.00    -0.200 F 
ATOM     97  C   UNL A   1      47.117  27.503  35.780  1.00  0.00     0.200 A 
ATOM     98  F   UNL A   1      48.164  29.383  34.807  1.00  0.00    -0.200 F 
ATOM     99  F   UNL A   1      48.230  27.224  36.473  1.00  0.00    -0.200 F 
ENDBRANCH  66  89
ENDBRANCH  40  41
ENDBRANCH  32  35
ENDBRANCH  30  31
ENDBRANCH  29  30
ENDBRANCH   1  29
TORSDOF 16
ENDMDL
