MODEL 1
REMARK VINA RESULT:     -12.4      0.000      0.000
REMARK SMILES O=C(NCCCCNC(=O)[C@H]1[C@@H]2C[C@H]3C[C@@H](C2)C[C@]1(n1ncc(N2CCN(c4ccc(F)cc4)CC2)c(Cl)c1=O)C3)c1ccc(-c2c3nc(c(-c4c(F)c(F)c(F)c(F)c4F)c4ccc([nH]4)c(-c4c(F)c(F)c(F)c(F)c4F)c4nc(c(-c5c(F)c(F)c(F)c(F)c5F)c5ccc2[nH]5)C=C4)C=C3)cc1
REMARK SMILES IDX 6 1 5 2 4 3 3 4 1 5 2 6 42 8 43 9 104 10 44 11 103 12 45 13
REMARK SMILES IDX 46 14 47 15 97 16 48 17 102 18 96 19 98 20 49 21 101 22
REMARK SMILES IDX 95 23 94 24 50 26 82 27 62 28 81 29 63 30 66 31 80 32 99 33
REMARK SMILES IDX 64 34 65 35 79 37 100 38 67 39 51 40 52 41 60 42 53 43 54 44
REMARK SMILES IDX 58 45 61 46 55 47 56 48 59 49 57 50 83 51 84 52 92 53 85 54
REMARK SMILES IDX 86 55 90 56 93 57 87 58 88 59 91 60 89 61 68 62 69 63 77 64
REMARK SMILES IDX 70 65 71 66 75 67 78 68 72 69 73 70 76 71 74 72 7 73 8 74
REMARK SMILES IDX 9 75 10 77 11 78 12 79 19 80 17 81 13 82 41 83 18 84 16 85
REMARK SMILES IDX 14 86 15 87 20 88 21 89 39 90 22 91 37 92 40 93 23 94 38 95
REMARK SMILES IDX 24 96 25 97 36 98 26 99 35 100 27 101 28 102 29 103 34 104
REMARK SMILES IDX 30 105 33 106 31 107 32 108
REMARK H PARENT 3 7 98 25 66 36 8 76
REMARK Flexibility Score: inf
ROOT
ATOM      1  C   UNL A   1      33.817  30.636  27.639  1.00  0.00     0.023 C 
ENDROOT
BRANCH   1   2
ATOM      2  C   UNL A   1      32.731  31.720  27.623  1.00  0.00     0.023 C 
BRANCH   2   3
ATOM      3  C   UNL A   1      33.041  33.030  26.897  1.00  0.00     0.116 C 
BRANCH   3   4
ATOM      4  N   UNL A   1      32.638  34.228  27.613  1.00  0.00    -0.352 N 
ATOM      5  O   UNL A   1      32.539  35.785  29.226  1.00  0.00    -0.269 OA
ATOM      6  C   UNL A   1      33.098  34.784  28.782  1.00  0.00     0.251 C 
ATOM      7  H   UNL A   1      31.907  34.729  27.184  1.00  0.00     0.163 HD
BRANCH   6   8
ATOM      8  C   UNL A   1      34.232  34.201  29.541  1.00  0.00     0.039 A 
ATOM      9  C   UNL A   1      35.531  34.434  29.073  1.00  0.00     0.014 A 
ATOM     10  C   UNL A   1      34.042  33.367  30.645  1.00  0.00     0.014 A 
ATOM     11  C   UNL A   1      36.632  33.874  29.731  1.00  0.00     0.010 A 
ATOM     12  C   UNL A   1      35.144  32.869  31.346  1.00  0.00     0.010 A 
ATOM     13  C   UNL A   1      36.452  33.101  30.888  1.00  0.00    -0.014 A 
BRANCH  13  14
ATOM     14  C   UNL A   1      37.611  32.476  31.586  1.00  0.00     0.031 A 
ATOM     15  C   UNL A   1      38.342  31.323  30.947  1.00  0.00     0.074 A 
ATOM     16  C   UNL A   1      38.004  32.924  32.795  1.00  0.00     0.049 A 
ATOM     17  N   UNL A   1      39.330  30.603  31.417  1.00  0.00    -0.248 NA
ATOM     18  C   UNL A   1      37.893  30.916  29.607  1.00  0.00     0.031 C 
ATOM     19  C   UNL A   1      37.384  34.026  33.531  1.00  0.00     0.029 A 
ATOM     20  N   UNL A   1      39.021  32.507  33.621  1.00  0.00    -0.354 N 
ATOM     21  C   UNL A   1      39.610  29.657  30.438  1.00  0.00     0.074 A 
ATOM     22  C   UNL A   1      38.653  29.856  29.373  1.00  0.00     0.031 C 
ATOM     23  C   UNL A   1      38.051  34.218  34.682  1.00  0.00     0.029 A 
ATOM     24  C   UNL A   1      39.117  33.225  34.789  1.00  0.00     0.049 A 
ATOM     25  H   UNL A   1      39.626  31.763  33.396  1.00  0.00     0.167 HD
ATOM     26  C   UNL A   1      40.594  28.728  30.414  1.00  0.00     0.037 A 
ATOM     27  C   UNL A   1      39.964  33.096  35.831  1.00  0.00     0.037 A 
ATOM     28  C   UNL A   1      41.570  28.549  31.456  1.00  0.00     0.049 A 
ATOM     29  C   UNL A   1      41.019  32.021  35.798  1.00  0.00     0.074 A 
ATOM     30  C   UNL A   1      42.624  27.653  31.503  1.00  0.00     0.029 A 
ATOM     31  N   UNL A   1      41.617  29.283  32.631  1.00  0.00    -0.354 N 
ATOM     32  N   UNL A   1      41.292  31.156  34.853  1.00  0.00    -0.248 NA
ATOM     33  C   UNL A   1      41.887  31.905  36.981  1.00  0.00     0.031 C 
ATOM     34  C   UNL A   1      43.282  27.814  32.724  1.00  0.00     0.029 A 
ATOM     35  C   UNL A   1      42.671  28.846  33.417  1.00  0.00     0.049 A 
ATOM     36  H   UNL A   1      40.993  30.007  32.871  1.00  0.00     0.167 HD
ATOM     37  C   UNL A   1      42.375  30.417  35.310  1.00  0.00     0.074 A 
ATOM     38  C   UNL A   1      42.722  30.944  36.612  1.00  0.00     0.031 C 
ATOM     39  C   UNL A   1      43.020  29.390  34.704  1.00  0.00     0.037 A 
BRANCH  26  40
ATOM     40  C   UNL A   1      40.693  27.839  29.208  1.00  0.00     0.064 A 
ATOM     41  C   UNL A   1      39.880  26.703  29.072  1.00  0.00     0.173 A 
ATOM     42  C   UNL A   1      41.541  28.171  28.141  1.00  0.00     0.173 A 
ATOM     43  F   UNL A   1      39.060  26.336  30.067  1.00  0.00    -0.203 F 
ATOM     44  C   UNL A   1      39.922  25.927  27.916  1.00  0.00     0.198 A 
ATOM     45  C   UNL A   1      41.557  27.411  26.975  1.00  0.00     0.198 A 
ATOM     46  F   UNL A   1      42.333  29.252  28.218  1.00  0.00    -0.203 F 
ATOM     47  F   UNL A   1      39.159  24.830  27.821  1.00  0.00    -0.200 F 
ATOM     48  C   UNL A   1      40.750  26.289  26.864  1.00  0.00     0.200 A 
ATOM     49  F   UNL A   1      42.346  27.771  25.953  1.00  0.00    -0.200 F 
ATOM     50  F   UNL A   1      40.772  25.554  25.744  1.00  0.00    -0.200 F 
ENDBRANCH  26  40
BRANCH  27  51
ATOM     51  C   UNL A   1      39.867  34.024  36.990  1.00  0.00     0.064 A 
ATOM     52  C   UNL A   1      39.047  33.719  38.088  1.00  0.00     0.173 A 
ATOM     53  C   UNL A   1      40.578  35.233  37.026  1.00  0.00     0.173 A 
ATOM     54  F   UNL A   1      38.327  32.588  38.090  1.00  0.00    -0.203 F 
ATOM     55  C   UNL A   1      38.931  34.594  39.166  1.00  0.00     0.198 A 
ATOM     56  C   UNL A   1      40.485  36.091  38.119  1.00  0.00     0.198 A 
ATOM     57  F   UNL A   1      41.374  35.573  36.003  1.00  0.00    -0.203 F 
ATOM     58  F   UNL A   1      38.104  34.299  40.178  1.00  0.00    -0.200 F 
ATOM     59  C   UNL A   1      39.655  35.776  39.184  1.00  0.00     0.200 A 
ATOM     60  F   UNL A   1      41.197  37.227  38.139  1.00  0.00    -0.200 F 
ATOM     61  F   UNL A   1      39.547  36.614  40.225  1.00  0.00    -0.200 F 
ENDBRANCH  27  51
BRANCH  39  62
ATOM     62  C   UNL A   1      44.190  28.777  35.418  1.00  0.00     0.064 A 
ATOM     63  C   UNL A   1      45.494  29.259  35.241  1.00  0.00     0.173 A 
ATOM     64  C   UNL A   1      43.991  27.752  36.357  1.00  0.00     0.173 A 
ATOM     65  F   UNL A   1      45.739  30.229  34.347  1.00  0.00    -0.203 F 
ATOM     66  C   UNL A   1      46.558  28.729  35.966  1.00  0.00     0.198 A 
ATOM     67  C   UNL A   1      45.052  27.247  37.104  1.00  0.00     0.198 A 
ATOM     68  F   UNL A   1      42.761  27.262  36.574  1.00  0.00    -0.203 F 
ATOM     69  F   UNL A   1      47.801  29.183  35.755  1.00  0.00    -0.200 F 
ATOM     70  C   UNL A   1      46.335  27.733  36.904  1.00  0.00     0.200 A 
ATOM     71  F   UNL A   1      44.831  26.297  38.024  1.00  0.00    -0.200 F 
ATOM     72  F   UNL A   1      47.357  27.241  37.617  1.00  0.00    -0.200 F 
ENDBRANCH  39  62
ENDBRANCH  13  14
ENDBRANCH   6   8
ENDBRANCH   3   4
ENDBRANCH   2   3
ENDBRANCH   1   2
BRANCH   1  73
ATOM     73  C   UNL A   1      33.531  29.333  26.888  1.00  0.00     0.116 C 
BRANCH  73  74
ATOM     74  N   UNL A   1      34.213  29.150  25.608  1.00  0.00    -0.356 N 
ATOM     75  C   UNL A   1      33.787  28.368  24.530  1.00  0.00     0.225 C 
ATOM     76  H   UNL A   1      35.064  29.630  25.492  1.00  0.00     0.163 HD
ATOM     77  O   UNL A   1      34.541  28.216  23.575  1.00  0.00    -0.275 OA
BRANCH  75  78
ATOM     78  C   UNL A   1      32.320  27.934  24.556  1.00  0.00     0.109 C 
ATOM     79  C   UNL A   1      31.557  29.214  24.045  1.00  0.00     0.004 C 
ATOM     80  C   UNL A   1      31.674  26.667  23.880  1.00  0.00     0.079 C 
ATOM     81  C   UNL A   1      31.496  29.289  22.509  1.00  0.00     0.008 C 
ATOM     82  C   UNL A   1      30.139  29.197  24.613  1.00  0.00     0.008 C 
ATOM     83  C   UNL A   1      30.182  26.701  24.452  1.00  0.00     0.035 C 
ATOM     84  C   UNL A   1      31.542  26.830  22.339  1.00  0.00     0.035 C 
ATOM     85  C   UNL A   1      30.749  28.080  21.954  1.00  0.00    -0.008 C 
ATOM     86  C   UNL A   1      29.412  27.967  24.076  1.00  0.00    -0.008 C 
ATOM     87  C   UNL A   1      29.334  28.032  22.549  1.00  0.00     0.007 C 
BRANCH  80  88
ATOM     88  N   UNL A   1      32.227  25.280  24.175  1.00  0.00    -0.222 N 
ATOM     89  N   UNL A   1      33.164  24.818  23.263  1.00  0.00    -0.175 NA
ATOM     90  C   UNL A   1      32.085  24.660  25.425  1.00  0.00     0.288 A 
ATOM     91  C   UNL A   1      34.112  24.055  23.694  1.00  0.00     0.161 A 
ATOM     92  C   UNL A   1      33.232  23.774  25.848  1.00  0.00     0.132 A 
ATOM     93  O   UNL A   1      31.176  24.900  26.213  1.00  0.00    -0.266 OA
ATOM     94  C   UNL A   1      34.310  23.572  25.076  1.00  0.00     0.082 A 
ATOM     95  Cl  UNL A   1      33.209  23.211  27.493  1.00  0.00    -0.076 Cl
BRANCH  94  96
ATOM     96  N   UNL A   1      35.520  22.942  25.387  1.00  0.00    -0.365 N 
ATOM     97  C   UNL A   1      35.666  21.461  25.418  1.00  0.00     0.138 C 
ATOM     98  C   UNL A   1      36.637  23.654  26.048  1.00  0.00     0.138 C 
ATOM     99  C   UNL A   1      37.047  21.005  24.868  1.00  0.00     0.138 C 
ATOM    100  C   UNL A   1      38.007  23.198  25.502  1.00  0.00     0.138 C 
ATOM    101  N   UNL A   1      38.117  21.730  25.567  1.00  0.00    -0.368 N 
BRANCH 101 102
ATOM    102  C   UNL A   1      39.333  21.155  25.868  1.00  0.00     0.037 A 
ATOM    103  C   UNL A   1      40.371  21.961  26.366  1.00  0.00     0.029 A 
ATOM    104  C   UNL A   1      39.589  19.785  25.717  1.00  0.00     0.029 A 
ATOM    105  C   UNL A   1      41.616  21.427  26.708  1.00  0.00     0.041 A 
ATOM    106  C   UNL A   1      40.841  19.245  26.039  1.00  0.00     0.041 A 
ATOM    107  C   UNL A   1      41.840  20.071  26.537  1.00  0.00     0.123 A 
ATOM    108  F   UNL A   1      43.033  19.554  26.856  1.00  0.00    -0.207 F 
ENDBRANCH 101 102
ENDBRANCH  94  96
ENDBRANCH  80  88
ENDBRANCH  75  78
ENDBRANCH  73  74
ENDBRANCH   1  73
TORSDOF 14
ENDMDL
MODEL 2
REMARK VINA RESULT:     -12.3      0.278      6.678
REMARK SMILES O=C(NCCCCNC(=O)[C@H]1[C@@H]2C[C@H]3C[C@@H](C2)C[C@]1(n1ncc(N2CCN(c4ccc(F)cc4)CC2)c(Cl)c1=O)C3)c1ccc(-c2c3nc(c(-c4c(F)c(F)c(F)c(F)c4F)c4ccc([nH]4)c(-c4c(F)c(F)c(F)c(F)c4F)c4nc(c(-c5c(F)c(F)c(F)c(F)c5F)c5ccc2[nH]5)C=C4)C=C3)cc1
REMARK SMILES IDX 6 1 5 2 4 3 3 4 1 5 2 6 42 8 43 9 104 10 44 11 103 12 45 13
REMARK SMILES IDX 46 14 47 15 97 16 48 17 102 18 96 19 98 20 49 21 101 22
REMARK SMILES IDX 95 23 94 24 50 26 82 27 62 28 81 29 63 30 66 31 80 32 99 33
REMARK SMILES IDX 64 34 65 35 79 37 100 38 67 39 51 40 52 41 60 42 53 43 54 44
REMARK SMILES IDX 58 45 61 46 55 47 56 48 59 49 57 50 83 51 84 52 92 53 85 54
REMARK SMILES IDX 86 55 90 56 93 57 87 58 88 59 91 60 89 61 68 62 69 63 77 64
REMARK SMILES IDX 70 65 71 66 75 67 78 68 72 69 73 70 76 71 74 72 7 73 8 74
REMARK SMILES IDX 9 75 10 77 11 78 12 79 19 80 17 81 13 82 41 83 18 84 16 85
REMARK SMILES IDX 14 86 15 87 20 88 21 89 39 90 22 91 37 92 40 93 23 94 38 95
REMARK SMILES IDX 24 96 25 97 36 98 26 99 35 100 27 101 28 102 29 103 34 104
REMARK SMILES IDX 30 105 33 106 31 107 32 108
REMARK H PARENT 3 7 98 25 66 36 8 76
REMARK Flexibility Score: inf
ROOT
ATOM      1  C   UNL A   1      33.784  30.726  27.634  1.00  0.00     0.023 C 
ENDROOT
BRANCH   1   2
ATOM      2  C   UNL A   1      32.649  31.757  27.594  1.00  0.00     0.023 C 
BRANCH   2   3
ATOM      3  C   UNL A   1      32.909  33.078  26.868  1.00  0.00     0.116 C 
BRANCH   3   4
ATOM      4  N   UNL A   1      32.554  34.264  27.627  1.00  0.00    -0.352 N 
ATOM      5  O   UNL A   1      32.528  35.774  29.287  1.00  0.00    -0.269 OA
ATOM      6  C   UNL A   1      33.049  34.771  28.804  1.00  0.00     0.251 C 
ATOM      7  H   UNL A   1      31.832  34.800  27.225  1.00  0.00     0.163 HD
BRANCH   6   8
ATOM      8  C   UNL A   1      34.177  34.132  29.525  1.00  0.00     0.039 A 
ATOM      9  C   UNL A   1      35.479  34.394  29.083  1.00  0.00     0.014 A 
ATOM     10  C   UNL A   1      33.978  33.221  30.566  1.00  0.00     0.014 A 
ATOM     11  C   UNL A   1      36.575  33.785  29.706  1.00  0.00     0.010 A 
ATOM     12  C   UNL A   1      35.075  32.671  31.236  1.00  0.00     0.010 A 
ATOM     13  C   UNL A   1      36.386  32.931  30.803  1.00  0.00    -0.014 A 
BRANCH  13  14
ATOM     14  C   UNL A   1      37.539  32.255  31.462  1.00  0.00     0.031 A 
ATOM     15  C   UNL A   1      38.003  32.712  32.822  1.00  0.00     0.074 A 
ATOM     16  C   UNL A   1      38.183  31.245  30.844  1.00  0.00     0.049 A 
ATOM     17  N   UNL A   1      39.023  32.299  33.533  1.00  0.00    -0.248 NA
ATOM     18  C   UNL A   1      37.227  33.786  33.460  1.00  0.00     0.031 C 
ATOM     19  C   UNL A   1      37.845  30.706  29.527  1.00  0.00     0.029 A 
ATOM     20  N   UNL A   1      39.260  30.488  31.243  1.00  0.00    -0.354 N 
ATOM     21  C   UNL A   1      39.013  33.068  34.691  1.00  0.00     0.074 A 
ATOM     22  C   UNL A   1      37.924  34.009  34.565  1.00  0.00     0.031 C 
ATOM     23  C   UNL A   1      38.675  29.689  29.240  1.00  0.00     0.029 A 
ATOM     24  C   UNL A   1      39.634  29.530  30.331  1.00  0.00     0.049 A 
ATOM     25  H   UNL A   1      39.721  30.619  32.104  1.00  0.00     0.167 HD
ATOM     26  C   UNL A   1      39.819  32.976  35.775  1.00  0.00     0.037 A 
ATOM     27  C   UNL A   1      40.637  28.630  30.366  1.00  0.00     0.037 A 
ATOM     28  C   UNL A   1      40.883  32.018  35.921  1.00  0.00     0.049 A 
ATOM     29  C   UNL A   1      41.549  28.583  31.565  1.00  0.00     0.074 A 
ATOM     30  C   UNL A   1      41.731  31.832  36.998  1.00  0.00     0.029 A 
ATOM     31  N   UNL A   1      41.240  31.081  34.963  1.00  0.00    -0.354 N 
ATOM     32  N   UNL A   1      41.508  29.294  32.665  1.00  0.00    -0.248 NA
ATOM     33  C   UNL A   1      42.649  27.607  31.527  1.00  0.00     0.031 C 
ATOM     34  C   UNL A   1      42.630  30.813  36.677  1.00  0.00     0.029 A 
ATOM     35  C   UNL A   1      42.309  30.327  35.420  1.00  0.00     0.049 A 
ATOM     36  H   UNL A   1      40.800  30.969  34.089  1.00  0.00     0.167 HD
ATOM     37  C   UNL A   1      42.550  28.833  33.458  1.00  0.00     0.074 A 
ATOM     38  C   UNL A   1      43.199  27.770  32.722  1.00  0.00     0.031 C 
ATOM     39  C   UNL A   1      42.936  29.258  34.687  1.00  0.00     0.037 A 
BRANCH  26  40
ATOM     40  C   UNL A   1      39.573  33.921  36.916  1.00  0.00     0.064 A 
ATOM     41  C   UNL A   1      38.799  33.543  38.023  1.00  0.00     0.173 A 
ATOM     42  C   UNL A   1      40.188  35.182  36.944  1.00  0.00     0.173 A 
ATOM     43  F   UNL A   1      38.182  32.352  38.040  1.00  0.00    -0.203 F 
ATOM     44  C   UNL A   1      38.641  34.397  39.111  1.00  0.00     0.198 A 
ATOM     45  C   UNL A   1      40.053  36.020  38.049  1.00  0.00     0.198 A 
ATOM     46  F   UNL A   1      40.945  35.589  35.915  1.00  0.00    -0.203 F 
ATOM     47  F   UNL A   1      37.872  34.026  40.144  1.00  0.00    -0.200 F 
ATOM     48  C   UNL A   1      39.278  35.628  39.129  1.00  0.00     0.200 A 
ATOM     49  F   UNL A   1      40.682  37.203  38.070  1.00  0.00    -0.200 F 
ATOM     50  F   UNL A   1      39.143  36.439  40.188  1.00  0.00    -0.200 F 
ENDBRANCH  26  40
BRANCH  27  51
ATOM     51  C   UNL A   1      40.825  27.678  29.237  1.00  0.00     0.064 A 
ATOM     52  C   UNL A   1      39.993  26.557  29.098  1.00  0.00     0.173 A 
ATOM     53  C   UNL A   1      41.837  27.858  28.283  1.00  0.00     0.173 A 
ATOM     54  F   UNL A   1      39.026  26.326  29.999  1.00  0.00    -0.203 F 
ATOM     55  C   UNL A   1      40.177  25.647  28.059  1.00  0.00     0.198 A 
ATOM     56  C   UNL A   1      41.999  26.964  27.227  1.00  0.00     0.198 A 
ATOM     57  F   UNL A   1      42.661  28.912  28.370  1.00  0.00    -0.203 F 
ATOM     58  F   UNL A   1      39.397  24.560  27.979  1.00  0.00    -0.200 F 
ATOM     59  C   UNL A   1      41.175  25.855  27.120  1.00  0.00     0.200 A 
ATOM     60  F   UNL A   1      42.957  27.177  26.314  1.00  0.00    -0.200 F 
ATOM     61  F   UNL A   1      41.347  24.982  26.118  1.00  0.00    -0.200 F 
ENDBRANCH  27  51
BRANCH  39  62
ATOM     62  C   UNL A   1      44.095  28.561  35.338  1.00  0.00     0.064 A 
ATOM     63  C   UNL A   1      45.412  29.014  35.172  1.00  0.00     0.173 A 
ATOM     64  C   UNL A   1      43.878  27.481  36.208  1.00  0.00     0.173 A 
ATOM     65  F   UNL A   1      45.675  30.036  34.344  1.00  0.00    -0.203 F 
ATOM     66  C   UNL A   1      46.469  28.403  35.843  1.00  0.00     0.198 A 
ATOM     67  C   UNL A   1      44.932  26.893  36.901  1.00  0.00     0.198 A 
ATOM     68  F   UNL A   1      42.635  27.015  36.410  1.00  0.00    -0.203 F 
ATOM     69  F   UNL A   1      47.722  28.832  35.643  1.00  0.00    -0.200 F 
ATOM     70  C   UNL A   1      46.227  27.351  36.714  1.00  0.00     0.200 A 
ATOM     71  F   UNL A   1      44.694  25.889  37.757  1.00  0.00    -0.200 F 
ATOM     72  F   UNL A   1      47.243  26.780  37.374  1.00  0.00    -0.200 F 
ENDBRANCH  39  62
ENDBRANCH  13  14
ENDBRANCH   6   8
ENDBRANCH   3   4
ENDBRANCH   2   3
ENDBRANCH   1   2
BRANCH   1  73
ATOM     73  C   UNL A   1      33.549  29.384  26.936  1.00  0.00     0.116 C 
BRANCH  73  74
ATOM     74  N   UNL A   1      34.242  29.174  25.666  1.00  0.00    -0.356 N 
ATOM     75  C   UNL A   1      33.822  28.376  24.598  1.00  0.00     0.225 C 
ATOM     76  H   UNL A   1      35.097  29.647  25.550  1.00  0.00     0.163 HD
ATOM     77  O   UNL A   1      34.583  28.203  23.652  1.00  0.00    -0.275 OA
BRANCH  75  78
ATOM     78  C   UNL A   1      32.352  27.952  24.617  1.00  0.00     0.109 C 
ATOM     79  C   UNL A   1      31.600  29.231  24.086  1.00  0.00     0.004 C 
ATOM     80  C   UNL A   1      31.703  26.681  23.951  1.00  0.00     0.079 C 
ATOM     81  C   UNL A   1      31.552  29.288  22.548  1.00  0.00     0.008 C 
ATOM     82  C   UNL A   1      30.178  29.229  24.642  1.00  0.00     0.008 C 
ATOM     83  C   UNL A   1      30.207  26.730  24.511  1.00  0.00     0.035 C 
ATOM     84  C   UNL A   1      31.584  26.826  22.408  1.00  0.00     0.035 C 
ATOM     85  C   UNL A   1      30.802  28.077  22.001  1.00  0.00    -0.008 C 
ATOM     86  C   UNL A   1      29.447  27.996  24.114  1.00  0.00    -0.008 C 
ATOM     87  C   UNL A   1      29.382  28.044  22.586  1.00  0.00     0.007 C 
BRANCH  80  88
ATOM     88  N   UNL A   1      32.245  25.294  24.267  1.00  0.00    -0.222 N 
ATOM     89  N   UNL A   1      33.164  24.803  23.351  1.00  0.00    -0.175 NA
ATOM     90  C   UNL A   1      32.114  24.701  25.531  1.00  0.00     0.288 A 
ATOM     91  C   UNL A   1      34.109  24.039  23.784  1.00  0.00     0.161 A 
ATOM     92  C   UNL A   1      33.256  23.811  25.956  1.00  0.00     0.132 A 
ATOM     93  O   UNL A   1      31.219  24.967  26.327  1.00  0.00    -0.266 OA
ATOM     94  C   UNL A   1      34.321  23.581  25.173  1.00  0.00     0.082 A 
ATOM     95  Cl  UNL A   1      33.250  23.282  27.612  1.00  0.00    -0.076 Cl
BRANCH  94  96
ATOM     96  N   UNL A   1      35.529  22.944  25.480  1.00  0.00    -0.365 N 
ATOM     97  C   UNL A   1      35.653  21.463  25.565  1.00  0.00     0.138 C 
ATOM     98  C   UNL A   1      36.672  23.663  26.087  1.00  0.00     0.138 C 
ATOM     99  C   UNL A   1      37.014  20.964  25.001  1.00  0.00     0.138 C 
ATOM    100  C   UNL A   1      38.022  23.164  25.528  1.00  0.00     0.138 C 
ATOM    101  N   UNL A   1      38.111  21.698  25.647  1.00  0.00    -0.368 N 
BRANCH 101 102
ATOM    102  C   UNL A   1      39.325  21.116  25.942  1.00  0.00     0.037 A 
ATOM    103  C   UNL A   1      40.357  21.908  26.475  1.00  0.00     0.029 A 
ATOM    104  C   UNL A   1      39.584  19.752  25.750  1.00  0.00     0.029 A 
ATOM    105  C   UNL A   1      41.599  21.365  26.812  1.00  0.00     0.041 A 
ATOM    106  C   UNL A   1      40.834  19.203  26.068  1.00  0.00     0.041 A 
ATOM    107  C   UNL A   1      41.827  20.015  26.601  1.00  0.00     0.123 A 
ATOM    108  F   UNL A   1      43.018  19.490  26.915  1.00  0.00    -0.207 F 
ENDBRANCH 101 102
ENDBRANCH  94  96
ENDBRANCH  80  88
ENDBRANCH  75  78
ENDBRANCH  73  74
ENDBRANCH   1  73
TORSDOF 14
ENDMDL
MODEL 3
REMARK VINA RESULT:     -12.3      5.192     11.444
REMARK SMILES O=C(NCCCCNC(=O)[C@H]1[C@@H]2C[C@H]3C[C@@H](C2)C[C@]1(n1ncc(N2CCN(c4ccc(F)cc4)CC2)c(Cl)c1=O)C3)c1ccc(-c2c3nc(c(-c4c(F)c(F)c(F)c(F)c4F)c4ccc([nH]4)c(-c4c(F)c(F)c(F)c(F)c4F)c4nc(c(-c5c(F)c(F)c(F)c(F)c5F)c5ccc2[nH]5)C=C4)C=C3)cc1
REMARK SMILES IDX 6 1 5 2 4 3 3 4 1 5 2 6 42 8 43 9 104 10 44 11 103 12 45 13
REMARK SMILES IDX 46 14 47 15 97 16 48 17 102 18 96 19 98 20 49 21 101 22
REMARK SMILES IDX 95 23 94 24 50 26 82 27 62 28 81 29 63 30 66 31 80 32 99 33
REMARK SMILES IDX 64 34 65 35 79 37 100 38 67 39 51 40 52 41 60 42 53 43 54 44
REMARK SMILES IDX 58 45 61 46 55 47 56 48 59 49 57 50 83 51 84 52 92 53 85 54
REMARK SMILES IDX 86 55 90 56 93 57 87 58 88 59 91 60 89 61 68 62 69 63 77 64
REMARK SMILES IDX 70 65 71 66 75 67 78 68 72 69 73 70 76 71 74 72 7 73 8 74
REMARK SMILES IDX 9 75 10 77 11 78 12 79 19 80 17 81 13 82 41 83 18 84 16 85
REMARK SMILES IDX 14 86 15 87 20 88 21 89 39 90 22 91 37 92 40 93 23 94 38 95
REMARK SMILES IDX 24 96 25 97 36 98 26 99 35 100 27 101 28 102 29 103 34 104
REMARK SMILES IDX 30 105 33 106 31 107 32 108
REMARK H PARENT 3 7 98 25 66 36 8 76
REMARK Flexibility Score: inf
ROOT
ATOM      1  C   UNL A   1      42.993  23.788  26.695  1.00  0.00     0.023 C 
ENDROOT
BRANCH   1   2
ATOM      2  C   UNL A   1      42.181  22.606  26.150  1.00  0.00     0.023 C 
BRANCH   2   3
ATOM      3  C   UNL A   1      40.920  22.195  26.910  1.00  0.00     0.116 C 
BRANCH   3   4
ATOM      4  N   UNL A   1      39.675  22.558  26.256  1.00  0.00    -0.352 N 
ATOM      5  O   UNL A   1      37.845  23.741  25.717  1.00  0.00    -0.269 OA
ATOM      6  C   UNL A   1      38.913  23.699  26.325  1.00  0.00     0.251 C 
ATOM      7  H   UNL A   1      39.314  21.864  25.657  1.00  0.00     0.163 HD
BRANCH   6   8
ATOM      8  C   UNL A   1      39.323  24.875  27.131  1.00  0.00     0.039 A 
ATOM      9  C   UNL A   1      38.950  24.916  28.479  1.00  0.00     0.014 A 
ATOM     10  C   UNL A   1      39.989  25.968  26.572  1.00  0.00     0.014 A 
ATOM     11  C   UNL A   1      39.280  26.021  29.272  1.00  0.00     0.010 A 
ATOM     12  C   UNL A   1      40.384  27.038  27.381  1.00  0.00     0.010 A 
ATOM     13  C   UNL A   1      40.018  27.087  28.736  1.00  0.00    -0.014 A 
BRANCH  13  14
ATOM     14  C   UNL A   1      40.356  28.283  29.559  1.00  0.00     0.031 A 
ATOM     15  C   UNL A   1      41.706  28.383  30.223  1.00  0.00     0.074 A 
ATOM     16  C   UNL A   1      39.457  29.272  29.729  1.00  0.00     0.049 A 
ATOM     17  N   UNL A   1      42.168  29.306  31.029  1.00  0.00    -0.248 NA
ATOM     18  C   UNL A   1      42.657  27.293  29.958  1.00  0.00     0.031 C 
ATOM     19  C   UNL A   1      38.113  29.302  29.151  1.00  0.00     0.029 A 
ATOM     20  N   UNL A   1      39.536  30.447  30.440  1.00  0.00    -0.354 N 
ATOM     21  C   UNL A   1      43.453  28.902  31.371  1.00  0.00     0.074 A 
ATOM     22  C   UNL A   1      43.678  27.624  30.733  1.00  0.00     0.031 C 
ATOM     23  C   UNL A   1      37.507  30.449  29.502  1.00  0.00     0.029 A 
ATOM     24  C   UNL A   1      38.400  31.217  30.369  1.00  0.00     0.049 A 
ATOM     25  H   UNL A   1      40.334  30.714  30.951  1.00  0.00     0.167 HD
ATOM     26  C   UNL A   1      44.374  29.551  32.122  1.00  0.00     0.037 A 
ATOM     27  C   UNL A   1      38.106  32.403  30.940  1.00  0.00     0.037 A 
ATOM     28  C   UNL A   1      44.168  30.839  32.730  1.00  0.00     0.049 A 
ATOM     29  C   UNL A   1      39.133  33.079  31.810  1.00  0.00     0.074 A 
ATOM     30  C   UNL A   1      45.056  31.587  33.483  1.00  0.00     0.029 A 
ATOM     31  N   UNL A   1      42.994  31.572  32.651  1.00  0.00    -0.354 N 
ATOM     32  N   UNL A   1      40.354  32.701  32.098  1.00  0.00    -0.248 NA
ATOM     33  C   UNL A   1      38.739  34.351  32.437  1.00  0.00     0.031 C 
ATOM     34  C   UNL A   1      44.407  32.752  33.896  1.00  0.00     0.029 A 
ATOM     35  C   UNL A   1      43.130  32.756  33.357  1.00  0.00     0.049 A 
ATOM     36  H   UNL A   1      42.184  31.293  32.165  1.00  0.00     0.167 HD
ATOM     37  C   UNL A   1      40.883  33.696  32.909  1.00  0.00     0.074 A 
ATOM     38  C   UNL A   1      39.856  34.705  33.057  1.00  0.00     0.031 C 
ATOM     39  C   UNL A   1      42.109  33.764  33.483  1.00  0.00     0.037 A 
BRANCH  26  40
ATOM     40  C   UNL A   1      45.712  28.897  32.315  1.00  0.00     0.064 A 
ATOM     41  C   UNL A   1      45.877  27.822  33.201  1.00  0.00     0.173 A 
ATOM     42  C   UNL A   1      46.817  29.289  31.544  1.00  0.00     0.173 A 
ATOM     43  F   UNL A   1      44.854  27.415  33.968  1.00  0.00    -0.203 F 
ATOM     44  C   UNL A   1      47.102  27.171  33.317  1.00  0.00     0.198 A 
ATOM     45  C   UNL A   1      48.032  28.615  31.640  1.00  0.00     0.198 A 
ATOM     46  F   UNL A   1      46.711  30.306  30.676  1.00  0.00    -0.203 F 
ATOM     47  F   UNL A   1      47.244  26.166  34.192  1.00  0.00    -0.200 F 
ATOM     48  C   UNL A   1      48.174  27.559  32.527  1.00  0.00     0.200 A 
ATOM     49  F   UNL A   1      49.063  28.981  30.866  1.00  0.00    -0.200 F 
ATOM     50  F   UNL A   1      49.346  26.916  32.623  1.00  0.00    -0.200 F 
ENDBRANCH  26  40
BRANCH  27  51
ATOM     51  C   UNL A   1      36.786  33.044  30.690  1.00  0.00     0.064 A 
ATOM     52  C   UNL A   1      35.787  33.038  31.675  1.00  0.00     0.173 A 
ATOM     53  C   UNL A   1      36.490  33.667  29.469  1.00  0.00     0.173 A 
ATOM     54  F   UNL A   1      36.012  32.433  32.851  1.00  0.00    -0.203 F 
ATOM     55  C   UNL A   1      34.540  33.614  31.442  1.00  0.00     0.198 A 
ATOM     56  C   UNL A   1      35.254  34.270  29.248  1.00  0.00     0.198 A 
ATOM     57  F   UNL A   1      37.409  33.700  28.492  1.00  0.00    -0.203 F 
ATOM     58  F   UNL A   1      33.589  33.551  32.384  1.00  0.00    -0.200 F 
ATOM     59  C   UNL A   1      34.277  34.236  30.231  1.00  0.00     0.200 A 
ATOM     60  F   UNL A   1      35.008  34.882  28.081  1.00  0.00    -0.200 F 
ATOM     61  F   UNL A   1      33.080  34.796  30.010  1.00  0.00    -0.200 F 
ENDBRANCH  27  51
BRANCH  39  62
ATOM     62  C   UNL A   1      42.434  34.978  34.304  1.00  0.00     0.064 A 
ATOM     63  C   UNL A   1      42.318  34.973  35.701  1.00  0.00     0.173 A 
ATOM     64  C   UNL A   1      42.952  36.131  33.692  1.00  0.00     0.173 A 
ATOM     65  F   UNL A   1      41.819  33.900  36.333  1.00  0.00    -0.203 F 
ATOM     66  C   UNL A   1      42.695  36.082  36.454  1.00  0.00     0.198 A 
ATOM     67  C   UNL A   1      43.357  37.226  34.450  1.00  0.00     0.198 A 
ATOM     68  F   UNL A   1      43.094  36.184  32.358  1.00  0.00    -0.203 F 
ATOM     69  F   UNL A   1      42.544  36.067  37.785  1.00  0.00    -0.200 F 
ATOM     70  C   UNL A   1      43.224  37.202  35.830  1.00  0.00     0.200 A 
ATOM     71  F   UNL A   1      43.886  38.299  33.847  1.00  0.00    -0.200 F 
ATOM     72  F   UNL A   1      43.606  38.259  36.559  1.00  0.00    -0.200 F 
ENDBRANCH  39  62
ENDBRANCH  13  14
ENDBRANCH   6   8
ENDBRANCH   3   4
ENDBRANCH   2   3
ENDBRANCH   1   2
BRANCH   1  73
ATOM     73  C   UNL A   1      43.291  24.945  25.739  1.00  0.00     0.116 C 
BRANCH  73  74
ATOM     74  N   UNL A   1      44.502  24.831  24.927  1.00  0.00    -0.356 N 
ATOM     75  C   UNL A   1      45.747  25.412  25.183  1.00  0.00     0.225 C 
ATOM     76  H   UNL A   1      44.432  24.286  24.111  1.00  0.00     0.163 HD
ATOM     77  O   UNL A   1      46.627  25.326  24.333  1.00  0.00    -0.275 OA
BRANCH  75  78
ATOM     78  C   UNL A   1      45.963  25.933  26.605  1.00  0.00     0.109 C 
ATOM     79  C   UNL A   1      46.445  24.654  27.389  1.00  0.00     0.004 C 
ATOM     80  C   UNL A   1      46.840  27.158  27.064  1.00  0.00     0.079 C 
ATOM     81  C   UNL A   1      47.961  24.420  27.257  1.00  0.00     0.008 C 
ATOM     82  C   UNL A   1      46.079  24.816  28.863  1.00  0.00     0.008 C 
ATOM     83  C   UNL A   1      46.475  27.275  28.616  1.00  0.00     0.035 C 
ATOM     84  C   UNL A   1      48.361  26.841  27.009  1.00  0.00     0.035 C 
ATOM     85  C   UNL A   1      48.727  25.606  27.835  1.00  0.00    -0.008 C 
ATOM     86  C   UNL A   1      46.827  26.025  29.422  1.00  0.00    -0.008 C 
ATOM     87  C   UNL A   1      48.336  25.803  29.308  1.00  0.00     0.007 C 
BRANCH  80  88
ATOM     88  N   UNL A   1      46.608  28.532  26.453  1.00  0.00    -0.222 N 
ATOM     89  N   UNL A   1      45.285  28.824  26.155  1.00  0.00    -0.175 NA
ATOM     90  C   UNL A   1      47.568  29.555  26.504  1.00  0.00     0.288 A 
ATOM     91  C   UNL A   1      44.890  30.048  26.261  1.00  0.00     0.161 A 
ATOM     92  C   UNL A   1      47.022  30.957  26.614  1.00  0.00     0.132 A 
ATOM     93  O   UNL A   1      48.775  29.360  26.595  1.00  0.00    -0.266 OA
ATOM     94  C   UNL A   1      45.707  31.219  26.642  1.00  0.00     0.082 A 
ATOM     95  Cl  UNL A   1      48.177  32.213  26.949  1.00  0.00    -0.076 Cl
BRANCH  94  96
ATOM     96  N   UNL A   1      45.046  32.421  26.920  1.00  0.00    -0.365 N 
ATOM     97  C   UNL A   1      44.563  32.772  28.283  1.00  0.00     0.138 C 
ATOM     98  C   UNL A   1      44.459  33.266  25.855  1.00  0.00     0.138 C 
ATOM     99  C   UNL A   1      44.740  34.287  28.587  1.00  0.00     0.138 C 
ATOM    100  C   UNL A   1      44.633  34.770  26.160  1.00  0.00     0.138 C 
ATOM    101  N   UNL A   1      44.128  35.077  27.509  1.00  0.00    -0.368 N 
BRANCH 101 102
ATOM    102  C   UNL A   1      43.491  36.279  27.736  1.00  0.00     0.037 A 
ATOM    103  C   UNL A   1      43.875  37.065  28.836  1.00  0.00     0.029 A 
ATOM    104  C   UNL A   1      42.477  36.774  26.905  1.00  0.00     0.029 A 
ATOM    105  C   UNL A   1      43.279  38.301  29.099  1.00  0.00     0.041 A 
ATOM    106  C   UNL A   1      41.860  38.003  27.173  1.00  0.00     0.041 A 
ATOM    107  C   UNL A   1      42.271  38.756  28.265  1.00  0.00     0.123 A 
ATOM    108  F   UNL A   1      41.690  39.936  28.515  1.00  0.00    -0.207 F 
ENDBRANCH 101 102
ENDBRANCH  94  96
ENDBRANCH  80  88
ENDBRANCH  75  78
ENDBRANCH  73  74
ENDBRANCH   1  73
TORSDOF 14
ENDMDL
