MODEL 1
REMARK VINA RESULT:     -12.4      0.000      0.000
REMARK SMILES NC(=O)c1c(F)cccc1O[C@@H](F)C(=O)NCCCCNC(=O)c1ccc(-c2c3nc(c(-c4c(F)c(F)c(F)c(F)c4F)c4ccc([nH]4)c(-c4c(F)c(F)c(F)c(F)c4F)c4nc(c(-c5c(F)c(F)c(F)c(F)c5F)c5ccc2[nH]5)C=C4)C=C3)cc1
REMARK SMILES IDX 18 1 17 2 16 3 14 4 15 5 12 7 13 8 11 9 10 10 4 11 5 12 6 13
REMARK SMILES IDX 7 14 9 15 8 16 2 17 1 18 3 21 19 22 20 23 21 24 22 25 23 27
REMARK SMILES IDX 24 28 25 29 86 30 26 31 85 32 27 33 28 34 29 35 79 36 30 37
REMARK SMILES IDX 84 38 78 39 80 40 31 41 83 42 77 43 76 44 32 46 64 47 44 48
REMARK SMILES IDX 63 49 45 50 48 51 62 52 81 53 46 54 47 55 61 57 82 58 49 59
REMARK SMILES IDX 33 60 34 61 42 62 35 63 36 64 40 65 43 66 37 67 38 68 41 69
REMARK SMILES IDX 39 70 65 71 66 72 74 73 67 74 68 75 72 76 75 77 69 78 70 79
REMARK SMILES IDX 73 80 71 81 50 82 51 83 59 84 52 85 53 86 57 87 60 88 54 89
REMARK SMILES IDX 55 90 58 91 56 92
REMARK H PARENT 16 6 1 19 1 20 21 26 80 45 48 56
REMARK Flexibility Score: inf
ROOT
ATOM      1  C   UNL A   1      32.153  27.227  26.310  1.00  0.00     0.023 C 
ENDROOT
BRANCH   1   2
ATOM      2  C   UNL A   1      31.123  26.424  25.530  1.00  0.00     0.116 C 
BRANCH   2   3
ATOM      3  N   UNL A   1      30.263  25.547  26.269  1.00  0.00    -0.350 N 
ATOM      4  C   UNL A   1      30.413  24.203  26.493  1.00  0.00     0.294 C 
ATOM      5  O   UNL A   1      29.567  23.701  27.249  1.00  0.00    -0.267 OA
ATOM      6  H   UNL A   1      29.464  25.962  26.667  1.00  0.00     0.163 HD
BRANCH   4   7
ATOM      7  C   UNL A   1      31.549  23.290  25.858  1.00  0.00     0.440 C 
ATOM      8  F   UNL A   1      31.055  22.603  24.786  1.00  0.00    -0.191 F 
BRANCH   7   9
ATOM      9  O   UNL A   1      32.529  22.476  26.471  1.00  0.00    -0.451 OA
BRANCH   9  10
ATOM     10  C   UNL A   1      33.609  21.989  25.799  1.00  0.00     0.139 A 
ATOM     11  C   UNL A   1      33.902  20.680  25.410  1.00  0.00     0.117 A 
ATOM     12  C   UNL A   1      35.196  20.364  24.976  1.00  0.00     0.139 A 
ATOM     13  F   UNL A   1      35.534  19.094  24.712  1.00  0.00    -0.206 F 
ATOM     14  C   UNL A   1      36.187  21.339  24.880  1.00  0.00     0.040 A 
ATOM     15  C   UNL A   1      34.584  22.985  25.591  1.00  0.00     0.047 A 
ATOM     16  C   UNL A   1      35.872  22.664  25.157  1.00  0.00     0.007 A 
BRANCH  11  17
ATOM     17  C   UNL A   1      32.917  19.594  25.399  1.00  0.00     0.255 C 
ATOM     18  N   UNL A   1      32.900  18.781  26.499  1.00  0.00    -0.365 N 
ATOM     19  H   UNL A   1      32.261  18.034  26.548  1.00  0.00     0.159 HD
ATOM     20  H   UNL A   1      33.527  18.942  27.240  1.00  0.00     0.159 HD
ATOM     21  O   UNL A   1      32.176  19.434  24.447  1.00  0.00    -0.269 OA
ENDBRANCH  11  17
ENDBRANCH   9  10
ENDBRANCH   7   9
ENDBRANCH   4   7
ENDBRANCH   2   3
ENDBRANCH   1   2
BRANCH   1  22
ATOM     22  C   UNL A   1      31.782  28.664  26.669  1.00  0.00     0.023 C 
BRANCH  22  23
ATOM     23  C   UNL A   1      32.485  29.781  25.900  1.00  0.00     0.116 C 
BRANCH  23  24
ATOM     24  N   UNL A   1      32.286  31.118  26.443  1.00  0.00    -0.352 N 
ATOM     25  C   UNL A   1      33.094  31.897  27.243  1.00  0.00     0.251 C 
ATOM     26  H   UNL A   1      31.430  31.537  26.195  1.00  0.00     0.163 HD
ATOM     27  O   UNL A   1      32.686  32.983  27.647  1.00  0.00    -0.269 OA
BRANCH  25  28
ATOM     28  C   UNL A   1      34.423  31.408  27.679  1.00  0.00     0.039 A 
ATOM     29  C   UNL A   1      35.457  32.333  27.851  1.00  0.00     0.014 A 
ATOM     30  C   UNL A   1      34.645  30.062  27.963  1.00  0.00     0.014 A 
ATOM     31  C   UNL A   1      36.657  31.930  28.443  1.00  0.00     0.010 A 
ATOM     32  C   UNL A   1      35.797  29.682  28.648  1.00  0.00     0.010 A 
ATOM     33  C   UNL A   1      36.806  30.618  28.922  1.00  0.00    -0.014 A 
BRANCH  33  34
ATOM     34  C   UNL A   1      37.978  30.217  29.747  1.00  0.00     0.031 A 
ATOM     35  C   UNL A   1      39.009  29.268  29.201  1.00  0.00     0.074 A 
ATOM     36  C   UNL A   1      38.074  30.649  31.023  1.00  0.00     0.049 A 
ATOM     37  N   UNL A   1      40.040  28.730  29.804  1.00  0.00    -0.248 NA
ATOM     38  C   UNL A   1      38.848  28.845  27.800  1.00  0.00     0.031 C 
ATOM     39  C   UNL A   1      37.119  31.537  31.690  1.00  0.00     0.029 A 
ATOM     40  N   UNL A   1      39.018  30.399  31.990  1.00  0.00    -0.354 N 
ATOM     41  C   UNL A   1      40.642  27.907  28.863  1.00  0.00     0.074 A 
ATOM     42  C   UNL A   1      39.828  27.964  27.668  1.00  0.00     0.031 C 
ATOM     43  C   UNL A   1      37.547  31.792  32.936  1.00  0.00     0.029 A 
ATOM     44  C   UNL A   1      38.780  31.048  33.178  1.00  0.00     0.049 A 
ATOM     45  H   UNL A   1      39.792  29.809  31.845  1.00  0.00     0.167 HD
ATOM     46  C   UNL A   1      41.787  27.194  28.973  1.00  0.00     0.037 A 
ATOM     47  C   UNL A   1      39.472  31.044  34.333  1.00  0.00     0.037 A 
ATOM     48  C   UNL A   1      42.613  27.160  30.150  1.00  0.00     0.049 A 
ATOM     49  C   UNL A   1      40.725  30.217  34.437  1.00  0.00     0.074 A 
ATOM     50  C   UNL A   1      43.808  26.489  30.343  1.00  0.00     0.029 A 
ATOM     51  N   UNL A   1      42.333  27.829  31.332  1.00  0.00    -0.354 N 
ATOM     52  N   UNL A   1      41.302  29.474  33.525  1.00  0.00    -0.248 NA
ATOM     53  C   UNL A   1      41.422  30.226  35.731  1.00  0.00     0.031 C 
ATOM     54  C   UNL A   1      44.234  26.723  31.653  1.00  0.00     0.029 A 
ATOM     55  C   UNL A   1      43.330  27.579  32.261  1.00  0.00     0.049 A 
ATOM     56  H   UNL A   1      41.545  28.399  31.488  1.00  0.00     0.167 HD
ATOM     57  C   UNL A   1      42.444  28.956  34.121  1.00  0.00     0.074 A 
ATOM     58  C   UNL A   1      42.486  29.476  35.470  1.00  0.00     0.031 C 
ATOM     59  C   UNL A   1      43.372  28.122  33.594  1.00  0.00     0.037 A 
BRANCH  46  60
ATOM     60  C   UNL A   1      42.246  26.414  27.775  1.00  0.00     0.064 A 
ATOM     61  C   UNL A   1      41.785  25.108  27.551  1.00  0.00     0.173 A 
ATOM     62  C   UNL A   1      43.209  26.931  26.897  1.00  0.00     0.173 A 
ATOM     63  F   UNL A   1      40.868  24.564  28.365  1.00  0.00    -0.203 F 
ATOM     64  C   UNL A   1      42.287  24.344  26.501  1.00  0.00     0.198 A 
ATOM     65  C   UNL A   1      43.687  26.175  25.831  1.00  0.00     0.198 A 
ATOM     66  F   UNL A   1      43.673  28.179  27.064  1.00  0.00    -0.203 F 
ATOM     67  F   UNL A   1      41.861  23.085  26.327  1.00  0.00    -0.200 F 
ATOM     68  C   UNL A   1      43.235  24.878  25.641  1.00  0.00     0.200 A 
ATOM     69  F   UNL A   1      44.586  26.702  24.989  1.00  0.00    -0.200 F 
ATOM     70  F   UNL A   1      43.713  24.142  24.628  1.00  0.00    -0.200 F 
ENDBRANCH  46  60
BRANCH  47  71
ATOM     71  C   UNL A   1      39.021  31.882  35.477  1.00  0.00     0.064 A 
ATOM     72  C   UNL A   1      38.216  31.364  36.501  1.00  0.00     0.173 A 
ATOM     73  C   UNL A   1      39.393  33.232  35.562  1.00  0.00     0.173 A 
ATOM     74  F   UNL A   1      37.828  30.080  36.467  1.00  0.00    -0.203 F 
ATOM     75  C   UNL A   1      37.790  32.166  37.558  1.00  0.00     0.198 A 
ATOM     76  C   UNL A   1      38.991  34.025  36.635  1.00  0.00     0.198 A 
ATOM     77  F   UNL A   1      40.180  33.769  34.619  1.00  0.00    -0.203 F 
ATOM     78  F   UNL A   1      36.997  31.653  38.509  1.00  0.00    -0.200 F 
ATOM     79  C   UNL A   1      38.184  33.494  37.628  1.00  0.00     0.200 A 
ATOM     80  F   UNL A   1      39.397  35.300  36.711  1.00  0.00    -0.200 F 
ATOM     81  F   UNL A   1      37.791  34.259  38.656  1.00  0.00    -0.200 F 
ENDBRANCH  47  71
BRANCH  59  82
ATOM     82  C   UNL A   1      44.541  27.742  34.455  1.00  0.00     0.064 A 
ATOM     83  C   UNL A   1      45.730  28.486  34.402  1.00  0.00     0.173 A 
ATOM     84  C   UNL A   1      44.519  26.595  35.261  1.00  0.00     0.173 A 
ATOM     85  F   UNL A   1      45.805  29.588  33.639  1.00  0.00    -0.203 F 
ATOM     86  C   UNL A   1      46.860  28.084  35.108  1.00  0.00     0.198 A 
ATOM     87  C   UNL A   1      45.640  26.212  35.990  1.00  0.00     0.198 A 
ATOM     88  F   UNL A   1      43.401  25.858  35.354  1.00  0.00    -0.203 F 
ATOM     89  F   UNL A   1      47.995  28.789  35.011  1.00  0.00    -0.200 F 
ATOM     90  C   UNL A   1      46.813  26.950  35.904  1.00  0.00     0.200 A 
ATOM     91  F   UNL A   1      45.588  25.129  36.777  1.00  0.00    -0.200 F 
ATOM     92  F   UNL A   1      47.899  26.566  36.589  1.00  0.00    -0.200 F 
ENDBRANCH  59  82
ENDBRANCH  33  34
ENDBRANCH  25  28
ENDBRANCH  23  24
ENDBRANCH  22  23
ENDBRANCH   1  22
TORSDOF 14
ENDMDL
MODEL 2
REMARK VINA RESULT:     -12.1      4.513     10.221
REMARK SMILES NC(=O)c1c(F)cccc1O[C@@H](F)C(=O)NCCCCNC(=O)c1ccc(-c2c3nc(c(-c4c(F)c(F)c(F)c(F)c4F)c4ccc([nH]4)c(-c4c(F)c(F)c(F)c(F)c4F)c4nc(c(-c5c(F)c(F)c(F)c(F)c5F)c5ccc2[nH]5)C=C4)C=C3)cc1
REMARK SMILES IDX 18 1 17 2 16 3 14 4 15 5 12 7 13 8 11 9 10 10 4 11 5 12 6 13
REMARK SMILES IDX 7 14 9 15 8 16 2 17 1 18 3 21 19 22 20 23 21 24 22 25 23 27
REMARK SMILES IDX 24 28 25 29 86 30 26 31 85 32 27 33 28 34 29 35 79 36 30 37
REMARK SMILES IDX 84 38 78 39 80 40 31 41 83 42 77 43 76 44 32 46 64 47 44 48
REMARK SMILES IDX 63 49 45 50 48 51 62 52 81 53 46 54 47 55 61 57 82 58 49 59
REMARK SMILES IDX 33 60 34 61 42 62 35 63 36 64 40 65 43 66 37 67 38 68 41 69
REMARK SMILES IDX 39 70 65 71 66 72 74 73 67 74 68 75 72 76 75 77 69 78 70 79
REMARK SMILES IDX 73 80 71 81 50 82 51 83 59 84 52 85 53 86 57 87 60 88 54 89
REMARK SMILES IDX 55 90 58 91 56 92
REMARK H PARENT 16 6 1 19 1 20 21 26 80 45 48 56
REMARK Flexibility Score: inf
ROOT
ATOM      1  C   UNL A   1      34.040  34.852  28.736  1.00  0.00     0.023 C 
ENDROOT
BRANCH   1   2
ATOM      2  C   UNL A   1      33.184  35.204  29.943  1.00  0.00     0.116 C 
BRANCH   2   3
ATOM      3  N   UNL A   1      33.827  35.852  31.049  1.00  0.00    -0.350 N 
ATOM      4  C   UNL A   1      34.537  35.280  32.071  1.00  0.00     0.294 C 
ATOM      5  O   UNL A   1      35.070  36.084  32.852  1.00  0.00    -0.267 OA
ATOM      6  H   UNL A   1      33.748  36.833  31.078  1.00  0.00     0.163 HD
BRANCH   4   7
ATOM      7  C   UNL A   1      34.702  33.717  32.310  1.00  0.00     0.440 C 
ATOM      8  F   UNL A   1      34.446  33.412  33.616  1.00  0.00    -0.191 F 
BRANCH   7   9
ATOM      9  O   UNL A   1      35.680  32.809  31.844  1.00  0.00    -0.451 OA
BRANCH   9  10
ATOM     10  C   UNL A   1      36.928  33.200  31.463  1.00  0.00     0.139 A 
ATOM     11  C   UNL A   1      37.958  33.760  32.224  1.00  0.00     0.117 A 
ATOM     12  C   UNL A   1      39.055  34.341  31.575  1.00  0.00     0.139 A 
ATOM     13  F   UNL A   1      39.996  34.989  32.276  1.00  0.00    -0.206 F 
ATOM     14  C   UNL A   1      39.163  34.333  30.185  1.00  0.00     0.040 A 
ATOM     15  C   UNL A   1      37.103  33.098  30.069  1.00  0.00     0.047 A 
ATOM     16  C   UNL A   1      38.199  33.678  29.428  1.00  0.00     0.007 A 
BRANCH  11  17
ATOM     17  C   UNL A   1      37.983  33.756  33.689  1.00  0.00     0.255 C 
ATOM     18  N   UNL A   1      38.327  32.576  34.287  1.00  0.00    -0.365 N 
ATOM     19  H   UNL A   1      38.360  32.512  35.269  1.00  0.00     0.159 HD
ATOM     20  H   UNL A   1      38.540  31.789  33.736  1.00  0.00     0.159 HD
ATOM     21  O   UNL A   1      37.694  34.757  34.320  1.00  0.00    -0.269 OA
ENDBRANCH  11  17
ENDBRANCH   9  10
ENDBRANCH   7   9
ENDBRANCH   4   7
ENDBRANCH   2   3
ENDBRANCH   1   2
BRANCH   1  22
ATOM     22  C   UNL A   1      33.754  33.516  28.052  1.00  0.00     0.023 C 
BRANCH  22  23
ATOM     23  C   UNL A   1      34.191  32.249  28.784  1.00  0.00     0.116 C 
BRANCH  23  24
ATOM     24  N   UNL A   1      33.930  31.008  28.068  1.00  0.00    -0.352 N 
ATOM     25  C   UNL A   1      34.742  29.921  27.819  1.00  0.00     0.251 C 
ATOM     26  H   UNL A   1      33.020  30.930  27.701  1.00  0.00     0.163 HD
ATOM     27  O   UNL A   1      34.329  29.001  27.119  1.00  0.00    -0.269 OA
BRANCH  25  28
ATOM     28  C   UNL A   1      36.133  29.885  28.327  1.00  0.00     0.039 A 
ATOM     29  C   UNL A   1      36.368  29.373  29.607  1.00  0.00     0.014 A 
ATOM     30  C   UNL A   1      37.206  30.305  27.543  1.00  0.00     0.014 A 
ATOM     31  C   UNL A   1      37.680  29.148  30.034  1.00  0.00     0.010 A 
ATOM     32  C   UNL A   1      38.507  29.985  27.923  1.00  0.00     0.010 A 
ATOM     33  C   UNL A   1      38.758  29.376  29.163  1.00  0.00    -0.014 A 
BRANCH  33  34
ATOM     34  C   UNL A   1      40.142  28.945  29.505  1.00  0.00     0.031 A 
ATOM     35  C   UNL A   1      41.012  29.799  30.385  1.00  0.00     0.074 A 
ATOM     36  C   UNL A   1      40.643  27.818  28.956  1.00  0.00     0.049 A 
ATOM     37  N   UNL A   1      42.271  29.636  30.709  1.00  0.00    -0.248 NA
ATOM     38  C   UNL A   1      40.399  31.008  30.957  1.00  0.00     0.031 C 
ATOM     39  C   UNL A   1      39.919  26.922  28.050  1.00  0.00     0.029 A 
ATOM     40  N   UNL A   1      41.879  27.231  29.076  1.00  0.00    -0.354 N 
ATOM     41  C   UNL A   1      42.597  30.719  31.513  1.00  0.00     0.074 A 
ATOM     42  C   UNL A   1      41.427  31.567  31.577  1.00  0.00     0.031 C 
ATOM     43  C   UNL A   1      40.705  25.882  27.734  1.00  0.00     0.029 A 
ATOM     44  C   UNL A   1      42.007  26.057  28.371  1.00  0.00     0.049 A 
ATOM     45  H   UNL A   1      42.606  27.615  29.616  1.00  0.00     0.167 HD
ATOM     46  C   UNL A   1      43.756  30.968  32.166  1.00  0.00     0.037 A 
ATOM     47  C   UNL A   1      43.053  25.217  28.248  1.00  0.00     0.037 A 
ATOM     48  C   UNL A   1      44.911  30.111  32.127  1.00  0.00     0.049 A 
ATOM     49  C   UNL A   1      44.340  25.536  28.960  1.00  0.00     0.074 A 
ATOM     50  C   UNL A   1      46.121  30.268  32.782  1.00  0.00     0.029 A 
ATOM     51  N   UNL A   1      44.999  28.934  31.399  1.00  0.00    -0.354 N 
ATOM     52  N   UNL A   1      44.620  26.545  29.748  1.00  0.00    -0.248 NA
ATOM     53  C   UNL A   1      45.457  24.601  28.765  1.00  0.00     0.031 C 
ATOM     54  C   UNL A   1      46.953  29.205  32.422  1.00  0.00     0.029 A 
ATOM     55  C   UNL A   1      46.246  28.360  31.582  1.00  0.00     0.049 A 
ATOM     56  H   UNL A   1      44.281  28.562  30.837  1.00  0.00     0.167 HD
ATOM     57  C   UNL A   1      45.928  26.350  30.168  1.00  0.00     0.074 A 
ATOM     58  C   UNL A   1      46.386  25.121  29.557  1.00  0.00     0.031 C 
ATOM     59  C   UNL A   1      46.681  27.124  30.986  1.00  0.00     0.037 A 
BRANCH  46  60
ATOM     60  C   UNL A   1      43.832  32.204  33.015  1.00  0.00     0.064 A 
ATOM     61  C   UNL A   1      43.334  32.203  34.327  1.00  0.00     0.173 A 
ATOM     62  C   UNL A   1      44.319  33.413  32.497  1.00  0.00     0.173 A 
ATOM     63  F   UNL A   1      42.850  31.075  34.867  1.00  0.00    -0.203 F 
ATOM     64  C   UNL A   1      43.306  33.374  35.081  1.00  0.00     0.198 A 
ATOM     65  C   UNL A   1      44.317  34.574  33.265  1.00  0.00     0.198 A 
ATOM     66  F   UNL A   1      44.816  33.462  31.252  1.00  0.00    -0.203 F 
ATOM     67  F   UNL A   1      42.791  33.359  36.319  1.00  0.00    -0.200 F 
ATOM     68  C   UNL A   1      43.799  34.557  34.551  1.00  0.00     0.200 A 
ATOM     69  F   UNL A   1      44.815  35.710  32.758  1.00  0.00    -0.200 F 
ATOM     70  F   UNL A   1      43.776  35.680  35.280  1.00  0.00    -0.200 F 
ENDBRANCH  46  60
BRANCH  47  71
ATOM     71  C   UNL A   1      42.918  23.969  27.450  1.00  0.00     0.064 A 
ATOM     72  C   UNL A   1      43.259  23.920  26.091  1.00  0.00     0.173 A 
ATOM     73  C   UNL A   1      42.439  22.791  28.044  1.00  0.00     0.173 A 
ATOM     74  F   UNL A   1      43.718  25.018  25.474  1.00  0.00    -0.203 F 
ATOM     75  C   UNL A   1      43.113  22.746  25.354  1.00  0.00     0.198 A 
ATOM     76  C   UNL A   1      42.322  21.611  27.313  1.00  0.00     0.198 A 
ATOM     77  F   UNL A   1      42.120  22.781  29.346  1.00  0.00    -0.203 F 
ATOM     78  F   UNL A   1      43.419  22.734  24.049  1.00  0.00    -0.200 F 
ATOM     79  C   UNL A   1      42.652  21.590  25.968  1.00  0.00     0.200 A 
ATOM     80  F   UNL A   1      41.902  20.491  27.917  1.00  0.00    -0.200 F 
ATOM     81  F   UNL A   1      42.532  20.457  25.262  1.00  0.00    -0.200 F 
ENDBRANCH  47  71
BRANCH  59  82
ATOM     82  C   UNL A   1      48.070  26.655  31.310  1.00  0.00     0.064 A 
ATOM     83  C   UNL A   1      49.143  26.991  30.471  1.00  0.00     0.173 A 
ATOM     84  C   UNL A   1      48.324  25.802  32.394  1.00  0.00     0.173 A 
ATOM     85  F   UNL A   1      48.951  27.797  29.416  1.00  0.00    -0.203 F 
ATOM     86  C   UNL A   1      50.416  26.473  30.694  1.00  0.00     0.198 A 
ATOM     87  C   UNL A   1      49.603  25.311  32.631  1.00  0.00     0.198 A 
ATOM     88  F   UNL A   1      47.332  25.463  33.232  1.00  0.00    -0.203 F 
ATOM     89  F   UNL A   1      51.417  26.776  29.856  1.00  0.00    -0.200 F 
ATOM     90  C   UNL A   1      50.645  25.637  31.775  1.00  0.00     0.200 A 
ATOM     91  F   UNL A   1      49.830  24.521  33.690  1.00  0.00    -0.200 F 
ATOM     92  F   UNL A   1      51.872  25.143  31.992  1.00  0.00    -0.200 F 
ENDBRANCH  59  82
ENDBRANCH  33  34
ENDBRANCH  25  28
ENDBRANCH  23  24
ENDBRANCH  22  23
ENDBRANCH   1  22
TORSDOF 14
ENDMDL
MODEL 3
REMARK VINA RESULT:     -12.1      5.023      8.447
REMARK SMILES NC(=O)c1c(F)cccc1O[C@@H](F)C(=O)NCCCCNC(=O)c1ccc(-c2c3nc(c(-c4c(F)c(F)c(F)c(F)c4F)c4ccc([nH]4)c(-c4c(F)c(F)c(F)c(F)c4F)c4nc(c(-c5c(F)c(F)c(F)c(F)c5F)c5ccc2[nH]5)C=C4)C=C3)cc1
REMARK SMILES IDX 18 1 17 2 16 3 14 4 15 5 12 7 13 8 11 9 10 10 4 11 5 12 6 13
REMARK SMILES IDX 7 14 9 15 8 16 2 17 1 18 3 21 19 22 20 23 21 24 22 25 23 27
REMARK SMILES IDX 24 28 25 29 86 30 26 31 85 32 27 33 28 34 29 35 79 36 30 37
REMARK SMILES IDX 84 38 78 39 80 40 31 41 83 42 77 43 76 44 32 46 64 47 44 48
REMARK SMILES IDX 63 49 45 50 48 51 62 52 81 53 46 54 47 55 61 57 82 58 49 59
REMARK SMILES IDX 33 60 34 61 42 62 35 63 36 64 40 65 43 66 37 67 38 68 41 69
REMARK SMILES IDX 39 70 65 71 66 72 74 73 67 74 68 75 72 76 75 77 69 78 70 79
REMARK SMILES IDX 73 80 71 81 50 82 51 83 59 84 52 85 53 86 57 87 60 88 54 89
REMARK SMILES IDX 55 90 58 91 56 92
REMARK H PARENT 16 6 1 19 1 20 21 26 80 45 48 56
REMARK Flexibility Score: inf
ROOT
ATOM      1  C   UNL A   1      39.626  22.813  26.428  1.00  0.00     0.023 C 
ENDROOT
BRANCH   1   2
ATOM      2  C   UNL A   1      38.273  23.431  26.111  1.00  0.00     0.116 C 
BRANCH   2   3
ATOM      3  N   UNL A   1      37.794  23.330  24.762  1.00  0.00    -0.350 N 
ATOM      4  C   UNL A   1      36.819  22.505  24.269  1.00  0.00     0.294 C 
ATOM      5  O   UNL A   1      36.534  22.688  23.075  1.00  0.00    -0.267 OA
ATOM      6  H   UNL A   1      38.221  23.930  24.109  1.00  0.00     0.163 HD
BRANCH   4   7
ATOM      7  C   UNL A   1      36.073  21.371  25.095  1.00  0.00     0.440 C 
ATOM      8  F   UNL A   1      36.473  20.137  24.668  1.00  0.00    -0.191 F 
BRANCH   7   9
ATOM      9  O   UNL A   1      34.724  21.262  25.506  1.00  0.00    -0.451 OA
BRANCH   9  10
ATOM     10  C   UNL A   1      33.716  20.942  24.648  1.00  0.00     0.139 A 
ATOM     11  C   UNL A   1      33.199  19.690  24.306  1.00  0.00     0.117 A 
ATOM     12  C   UNL A   1      32.352  19.574  23.197  1.00  0.00     0.139 A 
ATOM     13  F   UNL A   1      31.940  18.370  22.777  1.00  0.00    -0.206 F 
ATOM     14  C   UNL A   1      31.974  20.691  22.453  1.00  0.00     0.040 A 
ATOM     15  C   UNL A   1      33.238  22.076  23.960  1.00  0.00     0.047 A 
ATOM     16  C   UNL A   1      32.393  21.954  22.856  1.00  0.00     0.007 A 
BRANCH  11  17
ATOM     17  C   UNL A   1      33.470  18.463  25.062  1.00  0.00     0.255 C 
ATOM     18  N   UNL A   1      32.718  18.267  26.188  1.00  0.00    -0.365 N 
ATOM     19  H   UNL A   1      32.856  17.461  26.737  1.00  0.00     0.159 HD
ATOM     20  H   UNL A   1      32.041  18.932  26.450  1.00  0.00     0.159 HD
ATOM     21  O   UNL A   1      34.331  17.683  24.698  1.00  0.00    -0.269 OA
ENDBRANCH  11  17
ENDBRANCH   9  10
ENDBRANCH   7   9
ENDBRANCH   4   7
ENDBRANCH   2   3
ENDBRANCH   1   2
BRANCH   1  22
ATOM     22  C   UNL A   1      39.635  21.341  26.836  1.00  0.00     0.023 C 
BRANCH  22  23
ATOM     23  C   UNL A   1      39.638  20.305  25.713  1.00  0.00     0.116 C 
BRANCH  23  24
ATOM     24  N   UNL A   1      40.593  19.218  25.886  1.00  0.00    -0.352 N 
ATOM     25  C   UNL A   1      41.927  19.234  26.232  1.00  0.00     0.251 C 
ATOM     26  H   UNL A   1      40.222  18.320  25.731  1.00  0.00     0.163 HD
ATOM     27  O   UNL A   1      42.565  18.185  26.248  1.00  0.00    -0.269 OA
BRANCH  25  28
ATOM     28  C   UNL A   1      42.618  20.513  26.518  1.00  0.00     0.039 A 
ATOM     29  C   UNL A   1      43.094  21.274  25.446  1.00  0.00     0.014 A 
ATOM     30  C   UNL A   1      42.759  20.989  27.820  1.00  0.00     0.014 A 
ATOM     31  C   UNL A   1      43.574  22.567  25.672  1.00  0.00     0.010 A 
ATOM     32  C   UNL A   1      43.137  22.312  28.034  1.00  0.00     0.010 A 
ATOM     33  C   UNL A   1      43.523  23.128  26.959  1.00  0.00    -0.014 A 
BRANCH  33  34
ATOM     34  C   UNL A   1      43.819  24.567  27.195  1.00  0.00     0.031 A 
ATOM     35  C   UNL A   1      45.200  25.113  26.955  1.00  0.00     0.074 A 
ATOM     36  C   UNL A   1      42.859  25.370  27.703  1.00  0.00     0.049 A 
ATOM     37  N   UNL A   1      45.669  26.311  27.198  1.00  0.00    -0.248 NA
ATOM     38  C   UNL A   1      46.193  24.185  26.392  1.00  0.00     0.031 C 
ATOM     39  C   UNL A   1      41.491  24.957  28.023  1.00  0.00     0.029 A 
ATOM     40  N   UNL A   1      42.886  26.702  28.042  1.00  0.00    -0.354 N 
ATOM     41  C   UNL A   1      47.004  26.277  26.824  1.00  0.00     0.074 A 
ATOM     42  C   UNL A   1      47.291  24.925  26.398  1.00  0.00     0.031 C 
ATOM     43  C   UNL A   1      40.800  26.018  28.467  1.00  0.00     0.029 A 
ATOM     44  C   UNL A   1      41.685  27.178  28.513  1.00  0.00     0.049 A 
ATOM     45  H   UNL A   1      43.690  27.262  27.955  1.00  0.00     0.167 HD
ATOM     46  C   UNL A   1      47.903  27.289  26.807  1.00  0.00     0.037 A 
ATOM     47  C   UNL A   1      41.336  28.408  28.938  1.00  0.00     0.037 A 
ATOM     48  C   UNL A   1      47.612  28.642  27.203  1.00  0.00     0.049 A 
ATOM     49  C   UNL A   1      42.364  29.506  28.937  1.00  0.00     0.074 A 
ATOM     50  C   UNL A   1      48.452  29.742  27.189  1.00  0.00     0.029 A 
ATOM     51  N   UNL A   1      46.384  29.080  27.677  1.00  0.00    -0.354 N 
ATOM     52  N   UNL A   1      43.614  29.467  28.543  1.00  0.00    -0.248 NA
ATOM     53  C   UNL A   1      41.935  30.819  29.439  1.00  0.00     0.031 C 
ATOM     54  C   UNL A   1      47.744  30.838  27.688  1.00  0.00     0.029 A 
ATOM     55  C   UNL A   1      46.449  30.433  27.967  1.00  0.00     0.049 A 
ATOM     56  H   UNL A   1      45.586  28.515  27.788  1.00  0.00     0.167 HD
ATOM     57  C   UNL A   1      44.109  30.752  28.719  1.00  0.00     0.074 A 
ATOM     58  C   UNL A   1      43.024  31.552  29.244  1.00  0.00     0.031 C 
ATOM     59  C   UNL A   1      45.355  31.223  28.467  1.00  0.00     0.037 A 
BRANCH  46  60
ATOM     60  C   UNL A   1      49.287  26.990  26.309  1.00  0.00     0.064 A 
ATOM     61  C   UNL A   1      49.604  27.124  24.949  1.00  0.00     0.173 A 
ATOM     62  C   UNL A   1      50.275  26.488  27.168  1.00  0.00     0.173 A 
ATOM     63  F   UNL A   1      48.692  27.593  24.084  1.00  0.00    -0.203 F 
ATOM     64  C   UNL A   1      50.854  26.747  24.466  1.00  0.00     0.198 A 
ATOM     65  C   UNL A   1      51.534  26.141  26.686  1.00  0.00     0.198 A 
ATOM     66  F   UNL A   1      50.025  26.353  28.479  1.00  0.00    -0.203 F 
ATOM     67  F   UNL A   1      51.123  26.847  23.156  1.00  0.00    -0.200 F 
ATOM     68  C   UNL A   1      51.819  26.259  25.334  1.00  0.00     0.200 A 
ATOM     69  F   UNL A   1      52.472  25.691  27.532  1.00  0.00    -0.200 F 
ATOM     70  F   UNL A   1      53.023  25.902  24.868  1.00  0.00    -0.200 F 
ENDBRANCH  46  60
BRANCH  47  71
ATOM     71  C   UNL A   1      39.937  28.681  29.362  1.00  0.00     0.064 A 
ATOM     72  C   UNL A   1      39.512  28.480  30.683  1.00  0.00     0.173 A 
ATOM     73  C   UNL A   1      38.991  29.153  28.439  1.00  0.00     0.173 A 
ATOM     74  F   UNL A   1      40.374  28.026  31.604  1.00  0.00    -0.203 F 
ATOM     75  C   UNL A   1      38.193  28.727  31.062  1.00  0.00     0.198 A 
ATOM     76  C   UNL A   1      37.680  29.428  28.826  1.00  0.00     0.198 A 
ATOM     77  F   UNL A   1      39.353  29.382  27.169  1.00  0.00    -0.203 F 
ATOM     78  F   UNL A   1      37.806  28.499  32.324  1.00  0.00    -0.200 F 
ATOM     79  C   UNL A   1      37.281  29.208  30.134  1.00  0.00     0.200 A 
ATOM     80  F   UNL A   1      36.810  29.918  27.933  1.00  0.00    -0.200 F 
ATOM     81  F   UNL A   1      36.019  29.465  30.504  1.00  0.00    -0.200 F 
ENDBRANCH  47  71
BRANCH  59  82
ATOM     82  C   UNL A   1      45.614  32.681  28.715  1.00  0.00     0.064 A 
ATOM     83  C   UNL A   1      45.409  33.619  27.692  1.00  0.00     0.173 A 
ATOM     84  C   UNL A   1      46.151  33.136  29.928  1.00  0.00     0.173 A 
ATOM     85  F   UNL A   1      44.905  33.232  26.510  1.00  0.00    -0.203 F 
ATOM     86  C   UNL A   1      45.750  34.957  27.868  1.00  0.00     0.198 A 
ATOM     87  C   UNL A   1      46.463  34.479  30.111  1.00  0.00     0.198 A 
ATOM     88  F   UNL A   1      46.354  32.278  30.940  1.00  0.00    -0.203 F 
ATOM     89  F   UNL A   1      45.582  35.828  26.863  1.00  0.00    -0.200 F 
ATOM     90  C   UNL A   1      46.274  35.386  29.078  1.00  0.00     0.200 A 
ATOM     91  F   UNL A   1      46.947  34.899  31.288  1.00  0.00    -0.200 F 
ATOM     92  F   UNL A   1      46.597  36.676  29.248  1.00  0.00    -0.200 F 
ENDBRANCH  59  82
ENDBRANCH  33  34
ENDBRANCH  25  28
ENDBRANCH  23  24
ENDBRANCH  22  23
ENDBRANCH   1  22
TORSDOF 14
ENDMDL
