MODEL 1
REMARK VINA RESULT:     -12.6      0.000      0.000
REMARK SMILES COc1ccc(C(F)(F)F)cc1-c1cccnc1C(=O)NCCCCNC(=O)c1ccc(-c2c3nc(c(-c4c(F)c(F)c(F)c(F)c4F)c4ccc([nH]4)c(-c4c(F)c(F)c(F)c(F)c4F)c4nc(c(-c5c(F)c(F)c(F)c(F)c5F)c5ccc2[nH]5)C=C4)C=C3)cc1
REMARK SMILES IDX 23 1 22 2 21 3 19 4 20 5 18 7 13 8 14 9 15 10 17 11 16 12
REMARK SMILES IDX 12 13 3 14 4 15 5 16 11 17 6 18 2 19 1 20 7 21 8 22 9 23
REMARK SMILES IDX 10 24 24 25 25 26 26 27 27 28 28 30 29 31 30 32 91 33 31 34
REMARK SMILES IDX 90 35 32 36 33 37 34 38 84 39 35 40 89 41 83 42 85 43 36 44
REMARK SMILES IDX 88 45 82 46 81 47 37 49 69 50 49 51 68 52 50 53 53 54 67 55
REMARK SMILES IDX 86 56 51 57 52 58 66 60 87 61 54 62 38 63 39 64 47 65 40 66
REMARK SMILES IDX 41 67 45 68 48 69 42 70 43 71 46 72 44 73 70 74 71 75 79 76
REMARK SMILES IDX 72 77 73 78 77 79 80 80 74 81 75 82 78 83 76 84 55 85 56 86
REMARK SMILES IDX 64 87 57 88 58 89 62 90 65 91 59 92 60 93 63 94 61 95
REMARK H PARENT 21 6 26 29 85 48 53 59
REMARK Flexibility Score: inf
ROOT
ATOM      1  C   UNL A   1      32.452  28.387  27.360  1.00  0.00     0.023 C 
ENDROOT
BRANCH   1   2
ATOM      2  C   UNL A   1      32.216  27.008  26.766  1.00  0.00     0.116 C 
BRANCH   2   3
ATOM      3  N   UNL A   1      30.903  26.443  26.906  1.00  0.00    -0.351 N 
ATOM      4  C   UNL A   1      30.279  25.460  26.157  1.00  0.00     0.270 C 
ATOM      5  O   UNL A   1      29.192  25.063  26.590  1.00  0.00    -0.267 OA
ATOM      6  H   UNL A   1      30.366  26.808  27.646  1.00  0.00     0.163 HD
BRANCH   4   7
ATOM      7  C   UNL A   1      30.789  24.882  24.843  1.00  0.00     0.136 A 
ATOM      8  C   UNL A   1      31.094  25.587  23.662  1.00  0.00     0.017 A 
ATOM      9  C   UNL A   1      31.728  24.856  22.631  1.00  0.00     0.013 A 
ATOM     10  C   UNL A   1      32.013  23.504  22.772  1.00  0.00     0.021 A 
ATOM     11  N   UNL A   1      31.055  23.543  24.972  1.00  0.00    -0.250 NA
ATOM     12  C   UNL A   1      31.653  22.895  23.952  1.00  0.00     0.112 A 
BRANCH   8  13
ATOM     13  C   UNL A   1      30.809  27.004  23.401  1.00  0.00     0.027 A 
ATOM     14  C   UNL A   1      31.838  27.957  23.208  1.00  0.00     0.126 A 
ATOM     15  C   UNL A   1      31.526  29.284  22.897  1.00  0.00     0.048 A 
ATOM     16  C   UNL A   1      30.195  29.687  22.777  1.00  0.00     0.017 A 
ATOM     17  C   UNL A   1      29.473  27.445  23.332  1.00  0.00     0.025 A 
ATOM     18  C   UNL A   1      29.154  28.779  23.015  1.00  0.00     0.056 A 
BRANCH  14  19
ATOM     19  O   UNL A   1      33.170  27.701  23.429  1.00  0.00    -0.496 OA
ATOM     20  C   UNL A   1      34.074  28.523  22.693  1.00  0.00     0.278 C 
ENDBRANCH  14  19
BRANCH  18  21
ATOM     21  C   UNL A   1      27.712  29.202  22.864  1.00  0.00     0.416 C 
ATOM     22  F   UNL A   1      27.354  30.210  23.705  1.00  0.00    -0.166 F 
ATOM     23  F   UNL A   1      27.442  29.649  21.605  1.00  0.00    -0.166 F 
ATOM     24  F   UNL A   1      26.832  28.190  23.098  1.00  0.00    -0.166 F 
ENDBRANCH  18  21
ENDBRANCH   8  13
ENDBRANCH   4   7
ENDBRANCH   2   3
ENDBRANCH   1   2
BRANCH   1  25
ATOM     25  C   UNL A   1      31.760  29.569  26.682  1.00  0.00     0.023 C 
BRANCH  25  26
ATOM     26  C   UNL A   1      32.626  30.720  26.173  1.00  0.00     0.116 C 
BRANCH  26  27
ATOM     27  N   UNL A   1      32.491  31.982  26.888  1.00  0.00    -0.352 N 
ATOM     28  C   UNL A   1      33.428  32.653  27.652  1.00  0.00     0.251 C 
ATOM     29  H   UNL A   1      31.611  32.417  26.817  1.00  0.00     0.163 HD
ATOM     30  O   UNL A   1      33.161  33.749  28.127  1.00  0.00    -0.269 OA
BRANCH  28  31
ATOM     31  C   UNL A   1      34.727  32.007  27.962  1.00  0.00     0.039 A 
ATOM     32  C   UNL A   1      35.881  32.797  27.952  1.00  0.00     0.014 A 
ATOM     33  C   UNL A   1      34.802  30.669  28.350  1.00  0.00     0.014 A 
ATOM     34  C   UNL A   1      37.076  32.287  28.470  1.00  0.00     0.010 A 
ATOM     35  C   UNL A   1      35.973  30.183  28.931  1.00  0.00     0.010 A 
ATOM     36  C   UNL A   1      37.109  31.003  29.036  1.00  0.00    -0.014 A 
BRANCH  36  37
ATOM     37  C   UNL A   1      38.279  30.545  29.834  1.00  0.00     0.031 A 
ATOM     38  C   UNL A   1      39.248  29.541  29.282  1.00  0.00     0.074 A 
ATOM     39  C   UNL A   1      38.408  30.966  31.108  1.00  0.00     0.049 A 
ATOM     40  N   UNL A   1      40.280  28.980  29.864  1.00  0.00    -0.248 NA
ATOM     41  C   UNL A   1      39.016  29.087  27.903  1.00  0.00     0.031 C 
ATOM     42  C   UNL A   1      37.495  31.885  31.792  1.00  0.00     0.029 A 
ATOM     43  N   UNL A   1      39.349  30.667  32.063  1.00  0.00    -0.354 N 
ATOM     44  C   UNL A   1      40.810  28.101  28.931  1.00  0.00     0.074 A 
ATOM     45  C   UNL A   1      39.963  28.170  27.759  1.00  0.00     0.031 C 
ATOM     46  C   UNL A   1      37.931  32.090  33.045  1.00  0.00     0.029 A 
ATOM     47  C   UNL A   1      39.134  31.295  33.267  1.00  0.00     0.049 A 
ATOM     48  H   UNL A   1      40.107  30.059  31.901  1.00  0.00     0.167 HD
ATOM     49  C   UNL A   1      41.912  27.320  29.036  1.00  0.00     0.037 A 
ATOM     50  C   UNL A   1      39.824  31.234  34.423  1.00  0.00     0.037 A 
ATOM     51  C   UNL A   1      42.769  27.266  30.193  1.00  0.00     0.049 A 
ATOM     52  C   UNL A   1      41.055  30.375  34.505  1.00  0.00     0.074 A 
ATOM     53  C   UNL A   1      43.946  26.556  30.362  1.00  0.00     0.029 A 
ATOM     54  N   UNL A   1      42.538  27.944  31.379  1.00  0.00    -0.354 N 
ATOM     55  N   UNL A   1      41.591  29.611  33.585  1.00  0.00    -0.248 NA
ATOM     56  C   UNL A   1      41.779  30.375  35.784  1.00  0.00     0.031 C 
ATOM     57  C   UNL A   1      44.409  26.780  31.664  1.00  0.00     0.029 A 
ATOM     58  C   UNL A   1      43.542  27.657  32.292  1.00  0.00     0.049 A 
ATOM     59  H   UNL A   1      41.775  28.543  31.548  1.00  0.00     0.167 HD
ATOM     60  C   UNL A   1      42.725  29.061  34.164  1.00  0.00     0.074 A 
ATOM     61  C   UNL A   1      42.809  29.587  35.510  1.00  0.00     0.031 C 
ATOM     62  C   UNL A   1      43.618  28.194  33.625  1.00  0.00     0.037 A 
BRANCH  49  63
ATOM     63  C   UNL A   1      42.264  26.463  27.857  1.00  0.00     0.064 A 
ATOM     64  C   UNL A   1      43.219  26.872  26.914  1.00  0.00     0.173 A 
ATOM     65  C   UNL A   1      41.668  25.205  27.685  1.00  0.00     0.173 A 
ATOM     66  F   UNL A   1      43.809  28.071  27.029  1.00  0.00    -0.203 F 
ATOM     67  C   UNL A   1      43.544  26.065  25.828  1.00  0.00     0.198 A 
ATOM     68  C   UNL A   1      42.015  24.388  26.612  1.00  0.00     0.198 A 
ATOM     69  F   UNL A   1      40.754  24.763  28.564  1.00  0.00    -0.203 F 
ATOM     70  F   UNL A   1      44.427  26.495  24.916  1.00  0.00    -0.200 F 
ATOM     71  C   UNL A   1      42.946  24.822  25.681  1.00  0.00     0.200 A 
ATOM     72  F   UNL A   1      41.445  23.183  26.477  1.00  0.00    -0.200 F 
ATOM     73  F   UNL A   1      43.264  24.044  24.638  1.00  0.00    -0.200 F 
ENDBRANCH  49  63
BRANCH  50  74
ATOM     74  C   UNL A   1      39.384  32.041  35.589  1.00  0.00     0.064 A 
ATOM     75  C   UNL A   1      38.475  31.518  36.520  1.00  0.00     0.173 A 
ATOM     76  C   UNL A   1      39.857  33.344  35.797  1.00  0.00     0.173 A 
ATOM     77  F   UNL A   1      37.980  30.284  36.348  1.00  0.00    -0.203 F 
ATOM     78  C   UNL A   1      38.043  32.274  37.606  1.00  0.00     0.198 A 
ATOM     79  C   UNL A   1      39.441  34.091  36.898  1.00  0.00     0.198 A 
ATOM     80  F   UNL A   1      40.729  33.888  34.938  1.00  0.00    -0.203 F 
ATOM     81  F   UNL A   1      37.144  31.764  38.460  1.00  0.00    -0.200 F 
ATOM     82  C   UNL A   1      38.529  33.559  37.798  1.00  0.00     0.200 A 
ATOM     83  F   UNL A   1      39.923  35.327  37.086  1.00  0.00    -0.200 F 
ATOM     84  F   UNL A   1      38.116  34.285  38.845  1.00  0.00    -0.200 F 
ENDBRANCH  50  74
BRANCH  62  85
ATOM     85  C   UNL A   1      44.778  27.784  34.482  1.00  0.00     0.064 A 
ATOM     86  C   UNL A   1      44.739  26.617  35.259  1.00  0.00     0.173 A 
ATOM     87  C   UNL A   1      45.955  28.547  34.495  1.00  0.00     0.173 A 
ATOM     88  F   UNL A   1      43.630  25.866  35.294  1.00  0.00    -0.203 F 
ATOM     89  C   UNL A   1      45.832  26.240  36.035  1.00  0.00     0.198 A 
ATOM     90  C   UNL A   1      47.054  28.154  35.253  1.00  0.00     0.198 A 
ATOM     91  F   UNL A   1      46.042  29.669  33.766  1.00  0.00    -0.203 F 
ATOM     92  F   UNL A   1      45.760  25.143  36.803  1.00  0.00    -0.200 F 
ATOM     93  C   UNL A   1      46.990  27.004  36.026  1.00  0.00     0.200 A 
ATOM     94  F   UNL A   1      48.175  28.887  35.237  1.00  0.00    -0.200 F 
ATOM     95  F   UNL A   1      48.043  26.636  36.771  1.00  0.00    -0.200 F 
ENDBRANCH  62  85
ENDBRANCH  36  37
ENDBRANCH  28  31
ENDBRANCH  26  27
ENDBRANCH  25  26
ENDBRANCH   1  25
TORSDOF 14
ENDMDL
MODEL 2
REMARK VINA RESULT:     -12.6      0.382      7.306
REMARK SMILES COc1ccc(C(F)(F)F)cc1-c1cccnc1C(=O)NCCCCNC(=O)c1ccc(-c2c3nc(c(-c4c(F)c(F)c(F)c(F)c4F)c4ccc([nH]4)c(-c4c(F)c(F)c(F)c(F)c4F)c4nc(c(-c5c(F)c(F)c(F)c(F)c5F)c5ccc2[nH]5)C=C4)C=C3)cc1
REMARK SMILES IDX 23 1 22 2 21 3 19 4 20 5 18 7 13 8 14 9 15 10 17 11 16 12
REMARK SMILES IDX 12 13 3 14 4 15 5 16 11 17 6 18 2 19 1 20 7 21 8 22 9 23
REMARK SMILES IDX 10 24 24 25 25 26 26 27 27 28 28 30 29 31 30 32 91 33 31 34
REMARK SMILES IDX 90 35 32 36 33 37 34 38 84 39 35 40 89 41 83 42 85 43 36 44
REMARK SMILES IDX 88 45 82 46 81 47 37 49 69 50 49 51 68 52 50 53 53 54 67 55
REMARK SMILES IDX 86 56 51 57 52 58 66 60 87 61 54 62 38 63 39 64 47 65 40 66
REMARK SMILES IDX 41 67 45 68 48 69 42 70 43 71 46 72 44 73 70 74 71 75 79 76
REMARK SMILES IDX 72 77 73 78 77 79 80 80 74 81 75 82 78 83 76 84 55 85 56 86
REMARK SMILES IDX 64 87 57 88 58 89 62 90 65 91 59 92 60 93 63 94 61 95
REMARK H PARENT 21 6 26 29 85 48 53 59
REMARK Flexibility Score: inf
ROOT
ATOM      1  C   UNL A   1      32.376  28.402  27.382  1.00  0.00     0.023 C 
ENDROOT
BRANCH   1   2
ATOM      2  C   UNL A   1      32.153  27.025  26.779  1.00  0.00     0.116 C 
BRANCH   2   3
ATOM      3  N   UNL A   1      30.835  26.464  26.879  1.00  0.00    -0.351 N 
ATOM      4  C   UNL A   1      30.229  25.486  26.109  1.00  0.00     0.270 C 
ATOM      5  O   UNL A   1      29.129  25.093  26.509  1.00  0.00    -0.267 OA
ATOM      6  H   UNL A   1      30.277  26.830  27.603  1.00  0.00     0.163 HD
BRANCH   4   7
ATOM      7  C   UNL A   1      30.775  24.908  24.810  1.00  0.00     0.136 A 
ATOM      8  C   UNL A   1      31.123  25.615  23.641  1.00  0.00     0.017 A 
ATOM      9  C   UNL A   1      31.783  24.884  22.628  1.00  0.00     0.013 A 
ATOM     10  C   UNL A   1      32.053  23.529  22.772  1.00  0.00     0.021 A 
ATOM     11  N   UNL A   1      31.028  23.568  24.942  1.00  0.00    -0.250 NA
ATOM     12  C   UNL A   1      31.653  22.919  23.939  1.00  0.00     0.112 A 
BRANCH   8  13
ATOM     13  C   UNL A   1      30.856  27.035  23.377  1.00  0.00     0.027 A 
ATOM     14  C   UNL A   1      31.896  27.975  23.183  1.00  0.00     0.126 A 
ATOM     15  C   UNL A   1      31.602  29.306  22.869  1.00  0.00     0.048 A 
ATOM     16  C   UNL A   1      30.276  29.725  22.745  1.00  0.00     0.017 A 
ATOM     17  C   UNL A   1      29.525  27.493  23.305  1.00  0.00     0.025 A 
ATOM     18  C   UNL A   1      29.223  28.830  22.984  1.00  0.00     0.056 A 
BRANCH  14  19
ATOM     19  O   UNL A   1      33.225  27.703  23.407  1.00  0.00    -0.496 OA
ATOM     20  C   UNL A   1      34.140  28.578  22.751  1.00  0.00     0.278 C 
ENDBRANCH  14  19
BRANCH  18  21
ATOM     21  C   UNL A   1      27.788  29.271  22.831  1.00  0.00     0.416 C 
ATOM     22  F   UNL A   1      27.448  30.302  23.652  1.00  0.00    -0.166 F 
ATOM     23  F   UNL A   1      27.519  29.696  21.563  1.00  0.00    -0.166 F 
ATOM     24  F   UNL A   1      26.894  28.278  23.089  1.00  0.00    -0.166 F 
ENDBRANCH  18  21
ENDBRANCH   8  13
ENDBRANCH   4   7
ENDBRANCH   2   3
ENDBRANCH   1   2
BRANCH   1  25
ATOM     25  C   UNL A   1      31.717  29.588  26.678  1.00  0.00     0.023 C 
BRANCH  25  26
ATOM     26  C   UNL A   1      32.614  30.709  26.155  1.00  0.00     0.116 C 
BRANCH  26  27
ATOM     27  N   UNL A   1      32.541  31.972  26.877  1.00  0.00    -0.352 N 
ATOM     28  C   UNL A   1      33.505  32.586  27.654  1.00  0.00     0.251 C 
ATOM     29  H   UNL A   1      31.687  32.455  26.799  1.00  0.00     0.163 HD
ATOM     30  O   UNL A   1      33.294  33.692  28.133  1.00  0.00    -0.269 OA
BRANCH  28  31
ATOM     31  C   UNL A   1      34.764  31.868  27.973  1.00  0.00     0.039 A 
ATOM     32  C   UNL A   1      35.952  32.604  28.034  1.00  0.00     0.014 A 
ATOM     33  C   UNL A   1      34.767  30.512  28.300  1.00  0.00     0.014 A 
ATOM     34  C   UNL A   1      37.106  32.017  28.564  1.00  0.00     0.010 A 
ATOM     35  C   UNL A   1      35.897  29.947  28.892  1.00  0.00     0.010 A 
ATOM     36  C   UNL A   1      37.063  30.708  29.070  1.00  0.00    -0.014 A 
BRANCH  36  37
ATOM     37  C   UNL A   1      38.185  30.162  29.880  1.00  0.00     0.031 A 
ATOM     38  C   UNL A   1      38.406  30.604  31.297  1.00  0.00     0.074 A 
ATOM     39  C   UNL A   1      39.073  29.332  29.294  1.00  0.00     0.049 A 
ATOM     40  N   UNL A   1      39.373  30.284  32.122  1.00  0.00    -0.248 NA
ATOM     41  C   UNL A   1      37.428  31.549  31.854  1.00  0.00     0.031 C 
ATOM     42  C   UNL A   1      39.016  28.880  27.902  1.00  0.00     0.029 A 
ATOM     43  N   UNL A   1      40.205  28.732  29.789  1.00  0.00    -0.354 N 
ATOM     44  C   UNL A   1      39.127  30.996  33.287  1.00  0.00     0.074 A 
ATOM     45  C   UNL A   1      37.945  31.797  33.050  1.00  0.00     0.031 C 
ATOM     46  C   UNL A   1      40.052  28.061  27.662  1.00  0.00     0.029 A 
ATOM     47  C   UNL A   1      40.864  27.953  28.868  1.00  0.00     0.049 A 
ATOM     48  H   UNL A   1      40.516  28.849  30.715  1.00  0.00     0.167 HD
ATOM     49  C   UNL A   1      39.815  30.971  34.455  1.00  0.00     0.037 A 
ATOM     50  C   UNL A   1      41.999  27.235  28.980  1.00  0.00     0.037 A 
ATOM     51  C   UNL A   1      40.978  30.158  34.701  1.00  0.00     0.049 A 
ATOM     52  C   UNL A   1      42.731  27.209  30.293  1.00  0.00     0.074 A 
ATOM     53  C   UNL A   1      41.699  30.016  35.875  1.00  0.00     0.029 A 
ATOM     54  N   UNL A   1      41.595  29.354  33.755  1.00  0.00    -0.354 N 
ATOM     55  N   UNL A   1      42.440  27.824  31.413  1.00  0.00    -0.248 NA
ATOM     56  C   UNL A   1      43.946  26.384  30.358  1.00  0.00     0.031 C 
ATOM     57  C   UNL A   1      42.771  29.151  35.630  1.00  0.00     0.029 A 
ATOM     58  C   UNL A   1      42.697  28.725  34.314  1.00  0.00     0.049 A 
ATOM     59  H   UNL A   1      41.293  29.244  32.825  1.00  0.00     0.167 HD
ATOM     60  C   UNL A   1      43.418  27.442  32.320  1.00  0.00     0.074 A 
ATOM     61  C   UNL A   1      44.304  26.532  31.626  1.00  0.00     0.031 C 
ATOM     62  C   UNL A   1      43.566  27.815  33.615  1.00  0.00     0.037 A 
BRANCH  49  63
ATOM     63  C   UNL A   1      39.317  31.846  35.567  1.00  0.00     0.064 A 
ATOM     64  C   UNL A   1      39.721  33.184  35.681  1.00  0.00     0.173 A 
ATOM     65  C   UNL A   1      38.402  31.352  36.508  1.00  0.00     0.173 A 
ATOM     66  F   UNL A   1      40.603  33.699  34.811  1.00  0.00    -0.203 F 
ATOM     67  C   UNL A   1      39.246  33.989  36.712  1.00  0.00     0.198 A 
ATOM     68  C   UNL A   1      37.909  32.168  37.523  1.00  0.00     0.198 A 
ATOM     69  F   UNL A   1      37.978  30.081  36.438  1.00  0.00    -0.203 F 
ATOM     70  F   UNL A   1      39.678  35.253  36.826  1.00  0.00    -0.200 F 
ATOM     71  C   UNL A   1      38.337  33.483  37.628  1.00  0.00     0.200 A 
ATOM     72  F   UNL A   1      37.021  31.680  38.401  1.00  0.00    -0.200 F 
ATOM     73  F   UNL A   1      37.877  34.261  38.617  1.00  0.00    -0.200 F 
ENDBRANCH  49  63
BRANCH  50  74
ATOM     74  C   UNL A   1      42.495  26.450  27.821  1.00  0.00     0.064 A 
ATOM     75  C   UNL A   1      43.444  26.992  26.943  1.00  0.00     0.173 A 
ATOM     76  C   UNL A   1      42.032  25.152  27.564  1.00  0.00     0.173 A 
ATOM     77  F   UNL A   1      43.898  28.239  27.138  1.00  0.00    -0.203 F 
ATOM     78  C   UNL A   1      43.901  26.272  25.843  1.00  0.00     0.198 A 
ATOM     79  C   UNL A   1      42.508  24.423  26.476  1.00  0.00     0.198 A 
ATOM     80  F   UNL A   1      41.127  24.588  28.376  1.00  0.00    -0.203 F 
ATOM     81  F   UNL A   1      44.780  26.828  24.998  1.00  0.00    -0.200 F 
ATOM     82  C   UNL A   1      43.436  24.985  25.612  1.00  0.00     0.200 A 
ATOM     83  F   UNL A   1      42.066  23.176  26.263  1.00  0.00    -0.200 F 
ATOM     84  F   UNL A   1      43.878  24.290  24.556  1.00  0.00    -0.200 F 
ENDBRANCH  50  74
BRANCH  62  85
ATOM     85  C   UNL A   1      44.713  27.217  34.374  1.00  0.00     0.064 A 
ATOM     86  C   UNL A   1      45.952  27.867  34.462  1.00  0.00     0.173 A 
ATOM     87  C   UNL A   1      44.556  25.998  35.050  1.00  0.00     0.173 A 
ATOM     88  F   UNL A   1      46.155  29.024  33.817  1.00  0.00    -0.203 F 
ATOM     89  C   UNL A   1      47.001  27.307  35.187  1.00  0.00     0.198 A 
ATOM     90  C   UNL A   1      45.599  25.453  35.793  1.00  0.00     0.198 A 
ATOM     91  F   UNL A   1      43.389  25.340  34.998  1.00  0.00    -0.203 F 
ATOM     92  F   UNL A   1      48.191  27.923  35.225  1.00  0.00    -0.200 F 
ATOM     93  C   UNL A   1      46.822  26.105  35.856  1.00  0.00     0.200 A 
ATOM     94  F   UNL A   1      45.423  24.297  36.447  1.00  0.00    -0.200 F 
ATOM     95  F   UNL A   1      47.833  25.570  36.557  1.00  0.00    -0.200 F 
ENDBRANCH  62  85
ENDBRANCH  36  37
ENDBRANCH  28  31
ENDBRANCH  26  27
ENDBRANCH  25  26
ENDBRANCH   1  25
TORSDOF 14
ENDMDL
MODEL 3
REMARK VINA RESULT:     -12.4      1.781      7.673
REMARK SMILES COc1ccc(C(F)(F)F)cc1-c1cccnc1C(=O)NCCCCNC(=O)c1ccc(-c2c3nc(c(-c4c(F)c(F)c(F)c(F)c4F)c4ccc([nH]4)c(-c4c(F)c(F)c(F)c(F)c4F)c4nc(c(-c5c(F)c(F)c(F)c(F)c5F)c5ccc2[nH]5)C=C4)C=C3)cc1
REMARK SMILES IDX 23 1 22 2 21 3 19 4 20 5 18 7 13 8 14 9 15 10 17 11 16 12
REMARK SMILES IDX 12 13 3 14 4 15 5 16 11 17 6 18 2 19 1 20 7 21 8 22 9 23
REMARK SMILES IDX 10 24 24 25 25 26 26 27 27 28 28 30 29 31 30 32 91 33 31 34
REMARK SMILES IDX 90 35 32 36 33 37 34 38 84 39 35 40 89 41 83 42 85 43 36 44
REMARK SMILES IDX 88 45 82 46 81 47 37 49 69 50 49 51 68 52 50 53 53 54 67 55
REMARK SMILES IDX 86 56 51 57 52 58 66 60 87 61 54 62 38 63 39 64 47 65 40 66
REMARK SMILES IDX 41 67 45 68 48 69 42 70 43 71 46 72 44 73 70 74 71 75 79 76
REMARK SMILES IDX 72 77 73 78 77 79 80 80 74 81 75 82 78 83 76 84 55 85 56 86
REMARK SMILES IDX 64 87 57 88 58 89 62 90 65 91 59 92 60 93 63 94 61 95
REMARK H PARENT 21 6 26 29 85 48 53 59
REMARK Flexibility Score: inf
ROOT
ATOM      1  C   UNL A   1      31.526  28.275  27.329  1.00  0.00     0.023 C 
ENDROOT
BRANCH   1   2
ATOM      2  C   UNL A   1      32.003  26.923  26.827  1.00  0.00     0.116 C 
BRANCH   2   3
ATOM      3  N   UNL A   1      31.002  25.932  26.542  1.00  0.00    -0.351 N 
ATOM      4  C   UNL A   1      31.117  24.554  26.476  1.00  0.00     0.270 C 
ATOM      5  O   UNL A   1      30.056  23.933  26.350  1.00  0.00    -0.267 OA
ATOM      6  H   UNL A   1      30.100  26.285  26.367  1.00  0.00     0.163 HD
BRANCH   4   7
ATOM      7  C   UNL A   1      32.420  23.765  26.492  1.00  0.00     0.136 A 
ATOM      8  C   UNL A   1      33.470  23.834  25.556  1.00  0.00     0.017 A 
ATOM      9  C   UNL A   1      34.659  23.143  25.882  1.00  0.00     0.013 A 
ATOM     10  C   UNL A   1      34.773  22.414  27.058  1.00  0.00     0.021 A 
ATOM     11  N   UNL A   1      32.529  23.030  27.644  1.00  0.00    -0.250 NA
ATOM     12  C   UNL A   1      33.684  22.383  27.899  1.00  0.00     0.112 A 
BRANCH   8  13
ATOM     13  C   UNL A   1      33.442  24.550  24.273  1.00  0.00     0.027 A 
ATOM     14  C   UNL A   1      33.131  23.901  23.054  1.00  0.00     0.126 A 
ATOM     15  C   UNL A   1      33.050  24.629  21.863  1.00  0.00     0.048 A 
ATOM     16  C   UNL A   1      33.278  26.006  21.861  1.00  0.00     0.017 A 
ATOM     17  C   UNL A   1      33.725  25.930  24.238  1.00  0.00     0.025 A 
ATOM     18  C   UNL A   1      33.640  26.668  23.043  1.00  0.00     0.056 A 
BRANCH  14  19
ATOM     19  O   UNL A   1      33.017  22.538  22.920  1.00  0.00    -0.496 OA
ATOM     20  C   UNL A   1      31.685  22.056  22.753  1.00  0.00     0.278 C 
ENDBRANCH  14  19
BRANCH  18  21
ATOM     21  C   UNL A   1      33.866  28.161  23.052  1.00  0.00     0.416 C 
ATOM     22  F   UNL A   1      32.725  28.881  22.874  1.00  0.00    -0.166 F 
ATOM     23  F   UNL A   1      34.399  28.588  24.232  1.00  0.00    -0.166 F 
ATOM     24  F   UNL A   1      34.725  28.576  22.081  1.00  0.00    -0.166 F 
ENDBRANCH  18  21
ENDBRANCH   8  13
ENDBRANCH   4   7
ENDBRANCH   2   3
ENDBRANCH   1   2
BRANCH   1  25
ATOM     25  C   UNL A   1      31.417  29.403  26.303  1.00  0.00     0.023 C 
BRANCH  25  26
ATOM     26  C   UNL A   1      32.600  30.357  26.146  1.00  0.00     0.116 C 
BRANCH  26  27
ATOM     27  N   UNL A   1      32.489  31.630  26.844  1.00  0.00    -0.352 N 
ATOM     28  C   UNL A   1      33.438  32.294  27.598  1.00  0.00     0.251 C 
ATOM     29  H   UNL A   1      31.616  32.079  26.768  1.00  0.00     0.163 HD
ATOM     30  O   UNL A   1      33.191  33.401  28.059  1.00  0.00    -0.269 OA
BRANCH  28  31
ATOM     31  C   UNL A   1      34.726  31.630  27.915  1.00  0.00     0.039 A 
ATOM     32  C   UNL A   1      35.868  32.425  28.053  1.00  0.00     0.014 A 
ATOM     33  C   UNL A   1      34.797  30.259  28.168  1.00  0.00     0.014 A 
ATOM     34  C   UNL A   1      37.039  31.873  28.585  1.00  0.00     0.010 A 
ATOM     35  C   UNL A   1      35.940  29.725  28.763  1.00  0.00     0.010 A 
ATOM     36  C   UNL A   1      37.056  30.537  29.018  1.00  0.00    -0.014 A 
BRANCH  36  37
ATOM     37  C   UNL A   1      38.184  30.008  29.830  1.00  0.00     0.031 A 
ATOM     38  C   UNL A   1      38.411  30.475  31.239  1.00  0.00     0.074 A 
ATOM     39  C   UNL A   1      39.072  29.172  29.253  1.00  0.00     0.049 A 
ATOM     40  N   UNL A   1      39.384  30.172  32.064  1.00  0.00    -0.248 NA
ATOM     41  C   UNL A   1      37.433  31.426  31.785  1.00  0.00     0.031 C 
ATOM     42  C   UNL A   1      39.009  28.696  27.869  1.00  0.00     0.029 A 
ATOM     43  N   UNL A   1      40.209  28.585  29.752  1.00  0.00    -0.354 N 
ATOM     44  C   UNL A   1      39.142  30.903  33.218  1.00  0.00     0.074 A 
ATOM     45  C   UNL A   1      37.955  31.696  32.974  1.00  0.00     0.031 C 
ATOM     46  C   UNL A   1      40.047  27.877  27.637  1.00  0.00     0.029 A 
ATOM     47  C   UNL A   1      40.866  27.792  28.841  1.00  0.00     0.049 A 
ATOM     48  H   UNL A   1      40.524  28.718  30.675  1.00  0.00     0.167 HD
ATOM     49  C   UNL A   1      39.836  30.900  34.382  1.00  0.00     0.037 A 
ATOM     50  C   UNL A   1      42.004  27.080  28.959  1.00  0.00     0.037 A 
ATOM     51  C   UNL A   1      41.004  30.095  34.636  1.00  0.00     0.049 A 
ATOM     52  C   UNL A   1      42.743  27.079  30.268  1.00  0.00     0.074 A 
ATOM     53  C   UNL A   1      41.731  29.976  35.808  1.00  0.00     0.029 A 
ATOM     54  N   UNL A   1      41.618  29.278  33.700  1.00  0.00    -0.354 N 
ATOM     55  N   UNL A   1      42.456  27.711  31.379  1.00  0.00    -0.248 NA
ATOM     56  C   UNL A   1      43.961  26.259  30.340  1.00  0.00     0.031 C 
ATOM     57  C   UNL A   1      42.805  29.110  35.571  1.00  0.00     0.029 A 
ATOM     58  C   UNL A   1      42.725  28.662  34.263  1.00  0.00     0.049 A 
ATOM     59  H   UNL A   1      41.311  29.151  32.773  1.00  0.00     0.167 HD
ATOM     60  C   UNL A   1      43.440  27.348  32.287  1.00  0.00     0.074 A 
ATOM     61  C   UNL A   1      44.326  26.430  31.603  1.00  0.00     0.031 C 
ATOM     62  C   UNL A   1      43.594  27.744  33.574  1.00  0.00     0.037 A 
BRANCH  49  63
ATOM     63  C   UNL A   1      39.341  31.791  35.482  1.00  0.00     0.064 A 
ATOM     64  C   UNL A   1      38.439  31.326  36.450  1.00  0.00     0.173 A 
ATOM     65  C   UNL A   1      39.799  33.113  35.591  1.00  0.00     0.173 A 
ATOM     66  F   UNL A   1      37.964  30.074  36.383  1.00  0.00    -0.203 F 
ATOM     67  C   UNL A   1      37.993  32.159  37.472  1.00  0.00     0.198 A 
ATOM     68  C   UNL A   1      39.371  33.936  36.629  1.00  0.00     0.198 A 
ATOM     69  F   UNL A   1      40.670  33.603  34.694  1.00  0.00    -0.203 F 
ATOM     70  F   UNL A   1      37.098  31.707  38.360  1.00  0.00    -0.200 F 
ATOM     71  C   UNL A   1      38.463  33.461  37.563  1.00  0.00     0.200 A 
ATOM     72  F   UNL A   1      39.835  35.189  36.723  1.00  0.00    -0.200 F 
ATOM     73  F   UNL A   1      38.037  34.260  38.551  1.00  0.00    -0.200 F 
ENDBRANCH  49  63
BRANCH  50  74
ATOM     74  C   UNL A   1      42.496  26.278  27.810  1.00  0.00     0.064 A 
ATOM     75  C   UNL A   1      43.460  26.798  26.935  1.00  0.00     0.173 A 
ATOM     76  C   UNL A   1      42.016  24.985  27.561  1.00  0.00     0.173 A 
ATOM     77  F   UNL A   1      43.931  28.040  27.122  1.00  0.00    -0.203 F 
ATOM     78  C   UNL A   1      43.914  26.061  25.844  1.00  0.00     0.198 A 
ATOM     79  C   UNL A   1      42.489  24.239  26.483  1.00  0.00     0.198 A 
ATOM     80  F   UNL A   1      41.096  24.442  28.371  1.00  0.00    -0.203 F 
ATOM     81  F   UNL A   1      44.808  26.597  25.001  1.00  0.00    -0.200 F 
ATOM     82  C   UNL A   1      43.432  24.780  25.621  1.00  0.00     0.200 A 
ATOM     83  F   UNL A   1      42.029  22.997  26.278  1.00  0.00    -0.200 F 
ATOM     84  F   UNL A   1      43.871  24.069  24.574  1.00  0.00    -0.200 F 
ENDBRANCH  50  74
BRANCH  62  85
ATOM     85  C   UNL A   1      44.747  27.162  34.337  1.00  0.00     0.064 A 
ATOM     86  C   UNL A   1      44.633  25.943  35.021  1.00  0.00     0.173 A 
ATOM     87  C   UNL A   1      45.989  27.814  34.352  1.00  0.00     0.173 A 
ATOM     88  F   UNL A   1      43.462  25.293  35.051  1.00  0.00    -0.203 F 
ATOM     89  C   UNL A   1      45.719  25.408  35.708  1.00  0.00     0.198 A 
ATOM     90  C   UNL A   1      47.078  27.264  35.020  1.00  0.00     0.198 A 
ATOM     91  F   UNL A   1      46.148  28.981  33.709  1.00  0.00    -0.203 F 
ATOM     92  F   UNL A   1      45.578  24.262  36.390  1.00  0.00    -0.200 F 
ATOM     93  C   UNL A   1      46.941  26.064  35.702  1.00  0.00     0.200 A 
ATOM     94  F   UNL A   1      48.260  27.894  35.006  1.00  0.00    -0.200 F 
ATOM     95  F   UNL A   1      47.986  25.543  36.362  1.00  0.00    -0.200 F 
ENDBRANCH  62  85
ENDBRANCH  36  37
ENDBRANCH  28  31
ENDBRANCH  26  27
ENDBRANCH  25  26
ENDBRANCH   1  25
TORSDOF 14
ENDMDL
