MODEL 1
REMARK VINA RESULT:     -11.7      0.000      0.000
REMARK SMILES O=C(CCC(=O)Nc1ccc(C(=O)N2CCOCC2)cc1)NCCCCNC(=O)c1ccc(-c2c3nc(c(-c4c(F)c(F)c(F)c(F)c4F)c4ccc([nH]4)c(-c4c(F)c(F)c(F)c(F)c4F)c4nc(c(-c5c(F)c(F)c(F)c(F)c5F)c5ccc2[nH]5)C=C4)C=C3)cc1
REMARK SMILES IDX 23 1 22 2 1 3 2 4 3 6 4 7 5 8 6 9 7 10 8 12 9 13 21 14 10 15
REMARK SMILES IDX 20 16 11 17 12 18 13 19 14 20 15 21 19 22 16 23 18 24 17 25
REMARK SMILES IDX 24 26 25 27 26 28 27 29 28 30 29 32 30 33 31 34 92 35 32 36
REMARK SMILES IDX 91 37 33 38 34 39 35 40 85 41 36 42 90 43 84 44 86 45 37 46
REMARK SMILES IDX 89 47 83 48 82 49 38 51 70 52 50 53 69 54 51 55 54 56 68 57
REMARK SMILES IDX 87 58 52 59 53 60 67 62 88 63 55 64 39 65 40 66 48 67 41 68
REMARK SMILES IDX 42 69 46 70 49 71 43 72 44 73 47 74 45 75 71 76 72 77 80 78
REMARK SMILES IDX 73 79 74 80 78 81 81 82 75 83 76 84 79 85 77 86 56 87 57 88
REMARK SMILES IDX 65 89 58 90 59 91 63 92 66 93 60 94 61 95 64 96 62 97
REMARK H PARENT 22 5 7 11 27 31 86 50 54 61
REMARK Flexibility Score: inf
ROOT
ATOM      1  C   UNL A   1      34.474  32.721  29.140  1.00  0.00     0.116 C 
ENDROOT
BRANCH   1   2
ATOM      2  N   UNL A   1      34.030  31.609  28.322  1.00  0.00    -0.356 N 
ATOM      3  O   UNL A   1      36.133  30.974  27.644  1.00  0.00    -0.275 OA
ATOM      4  C   UNL A   1      34.923  30.769  27.695  1.00  0.00     0.220 C 
ATOM      5  H   UNL A   1      33.064  31.450  28.213  1.00  0.00     0.163 HD
BRANCH   4   6
ATOM      6  C   UNL A   1      34.294  29.533  27.086  1.00  0.00     0.110 C 
BRANCH   6   7
ATOM      7  C   UNL A   1      32.770  29.475  27.165  1.00  0.00     0.110 C 
BRANCH   7   8
ATOM      8  C   UNL A   1      32.050  30.314  26.134  1.00  0.00     0.224 C 
ATOM      9  O   UNL A   1      31.407  31.302  26.515  1.00  0.00    -0.275 OA
ATOM     10  N   UNL A   1      31.984  30.032  24.803  1.00  0.00    -0.326 N 
ATOM     11  H   UNL A   1      31.647  30.787  24.267  1.00  0.00     0.169 HD
BRANCH  10  12
ATOM     12  C   UNL A   1      32.292  28.901  24.026  1.00  0.00     0.041 A 
ATOM     13  C   UNL A   1      31.256  27.966  23.842  1.00  0.00     0.027 A 
ATOM     14  C   UNL A   1      33.554  28.585  23.544  1.00  0.00     0.027 A 
ATOM     15  C   UNL A   1      31.524  26.679  23.350  1.00  0.00     0.016 A 
ATOM     16  C   UNL A   1      33.829  27.306  23.067  1.00  0.00     0.016 A 
ATOM     17  C   UNL A   1      32.834  26.330  23.033  1.00  0.00     0.040 A 
BRANCH  17  18
ATOM     18  C   UNL A   1      33.192  24.970  22.561  1.00  0.00     0.254 C 
ATOM     19  O   UNL A   1      33.135  24.713  21.364  1.00  0.00    -0.269 OA
ATOM     20  N   UNL A   1      33.730  24.124  23.514  1.00  0.00    -0.334 N 
ATOM     21  C   UNL A   1      33.064  23.783  24.775  1.00  0.00     0.148 C 
ATOM     22  C   UNL A   1      34.911  23.332  23.211  1.00  0.00     0.148 C 
ATOM     23  C   UNL A   1      34.062  23.699  25.936  1.00  0.00     0.181 C 
ATOM     24  C   UNL A   1      35.853  23.360  24.422  1.00  0.00     0.181 C 
ATOM     25  O   UNL A   1      35.188  22.869  25.600  1.00  0.00    -0.378 OA
ENDBRANCH  17  18
ENDBRANCH  10  12
ENDBRANCH   7   8
ENDBRANCH   6   7
ENDBRANCH   4   6
ENDBRANCH   1   2
BRANCH   1  26
ATOM     26  C   UNL A   1      34.236  34.095  28.520  1.00  0.00     0.023 C 
BRANCH  26  27
ATOM     27  C   UNL A   1      32.952  34.807  28.951  1.00  0.00     0.023 C 
BRANCH  27  28
ATOM     28  C   UNL A   1      33.139  36.199  29.550  1.00  0.00     0.116 C 
BRANCH  28  29
ATOM     29  N   UNL A   1      32.457  36.366  30.824  1.00  0.00    -0.352 N 
ATOM     30  C   UNL A   1      32.697  35.775  32.043  1.00  0.00     0.251 C 
ATOM     31  H   UNL A   1      31.705  37.001  30.812  1.00  0.00     0.163 HD
ATOM     32  O   UNL A   1      31.895  35.927  32.962  1.00  0.00    -0.269 OA
BRANCH  30  33
ATOM     33  C   UNL A   1      33.894  34.929  32.258  1.00  0.00     0.039 A 
ATOM     34  C   UNL A   1      35.155  35.452  31.949  1.00  0.00     0.014 A 
ATOM     35  C   UNL A   1      33.788  33.622  32.739  1.00  0.00     0.014 A 
ATOM     36  C   UNL A   1      36.306  34.701  32.206  1.00  0.00     0.010 A 
ATOM     37  C   UNL A   1      34.937  32.904  33.067  1.00  0.00     0.010 A 
ATOM     38  C   UNL A   1      36.209  33.437  32.812  1.00  0.00    -0.014 A 
BRANCH  38  39
ATOM     39  C   UNL A   1      37.423  32.672  33.207  1.00  0.00     0.031 A 
ATOM     40  C   UNL A   1      38.142  32.989  34.490  1.00  0.00     0.074 A 
ATOM     41  C   UNL A   1      37.926  31.742  32.372  1.00  0.00     0.049 A 
ATOM     42  N   UNL A   1      39.260  32.491  34.959  1.00  0.00    -0.248 NA
ATOM     43  C   UNL A   1      37.539  34.019  35.348  1.00  0.00     0.031 C 
ATOM     44  C   UNL A   1      37.353  31.370  31.078  1.00  0.00     0.029 A 
ATOM     45  N   UNL A   1      39.042  30.948  32.481  1.00  0.00    -0.354 N 
ATOM     46  C   UNL A   1      39.503  33.160  36.151  1.00  0.00     0.074 A 
ATOM     47  C   UNL A   1      38.440  34.130  36.314  1.00  0.00     0.031 C 
ATOM     48  C   UNL A   1      38.108  30.408  30.523  1.00  0.00     0.029 A 
ATOM     49  C   UNL A   1      39.239  30.122  31.400  1.00  0.00     0.049 A 
ATOM     50  H   UNL A   1      39.644  30.969  33.260  1.00  0.00     0.167 HD
ATOM     51  C   UNL A   1      40.509  32.970  37.038  1.00  0.00     0.037 A 
ATOM     52  C   UNL A   1      40.224  29.243  31.140  1.00  0.00     0.037 A 
ATOM     53  C   UNL A   1      41.548  31.985  36.893  1.00  0.00     0.049 A 
ATOM     54  C   UNL A   1      41.332  29.054  32.141  1.00  0.00     0.074 A 
ATOM     55  C   UNL A   1      42.567  31.670  37.775  1.00  0.00     0.029 A 
ATOM     56  N   UNL A   1      41.705  31.156  35.792  1.00  0.00    -0.354 N 
ATOM     57  N   UNL A   1      41.511  29.643  33.298  1.00  0.00    -0.248 NA
ATOM     58  C   UNL A   1      42.373  28.075  31.800  1.00  0.00     0.031 C 
ATOM     59  C   UNL A   1      43.367  30.682  37.189  1.00  0.00     0.029 A 
ATOM     60  C   UNL A   1      42.817  30.347  35.963  1.00  0.00     0.049 A 
ATOM     61  H   UNL A   1      41.113  31.144  35.006  1.00  0.00     0.167 HD
ATOM     62  C   UNL A   1      42.664  29.087  33.835  1.00  0.00     0.074 A 
ATOM     63  C   UNL A   1      43.137  28.104  32.883  1.00  0.00     0.031 C 
ATOM     64  C   UNL A   1      43.273  29.365  35.013  1.00  0.00     0.037 A 
BRANCH  51  65
ATOM     65  C   UNL A   1      40.537  33.849  38.256  1.00  0.00     0.064 A 
ATOM     66  C   UNL A   1      39.826  33.517  39.419  1.00  0.00     0.173 A 
ATOM     67  C   UNL A   1      41.319  35.014  38.275  1.00  0.00     0.173 A 
ATOM     68  F   UNL A   1      39.057  32.419  39.450  1.00  0.00    -0.203 F 
ATOM     69  C   UNL A   1      39.876  34.333  40.546  1.00  0.00     0.198 A 
ATOM     70  C   UNL A   1      41.389  35.812  39.414  1.00  0.00     0.198 A 
ATOM     71  F   UNL A   1      42.025  35.373  37.192  1.00  0.00    -0.203 F 
ATOM     72  F   UNL A   1      39.152  34.020  41.630  1.00  0.00    -0.200 F 
ATOM     73  C   UNL A   1      40.661  35.475  40.545  1.00  0.00     0.200 A 
ATOM     74  F   UNL A   1      42.160  36.908  39.416  1.00  0.00    -0.200 F 
ATOM     75  F   UNL A   1      40.714  36.256  41.633  1.00  0.00    -0.200 F 
ENDBRANCH  51  65
BRANCH  52  76
ATOM     76  C   UNL A   1      40.197  28.448  29.885  1.00  0.00     0.064 A 
ATOM     77  C   UNL A   1      39.498  27.235  29.820  1.00  0.00     0.173 A 
ATOM     78  C   UNL A   1      40.873  28.875  28.733  1.00  0.00     0.173 A 
ATOM     79  F   UNL A   1      38.856  26.774  30.902  1.00  0.00    -0.203 F 
ATOM     80  C   UNL A   1      39.490  26.470  28.656  1.00  0.00     0.198 A 
ATOM     81  C   UNL A   1      40.842  28.123  27.560  1.00  0.00     0.198 A 
ATOM     82  F   UNL A   1      41.554  30.030  28.743  1.00  0.00    -0.203 F 
ATOM     83  F   UNL A   1      38.850  25.293  28.634  1.00  0.00    -0.200 F 
ATOM     84  C   UNL A   1      40.157  26.917  27.525  1.00  0.00     0.200 A 
ATOM     85  F   UNL A   1      41.478  28.565  26.466  1.00  0.00    -0.200 F 
ATOM     86  F   UNL A   1      40.147  26.182  26.404  1.00  0.00    -0.200 F 
ENDBRANCH  52  76
BRANCH  64  87
ATOM     87  C   UNL A   1      44.500  28.571  35.359  1.00  0.00     0.064 A 
ATOM     88  C   UNL A   1      44.417  27.353  36.049  1.00  0.00     0.173 A 
ATOM     89  C   UNL A   1      45.769  29.016  34.961  1.00  0.00     0.173 A 
ATOM     90  F   UNL A   1      43.228  26.892  36.466  1.00  0.00    -0.203 F 
ATOM     91  C   UNL A   1      45.564  26.622  36.350  1.00  0.00     0.198 A 
ATOM     92  C   UNL A   1      46.911  28.269  35.238  1.00  0.00     0.198 A 
ATOM     93  F   UNL A   1      45.902  30.173  34.293  1.00  0.00    -0.203 F 
ATOM     94  F   UNL A   1      45.467  25.484  37.050  1.00  0.00    -0.200 F 
ATOM     95  C   UNL A   1      46.808  27.076  35.937  1.00  0.00     0.200 A 
ATOM     96  F   UNL A   1      48.110  28.704  34.828  1.00  0.00    -0.200 F 
ATOM     97  F   UNL A   1      47.910  26.368  36.221  1.00  0.00    -0.200 F 
ENDBRANCH  64  87
ENDBRANCH  38  39
ENDBRANCH  30  33
ENDBRANCH  28  29
ENDBRANCH  27  28
ENDBRANCH  26  27
ENDBRANCH   1  26
TORSDOF 15
ENDMDL
MODEL 2
REMARK VINA RESULT:     -11.5      4.282      6.910
REMARK SMILES O=C(CCC(=O)Nc1ccc(C(=O)N2CCOCC2)cc1)NCCCCNC(=O)c1ccc(-c2c3nc(c(-c4c(F)c(F)c(F)c(F)c4F)c4ccc([nH]4)c(-c4c(F)c(F)c(F)c(F)c4F)c4nc(c(-c5c(F)c(F)c(F)c(F)c5F)c5ccc2[nH]5)C=C4)C=C3)cc1
REMARK SMILES IDX 23 1 22 2 1 3 2 4 3 6 4 7 5 8 6 9 7 10 8 12 9 13 21 14 10 15
REMARK SMILES IDX 20 16 11 17 12 18 13 19 14 20 15 21 19 22 16 23 18 24 17 25
REMARK SMILES IDX 24 26 25 27 26 28 27 29 28 30 29 32 30 33 31 34 92 35 32 36
REMARK SMILES IDX 91 37 33 38 34 39 35 40 85 41 36 42 90 43 84 44 86 45 37 46
REMARK SMILES IDX 89 47 83 48 82 49 38 51 70 52 50 53 69 54 51 55 54 56 68 57
REMARK SMILES IDX 87 58 52 59 53 60 67 62 88 63 55 64 39 65 40 66 48 67 41 68
REMARK SMILES IDX 42 69 46 70 49 71 43 72 44 73 47 74 45 75 71 76 72 77 80 78
REMARK SMILES IDX 73 79 74 80 78 81 81 82 75 83 76 84 79 85 77 86 56 87 57 88
REMARK SMILES IDX 65 89 58 90 59 91 63 92 66 93 60 94 61 95 64 96 62 97
REMARK H PARENT 22 5 7 11 27 31 86 50 54 61
REMARK Flexibility Score: inf
ROOT
ATOM      1  C   UNL A   1      33.956  26.104  25.548  1.00  0.00     0.116 C 
ENDROOT
BRANCH   1   2
ATOM      2  N   UNL A   1      35.085  25.207  25.399  1.00  0.00    -0.356 N 
ATOM      3  O   UNL A   1      34.256  24.102  23.561  1.00  0.00    -0.275 OA
ATOM      4  C   UNL A   1      35.171  24.318  24.350  1.00  0.00     0.220 C 
ATOM      5  H   UNL A   1      35.810  25.234  26.065  1.00  0.00     0.163 HD
BRANCH   4   6
ATOM      6  C   UNL A   1      36.517  23.635  24.222  1.00  0.00     0.110 C 
BRANCH   6   7
ATOM      7  C   UNL A   1      36.461  22.148  23.879  1.00  0.00     0.110 C 
BRANCH   7   8
ATOM      8  C   UNL A   1      36.702  21.219  25.046  1.00  0.00     0.224 C 
ATOM      9  O   UNL A   1      37.688  20.470  25.016  1.00  0.00    -0.275 OA
ATOM     10  N   UNL A   1      35.873  21.078  26.118  1.00  0.00    -0.326 N 
ATOM     11  H   UNL A   1      36.288  20.584  26.862  1.00  0.00     0.169 HD
BRANCH  10  12
ATOM     12  C   UNL A   1      34.556  21.484  26.396  1.00  0.00     0.041 A 
ATOM     13  C   UNL A   1      33.558  21.019  25.519  1.00  0.00     0.027 A 
ATOM     14  C   UNL A   1      34.193  22.395  27.379  1.00  0.00     0.027 A 
ATOM     15  C   UNL A   1      32.276  21.591  25.516  1.00  0.00     0.016 A 
ATOM     16  C   UNL A   1      32.927  22.974  27.373  1.00  0.00     0.016 A 
ATOM     17  C   UNL A   1      31.989  22.625  26.403  1.00  0.00     0.040 A 
BRANCH  17  18
ATOM     18  C   UNL A   1      30.672  23.307  26.413  1.00  0.00     0.254 C 
ATOM     19  O   UNL A   1      29.901  23.115  27.346  1.00  0.00    -0.269 OA
ATOM     20  N   UNL A   1      30.477  24.256  25.425  1.00  0.00    -0.334 N 
ATOM     21  C   UNL A   1      30.604  23.981  23.990  1.00  0.00     0.148 C 
ATOM     22  C   UNL A   1      29.903  25.551  25.753  1.00  0.00     0.148 C 
ATOM     23  C   UNL A   1      31.262  25.150  23.248  1.00  0.00     0.181 C 
ATOM     24  C   UNL A   1      30.669  26.641  24.991  1.00  0.00     0.181 C 
ATOM     25  O   UNL A   1      30.629  26.401  23.573  1.00  0.00    -0.378 OA
ENDBRANCH  17  18
ENDBRANCH  10  12
ENDBRANCH   7   8
ENDBRANCH   6   7
ENDBRANCH   4   6
ENDBRANCH   1   2
BRANCH   1  26
ATOM     26  C   UNL A   1      34.021  27.352  24.672  1.00  0.00     0.023 C 
BRANCH  26  27
ATOM     27  C   UNL A   1      33.703  28.675  25.372  1.00  0.00     0.023 C 
BRANCH  27  28
ATOM     28  C   UNL A   1      33.819  28.659  26.894  1.00  0.00     0.116 C 
BRANCH  28  29
ATOM     29  N   UNL A   1      33.774  29.990  27.481  1.00  0.00    -0.352 N 
ATOM     30  C   UNL A   1      34.700  30.649  28.256  1.00  0.00     0.251 C 
ATOM     31  H   UNL A   1      32.951  30.497  27.295  1.00  0.00     0.163 HD
ATOM     32  O   UNL A   1      34.396  31.711  28.796  1.00  0.00    -0.269 OA
BRANCH  30  33
ATOM     33  C   UNL A   1      36.050  30.082  28.478  1.00  0.00     0.039 A 
ATOM     34  C   UNL A   1      36.996  30.168  27.451  1.00  0.00     0.014 A 
ATOM     35  C   UNL A   1      36.388  29.450  29.677  1.00  0.00     0.014 A 
ATOM     36  C   UNL A   1      38.298  29.703  27.659  1.00  0.00     0.010 A 
ATOM     37  C   UNL A   1      37.705  29.056  29.911  1.00  0.00     0.010 A 
ATOM     38  C   UNL A   1      38.677  29.185  28.908  1.00  0.00    -0.014 A 
BRANCH  38  39
ATOM     39  C   UNL A   1      40.086  28.798  29.191  1.00  0.00     0.031 A 
ATOM     40  C   UNL A   1      41.007  29.742  29.915  1.00  0.00     0.074 A 
ATOM     41  C   UNL A   1      40.562  27.626  28.727  1.00  0.00     0.049 A 
ATOM     42  N   UNL A   1      42.285  29.617  30.176  1.00  0.00    -0.248 NA
ATOM     43  C   UNL A   1      40.421  31.005  30.387  1.00  0.00     0.031 C 
ATOM     44  C   UNL A   1      39.788  26.640  27.972  1.00  0.00     0.029 A 
ATOM     45  N   UNL A   1      41.815  27.070  28.812  1.00  0.00    -0.354 N 
ATOM     46  C   UNL A   1      42.658  30.788  30.820  1.00  0.00     0.074 A 
ATOM     47  C   UNL A   1      41.483  31.632  30.874  1.00  0.00     0.031 C 
ATOM     48  C   UNL A   1      40.576  25.593  27.680  1.00  0.00     0.029 A 
ATOM     49  C   UNL A   1      41.919  25.848  28.190  1.00  0.00     0.049 A 
ATOM     50  H   UNL A   1      42.568  27.505  29.273  1.00  0.00     0.167 HD
ATOM     51  C   UNL A   1      43.865  31.122  31.338  1.00  0.00     0.037 A 
ATOM     52  C   UNL A   1      42.979  25.031  28.040  1.00  0.00     0.037 A 
ATOM     53  C   UNL A   1      45.026  30.272  31.314  1.00  0.00     0.049 A 
ATOM     54  C   UNL A   1      44.309  25.429  28.621  1.00  0.00     0.074 A 
ATOM     55  C   UNL A   1      46.271  30.495  31.876  1.00  0.00     0.029 A 
ATOM     56  N   UNL A   1      45.087  29.035  30.689  1.00  0.00    -0.354 N 
ATOM     57  N   UNL A   1      44.630  26.508  29.291  1.00  0.00    -0.248 NA
ATOM     58  C   UNL A   1      45.423  24.491  28.428  1.00  0.00     0.031 C 
ATOM     59  C   UNL A   1      47.099  29.414  31.555  1.00  0.00     0.029 A 
ATOM     60  C   UNL A   1      46.355  28.495  30.833  1.00  0.00     0.049 A 
ATOM     61  H   UNL A   1      44.340  28.604  30.215  1.00  0.00     0.167 HD
ATOM     62  C   UNL A   1      45.970  26.367  29.624  1.00  0.00     0.074 A 
ATOM     63  C   UNL A   1      46.400  25.090  29.092  1.00  0.00     0.031 C 
ATOM     64  C   UNL A   1      46.770  27.219  30.309  1.00  0.00     0.037 A 
BRANCH  51  65
ATOM     65  C   UNL A   1      43.995  32.473  31.982  1.00  0.00     0.064 A 
ATOM     66  C   UNL A   1      44.368  33.607  31.244  1.00  0.00     0.173 A 
ATOM     67  C   UNL A   1      43.700  32.643  33.343  1.00  0.00     0.173 A 
ATOM     68  F   UNL A   1      44.669  33.496  29.943  1.00  0.00    -0.203 F 
ATOM     69  C   UNL A   1      44.468  34.856  31.853  1.00  0.00     0.198 A 
ATOM     70  C   UNL A   1      43.773  33.899  33.941  1.00  0.00     0.198 A 
ATOM     71  F   UNL A   1      43.331  31.593  34.093  1.00  0.00    -0.203 F 
ATOM     72  F   UNL A   1      44.871  35.916  31.138  1.00  0.00    -0.200 F 
ATOM     73  C   UNL A   1      44.164  35.002  33.197  1.00  0.00     0.200 A 
ATOM     74  F   UNL A   1      43.466  34.041  35.238  1.00  0.00    -0.200 F 
ATOM     75  F   UNL A   1      44.254  36.206  33.779  1.00  0.00    -0.200 F 
ENDBRANCH  51  65
BRANCH  52  76
ATOM     76  C   UNL A   1      42.822  23.736  27.328  1.00  0.00     0.064 A 
ATOM     77  C   UNL A   1      42.294  22.617  27.986  1.00  0.00     0.173 A 
ATOM     78  C   UNL A   1      43.202  23.587  25.987  1.00  0.00     0.173 A 
ATOM     79  F   UNL A   1      41.938  22.704  29.276  1.00  0.00    -0.203 F 
ATOM     80  C   UNL A   1      42.170  21.392  27.334  1.00  0.00     0.198 A 
ATOM     81  C   UNL A   1      43.051  22.369  25.328  1.00  0.00     0.198 A 
ATOM     82  F   UNL A   1      43.709  24.629  25.313  1.00  0.00    -0.203 F 
ATOM     83  F   UNL A   1      41.704  20.326  28.000  1.00  0.00    -0.200 F 
ATOM     84  C   UNL A   1      42.543  21.270  26.004  1.00  0.00     0.200 A 
ATOM     85  F   UNL A   1      43.402  22.259  24.039  1.00  0.00    -0.200 F 
ATOM     86  F   UNL A   1      42.421  20.092  25.377  1.00  0.00    -0.200 F 
ENDBRANCH  52  76
BRANCH  64  87
ATOM     87  C   UNL A   1      48.185  26.783  30.560  1.00  0.00     0.064 A 
ATOM     88  C   UNL A   1      48.522  25.966  31.648  1.00  0.00     0.173 A 
ATOM     89  C   UNL A   1      49.209  27.157  29.677  1.00  0.00     0.173 A 
ATOM     90  F   UNL A   1      47.582  25.596  32.531  1.00  0.00    -0.203 F 
ATOM     91  C   UNL A   1      49.838  25.561  31.858  1.00  0.00     0.198 A 
ATOM     92  C   UNL A   1      50.518  26.726  29.873  1.00  0.00     0.198 A 
ATOM     93  F   UNL A   1      48.938  27.934  28.616  1.00  0.00    -0.203 F 
ATOM     94  F   UNL A   1      50.146  24.819  32.931  1.00  0.00    -0.200 F 
ATOM     95  C   UNL A   1      50.833  25.934  30.966  1.00  0.00     0.200 A 
ATOM     96  F   UNL A   1      51.476  27.078  29.003  1.00  0.00    -0.200 F 
ATOM     97  F   UNL A   1      52.097  25.536  31.166  1.00  0.00    -0.200 F 
ENDBRANCH  64  87
ENDBRANCH  38  39
ENDBRANCH  30  33
ENDBRANCH  28  29
ENDBRANCH  27  28
ENDBRANCH  26  27
ENDBRANCH   1  26
TORSDOF 15
ENDMDL
MODEL 3
REMARK VINA RESULT:     -11.5      0.710      1.822
REMARK SMILES O=C(CCC(=O)Nc1ccc(C(=O)N2CCOCC2)cc1)NCCCCNC(=O)c1ccc(-c2c3nc(c(-c4c(F)c(F)c(F)c(F)c4F)c4ccc([nH]4)c(-c4c(F)c(F)c(F)c(F)c4F)c4nc(c(-c5c(F)c(F)c(F)c(F)c5F)c5ccc2[nH]5)C=C4)C=C3)cc1
REMARK SMILES IDX 23 1 22 2 1 3 2 4 3 6 4 7 5 8 6 9 7 10 8 12 9 13 21 14 10 15
REMARK SMILES IDX 20 16 11 17 12 18 13 19 14 20 15 21 19 22 16 23 18 24 17 25
REMARK SMILES IDX 24 26 25 27 26 28 27 29 28 30 29 32 30 33 31 34 92 35 32 36
REMARK SMILES IDX 91 37 33 38 34 39 35 40 85 41 36 42 90 43 84 44 86 45 37 46
REMARK SMILES IDX 89 47 83 48 82 49 38 51 70 52 50 53 69 54 51 55 54 56 68 57
REMARK SMILES IDX 87 58 52 59 53 60 67 62 88 63 55 64 39 65 40 66 48 67 41 68
REMARK SMILES IDX 42 69 46 70 49 71 43 72 44 73 47 74 45 75 71 76 72 77 80 78
REMARK SMILES IDX 73 79 74 80 78 81 81 82 75 83 76 84 79 85 77 86 56 87 57 88
REMARK SMILES IDX 65 89 58 90 59 91 63 92 66 93 60 94 61 95 64 96 62 97
REMARK H PARENT 22 5 7 11 27 31 86 50 54 61
REMARK Flexibility Score: inf
ROOT
ATOM      1  C   UNL A   1      34.867  32.502  28.405  1.00  0.00     0.116 C 
ENDROOT
BRANCH   1   2
ATOM      2  N   UNL A   1      33.638  32.107  27.744  1.00  0.00    -0.356 N 
ATOM      3  O   UNL A   1      34.344  29.988  27.201  1.00  0.00    -0.275 OA
ATOM      4  C   UNL A   1      33.454  30.832  27.258  1.00  0.00     0.220 C 
ATOM      5  H   UNL A   1      32.915  32.768  27.641  1.00  0.00     0.163 HD
BRANCH   4   6
ATOM      6  C   UNL A   1      32.036  30.531  26.819  1.00  0.00     0.110 C 
BRANCH   6   7
ATOM      7  C   UNL A   1      31.903  29.446  25.752  1.00  0.00     0.110 C 
BRANCH   7   8
ATOM      8  C   UNL A   1      31.124  29.857  24.524  1.00  0.00     0.224 C 
ATOM      9  O   UNL A   1      30.276  30.755  24.631  1.00  0.00    -0.275 OA
ATOM     10  N   UNL A   1      31.221  29.266  23.301  1.00  0.00    -0.326 N 
ATOM     11  H   UNL A   1      30.793  29.789  22.586  1.00  0.00     0.169 HD
BRANCH  10  12
ATOM     12  C   UNL A   1      31.801  28.072  22.835  1.00  0.00     0.041 A 
ATOM     13  C   UNL A   1      30.921  26.997  22.603  1.00  0.00     0.027 A 
ATOM     14  C   UNL A   1      33.164  27.842  22.712  1.00  0.00     0.027 A 
ATOM     15  C   UNL A   1      31.407  25.692  22.430  1.00  0.00     0.016 A 
ATOM     16  C   UNL A   1      33.652  26.548  22.553  1.00  0.00     0.016 A 
ATOM     17  C   UNL A   1      32.780  25.463  22.481  1.00  0.00     0.040 A 
BRANCH  17  18
ATOM     18  C   UNL A   1      33.353  24.100  22.361  1.00  0.00     0.254 C 
ATOM     19  O   UNL A   1      33.384  23.554  21.264  1.00  0.00    -0.269 OA
ATOM     20  N   UNL A   1      33.971  23.605  23.495  1.00  0.00    -0.334 N 
ATOM     21  C   UNL A   1      33.313  23.483  24.799  1.00  0.00     0.148 C 
ATOM     22  C   UNL A   1      35.268  22.953  23.400  1.00  0.00     0.148 C 
ATOM     23  C   UNL A   1      34.264  23.839  25.948  1.00  0.00     0.181 C 
ATOM     24  C   UNL A   1      36.145  23.420  24.569  1.00  0.00     0.181 C 
ATOM     25  O   UNL A   1      35.514  23.135  25.830  1.00  0.00    -0.378 OA
ENDBRANCH  17  18
ENDBRANCH  10  12
ENDBRANCH   7   8
ENDBRANCH   6   7
ENDBRANCH   4   6
ENDBRANCH   1   2
BRANCH   1  26
ATOM     26  C   UNL A   1      34.818  33.881  29.056  1.00  0.00     0.023 C 
BRANCH  26  27
ATOM     27  C   UNL A   1      33.509  34.654  28.882  1.00  0.00     0.023 C 
BRANCH  27  28
ATOM     28  C   UNL A   1      33.493  36.063  29.468  1.00  0.00     0.116 C 
BRANCH  28  29
ATOM     29  N   UNL A   1      32.527  36.220  30.545  1.00  0.00    -0.352 N 
ATOM     30  C   UNL A   1      32.543  35.728  31.830  1.00  0.00     0.251 C 
ATOM     31  H   UNL A   1      31.737  36.762  30.318  1.00  0.00     0.163 HD
ATOM     32  O   UNL A   1      31.543  35.836  32.536  1.00  0.00    -0.269 OA
BRANCH  30  33
ATOM     33  C   UNL A   1      33.740  35.040  32.368  1.00  0.00     0.039 A 
ATOM     34  C   UNL A   1      33.617  33.718  32.809  1.00  0.00     0.014 A 
ATOM     35  C   UNL A   1      34.973  35.688  32.462  1.00  0.00     0.014 A 
ATOM     36  C   UNL A   1      34.744  33.023  33.257  1.00  0.00     0.010 A 
ATOM     37  C   UNL A   1      36.111  34.972  32.836  1.00  0.00     0.010 A 
ATOM     38  C   UNL A   1      36.011  33.630  33.231  1.00  0.00    -0.014 A 
BRANCH  38  39
ATOM     39  C   UNL A   1      37.241  32.871  33.586  1.00  0.00     0.031 A 
ATOM     40  C   UNL A   1      37.964  33.148  34.875  1.00  0.00     0.074 A 
ATOM     41  C   UNL A   1      37.754  31.985  32.709  1.00  0.00     0.049 A 
ATOM     42  N   UNL A   1      39.094  32.651  35.316  1.00  0.00    -0.248 NA
ATOM     43  C   UNL A   1      37.349  34.131  35.780  1.00  0.00     0.031 C 
ATOM     44  C   UNL A   1      37.179  31.657  31.405  1.00  0.00     0.029 A 
ATOM     45  N   UNL A   1      38.885  31.208  32.778  1.00  0.00    -0.354 N 
ATOM     46  C   UNL A   1      39.334  33.274  36.533  1.00  0.00     0.074 A 
ATOM     47  C   UNL A   1      38.256  34.217  36.743  1.00  0.00     0.031 C 
ATOM     48  C   UNL A   1      37.946  30.732  30.805  1.00  0.00     0.029 A 
ATOM     49  C   UNL A   1      39.089  30.431  31.662  1.00  0.00     0.049 A 
ATOM     50  H   UNL A   1      39.493  31.207  33.552  1.00  0.00     0.167 HD
ATOM     51  C   UNL A   1      40.350  33.066  37.405  1.00  0.00     0.037 A 
ATOM     52  C   UNL A   1      40.087  29.581  31.359  1.00  0.00     0.037 A 
ATOM     53  C   UNL A   1      41.405  32.106  37.212  1.00  0.00     0.049 A 
ATOM     54  C   UNL A   1      41.206  29.371  32.344  1.00  0.00     0.074 A 
ATOM     55  C   UNL A   1      42.436  31.773  38.073  1.00  0.00     0.029 A 
ATOM     56  N   UNL A   1      41.568  31.327  36.076  1.00  0.00    -0.354 N 
ATOM     57  N   UNL A   1      41.383  29.914  33.523  1.00  0.00    -0.248 NA
ATOM     58  C   UNL A   1      42.261  28.426  31.955  1.00  0.00     0.031 C 
ATOM     59  C   UNL A   1      43.249  30.825  37.441  1.00  0.00     0.029 A 
ATOM     60  C   UNL A   1      42.696  30.532  36.206  1.00  0.00     0.049 A 
ATOM     61  H   UNL A   1      40.971  31.337  35.294  1.00  0.00     0.167 HD
ATOM     62  C   UNL A   1      42.549  29.358  34.029  1.00  0.00     0.074 A 
ATOM     63  C   UNL A   1      43.033  28.424  33.033  1.00  0.00     0.031 C 
ATOM     64  C   UNL A   1      43.163  29.599  35.213  1.00  0.00     0.037 A 
BRANCH  51  65
ATOM     65  C   UNL A   1      40.371  33.894  38.658  1.00  0.00     0.064 A 
ATOM     66  C   UNL A   1      41.072  35.107  38.726  1.00  0.00     0.173 A 
ATOM     67  C   UNL A   1      39.645  33.490  39.789  1.00  0.00     0.173 A 
ATOM     68  F   UNL A   1      41.788  35.533  37.676  1.00  0.00    -0.203 F 
ATOM     69  C   UNL A   1      41.068  35.872  39.890  1.00  0.00     0.198 A 
ATOM     70  C   UNL A   1      39.621  34.272  40.942  1.00  0.00     0.198 A 
ATOM     71  F   UNL A   1      38.951  32.342  39.774  1.00  0.00    -0.203 F 
ATOM     72  F   UNL A   1      41.783  37.005  39.947  1.00  0.00    -0.200 F 
ATOM     73  C   UNL A   1      40.338  35.458  40.993  1.00  0.00     0.200 A 
ATOM     74  F   UNL A   1      38.903  33.877  42.002  1.00  0.00    -0.200 F 
ATOM     75  F   UNL A   1      40.329  36.198  42.110  1.00  0.00    -0.200 F 
ENDBRANCH  51  65
BRANCH  52  76
ATOM     76  C   UNL A   1      40.065  28.839  30.072  1.00  0.00     0.064 A 
ATOM     77  C   UNL A   1      39.446  27.584  29.979  1.00  0.00     0.173 A 
ATOM     78  C   UNL A   1      40.665  29.358  28.916  1.00  0.00     0.173 A 
ATOM     79  F   UNL A   1      38.879  27.036  31.063  1.00  0.00    -0.203 F 
ATOM     80  C   UNL A   1      39.445  26.869  28.784  1.00  0.00     0.198 A 
ATOM     81  C   UNL A   1      40.639  28.655  27.714  1.00  0.00     0.198 A 
ATOM     82  F   UNL A   1      41.267  30.556  28.953  1.00  0.00    -0.203 F 
ATOM     83  F   UNL A   1      38.886  25.653  28.734  1.00  0.00    -0.200 F 
ATOM     84  C   UNL A   1      40.036  27.407  27.650  1.00  0.00     0.200 A 
ATOM     85  F   UNL A   1      41.201  29.183  26.618  1.00  0.00    -0.200 F 
ATOM     86  F   UNL A   1      40.032  26.720  26.500  1.00  0.00    -0.200 F 
ENDBRANCH  52  76
BRANCH  64  87
ATOM     87  C   UNL A   1      44.405  28.813  35.518  1.00  0.00     0.064 A 
ATOM     88  C   UNL A   1      45.678  29.278  35.157  1.00  0.00     0.173 A 
ATOM     89  C   UNL A   1      44.323  27.598  36.214  1.00  0.00     0.173 A 
ATOM     90  F   UNL A   1      45.808  30.425  34.474  1.00  0.00    -0.203 F 
ATOM     91  C   UNL A   1      46.821  28.542  35.459  1.00  0.00     0.198 A 
ATOM     92  C   UNL A   1      45.469  26.879  36.541  1.00  0.00     0.198 A 
ATOM     93  F   UNL A   1      43.129  27.111  36.588  1.00  0.00    -0.203 F 
ATOM     94  F   UNL A   1      48.023  28.982  35.064  1.00  0.00    -0.200 F 
ATOM     95  C   UNL A   1      46.716  27.348  36.159  1.00  0.00     0.200 A 
ATOM     96  F   UNL A   1      45.367  25.732  37.227  1.00  0.00    -0.200 F 
ATOM     97  F   UNL A   1      47.818  26.646  36.456  1.00  0.00    -0.200 F 
ENDBRANCH  64  87
ENDBRANCH  38  39
ENDBRANCH  30  33
ENDBRANCH  28  29
ENDBRANCH  27  28
ENDBRANCH  26  27
ENDBRANCH   1  26
TORSDOF 15
ENDMDL
