MODEL 1
REMARK VINA RESULT:     -12.9      0.000      0.000
REMARK SMILES O=C(COc1ccccc1C[NH+]1CCC2(CC[NH2+]CC2)CC1)NCCCCNC(=O)c1ccc(-c2c3nc(c(-c4c(F)c(F)c(F)c(F)c4F)c4ccc([nH]4)c(-c4c(F)c(F)c(F)c(F)c4F)c4nc(c(-c5c(F)c(F)c(F)c(F)c5F)c5ccc2[nH]5)C=C4)C=C3)cc1
REMARK SMILES IDX 24 1 23 2 1 3 2 4 3 6 4 7 5 8 6 9 10 10 7 11 9 12 8 13 11 14
REMARK SMILES IDX 12 15 13 16 22 17 14 19 21 20 15 21 16 22 20 23 17 24 19 25
REMARK SMILES IDX 18 26 25 29 26 30 27 31 28 32 29 33 30 35 31 36 32 37 93 38
REMARK SMILES IDX 33 39 92 40 34 41 35 42 36 43 86 44 37 45 91 46 85 47 87 48
REMARK SMILES IDX 38 49 90 50 84 51 83 52 39 54 71 55 51 56 70 57 52 58 55 59
REMARK SMILES IDX 69 60 88 61 53 62 54 63 68 65 89 66 56 67 40 68 41 69 49 70
REMARK SMILES IDX 42 71 43 72 47 73 50 74 44 75 45 76 48 77 46 78 72 79 73 80
REMARK SMILES IDX 81 81 74 82 75 83 79 84 82 85 76 86 77 87 80 88 78 89 57 90
REMARK SMILES IDX 58 91 66 92 59 93 60 94 64 95 67 96 61 97 62 98 65 99 63 100
REMARK H PARENT 23 5 12 18 18 27 18 28 28 34 87 53 55 64
REMARK Flexibility Score: inf
ROOT
ATOM      1  C   UNL A   1      32.833  30.007  26.627  1.00  0.00     0.116 C 
ENDROOT
BRANCH   1   2
ATOM      2  N   UNL A   1      33.500  29.545  25.418  1.00  0.00    -0.353 N 
ATOM      3  O   UNL A   1      33.956  27.414  26.159  1.00  0.00    -0.271 OA
ATOM      4  C   UNL A   1      33.790  28.202  25.231  1.00  0.00     0.257 C 
ATOM      5  H   UNL A   1      33.748  30.197  24.722  1.00  0.00     0.163 HD
BRANCH   4   6
ATOM      6  C   UNL A   1      33.838  27.743  23.763  1.00  0.00     0.329 C 
BRANCH   6   7
ATOM      7  O   UNL A   1      32.993  26.612  23.524  1.00  0.00    -0.483 OA
BRANCH   7   8
ATOM      8  C   UNL A   1      31.663  26.933  23.375  1.00  0.00     0.128 A 
ATOM      9  C   UNL A   1      31.368  28.012  22.532  1.00  0.00     0.047 A 
ATOM     10  C   UNL A   1      30.657  26.400  24.204  1.00  0.00     0.048 A 
ATOM     11  C   UNL A   1      30.068  28.525  22.464  1.00  0.00     0.004 A 
ATOM     12  C   UNL A   1      29.338  26.867  24.047  1.00  0.00     0.013 A 
ATOM     13  C   UNL A   1      29.049  27.936  23.202  1.00  0.00     0.001 A 
BRANCH  10  14
ATOM     14  C   UNL A   1      30.928  25.445  25.341  1.00  0.00     0.302 C 
BRANCH  14  15
ATOM     15  N   UNL A   1      30.758  24.010  25.077  1.00  0.00    -0.331 N 
ATOM     16  C   UNL A   1      31.603  23.416  24.054  1.00  0.00     0.263 C 
ATOM     17  C   UNL A   1      30.604  23.142  26.236  1.00  0.00     0.263 C 
ATOM     18  H   UNL A   1      29.833  24.051  24.652  1.00  0.00     0.348 HD
ATOM     19  C   UNL A   1      32.956  22.907  24.528  1.00  0.00     0.069 C 
ATOM     20  C   UNL A   1      31.908  22.563  26.795  1.00  0.00     0.069 C 
ATOM     21  C   UNL A   1      32.853  21.953  25.732  1.00  0.00    -0.008 C 
ATOM     22  C   UNL A   1      32.355  20.558  25.288  1.00  0.00     0.069 C 
ATOM     23  C   UNL A   1      34.259  21.778  26.357  1.00  0.00     0.069 C 
ATOM     24  C   UNL A   1      33.376  19.817  24.418  1.00  0.00     0.261 C 
ATOM     25  C   UNL A   1      35.216  21.031  25.427  1.00  0.00     0.261 C 
ATOM     26  N   UNL A   1      34.688  19.716  25.059  1.00  0.00    -0.346 N 
ATOM     27  H   UNL A   1      35.338  19.269  24.412  1.00  0.00     0.346 HD
ATOM     28  H   UNL A   1      34.583  19.166  25.911  1.00  0.00     0.346 HD
ENDBRANCH  14  15
ENDBRANCH  10  14
ENDBRANCH   7   8
ENDBRANCH   6   7
ENDBRANCH   4   6
ENDBRANCH   1   2
BRANCH   1  29
ATOM     29  C   UNL A   1      31.475  30.674  26.430  1.00  0.00     0.023 C 
BRANCH  29  30
ATOM     30  C   UNL A   1      31.419  32.194  26.590  1.00  0.00     0.023 C 
BRANCH  30  31
ATOM     31  C   UNL A   1      32.583  32.857  27.321  1.00  0.00     0.116 C 
BRANCH  31  32
ATOM     32  N   UNL A   1      32.343  34.241  27.698  1.00  0.00    -0.352 N 
ATOM     33  C   UNL A   1      32.988  35.039  28.619  1.00  0.00     0.251 C 
ATOM     34  H   UNL A   1      31.601  34.677  27.221  1.00  0.00     0.163 HD
ATOM     35  O   UNL A   1      32.561  36.161  28.863  1.00  0.00    -0.269 OA
BRANCH  33  36
ATOM     36  C   UNL A   1      34.180  34.544  29.349  1.00  0.00     0.039 A 
ATOM     37  C   UNL A   1      34.004  33.995  30.624  1.00  0.00     0.014 A 
ATOM     38  C   UNL A   1      35.462  34.630  28.804  1.00  0.00     0.014 A 
ATOM     39  C   UNL A   1      35.097  33.455  31.309  1.00  0.00     0.010 A 
ATOM     40  C   UNL A   1      36.541  34.029  29.457  1.00  0.00     0.010 A 
ATOM     41  C   UNL A   1      36.369  33.423  30.713  1.00  0.00    -0.014 A 
BRANCH  41  42
ATOM     42  C   UNL A   1      37.512  32.733  31.374  1.00  0.00     0.031 A 
ATOM     43  C   UNL A   1      38.193  31.565  30.714  1.00  0.00     0.074 A 
ATOM     44  C   UNL A   1      37.902  33.120  32.606  1.00  0.00     0.049 A 
ATOM     45  N   UNL A   1      39.163  30.808  31.165  1.00  0.00    -0.248 NA
ATOM     46  C   UNL A   1      37.707  31.186  29.379  1.00  0.00     0.031 C 
ATOM     47  C   UNL A   1      37.301  34.209  33.377  1.00  0.00     0.029 A 
ATOM     48  N   UNL A   1      38.889  32.636  33.430  1.00  0.00    -0.354 N 
ATOM     49  C   UNL A   1      39.397  29.862  30.175  1.00  0.00     0.074 A 
ATOM     50  C   UNL A   1      38.430  30.106  29.125  1.00  0.00     0.031 C 
ATOM     51  C   UNL A   1      37.942  34.322  34.553  1.00  0.00     0.029 A 
ATOM     52  C   UNL A   1      38.968  33.288  34.638  1.00  0.00     0.049 A 
ATOM     53  H   UNL A   1      39.483  31.891  33.180  1.00  0.00     0.167 HD
ATOM     54  C   UNL A   1      40.345  28.894  30.133  1.00  0.00     0.037 A 
ATOM     55  C   UNL A   1      39.767  33.071  35.701  1.00  0.00     0.037 A 
ATOM     56  C   UNL A   1      41.310  28.653  31.176  1.00  0.00     0.049 A 
ATOM     57  C   UNL A   1      40.790  31.968  35.644  1.00  0.00     0.074 A 
ATOM     58  C   UNL A   1      42.337  27.726  31.204  1.00  0.00     0.029 A 
ATOM     59  N   UNL A   1      41.362  29.338  32.381  1.00  0.00    -0.354 N 
ATOM     60  N   UNL A   1      41.048  31.126  34.673  1.00  0.00    -0.248 NA
ATOM     61  C   UNL A   1      41.641  31.790  36.830  1.00  0.00     0.031 C 
ATOM     62  C   UNL A   1      42.973  27.809  32.447  1.00  0.00     0.029 A 
ATOM     63  C   UNL A   1      42.385  28.834  33.170  1.00  0.00     0.049 A 
ATOM     64  H   UNL A   1      40.760  30.074  32.639  1.00  0.00     0.167 HD
ATOM     65  C   UNL A   1      42.105  30.342  35.116  1.00  0.00     0.074 A 
ATOM     66  C   UNL A   1      42.453  30.819  36.437  1.00  0.00     0.031 C 
ATOM     67  C   UNL A   1      42.730  29.319  34.483  1.00  0.00     0.037 A 
BRANCH  54  68
ATOM     68  C   UNL A   1      40.384  28.013  28.915  1.00  0.00     0.064 A 
ATOM     69  C   UNL A   1      41.129  28.362  27.778  1.00  0.00     0.173 A 
ATOM     70  C   UNL A   1      39.705  26.785  28.899  1.00  0.00     0.173 A 
ATOM     71  F   UNL A   1      41.794  29.527  27.737  1.00  0.00    -0.203 F 
ATOM     72  C   UNL A   1      41.163  27.534  26.659  1.00  0.00     0.198 A 
ATOM     73  C   UNL A   1      39.769  25.943  27.791  1.00  0.00     0.198 A 
ATOM     74  F   UNL A   1      38.987  26.394  29.963  1.00  0.00    -0.203 F 
ATOM     75  F   UNL A   1      41.837  27.915  25.565  1.00  0.00    -0.200 F 
ATOM     76  C   UNL A   1      40.489  26.322  26.669  1.00  0.00     0.200 A 
ATOM     77  F   UNL A   1      39.133  24.764  27.810  1.00  0.00    -0.200 F 
ATOM     78  F   UNL A   1      40.530  25.522  25.595  1.00  0.00    -0.200 F 
ENDBRANCH  54  68
BRANCH  55  79
ATOM     79  C   UNL A   1      39.639  33.924  36.913  1.00  0.00     0.064 A 
ATOM     80  C   UNL A   1      38.849  33.524  38.000  1.00  0.00     0.173 A 
ATOM     81  C   UNL A   1      40.293  35.163  37.006  1.00  0.00     0.173 A 
ATOM     82  F   UNL A   1      38.185  32.359  37.951  1.00  0.00    -0.203 F 
ATOM     83  C   UNL A   1      38.698  34.338  39.121  1.00  0.00     0.198 A 
ATOM     84  C   UNL A   1      40.169  35.961  38.141  1.00  0.00     0.198 A 
ATOM     85  F   UNL A   1      41.064  35.592  35.997  1.00  0.00    -0.203 F 
ATOM     86  F   UNL A   1      37.895  33.954  40.122  1.00  0.00    -0.200 F 
ATOM     87  C   UNL A   1      39.364  35.552  39.194  1.00  0.00     0.200 A 
ATOM     88  F   UNL A   1      40.826  37.126  38.213  1.00  0.00    -0.200 F 
ATOM     89  F   UNL A   1      39.222  36.333  40.273  1.00  0.00    -0.200 F 
ENDBRANCH  55  79
BRANCH  67  90
ATOM     90  C   UNL A   1      43.884  28.667  35.192  1.00  0.00     0.064 A 
ATOM     91  C   UNL A   1      45.199  29.138  35.056  1.00  0.00     0.173 A 
ATOM     92  C   UNL A   1      43.665  27.577  36.049  1.00  0.00     0.173 A 
ATOM     93  F   UNL A   1      45.467  30.167  34.238  1.00  0.00    -0.203 F 
ATOM     94  C   UNL A   1      46.253  28.524  35.729  1.00  0.00     0.198 A 
ATOM     95  C   UNL A   1      44.716  26.988  36.747  1.00  0.00     0.198 A 
ATOM     96  F   UNL A   1      42.427  27.090  36.221  1.00  0.00    -0.203 F 
ATOM     97  F   UNL A   1      47.507  28.957  35.543  1.00  0.00    -0.200 F 
ATOM     98  C   UNL A   1      46.010  27.456  36.580  1.00  0.00     0.200 A 
ATOM     99  F   UNL A   1      44.476  25.967  37.581  1.00  0.00    -0.200 F 
ATOM    100  F   UNL A   1      47.025  26.873  37.233  1.00  0.00    -0.200 F 
ENDBRANCH  67  90
ENDBRANCH  41  42
ENDBRANCH  33  36
ENDBRANCH  31  32
ENDBRANCH  30  31
ENDBRANCH  29  30
ENDBRANCH   1  29
TORSDOF 15
ENDMDL
MODEL 2
REMARK VINA RESULT:     -12.9      1.623      8.118
REMARK SMILES O=C(COc1ccccc1C[NH+]1CCC2(CC[NH2+]CC2)CC1)NCCCCNC(=O)c1ccc(-c2c3nc(c(-c4c(F)c(F)c(F)c(F)c4F)c4ccc([nH]4)c(-c4c(F)c(F)c(F)c(F)c4F)c4nc(c(-c5c(F)c(F)c(F)c(F)c5F)c5ccc2[nH]5)C=C4)C=C3)cc1
REMARK SMILES IDX 24 1 23 2 1 3 2 4 3 6 4 7 5 8 6 9 10 10 7 11 9 12 8 13 11 14
REMARK SMILES IDX 12 15 13 16 22 17 14 19 21 20 15 21 16 22 20 23 17 24 19 25
REMARK SMILES IDX 18 26 25 29 26 30 27 31 28 32 29 33 30 35 31 36 32 37 93 38
REMARK SMILES IDX 33 39 92 40 34 41 35 42 36 43 86 44 37 45 91 46 85 47 87 48
REMARK SMILES IDX 38 49 90 50 84 51 83 52 39 54 71 55 51 56 70 57 52 58 55 59
REMARK SMILES IDX 69 60 88 61 53 62 54 63 68 65 89 66 56 67 40 68 41 69 49 70
REMARK SMILES IDX 42 71 43 72 47 73 50 74 44 75 45 76 48 77 46 78 72 79 73 80
REMARK SMILES IDX 81 81 74 82 75 83 79 84 82 85 76 86 77 87 80 88 78 89 57 90
REMARK SMILES IDX 58 91 66 92 59 93 60 94 64 95 67 96 61 97 62 98 65 99 63 100
REMARK H PARENT 23 5 12 18 18 27 18 28 28 34 87 53 55 64
REMARK Flexibility Score: inf
ROOT
ATOM      1  C   UNL A   1      32.480  30.310  26.875  1.00  0.00     0.116 C 
ENDROOT
BRANCH   1   2
ATOM      2  N   UNL A   1      32.985  29.254  26.007  1.00  0.00    -0.353 N 
ATOM      3  O   UNL A   1      34.883  28.791  27.224  1.00  0.00    -0.271 OA
ATOM      4  C   UNL A   1      34.034  28.440  26.408  1.00  0.00     0.257 C 
ATOM      5  H   UNL A   1      32.575  29.117  25.122  1.00  0.00     0.163 HD
BRANCH   4   6
ATOM      6  C   UNL A   1      34.033  27.028  25.799  1.00  0.00     0.329 C 
BRANCH   6   7
ATOM      7  O   UNL A   1      33.753  27.047  24.395  1.00  0.00    -0.483 OA
BRANCH   7   8
ATOM      8  C   UNL A   1      33.539  25.800  23.854  1.00  0.00     0.128 A 
ATOM      9  C   UNL A   1      34.500  24.820  24.132  1.00  0.00     0.047 A 
ATOM     10  C   UNL A   1      32.563  25.559  22.868  1.00  0.00     0.048 A 
ATOM     11  C   UNL A   1      34.464  23.583  23.479  1.00  0.00     0.004 A 
ATOM     12  C   UNL A   1      32.486  24.275  22.296  1.00  0.00     0.013 A 
ATOM     13  C   UNL A   1      33.442  23.302  22.580  1.00  0.00     0.001 A 
BRANCH  10  14
ATOM     14  C   UNL A   1      31.671  26.633  22.292  1.00  0.00     0.302 C 
BRANCH  14  15
ATOM     15  N   UNL A   1      31.264  27.727  23.184  1.00  0.00    -0.331 N 
ATOM     16  C   UNL A   1      31.554  29.083  22.748  1.00  0.00     0.263 C 
ATOM     17  C   UNL A   1      29.952  27.616  23.804  1.00  0.00     0.263 C 
ATOM     18  H   UNL A   1      31.929  27.553  23.936  1.00  0.00     0.348 HD
ATOM     19  C   UNL A   1      30.491  29.739  21.879  1.00  0.00     0.069 C 
ATOM     20  C   UNL A   1      28.802  28.252  23.017  1.00  0.00     0.069 C 
ATOM     21  C   UNL A   1      29.084  29.685  22.503  1.00  0.00    -0.008 C 
ATOM     22  C   UNL A   1      28.949  30.717  23.648  1.00  0.00     0.069 C 
ATOM     23  C   UNL A   1      28.039  30.041  21.418  1.00  0.00     0.069 C 
ATOM     24  C   UNL A   1      28.987  32.164  23.144  1.00  0.00     0.261 C 
ATOM     25  C   UNL A   1      28.143  31.500  20.971  1.00  0.00     0.261 C 
ATOM     26  N   UNL A   1      27.993  32.419  22.100  1.00  0.00    -0.346 N 
ATOM     27  H   UNL A   1      28.106  33.376  21.764  1.00  0.00     0.346 HD
ATOM     28  H   UNL A   1      27.067  32.278  22.503  1.00  0.00     0.346 HD
ENDBRANCH  14  15
ENDBRANCH  10  14
ENDBRANCH   7   8
ENDBRANCH   6   7
ENDBRANCH   4   6
ENDBRANCH   1   2
BRANCH   1  29
ATOM     29  C   UNL A   1      31.315  31.128  26.325  1.00  0.00     0.023 C 
BRANCH  29  30
ATOM     30  C   UNL A   1      31.382  32.644  26.516  1.00  0.00     0.023 C 
BRANCH  30  31
ATOM     31  C   UNL A   1      32.531  33.186  27.363  1.00  0.00     0.116 C 
BRANCH  31  32
ATOM     32  N   UNL A   1      32.323  34.538  27.857  1.00  0.00    -0.352 N 
ATOM     33  C   UNL A   1      32.983  35.236  28.847  1.00  0.00     0.251 C 
ATOM     34  H   UNL A   1      31.596  35.033  27.417  1.00  0.00     0.163 HD
ATOM     35  O   UNL A   1      32.583  36.343  29.185  1.00  0.00    -0.269 OA
BRANCH  33  36
ATOM     36  C   UNL A   1      34.158  34.649  29.535  1.00  0.00     0.039 A 
ATOM     37  C   UNL A   1      33.977  34.079  30.800  1.00  0.00     0.014 A 
ATOM     38  C   UNL A   1      35.430  34.669  28.962  1.00  0.00     0.014 A 
ATOM     39  C   UNL A   1      35.048  33.454  31.446  1.00  0.00     0.010 A 
ATOM     40  C   UNL A   1      36.483  33.986  29.574  1.00  0.00     0.010 A 
ATOM     41  C   UNL A   1      36.302  33.359  30.818  1.00  0.00    -0.014 A 
BRANCH  41  42
ATOM     42  C   UNL A   1      37.414  32.582  31.435  1.00  0.00     0.031 A 
ATOM     43  C   UNL A   1      37.953  32.954  32.790  1.00  0.00     0.074 A 
ATOM     44  C   UNL A   1      37.983  31.572  30.748  1.00  0.00     0.049 A 
ATOM     45  N   UNL A   1      38.952  32.430  33.457  1.00  0.00    -0.248 NA
ATOM     46  C   UNL A   1      37.296  34.075  33.477  1.00  0.00     0.031 C 
ATOM     47  C   UNL A   1      37.587  31.134  29.409  1.00  0.00     0.029 A 
ATOM     48  N   UNL A   1      39.025  30.737  31.074  1.00  0.00    -0.354 N 
ATOM     49  C   UNL A   1      39.047  33.161  34.634  1.00  0.00     0.074 A 
ATOM     50  C   UNL A   1      38.041  34.200  34.565  1.00  0.00     0.031 C 
ATOM     51  C   UNL A   1      38.361  30.102  29.035  1.00  0.00     0.029 A 
ATOM     52  C   UNL A   1      39.337  29.832  30.087  1.00  0.00     0.049 A 
ATOM     53  H   UNL A   1      39.504  30.783  31.933  1.00  0.00     0.167 HD
ATOM     54  C   UNL A   1      39.879  32.970  35.687  1.00  0.00     0.037 A 
ATOM     55  C   UNL A   1      40.307  28.899  30.027  1.00  0.00     0.037 A 
ATOM     56  C   UNL A   1      40.879  31.933  35.758  1.00  0.00     0.049 A 
ATOM     57  C   UNL A   1      41.241  28.728  31.196  1.00  0.00     0.074 A 
ATOM     58  C   UNL A   1      41.738  31.633  36.801  1.00  0.00     0.029 A 
ATOM     59  N   UNL A   1      41.160  31.033  34.740  1.00  0.00    -0.354 N 
ATOM     60  N   UNL A   1      41.274  29.379  32.332  1.00  0.00    -0.248 NA
ATOM     61  C   UNL A   1      42.270  27.684  31.075  1.00  0.00     0.031 C 
ATOM     62  C   UNL A   1      42.577  30.591  36.394  1.00  0.00     0.029 A 
ATOM     63  C   UNL A   1      42.199  30.196  35.121  1.00  0.00     0.049 A 
ATOM     64  H   UNL A   1      40.692  30.994  33.874  1.00  0.00     0.167 HD
ATOM     65  C   UNL A   1      42.301  28.807  33.072  1.00  0.00     0.074 A 
ATOM     66  C   UNL A   1      42.856  27.744  32.262  1.00  0.00     0.031 C 
ATOM     67  C   UNL A   1      42.742  29.135  34.311  1.00  0.00     0.037 A 
BRANCH  54  68
ATOM     68  C   UNL A   1      39.749  33.908  36.855  1.00  0.00     0.064 A 
ATOM     69  C   UNL A   1      38.954  33.592  37.967  1.00  0.00     0.173 A 
ATOM     70  C   UNL A   1      40.459  35.118  36.882  1.00  0.00     0.173 A 
ATOM     71  F   UNL A   1      38.249  32.450  37.991  1.00  0.00    -0.203 F 
ATOM     72  C   UNL A   1      38.847  34.467  39.045  1.00  0.00     0.198 A 
ATOM     73  C   UNL A   1      40.377  35.974  37.977  1.00  0.00     0.198 A 
ATOM     74  F   UNL A   1      41.245  35.465  35.851  1.00  0.00    -0.203 F 
ATOM     75  F   UNL A   1      38.039  34.167  40.072  1.00  0.00    -0.200 F 
ATOM     76  C   UNL A   1      39.564  35.653  39.053  1.00  0.00     0.200 A 
ATOM     77  F   UNL A   1      41.086  37.112  37.991  1.00  0.00    -0.200 F 
ATOM     78  F   UNL A   1      39.467  36.490  40.095  1.00  0.00    -0.200 F 
ENDBRANCH  54  68
BRANCH  55  79
ATOM     79  C   UNL A   1      40.442  28.043  28.817  1.00  0.00     0.064 A 
ATOM     80  C   UNL A   1      41.222  28.450  27.726  1.00  0.00     0.173 A 
ATOM     81  C   UNL A   1      39.783  26.808  28.720  1.00  0.00     0.173 A 
ATOM     82  F   UNL A   1      41.853  29.634  27.759  1.00  0.00    -0.203 F 
ATOM     83  C   UNL A   1      41.320  27.668  26.577  1.00  0.00     0.198 A 
ATOM     84  C   UNL A   1      39.909  26.010  27.585  1.00  0.00     0.198 A 
ATOM     85  F   UNL A   1      39.026  26.369  29.737  1.00  0.00    -0.203 F 
ATOM     86  F   UNL A   1      42.030  28.106  25.529  1.00  0.00    -0.200 F 
ATOM     87  C   UNL A   1      40.670  26.445  26.510  1.00  0.00     0.200 A 
ATOM     88  F   UNL A   1      39.291  24.823  27.532  1.00  0.00    -0.200 F 
ATOM     89  F   UNL A   1      40.767  25.691  25.408  1.00  0.00    -0.200 F 
ENDBRANCH  55  79
BRANCH  67  90
ATOM     90  C   UNL A   1      43.858  28.310  34.890  1.00  0.00     0.064 A 
ATOM     91  C   UNL A   1      45.203  28.681  34.750  1.00  0.00     0.173 A 
ATOM     92  C   UNL A   1      43.572  27.151  35.628  1.00  0.00     0.173 A 
ATOM     93  F   UNL A   1      45.534  29.770  34.042  1.00  0.00    -0.203 F 
ATOM     94  C   UNL A   1      46.221  27.905  35.302  1.00  0.00     0.198 A 
ATOM     95  C   UNL A   1      44.589  26.398  36.208  1.00  0.00     0.198 A 
ATOM     96  F   UNL A   1      42.302  26.754  35.799  1.00  0.00    -0.203 F 
ATOM     97  F   UNL A   1      47.502  28.249  35.110  1.00  0.00    -0.200 F 
ATOM     98  C   UNL A   1      45.913  26.770  36.037  1.00  0.00     0.200 A 
ATOM     99  F   UNL A   1      44.287  25.311  36.932  1.00  0.00    -0.200 F 
ATOM    100  F   UNL A   1      46.893  26.031  36.575  1.00  0.00    -0.200 F 
ENDBRANCH  67  90
ENDBRANCH  41  42
ENDBRANCH  33  36
ENDBRANCH  31  32
ENDBRANCH  30  31
ENDBRANCH  29  30
ENDBRANCH   1  29
TORSDOF 15
ENDMDL
MODEL 3
REMARK VINA RESULT:     -12.9      1.402      3.702
REMARK SMILES O=C(COc1ccccc1C[NH+]1CCC2(CC[NH2+]CC2)CC1)NCCCCNC(=O)c1ccc(-c2c3nc(c(-c4c(F)c(F)c(F)c(F)c4F)c4ccc([nH]4)c(-c4c(F)c(F)c(F)c(F)c4F)c4nc(c(-c5c(F)c(F)c(F)c(F)c5F)c5ccc2[nH]5)C=C4)C=C3)cc1
REMARK SMILES IDX 24 1 23 2 1 3 2 4 3 6 4 7 5 8 6 9 10 10 7 11 9 12 8 13 11 14
REMARK SMILES IDX 12 15 13 16 22 17 14 19 21 20 15 21 16 22 20 23 17 24 19 25
REMARK SMILES IDX 18 26 25 29 26 30 27 31 28 32 29 33 30 35 31 36 32 37 93 38
REMARK SMILES IDX 33 39 92 40 34 41 35 42 36 43 86 44 37 45 91 46 85 47 87 48
REMARK SMILES IDX 38 49 90 50 84 51 83 52 39 54 71 55 51 56 70 57 52 58 55 59
REMARK SMILES IDX 69 60 88 61 53 62 54 63 68 65 89 66 56 67 40 68 41 69 49 70
REMARK SMILES IDX 42 71 43 72 47 73 50 74 44 75 45 76 48 77 46 78 72 79 73 80
REMARK SMILES IDX 81 81 74 82 75 83 79 84 82 85 76 86 77 87 80 88 78 89 57 90
REMARK SMILES IDX 58 91 66 92 59 93 60 94 64 95 67 96 61 97 62 98 65 99 63 100
REMARK H PARENT 23 5 12 18 18 27 18 28 28 34 87 53 55 64
REMARK Flexibility Score: inf
ROOT
ATOM      1  C   UNL A   1      32.611  30.128  26.750  1.00  0.00     0.116 C 
ENDROOT
BRANCH   1   2
ATOM      2  N   UNL A   1      32.943  28.952  25.957  1.00  0.00    -0.353 N 
ATOM      3  O   UNL A   1      34.983  28.534  26.939  1.00  0.00    -0.271 OA
ATOM      4  C   UNL A   1      34.009  28.136  26.303  1.00  0.00     0.257 C 
ATOM      5  H   UNL A   1      32.402  28.734  25.164  1.00  0.00     0.163 HD
BRANCH   4   6
ATOM      6  C   UNL A   1      33.867  26.663  25.881  1.00  0.00     0.329 C 
BRANCH   6   7
ATOM      7  O   UNL A   1      33.503  26.530  24.502  1.00  0.00    -0.483 OA
BRANCH   7   8
ATOM      8  C   UNL A   1      32.784  25.390  24.225  1.00  0.00     0.128 A 
ATOM      9  C   UNL A   1      33.340  24.177  24.652  1.00  0.00     0.047 A 
ATOM     10  C   UNL A   1      31.687  25.382  23.343  1.00  0.00     0.048 A 
ATOM     11  C   UNL A   1      32.777  22.960  24.257  1.00  0.00     0.004 A 
ATOM     12  C   UNL A   1      31.079  24.150  23.037  1.00  0.00     0.013 A 
ATOM     13  C   UNL A   1      31.632  22.947  23.469  1.00  0.00     0.001 A 
BRANCH  10  14
ATOM     14  C   UNL A   1      31.198  26.603  22.603  1.00  0.00     0.302 C 
BRANCH  14  15
ATOM     15  N   UNL A   1      30.808  27.771  23.403  1.00  0.00    -0.331 N 
ATOM     16  C   UNL A   1      31.243  29.076  22.934  1.00  0.00     0.263 C 
ATOM     17  C   UNL A   1      29.443  27.795  23.909  1.00  0.00     0.263 C 
ATOM     18  H   UNL A   1      31.390  27.587  24.219  1.00  0.00     0.348 HD
ATOM     19  C   UNL A   1      30.315  29.766  21.945  1.00  0.00     0.069 C 
ATOM     20  C   UNL A   1      28.420  28.476  22.995  1.00  0.00     0.069 C 
ATOM     21  C   UNL A   1      28.861  29.854  22.443  1.00  0.00    -0.008 C 
ATOM     22  C   UNL A   1      28.714  30.952  23.523  1.00  0.00     0.069 C 
ATOM     23  C   UNL A   1      27.944  30.232  21.254  1.00  0.00     0.069 C 
ATOM     24  C   UNL A   1      28.913  32.363  22.960  1.00  0.00     0.261 C 
ATOM     25  C   UNL A   1      28.205  31.653  20.752  1.00  0.00     0.261 C 
ATOM     26  N   UNL A   1      28.035  32.639  21.821  1.00  0.00    -0.346 N 
ATOM     27  H   UNL A   1      28.254  33.565  21.453  1.00  0.00     0.346 HD
ATOM     28  H   UNL A   1      27.070  32.591  22.146  1.00  0.00     0.346 HD
ENDBRANCH  14  15
ENDBRANCH  10  14
ENDBRANCH   7   8
ENDBRANCH   6   7
ENDBRANCH   4   6
ENDBRANCH   1   2
BRANCH   1  29
ATOM     29  C   UNL A   1      31.354  30.884  26.330  1.00  0.00     0.023 C 
BRANCH  29  30
ATOM     30  C   UNL A   1      31.369  32.405  26.502  1.00  0.00     0.023 C 
BRANCH  30  31
ATOM     31  C   UNL A   1      32.469  32.991  27.384  1.00  0.00     0.116 C 
BRANCH  31  32
ATOM     32  N   UNL A   1      32.275  34.390  27.731  1.00  0.00    -0.352 N 
ATOM     33  C   UNL A   1      32.955  35.189  28.625  1.00  0.00     0.251 C 
ATOM     34  H   UNL A   1      31.540  34.837  27.254  1.00  0.00     0.163 HD
ATOM     35  O   UNL A   1      32.565  36.328  28.848  1.00  0.00    -0.269 OA
BRANCH  33  36
ATOM     36  C   UNL A   1      34.142  34.675  29.351  1.00  0.00     0.039 A 
ATOM     37  C   UNL A   1      33.976  34.208  30.660  1.00  0.00     0.014 A 
ATOM     38  C   UNL A   1      35.411  34.665  28.769  1.00  0.00     0.014 A 
ATOM     39  C   UNL A   1      35.060  33.652  31.346  1.00  0.00     0.010 A 
ATOM     40  C   UNL A   1      36.477  34.047  29.428  1.00  0.00     0.010 A 
ATOM     41  C   UNL A   1      36.311  33.521  30.720  1.00  0.00    -0.014 A 
BRANCH  41  42
ATOM     42  C   UNL A   1      37.437  32.812  31.390  1.00  0.00     0.031 A 
ATOM     43  C   UNL A   1      38.097  31.627  30.740  1.00  0.00     0.074 A 
ATOM     44  C   UNL A   1      37.830  33.199  32.620  1.00  0.00     0.049 A 
ATOM     45  N   UNL A   1      39.049  30.853  31.199  1.00  0.00    -0.248 NA
ATOM     46  C   UNL A   1      37.608  31.250  29.405  1.00  0.00     0.031 C 
ATOM     47  C   UNL A   1      37.249  34.305  33.383  1.00  0.00     0.029 A 
ATOM     48  N   UNL A   1      38.804  32.700  33.452  1.00  0.00    -0.354 N 
ATOM     49  C   UNL A   1      39.267  29.895  30.216  1.00  0.00     0.074 A 
ATOM     50  C   UNL A   1      38.309  30.153  29.160  1.00  0.00     0.031 C 
ATOM     51  C   UNL A   1      37.888  34.412  34.560  1.00  0.00     0.029 A 
ATOM     52  C   UNL A   1      38.892  33.358  34.656  1.00  0.00     0.049 A 
ATOM     53  H   UNL A   1      39.384  31.941  33.209  1.00  0.00     0.167 HD
ATOM     54  C   UNL A   1      40.195  28.908  30.183  1.00  0.00     0.037 A 
ATOM     55  C   UNL A   1      39.682  33.131  35.724  1.00  0.00     0.037 A 
ATOM     56  C   UNL A   1      41.151  28.654  31.232  1.00  0.00     0.049 A 
ATOM     57  C   UNL A   1      40.683  32.006  35.677  1.00  0.00     0.074 A 
ATOM     58  C   UNL A   1      42.158  27.705  31.269  1.00  0.00     0.029 A 
ATOM     59  N   UNL A   1      41.212  29.345  32.433  1.00  0.00    -0.354 N 
ATOM     60  N   UNL A   1      40.926  31.153  34.713  1.00  0.00    -0.248 NA
ATOM     61  C   UNL A   1      41.525  31.818  36.867  1.00  0.00     0.031 C 
ATOM     62  C   UNL A   1      42.791  27.784  32.515  1.00  0.00     0.029 A 
ATOM     63  C   UNL A   1      42.222  28.825  33.229  1.00  0.00     0.049 A 
ATOM     64  H   UNL A   1      40.624  30.095  32.684  1.00  0.00     0.167 HD
ATOM     65  C   UNL A   1      41.965  30.350  35.164  1.00  0.00     0.074 A 
ATOM     66  C   UNL A   1      42.318  30.828  36.483  1.00  0.00     0.031 C 
ATOM     67  C   UNL A   1      42.571  29.311  34.540  1.00  0.00     0.037 A 
BRANCH  54  68
ATOM     68  C   UNL A   1      40.221  28.019  28.971  1.00  0.00     0.064 A 
ATOM     69  C   UNL A   1      40.957  28.357  27.826  1.00  0.00     0.173 A 
ATOM     70  C   UNL A   1      39.536  26.794  28.969  1.00  0.00     0.173 A 
ATOM     71  F   UNL A   1      41.626  29.519  27.772  1.00  0.00    -0.203 F 
ATOM     72  C   UNL A   1      40.978  27.521  26.712  1.00  0.00     0.198 A 
ATOM     73  C   UNL A   1      39.587  25.944  27.867  1.00  0.00     0.198 A 
ATOM     74  F   UNL A   1      38.825  26.413  30.042  1.00  0.00    -0.203 F 
ATOM     75  F   UNL A   1      41.645  27.893  25.610  1.00  0.00    -0.200 F 
ATOM     76  C   UNL A   1      40.300  26.313  26.736  1.00  0.00     0.200 A 
ATOM     77  F   UNL A   1      38.947  24.767  27.899  1.00  0.00    -0.200 F 
ATOM     78  F   UNL A   1      40.328  25.505  25.667  1.00  0.00    -0.200 F 
ENDBRANCH  54  68
BRANCH  55  79
ATOM     79  C   UNL A   1      39.567  33.994  36.930  1.00  0.00     0.064 A 
ATOM     80  C   UNL A   1      38.789  33.603  38.028  1.00  0.00     0.173 A 
ATOM     81  C   UNL A   1      40.222  35.233  37.005  1.00  0.00     0.173 A 
ATOM     82  F   UNL A   1      38.124  32.438  37.996  1.00  0.00    -0.203 F 
ATOM     83  C   UNL A   1      38.650  34.427  39.144  1.00  0.00     0.198 A 
ATOM     84  C   UNL A   1      40.111  36.040  38.135  1.00  0.00     0.198 A 
ATOM     85  F   UNL A   1      40.983  35.654  35.984  1.00  0.00    -0.203 F 
ATOM     86  F   UNL A   1      37.858  34.051  40.156  1.00  0.00    -0.200 F 
ATOM     87  C   UNL A   1      39.317  35.641  39.200  1.00  0.00     0.200 A 
ATOM     88  F   UNL A   1      40.769  37.206  38.191  1.00  0.00    -0.200 F 
ATOM     89  F   UNL A   1      39.187  36.431  40.274  1.00  0.00    -0.200 F 
ENDBRANCH  55  79
BRANCH  67  90
ATOM     90  C   UNL A   1      43.710  28.640  35.257  1.00  0.00     0.064 A 
ATOM     91  C   UNL A   1      45.040  29.052  35.086  1.00  0.00     0.173 A 
ATOM     92  C   UNL A   1      43.460  27.592  36.158  1.00  0.00     0.173 A 
ATOM     93  F   UNL A   1      45.336  30.038  34.226  1.00  0.00    -0.203 F 
ATOM     94  C   UNL A   1      46.078  28.421  35.767  1.00  0.00     0.198 A 
ATOM     95  C   UNL A   1      44.497  26.988  36.864  1.00  0.00     0.198 A 
ATOM     96  F   UNL A   1      42.206  27.162  36.365  1.00  0.00    -0.203 F 
ATOM     97  F   UNL A   1      47.346  28.796  35.548  1.00  0.00    -0.200 F 
ATOM     98  C   UNL A   1      45.806  27.396  36.661  1.00  0.00     0.200 A 
ATOM     99  F   UNL A   1      44.229  26.009  37.739  1.00  0.00    -0.200 F 
ATOM    100  F   UNL A   1      46.806  26.797  37.322  1.00  0.00    -0.200 F 
ENDBRANCH  67  90
ENDBRANCH  41  42
ENDBRANCH  33  36
ENDBRANCH  31  32
ENDBRANCH  30  31
ENDBRANCH  29  30
ENDBRANCH   1  29
TORSDOF 15
ENDMDL
