MODEL 1
REMARK VINA RESULT:     -11.8      0.000      0.000
REMARK SMILES C[C@@H]1SC[C@H](C(=O)NCCCCNC(=O)c2ccc(-c3c4nc(c(-c5c(F)c(F)c(F)c(F)c5F)c5ccc([nH]5)c(-c5c(F)c(F)c(F)c(F)c5F)c5nc(c(-c6c(F)c(F)c(F)c(F)c6F)c6ccc3[nH]6)C=C5)C=C4)cc2)N1C(=O)N(C)[C@@H](C)Cc1cccs1
REMARK SMILES IDX 9 1 8 2 6 3 7 4 5 6 1 7 2 8 3 9 79 10 4 11 80 12 81 13 82 14
REMARK SMILES IDX 83 15 84 16 85 17 86 18 87 19 88 20 91 21 89 22 90 23 10 24
REMARK SMILES IDX 11 25 12 26 13 27 14 28 15 30 16 31 17 32 78 33 18 34 77 35
REMARK SMILES IDX 19 36 20 37 21 38 71 39 22 40 76 41 70 42 72 43 23 44 75 45
REMARK SMILES IDX 69 46 68 47 24 49 56 50 36 51 55 52 37 53 40 54 54 55 73 56
REMARK SMILES IDX 38 57 39 58 53 60 74 61 41 62 25 63 26 64 34 65 27 66 28 67
REMARK SMILES IDX 32 68 35 69 29 70 30 71 33 72 31 73 57 74 58 75 66 76 59 77
REMARK SMILES IDX 60 78 64 79 67 80 61 81 62 82 65 83 63 84 42 85 43 86 51 87
REMARK SMILES IDX 44 88 45 89 49 90 52 91 46 92 47 93 50 94 48 95
REMARK H PARENT 8 5 13 29 72 48 40 59
REMARK Flexibility Score: inf
ROOT
ATOM      1  C   UNL A   1      31.862  29.443  27.053  1.00  0.00     0.116 C 
ENDROOT
BRANCH   1   2
ATOM      2  N   UNL A   1      33.000  28.610  26.737  1.00  0.00    -0.354 N 
ATOM      3  C   UNL A   1      33.122  27.623  25.806  1.00  0.00     0.243 C 
ATOM      4  O   UNL A   1      34.133  26.914  25.878  1.00  0.00    -0.273 OA
ATOM      5  H   UNL A   1      33.807  28.783  27.273  1.00  0.00     0.163 HD
BRANCH   3   6
ATOM      6  C   UNL A   1      31.965  27.243  24.853  1.00  0.00     0.187 C 
ATOM      7  C   UNL A   1      31.708  24.297  22.764  1.00  0.00     0.043 C 
ATOM      8  C   UNL A   1      31.017  25.493  23.419  1.00  0.00     0.142 C 
ATOM      9  S   UNL A   1      31.242  26.955  22.350  1.00  0.00    -0.135 SA
ATOM     10  N   UNL A   1      31.509  25.829  24.753  1.00  0.00    -0.300 N 
ATOM     11  C   UNL A   1      32.397  27.738  23.477  1.00  0.00     0.107 C 
BRANCH  10  12
ATOM     12  C   UNL A   1      31.262  25.210  25.960  1.00  0.00     0.321 C 
ATOM     13  O   UNL A   1      30.832  25.913  26.883  1.00  0.00    -0.248 OA
BRANCH  12  14
ATOM     14  N   UNL A   1      31.498  23.874  26.211  1.00  0.00    -0.325 N 
ATOM     15  C   UNL A   1      30.561  22.758  26.267  1.00  0.00     0.149 C 
BRANCH  14  16
ATOM     16  C   UNL A   1      32.910  23.470  26.493  1.00  0.00     0.088 C 
ATOM     17  C   UNL A   1      33.008  22.593  27.751  1.00  0.00     0.031 C 
BRANCH  16  18
ATOM     18  C   UNL A   1      33.660  22.827  25.294  1.00  0.00     0.071 C 
BRANCH  18  19
ATOM     19  C   UNL A   1      35.167  22.851  25.414  1.00  0.00     0.007 A 
ATOM     20  C   UNL A   1      36.032  23.931  25.436  1.00  0.00     0.015 A 
ATOM     21  S   UNL A   1      36.040  21.372  25.445  1.00  0.00    -0.149 S 
ATOM     22  C   UNL A   1      37.398  23.546  25.535  1.00  0.00     0.012 A 
ATOM     23  C   UNL A   1      37.545  22.179  25.519  1.00  0.00     0.065 A 
ENDBRANCH  18  19
ENDBRANCH  16  18
ENDBRANCH  14  16
ENDBRANCH  12  14
ENDBRANCH  10  12
ENDBRANCH   3   6
ENDBRANCH   1   2
BRANCH   1  24
ATOM     24  C   UNL A   1      31.826  30.674  26.153  1.00  0.00     0.023 C 
BRANCH  24  25
ATOM     25  C   UNL A   1      31.518  31.982  26.881  1.00  0.00     0.023 C 
BRANCH  25  26
ATOM     26  C   UNL A   1      32.742  32.754  27.353  1.00  0.00     0.116 C 
BRANCH  26  27
ATOM     27  N   UNL A   1      32.447  34.147  27.654  1.00  0.00    -0.352 N 
ATOM     28  C   UNL A   1      32.999  34.964  28.612  1.00  0.00     0.251 C 
ATOM     29  H   UNL A   1      31.753  34.563  27.092  1.00  0.00     0.163 HD
ATOM     30  O   UNL A   1      32.526  36.069  28.832  1.00  0.00    -0.269 OA
BRANCH  28  31
ATOM     31  C   UNL A   1      34.153  34.478  29.394  1.00  0.00     0.039 A 
ATOM     32  C   UNL A   1      33.927  33.912  30.651  1.00  0.00     0.014 A 
ATOM     33  C   UNL A   1      35.447  34.552  28.874  1.00  0.00     0.014 A 
ATOM     34  C   UNL A   1      34.996  33.355  31.355  1.00  0.00     0.010 A 
ATOM     35  C   UNL A   1      36.493  33.922  29.537  1.00  0.00     0.010 A 
ATOM     36  C   UNL A   1      36.279  33.320  30.786  1.00  0.00    -0.014 A 
BRANCH  36  37
ATOM     37  C   UNL A   1      37.413  32.661  31.481  1.00  0.00     0.031 A 
ATOM     38  C   UNL A   1      38.116  31.500  30.838  1.00  0.00     0.074 A 
ATOM     39  C   UNL A   1      37.765  33.067  32.715  1.00  0.00     0.049 A 
ATOM     40  N   UNL A   1      39.090  30.759  31.304  1.00  0.00    -0.248 NA
ATOM     41  C   UNL A   1      37.642  31.099  29.505  1.00  0.00     0.031 C 
ATOM     42  C   UNL A   1      37.130  34.153  33.462  1.00  0.00     0.029 A 
ATOM     43  N   UNL A   1      38.744  32.609  33.562  1.00  0.00    -0.354 N 
ATOM     44  C   UNL A   1      39.338  29.804  30.327  1.00  0.00     0.074 A 
ATOM     45  C   UNL A   1      38.365  30.014  29.277  1.00  0.00     0.031 C 
ATOM     46  C   UNL A   1      37.759  34.303  34.639  1.00  0.00     0.029 A 
ATOM     47  C   UNL A   1      38.811  33.296  34.749  1.00  0.00     0.049 A 
ATOM     48  H   UNL A   1      39.342  31.859  33.339  1.00  0.00     0.167 HD
ATOM     49  C   UNL A   1      40.304  28.856  30.294  1.00  0.00     0.037 A 
ATOM     50  C   UNL A   1      39.627  33.130  35.806  1.00  0.00     0.037 A 
ATOM     51  C   UNL A   1      41.273  28.655  31.341  1.00  0.00     0.049 A 
ATOM     52  C   UNL A   1      40.668  32.044  35.765  1.00  0.00     0.074 A 
ATOM     53  C   UNL A   1      42.321  27.755  31.387  1.00  0.00     0.029 A 
ATOM     54  N   UNL A   1      41.301  29.363  32.535  1.00  0.00    -0.354 N 
ATOM     55  N   UNL A   1      40.940  31.192  34.807  1.00  0.00    -0.248 NA
ATOM     56  C   UNL A   1      41.518  31.902  36.954  1.00  0.00     0.031 C 
ATOM     57  C   UNL A   1      42.950  27.880  32.632  1.00  0.00     0.029 A 
ATOM     58  C   UNL A   1      42.332  28.900  33.337  1.00  0.00     0.049 A 
ATOM     59  H   UNL A   1      40.680  30.088  32.777  1.00  0.00     0.167 HD
ATOM     60  C   UNL A   1      42.010  30.433  35.263  1.00  0.00     0.074 A 
ATOM     61  C   UNL A   1      42.346  30.936  36.579  1.00  0.00     0.031 C 
ATOM     62  C   UNL A   1      42.658  29.414  34.645  1.00  0.00     0.037 A 
BRANCH  49  63
ATOM     63  C   UNL A   1      40.351  27.965  29.086  1.00  0.00     0.064 A 
ATOM     64  C   UNL A   1      41.094  28.308  27.944  1.00  0.00     0.173 A 
ATOM     65  C   UNL A   1      39.644  26.754  29.062  1.00  0.00     0.173 A 
ATOM     66  F   UNL A   1      41.781  29.460  27.907  1.00  0.00    -0.203 F 
ATOM     67  C   UNL A   1      41.086  27.499  26.811  1.00  0.00     0.198 A 
ATOM     68  C   UNL A   1      39.668  25.928  27.941  1.00  0.00     0.198 A 
ATOM     69  F   UNL A   1      38.923  26.370  30.127  1.00  0.00    -0.203 F 
ATOM     70  F   UNL A   1      41.744  27.886  25.708  1.00  0.00    -0.200 F 
ATOM     71  C   UNL A   1      40.378  26.308  26.812  1.00  0.00     0.200 A 
ATOM     72  F   UNL A   1      38.996  24.769  27.949  1.00  0.00    -0.200 F 
ATOM     73  F   UNL A   1      40.369  25.531  25.719  1.00  0.00    -0.200 F 
ENDBRANCH  49  63
BRANCH  50  74
ATOM     74  C   UNL A   1      39.522  34.044  36.973  1.00  0.00     0.064 A 
ATOM     75  C   UNL A   1      38.772  33.681  38.100  1.00  0.00     0.173 A 
ATOM     76  C   UNL A   1      40.171  35.287  36.994  1.00  0.00     0.173 A 
ATOM     77  F   UNL A   1      38.118  32.510  38.119  1.00  0.00    -0.203 F 
ATOM     78  C   UNL A   1      38.661  34.532  39.198  1.00  0.00     0.198 A 
ATOM     79  C   UNL A   1      40.084  36.126  38.104  1.00  0.00     0.198 A 
ATOM     80  F   UNL A   1      40.905  35.679  35.943  1.00  0.00    -0.203 F 
ATOM     81  F   UNL A   1      37.905  34.177  40.245  1.00  0.00    -0.200 F 
ATOM     82  C   UNL A   1      39.324  35.751  39.201  1.00  0.00     0.200 A 
ATOM     83  F   UNL A   1      40.737  37.295  38.111  1.00  0.00    -0.200 F 
ATOM     84  F   UNL A   1      39.225  36.565  40.261  1.00  0.00    -0.200 F 
ENDBRANCH  50  74
BRANCH  62  85
ATOM     85  C   UNL A   1      43.821  28.799  35.369  1.00  0.00     0.064 A 
ATOM     86  C   UNL A   1      43.653  27.746  36.280  1.00  0.00     0.173 A 
ATOM     87  C   UNL A   1      45.128  29.246  35.119  1.00  0.00     0.173 A 
ATOM     88  F   UNL A   1      42.423  27.290  36.567  1.00  0.00    -0.203 F 
ATOM     89  C   UNL A   1      44.746  27.183  36.935  1.00  0.00     0.198 A 
ATOM     90  C   UNL A   1      46.221  28.659  35.749  1.00  0.00     0.198 A 
ATOM     91  F   UNL A   1      45.347  30.246  34.252  1.00  0.00    -0.203 F 
ATOM     92  F   UNL A   1      44.556  26.215  37.841  1.00  0.00    -0.200 F 
ATOM     93  C   UNL A   1      46.028  27.634  36.663  1.00  0.00     0.200 A 
ATOM     94  F   UNL A   1      47.461  29.085  35.473  1.00  0.00    -0.200 F 
ATOM     95  F   UNL A   1      47.080  27.086  37.288  1.00  0.00    -0.200 F 
ENDBRANCH  62  85
ENDBRANCH  36  37
ENDBRANCH  28  31
ENDBRANCH  26  27
ENDBRANCH  25  26
ENDBRANCH  24  25
ENDBRANCH   1  24
TORSDOF 16
ENDMDL
MODEL 2
REMARK VINA RESULT:     -11.7      0.154      1.933
REMARK SMILES C[C@@H]1SC[C@H](C(=O)NCCCCNC(=O)c2ccc(-c3c4nc(c(-c5c(F)c(F)c(F)c(F)c5F)c5ccc([nH]5)c(-c5c(F)c(F)c(F)c(F)c5F)c5nc(c(-c6c(F)c(F)c(F)c(F)c6F)c6ccc3[nH]6)C=C5)C=C4)cc2)N1C(=O)N(C)[C@@H](C)Cc1cccs1
REMARK SMILES IDX 9 1 8 2 6 3 7 4 5 6 1 7 2 8 3 9 79 10 4 11 80 12 81 13 82 14
REMARK SMILES IDX 83 15 84 16 85 17 86 18 87 19 88 20 91 21 89 22 90 23 10 24
REMARK SMILES IDX 11 25 12 26 13 27 14 28 15 30 16 31 17 32 78 33 18 34 77 35
REMARK SMILES IDX 19 36 20 37 21 38 71 39 22 40 76 41 70 42 72 43 23 44 75 45
REMARK SMILES IDX 69 46 68 47 24 49 56 50 36 51 55 52 37 53 40 54 54 55 73 56
REMARK SMILES IDX 38 57 39 58 53 60 74 61 41 62 25 63 26 64 34 65 27 66 28 67
REMARK SMILES IDX 32 68 35 69 29 70 30 71 33 72 31 73 57 74 58 75 66 76 59 77
REMARK SMILES IDX 60 78 64 79 67 80 61 81 62 82 65 83 63 84 42 85 43 86 51 87
REMARK SMILES IDX 44 88 45 89 49 90 52 91 46 92 47 93 50 94 48 95
REMARK H PARENT 8 5 13 29 72 48 40 59
REMARK Flexibility Score: inf
ROOT
ATOM      1  C   UNL A   1      31.832  29.521  27.087  1.00  0.00     0.116 C 
ENDROOT
BRANCH   1   2
ATOM      2  N   UNL A   1      32.934  28.646  26.763  1.00  0.00    -0.354 N 
ATOM      3  C   UNL A   1      33.010  27.648  25.839  1.00  0.00     0.243 C 
ATOM      4  O   UNL A   1      33.995  26.904  25.905  1.00  0.00    -0.273 OA
ATOM      5  H   UNL A   1      33.754  28.794  27.288  1.00  0.00     0.163 HD
BRANCH   3   6
ATOM      6  C   UNL A   1      31.828  27.303  24.904  1.00  0.00     0.187 C 
ATOM      7  C   UNL A   1      31.537  24.463  22.677  1.00  0.00     0.043 C 
ATOM      8  C   UNL A   1      30.854  25.616  23.412  1.00  0.00     0.142 C 
ATOM      9  S   UNL A   1      31.029  27.133  22.413  1.00  0.00    -0.135 SA
ATOM     10  N   UNL A   1      31.384  25.890  24.746  1.00  0.00    -0.300 N 
ATOM     11  C   UNL A   1      32.210  27.872  23.542  1.00  0.00     0.107 C 
BRANCH  10  12
ATOM     12  C   UNL A   1      31.181  25.208  25.927  1.00  0.00     0.321 C 
ATOM     13  O   UNL A   1      30.702  25.841  26.875  1.00  0.00    -0.248 OA
BRANCH  12  14
ATOM     14  N   UNL A   1      31.511  23.883  26.125  1.00  0.00    -0.325 N 
ATOM     15  C   UNL A   1      30.649  22.708  26.191  1.00  0.00     0.149 C 
BRANCH  14  16
ATOM     16  C   UNL A   1      32.958  23.562  26.329  1.00  0.00     0.088 C 
ATOM     17  C   UNL A   1      33.167  22.624  27.528  1.00  0.00     0.031 C 
BRANCH  16  18
ATOM     18  C   UNL A   1      33.698  23.039  25.066  1.00  0.00     0.071 C 
BRANCH  18  19
ATOM     19  C   UNL A   1      35.186  22.843  25.250  1.00  0.00     0.007 A 
ATOM     20  C   UNL A   1      36.184  23.785  25.425  1.00  0.00     0.015 A 
ATOM     21  S   UNL A   1      35.851  21.262  25.157  1.00  0.00    -0.149 S 
ATOM     22  C   UNL A   1      37.479  23.207  25.538  1.00  0.00     0.012 A 
ATOM     23  C   UNL A   1      37.443  21.841  25.381  1.00  0.00     0.065 A 
ENDBRANCH  18  19
ENDBRANCH  16  18
ENDBRANCH  14  16
ENDBRANCH  12  14
ENDBRANCH  10  12
ENDBRANCH   3   6
ENDBRANCH   1   2
BRANCH   1  24
ATOM     24  C   UNL A   1      31.794  30.717  26.140  1.00  0.00     0.023 C 
BRANCH  24  25
ATOM     25  C   UNL A   1      31.493  32.054  26.819  1.00  0.00     0.023 C 
BRANCH  25  26
ATOM     26  C   UNL A   1      32.720  32.811  27.310  1.00  0.00     0.116 C 
BRANCH  26  27
ATOM     27  N   UNL A   1      32.431  34.202  27.626  1.00  0.00    -0.352 N 
ATOM     28  C   UNL A   1      32.993  35.007  28.589  1.00  0.00     0.251 C 
ATOM     29  H   UNL A   1      31.736  34.626  27.073  1.00  0.00     0.163 HD
ATOM     30  O   UNL A   1      32.526  36.112  28.823  1.00  0.00    -0.269 OA
BRANCH  28  31
ATOM     31  C   UNL A   1      34.150  34.509  29.359  1.00  0.00     0.039 A 
ATOM     32  C   UNL A   1      33.942  34.021  30.651  1.00  0.00     0.014 A 
ATOM     33  C   UNL A   1      35.428  34.495  28.794  1.00  0.00     0.014 A 
ATOM     34  C   UNL A   1      35.009  33.453  31.350  1.00  0.00     0.010 A 
ATOM     35  C   UNL A   1      36.466  33.852  29.456  1.00  0.00     0.010 A 
ATOM     36  C   UNL A   1      36.269  33.328  30.743  1.00  0.00    -0.014 A 
BRANCH  36  37
ATOM     37  C   UNL A   1      37.394  32.653  31.435  1.00  0.00     0.031 A 
ATOM     38  C   UNL A   1      38.095  31.496  30.782  1.00  0.00     0.074 A 
ATOM     39  C   UNL A   1      37.743  33.043  32.676  1.00  0.00     0.049 A 
ATOM     40  N   UNL A   1      39.062  30.743  31.244  1.00  0.00    -0.248 NA
ATOM     41  C   UNL A   1      37.625  31.114  29.441  1.00  0.00     0.031 C 
ATOM     42  C   UNL A   1      37.111  34.124  33.432  1.00  0.00     0.029 A 
ATOM     43  N   UNL A   1      38.715  32.568  33.521  1.00  0.00    -0.354 N 
ATOM     44  C   UNL A   1      39.308  29.798  30.257  1.00  0.00     0.074 A 
ATOM     45  C   UNL A   1      38.342  30.027  29.204  1.00  0.00     0.031 C 
ATOM     46  C   UNL A   1      37.734  34.255  34.614  1.00  0.00     0.029 A 
ATOM     47  C   UNL A   1      38.780  33.241  34.717  1.00  0.00     0.049 A 
ATOM     48  H   UNL A   1      39.309  31.818  33.293  1.00  0.00     0.167 HD
ATOM     49  C   UNL A   1      40.269  28.845  30.218  1.00  0.00     0.037 A 
ATOM     50  C   UNL A   1      39.590  33.057  35.776  1.00  0.00     0.037 A 
ATOM     51  C   UNL A   1      41.231  28.626  31.267  1.00  0.00     0.049 A 
ATOM     52  C   UNL A   1      40.624  31.966  35.728  1.00  0.00     0.074 A 
ATOM     53  C   UNL A   1      42.274  27.719  31.308  1.00  0.00     0.029 A 
ATOM     54  N   UNL A   1      41.257  29.320  32.469  1.00  0.00    -0.354 N 
ATOM     55  N   UNL A   1      40.896  31.123  34.761  1.00  0.00    -0.248 NA
ATOM     56  C   UNL A   1      41.467  31.804  36.920  1.00  0.00     0.031 C 
ATOM     57  C   UNL A   1      42.897  27.825  32.557  1.00  0.00     0.029 A 
ATOM     58  C   UNL A   1      42.282  28.840  33.271  1.00  0.00     0.049 A 
ATOM     59  H   UNL A   1      40.639  30.046  32.717  1.00  0.00     0.167 HD
ATOM     60  C   UNL A   1      41.959  30.353  35.213  1.00  0.00     0.074 A 
ATOM     61  C   UNL A   1      42.291  30.838  36.537  1.00  0.00     0.031 C 
ATOM     62  C   UNL A   1      42.604  29.337  34.586  1.00  0.00     0.037 A 
BRANCH  49  63
ATOM     63  C   UNL A   1      40.316  27.968  28.999  1.00  0.00     0.064 A 
ATOM     64  C   UNL A   1      39.625  26.747  28.942  1.00  0.00     0.173 A 
ATOM     65  C   UNL A   1      41.064  28.347  27.874  1.00  0.00     0.173 A 
ATOM     66  F   UNL A   1      38.903  26.329  29.993  1.00  0.00    -0.203 F 
ATOM     67  C   UNL A   1      39.721  25.918  27.827  1.00  0.00     0.198 A 
ATOM     68  C   UNL A   1      41.126  27.532  26.745  1.00  0.00     0.198 A 
ATOM     69  F   UNL A   1      41.739  29.506  27.868  1.00  0.00    -0.203 F 
ATOM     70  F   UNL A   1      39.110  24.724  27.827  1.00  0.00    -0.200 F 
ATOM     71  C   UNL A   1      40.466  26.313  26.728  1.00  0.00     0.200 A 
ATOM     72  F   UNL A   1      41.836  27.924  25.677  1.00  0.00    -0.200 F 
ATOM     73  F   UNL A   1      40.560  25.513  25.656  1.00  0.00    -0.200 F 
ENDBRANCH  49  63
BRANCH  50  74
ATOM     74  C   UNL A   1      39.484  33.958  36.954  1.00  0.00     0.064 A 
ATOM     75  C   UNL A   1      40.138  35.198  36.967  1.00  0.00     0.173 A 
ATOM     76  C   UNL A   1      38.727  33.608  38.081  1.00  0.00     0.173 A 
ATOM     77  F   UNL A   1      40.891  35.567  35.920  1.00  0.00    -0.203 F 
ATOM     78  C   UNL A   1      40.052  36.047  38.067  1.00  0.00     0.198 A 
ATOM     79  C   UNL A   1      38.617  34.471  39.170  1.00  0.00     0.198 A 
ATOM     80  F   UNL A   1      38.077  32.436  38.117  1.00  0.00    -0.203 F 
ATOM     81  F   UNL A   1      40.720  37.208  38.069  1.00  0.00    -0.200 F 
ATOM     82  C   UNL A   1      39.285  35.686  39.165  1.00  0.00     0.200 A 
ATOM     83  F   UNL A   1      37.862  34.127  40.222  1.00  0.00    -0.200 F 
ATOM     84  F   UNL A   1      39.194  36.508  40.220  1.00  0.00    -0.200 F 
ENDBRANCH  50  74
BRANCH  62  85
ATOM     85  C   UNL A   1      43.760  28.706  35.309  1.00  0.00     0.064 A 
ATOM     86  C   UNL A   1      45.064  29.209  35.201  1.00  0.00     0.173 A 
ATOM     87  C   UNL A   1      43.550  27.603  36.152  1.00  0.00     0.173 A 
ATOM     88  F   UNL A   1      45.322  30.252  34.397  1.00  0.00    -0.203 F 
ATOM     89  C   UNL A   1      46.120  28.614  35.888  1.00  0.00     0.198 A 
ATOM     90  C   UNL A   1      44.602  27.033  36.864  1.00  0.00     0.198 A 
ATOM     91  F   UNL A   1      42.321  27.086  36.298  1.00  0.00    -0.203 F 
ATOM     92  F   UNL A   1      47.367  29.079  35.728  1.00  0.00    -0.200 F 
ATOM     93  C   UNL A   1      45.887  27.533  36.724  1.00  0.00     0.200 A 
ATOM     94  F   UNL A   1      44.371  25.999  37.683  1.00  0.00    -0.200 F 
ATOM     95  F   UNL A   1      46.903  26.968  37.390  1.00  0.00    -0.200 F 
ENDBRANCH  62  85
ENDBRANCH  36  37
ENDBRANCH  28  31
ENDBRANCH  26  27
ENDBRANCH  25  26
ENDBRANCH  24  25
ENDBRANCH   1  24
TORSDOF 16
ENDMDL
MODEL 3
REMARK VINA RESULT:     -11.6      0.618      7.420
REMARK SMILES C[C@@H]1SC[C@H](C(=O)NCCCCNC(=O)c2ccc(-c3c4nc(c(-c5c(F)c(F)c(F)c(F)c5F)c5ccc([nH]5)c(-c5c(F)c(F)c(F)c(F)c5F)c5nc(c(-c6c(F)c(F)c(F)c(F)c6F)c6ccc3[nH]6)C=C5)C=C4)cc2)N1C(=O)N(C)[C@@H](C)Cc1cccs1
REMARK SMILES IDX 9 1 8 2 6 3 7 4 5 6 1 7 2 8 3 9 79 10 4 11 80 12 81 13 82 14
REMARK SMILES IDX 83 15 84 16 85 17 86 18 87 19 88 20 91 21 89 22 90 23 10 24
REMARK SMILES IDX 11 25 12 26 13 27 14 28 15 30 16 31 17 32 78 33 18 34 77 35
REMARK SMILES IDX 19 36 20 37 21 38 71 39 22 40 76 41 70 42 72 43 23 44 75 45
REMARK SMILES IDX 69 46 68 47 24 49 56 50 36 51 55 52 37 53 40 54 54 55 73 56
REMARK SMILES IDX 38 57 39 58 53 60 74 61 41 62 25 63 26 64 34 65 27 66 28 67
REMARK SMILES IDX 32 68 35 69 29 70 30 71 33 72 31 73 57 74 58 75 66 76 59 77
REMARK SMILES IDX 60 78 64 79 67 80 61 81 62 82 65 83 63 84 42 85 43 86 51 87
REMARK SMILES IDX 44 88 45 89 49 90 52 91 46 92 47 93 50 94 48 95
REMARK H PARENT 8 5 13 29 72 48 40 59
REMARK Flexibility Score: inf
ROOT
ATOM      1  C   UNL A   1      31.883  29.558  27.121  1.00  0.00     0.116 C 
ENDROOT
BRANCH   1   2
ATOM      2  N   UNL A   1      32.977  28.688  26.759  1.00  0.00    -0.354 N 
ATOM      3  C   UNL A   1      33.037  27.720  25.803  1.00  0.00     0.243 C 
ATOM      4  O   UNL A   1      34.019  26.967  25.835  1.00  0.00    -0.273 OA
ATOM      5  H   UNL A   1      33.802  28.814  27.281  1.00  0.00     0.163 HD
BRANCH   3   6
ATOM      6  C   UNL A   1      31.845  27.412  24.868  1.00  0.00     0.187 C 
ATOM      7  C   UNL A   1      31.449  24.566  22.665  1.00  0.00     0.043 C 
ATOM      8  C   UNL A   1      30.809  25.750  23.389  1.00  0.00     0.142 C 
ATOM      9  S   UNL A   1      31.045  27.250  22.377  1.00  0.00    -0.135 SA
ATOM     10  N   UNL A   1      31.347  26.015  24.721  1.00  0.00    -0.300 N 
ATOM     11  C   UNL A   1      32.252  27.954  23.502  1.00  0.00     0.107 C 
BRANCH  10  12
ATOM     12  C   UNL A   1      31.116  25.353  25.908  1.00  0.00     0.321 C 
ATOM     13  O   UNL A   1      30.606  25.998  26.832  1.00  0.00    -0.248 OA
BRANCH  12  14
ATOM     14  N   UNL A   1      31.449  24.034  26.139  1.00  0.00    -0.325 N 
ATOM     15  C   UNL A   1      30.593  22.855  26.208  1.00  0.00     0.149 C 
BRANCH  14  16
ATOM     16  C   UNL A   1      32.894  23.726  26.380  1.00  0.00     0.088 C 
ATOM     17  C   UNL A   1      33.076  22.752  27.555  1.00  0.00     0.031 C 
BRANCH  16  18
ATOM     18  C   UNL A   1      33.682  23.255  25.127  1.00  0.00     0.071 C 
BRANCH  18  19
ATOM     19  C   UNL A   1      35.153  23.005  25.371  1.00  0.00     0.007 A 
ATOM     20  C   UNL A   1      36.163  23.906  25.658  1.00  0.00     0.015 A 
ATOM     21  S   UNL A   1      35.783  21.417  25.205  1.00  0.00    -0.149 S 
ATOM     22  C   UNL A   1      37.436  23.286  25.797  1.00  0.00     0.012 A 
ATOM     23  C   UNL A   1      37.376  21.936  25.546  1.00  0.00     0.065 A 
ENDBRANCH  18  19
ENDBRANCH  16  18
ENDBRANCH  14  16
ENDBRANCH  12  14
ENDBRANCH  10  12
ENDBRANCH   3   6
ENDBRANCH   1   2
BRANCH   1  24
ATOM     24  C   UNL A   1      31.749  30.704  26.122  1.00  0.00     0.023 C 
BRANCH  24  25
ATOM     25  C   UNL A   1      31.489  32.071  26.757  1.00  0.00     0.023 C 
BRANCH  25  26
ATOM     26  C   UNL A   1      32.739  32.809  27.218  1.00  0.00     0.116 C 
BRANCH  26  27
ATOM     27  N   UNL A   1      32.459  34.169  27.652  1.00  0.00    -0.352 N 
ATOM     28  C   UNL A   1      33.036  34.891  28.670  1.00  0.00     0.251 C 
ATOM     29  H   UNL A   1      31.757  34.638  27.146  1.00  0.00     0.163 HD
ATOM     30  O   UNL A   1      32.576  35.973  29.002  1.00  0.00    -0.269 OA
BRANCH  28  31
ATOM     31  C   UNL A   1      34.203  34.329  29.380  1.00  0.00     0.039 A 
ATOM     32  C   UNL A   1      33.989  33.542  30.513  1.00  0.00     0.014 A 
ATOM     33  C   UNL A   1      35.498  34.552  28.907  1.00  0.00     0.014 A 
ATOM     34  C   UNL A   1      35.074  32.919  31.132  1.00  0.00     0.010 A 
ATOM     35  C   UNL A   1      36.565  33.864  29.472  1.00  0.00     0.010 A 
ATOM     36  C   UNL A   1      36.365  33.044  30.593  1.00  0.00    -0.014 A 
BRANCH  36  37
ATOM     37  C   UNL A   1      37.521  32.326  31.186  1.00  0.00     0.031 A 
ATOM     38  C   UNL A   1      38.010  32.692  32.558  1.00  0.00     0.074 A 
ATOM     39  C   UNL A   1      38.166  31.391  30.464  1.00  0.00     0.049 A 
ATOM     40  N   UNL A   1      39.032  32.221  33.227  1.00  0.00    -0.248 NA
ATOM     41  C   UNL A   1      37.268  33.750  33.261  1.00  0.00     0.031 C 
ATOM     42  C   UNL A   1      37.814  30.979  29.105  1.00  0.00     0.029 A 
ATOM     43  N   UNL A   1      39.259  30.619  30.773  1.00  0.00    -0.354 N 
ATOM     44  C   UNL A   1      39.060  32.929  34.421  1.00  0.00     0.074 A 
ATOM     45  C   UNL A   1      37.998  33.909  34.355  1.00  0.00     0.031 C 
ATOM     46  C   UNL A   1      38.649  30.005  28.711  1.00  0.00     0.029 A 
ATOM     47  C   UNL A   1      39.622  29.754  29.771  1.00  0.00     0.049 A 
ATOM     48  H   UNL A   1      39.736  30.680  31.632  1.00  0.00     0.167 HD
ATOM     49  C   UNL A   1      39.876  32.759  35.488  1.00  0.00     0.037 A 
ATOM     50  C   UNL A   1      40.629  28.862  29.714  1.00  0.00     0.037 A 
ATOM     51  C   UNL A   1      40.928  31.777  35.550  1.00  0.00     0.049 A 
ATOM     52  C   UNL A   1      41.549  28.718  30.895  1.00  0.00     0.074 A 
ATOM     53  C   UNL A   1      41.783  31.492  36.600  1.00  0.00     0.029 A 
ATOM     54  N   UNL A   1      41.275  30.927  34.509  1.00  0.00    -0.354 N 
ATOM     55  N   UNL A   1      41.523  29.343  32.047  1.00  0.00    -0.248 NA
ATOM     56  C   UNL A   1      42.638  27.740  30.766  1.00  0.00     0.031 C 
ATOM     57  C   UNL A   1      42.683  30.507  36.176  1.00  0.00     0.029 A 
ATOM     58  C   UNL A   1      42.350  30.135  34.883  1.00  0.00     0.049 A 
ATOM     59  H   UNL A   1      40.824  30.890  33.635  1.00  0.00     0.167 HD
ATOM     60  C   UNL A   1      42.569  28.814  32.792  1.00  0.00     0.074 A 
ATOM     61  C   UNL A   1      43.201  27.807  31.965  1.00  0.00     0.031 C 
ATOM     62  C   UNL A   1      42.967  29.132  34.049  1.00  0.00     0.037 A 
BRANCH  49  63
ATOM     63  C   UNL A   1      39.660  33.663  36.668  1.00  0.00     0.064 A 
ATOM     64  C   UNL A   1      38.848  33.284  37.750  1.00  0.00     0.173 A 
ATOM     65  C   UNL A   1      40.267  34.927  36.722  1.00  0.00     0.173 A 
ATOM     66  F   UNL A   1      38.234  32.090  37.747  1.00  0.00    -0.203 F 
ATOM     67  C   UNL A   1      38.613  34.152  38.812  1.00  0.00     0.198 A 
ATOM     68  C   UNL A   1      40.061  35.778  37.805  1.00  0.00     0.198 A 
ATOM     69  F   UNL A   1      41.059  35.340  35.722  1.00  0.00    -0.203 F 
ATOM     70  F   UNL A   1      37.776  33.793  39.797  1.00  0.00    -0.200 F 
ATOM     71  C   UNL A   1      39.224  35.396  38.842  1.00  0.00     0.200 A 
ATOM     72  F   UNL A   1      40.664  36.975  37.839  1.00  0.00    -0.200 F 
ATOM     73  F   UNL A   1      38.995  36.232  39.865  1.00  0.00    -0.200 F 
ENDBRANCH  49  63
BRANCH  50  74
ATOM     74  C   UNL A   1      40.789  28.003  28.511  1.00  0.00     0.064 A 
ATOM     75  C   UNL A   1      41.541  28.443  27.413  1.00  0.00     0.173 A 
ATOM     76  C   UNL A   1      40.208  26.729  28.435  1.00  0.00     0.173 A 
ATOM     77  F   UNL A   1      42.100  29.662  27.431  1.00  0.00    -0.203 F 
ATOM     78  C   UNL A   1      41.693  27.649  26.278  1.00  0.00     0.198 A 
ATOM     79  C   UNL A   1      40.384  25.923  27.311  1.00  0.00     0.198 A 
ATOM     80  F   UNL A   1      39.483  26.259  29.460  1.00  0.00    -0.203 F 
ATOM     81  F   UNL A   1      42.383  28.112  25.228  1.00  0.00    -0.200 F 
ATOM     82  C   UNL A   1      41.120  26.387  26.232  1.00  0.00     0.200 A 
ATOM     83  F   UNL A   1      39.843  24.699  27.276  1.00  0.00    -0.200 F 
ATOM     84  F   UNL A   1      41.275  25.620  25.144  1.00  0.00    -0.200 F 
ENDBRANCH  50  74
BRANCH  62  85
ATOM     85  C   UNL A   1      44.118  28.356  34.623  1.00  0.00     0.064 A 
ATOM     86  C   UNL A   1      45.441  28.812  34.522  1.00  0.00     0.173 A 
ATOM     87  C   UNL A   1      43.889  27.158  35.316  1.00  0.00     0.173 A 
ATOM     88  F   UNL A   1      45.717  29.944  33.857  1.00  0.00    -0.203 F 
ATOM     89  C   UNL A   1      46.494  28.081  35.069  1.00  0.00     0.198 A 
ATOM     90  C   UNL A   1      44.939  26.448  35.891  1.00  0.00     0.198 A 
ATOM     91  F   UNL A   1      42.642  26.680  35.448  1.00  0.00    -0.203 F 
ATOM     92  F   UNL A   1      47.754  28.508  34.914  1.00  0.00    -0.200 F 
ATOM     93  C   UNL A   1      46.241  26.906  35.759  1.00  0.00     0.200 A 
ATOM     94  F   UNL A   1      44.691  25.321  36.572  1.00  0.00    -0.200 F 
ATOM     95  F   UNL A   1      47.255  26.209  36.292  1.00  0.00    -0.200 F 
ENDBRANCH  62  85
ENDBRANCH  36  37
ENDBRANCH  28  31
ENDBRANCH  26  27
ENDBRANCH  25  26
ENDBRANCH  24  25
ENDBRANCH   1  24
TORSDOF 16
ENDMDL
