MODEL 1
REMARK VINA RESULT:     -11.8      0.000      0.000
REMARK SMILES CC[C@]1(C(=O)NCCCCNC(=O)c2ccc(-c3c4nc(c(-c5c(F)c(F)c(F)c(F)c5F)c5ccc([nH]5)c(-c5c(F)c(F)c(F)c(F)c5F)c5nc(c(-c6c(F)c(F)c(F)c(F)c6F)c6ccc3[nH]6)C=C5)C=C4)cc2)CCCN(S(=O)(=O)CCOC(C)C)C1
REMARK SMILES IDX 7 1 6 2 4 3 5 4 3 6 77 7 90 8 78 9 80 10 79 11 2 12 1 13
REMARK SMILES IDX 81 14 82 15 83 16 84 17 85 18 86 19 87 20 88 21 89 22 8 23
REMARK SMILES IDX 9 24 10 25 11 26 12 27 13 29 14 30 15 31 76 32 16 33 75 34
REMARK SMILES IDX 17 35 18 36 19 37 69 38 20 39 74 40 68 41 70 42 21 43 73 44
REMARK SMILES IDX 67 45 66 46 22 48 54 49 34 50 53 51 35 52 38 53 52 54 71 55
REMARK SMILES IDX 36 56 37 57 51 59 72 60 39 61 23 62 24 63 32 64 25 65 26 66
REMARK SMILES IDX 30 67 33 68 27 69 28 70 31 71 29 72 55 73 56 74 64 75 57 76
REMARK SMILES IDX 58 77 62 78 65 79 59 80 60 81 63 82 61 83 40 84 41 85 49 86
REMARK SMILES IDX 42 87 43 88 47 89 50 90 44 91 45 92 48 93 46 94
REMARK H PARENT 6 5 11 28 70 47 38 58
REMARK Flexibility Score: inf
ROOT
ATOM      1  C   UNL A   1      33.136  29.780  26.148  1.00  0.00     0.116 C 
ENDROOT
BRANCH   1   2
ATOM      2  N   UNL A   1      33.099  29.554  24.669  1.00  0.00    -0.356 N 
ATOM      3  C   UNL A   1      32.549  28.536  23.852  1.00  0.00     0.227 C 
ATOM      4  O   UNL A   1      32.280  28.780  22.678  1.00  0.00    -0.274 OA
ATOM      5  H   UNL A   1      33.553  30.261  24.155  1.00  0.00     0.163 HD
BRANCH   3   6
ATOM      6  C   UNL A   1      32.386  27.137  24.473  1.00  0.00     0.063 C 
ATOM      7  C   UNL A   1      33.923  26.842  24.649  1.00  0.00     0.019 C 
ATOM      8  C   UNL A   1      31.895  26.595  25.865  1.00  0.00     0.119 C 
ATOM      9  C   UNL A   1      34.354  25.404  24.774  1.00  0.00     0.018 C 
ATOM     10  N   UNL A   1      32.225  25.075  25.839  1.00  0.00    -0.201 NA
ATOM     11  C   UNL A   1      33.671  24.816  25.993  1.00  0.00     0.102 C 
BRANCH   6  12
ATOM     12  C   UNL A   1      31.189  26.660  23.572  1.00  0.00     0.015 C 
ATOM     13  C   UNL A   1      29.777  26.996  24.141  1.00  0.00     0.005 C 
ENDBRANCH   6  12
BRANCH  10  14
ATOM     14  S   UNL A   1      31.160  23.942  26.500  1.00  0.00     0.216 S 
ATOM     15  O   UNL A   1      31.899  23.282  27.565  1.00  0.00    -0.212 OA
ATOM     16  O   UNL A   1      29.922  24.622  26.777  1.00  0.00    -0.212 OA
BRANCH  14  17
ATOM     17  C   UNL A   1      30.901  22.718  25.165  1.00  0.00     0.182 C 
BRANCH  17  18
ATOM     18  C   UNL A   1      31.630  23.033  23.861  1.00  0.00     0.178 C 
BRANCH  18  19
ATOM     19  O   UNL A   1      32.629  22.069  23.479  1.00  0.00    -0.378 OA
BRANCH  19  20
ATOM     20  C   UNL A   1      33.338  21.367  24.504  1.00  0.00     0.112 C 
ATOM     21  C   UNL A   1      33.024  19.871  24.586  1.00  0.00     0.038 C 
ATOM     22  C   UNL A   1      34.816  21.661  24.415  1.00  0.00     0.038 C 
ENDBRANCH  19  20
ENDBRANCH  18  19
ENDBRANCH  17  18
ENDBRANCH  14  17
ENDBRANCH  10  14
ENDBRANCH   3   6
ENDBRANCH   1   2
BRANCH   1  23
ATOM     23  C   UNL A   1      31.957  30.415  26.906  1.00  0.00     0.023 C 
BRANCH  23  24
ATOM     24  C   UNL A   1      31.770  31.916  26.772  1.00  0.00     0.023 C 
BRANCH  24  25
ATOM     25  C   UNL A   1      32.819  32.767  27.457  1.00  0.00     0.116 C 
BRANCH  25  26
ATOM     26  N   UNL A   1      32.413  34.139  27.733  1.00  0.00    -0.352 N 
ATOM     27  C   UNL A   1      32.994  35.025  28.615  1.00  0.00     0.251 C 
ATOM     28  H   UNL A   1      31.634  34.472  27.231  1.00  0.00     0.163 HD
ATOM     29  O   UNL A   1      32.524  36.142  28.791  1.00  0.00    -0.269 OA
BRANCH  27  30
ATOM     30  C   UNL A   1      34.166  34.572  29.392  1.00  0.00     0.039 A 
ATOM     31  C   UNL A   1      33.964  33.966  30.633  1.00  0.00     0.014 A 
ATOM     32  C   UNL A   1      35.442  34.623  28.825  1.00  0.00     0.014 A 
ATOM     33  C   UNL A   1      35.032  33.323  31.261  1.00  0.00     0.010 A 
ATOM     34  C   UNL A   1      36.471  33.887  29.396  1.00  0.00     0.010 A 
ATOM     35  C   UNL A   1      36.279  33.231  30.620  1.00  0.00    -0.014 A 
BRANCH  35  36
ATOM     36  C   UNL A   1      37.401  32.458  31.208  1.00  0.00     0.031 A 
ATOM     37  C   UNL A   1      37.910  32.809  32.579  1.00  0.00     0.074 A 
ATOM     38  C   UNL A   1      38.013  31.501  30.484  1.00  0.00     0.049 A 
ATOM     39  N   UNL A   1      38.923  32.312  33.241  1.00  0.00    -0.248 NA
ATOM     40  C   UNL A   1      37.205  33.891  33.285  1.00  0.00     0.031 C 
ATOM     41  C   UNL A   1      37.652  31.107  29.121  1.00  0.00     0.029 A 
ATOM     42  N   UNL A   1      39.075  30.688  30.793  1.00  0.00    -0.354 N 
ATOM     43  C   UNL A   1      38.983  33.029  34.428  1.00  0.00     0.074 A 
ATOM     44  C   UNL A   1      37.956  34.045  34.363  1.00  0.00     0.031 C 
ATOM     45  C   UNL A   1      38.453  30.104  28.726  1.00  0.00     0.029 A 
ATOM     46  C   UNL A   1      39.409  29.811  29.790  1.00  0.00     0.049 A 
ATOM     47  H   UNL A   1      39.553  30.728  31.654  1.00  0.00     0.167 HD
ATOM     48  C   UNL A   1      39.798  32.837  35.492  1.00  0.00     0.037 A 
ATOM     49  C   UNL A   1      40.379  28.878  29.736  1.00  0.00     0.037 A 
ATOM     50  C   UNL A   1      40.804  31.812  35.560  1.00  0.00     0.049 A 
ATOM     51  C   UNL A   1      41.284  28.693  30.924  1.00  0.00     0.074 A 
ATOM     52  C   UNL A   1      41.645  31.496  36.612  1.00  0.00     0.029 A 
ATOM     53  N   UNL A   1      41.107  30.936  34.527  1.00  0.00    -0.354 N 
ATOM     54  N   UNL A   1      41.285  29.327  32.072  1.00  0.00    -0.248 NA
ATOM     55  C   UNL A   1      42.322  27.659  30.809  1.00  0.00     0.031 C 
ATOM     56  C   UNL A   1      42.492  30.462  36.197  1.00  0.00     0.029 A 
ATOM     57  C   UNL A   1      42.141  30.095  34.907  1.00  0.00     0.049 A 
ATOM     58  H   UNL A   1      40.655  30.916  33.652  1.00  0.00     0.167 HD
ATOM     59  C   UNL A   1      42.296  28.750  32.827  1.00  0.00     0.074 A 
ATOM     60  C   UNL A   1      42.881  27.705  32.010  1.00  0.00     0.031 C 
ATOM     61  C   UNL A   1      42.705  29.055  34.083  1.00  0.00     0.037 A 
BRANCH  48  62
ATOM     62  C   UNL A   1      39.623  33.758  36.666  1.00  0.00     0.064 A 
ATOM     63  C   UNL A   1      38.824  33.407  37.766  1.00  0.00     0.173 A 
ATOM     64  C   UNL A   1      40.261  35.007  36.695  1.00  0.00     0.173 A 
ATOM     65  F   UNL A   1      38.178  32.232  37.784  1.00  0.00    -0.203 F 
ATOM     66  C   UNL A   1      38.634  34.289  38.827  1.00  0.00     0.198 A 
ATOM     67  C   UNL A   1      40.099  35.871  37.775  1.00  0.00     0.198 A 
ATOM     68  F   UNL A   1      41.040  35.392  35.673  1.00  0.00    -0.203 F 
ATOM     69  F   UNL A   1      37.809  33.959  39.830  1.00  0.00    -0.200 F 
ATOM     70  C   UNL A   1      39.276  35.518  38.833  1.00  0.00     0.200 A 
ATOM     71  F   UNL A   1      40.731  37.054  37.785  1.00  0.00    -0.200 F 
ATOM     72  F   UNL A   1      39.092  36.366  39.854  1.00  0.00    -0.200 F 
ENDBRANCH  48  62
BRANCH  49  73
ATOM     73  C   UNL A   1      40.515  28.016  28.533  1.00  0.00     0.064 A 
ATOM     74  C   UNL A   1      41.276  28.435  27.433  1.00  0.00     0.173 A 
ATOM     75  C   UNL A   1      39.895  26.759  28.455  1.00  0.00     0.173 A 
ATOM     76  F   UNL A   1      41.871  29.638  27.451  1.00  0.00    -0.203 F 
ATOM     77  C   UNL A   1      41.398  27.642  26.294  1.00  0.00     0.198 A 
ATOM     78  C   UNL A   1      40.041  25.953  27.327  1.00  0.00     0.198 A 
ATOM     79  F   UNL A   1      39.161  26.307  29.482  1.00  0.00    -0.203 F 
ATOM     80  F   UNL A   1      42.095  28.087  25.241  1.00  0.00    -0.200 F 
ATOM     81  C   UNL A   1      40.786  26.399  26.245  1.00  0.00     0.200 A 
ATOM     82  F   UNL A   1      39.462  24.746  27.289  1.00  0.00    -0.200 F 
ATOM     83  F   UNL A   1      40.909  25.633  25.152  1.00  0.00    -0.200 F 
ENDBRANCH  49  73
BRANCH  61  84
ATOM     84  C   UNL A   1      43.811  28.226  34.670  1.00  0.00     0.064 A 
ATOM     85  C   UNL A   1      45.153  28.629  34.603  1.00  0.00     0.173 A 
ATOM     86  C   UNL A   1      43.517  27.031  35.347  1.00  0.00     0.173 A 
ATOM     87  F   UNL A   1      45.488  29.754  33.954  1.00  0.00    -0.203 F 
ATOM     88  C   UNL A   1      46.162  27.854  35.167  1.00  0.00     0.198 A 
ATOM     89  C   UNL A   1      44.525  26.276  35.939  1.00  0.00     0.198 A 
ATOM     90  F   UNL A   1      42.249  26.604  35.447  1.00  0.00    -0.203 F 
ATOM     91  F   UNL A   1      47.442  28.232  35.047  1.00  0.00    -0.200 F 
ATOM     92  C   UNL A   1      45.847  26.683  35.842  1.00  0.00     0.200 A 
ATOM     93  F   UNL A   1      44.216  25.154  36.604  1.00  0.00    -0.200 F 
ATOM     94  F   UNL A   1      46.818  25.943  36.393  1.00  0.00    -0.200 F 
ENDBRANCH  61  84
ENDBRANCH  35  36
ENDBRANCH  27  30
ENDBRANCH  25  26
ENDBRANCH  24  25
ENDBRANCH  23  24
ENDBRANCH   1  23
TORSDOF 17
ENDMDL
MODEL 2
REMARK VINA RESULT:     -11.7      0.488      2.023
REMARK SMILES CC[C@]1(C(=O)NCCCCNC(=O)c2ccc(-c3c4nc(c(-c5c(F)c(F)c(F)c(F)c5F)c5ccc([nH]5)c(-c5c(F)c(F)c(F)c(F)c5F)c5nc(c(-c6c(F)c(F)c(F)c(F)c6F)c6ccc3[nH]6)C=C5)C=C4)cc2)CCCN(S(=O)(=O)CCOC(C)C)C1
REMARK SMILES IDX 7 1 6 2 4 3 5 4 3 6 77 7 90 8 78 9 80 10 79 11 2 12 1 13
REMARK SMILES IDX 81 14 82 15 83 16 84 17 85 18 86 19 87 20 88 21 89 22 8 23
REMARK SMILES IDX 9 24 10 25 11 26 12 27 13 29 14 30 15 31 76 32 16 33 75 34
REMARK SMILES IDX 17 35 18 36 19 37 69 38 20 39 74 40 68 41 70 42 21 43 73 44
REMARK SMILES IDX 67 45 66 46 22 48 54 49 34 50 53 51 35 52 38 53 52 54 71 55
REMARK SMILES IDX 36 56 37 57 51 59 72 60 39 61 23 62 24 63 32 64 25 65 26 66
REMARK SMILES IDX 30 67 33 68 27 69 28 70 31 71 29 72 55 73 56 74 64 75 57 76
REMARK SMILES IDX 58 77 62 78 65 79 59 80 60 81 63 82 61 83 40 84 41 85 49 86
REMARK SMILES IDX 42 87 43 88 47 89 50 90 44 91 45 92 48 93 46 94
REMARK H PARENT 6 5 11 28 70 47 38 58
REMARK Flexibility Score: inf
ROOT
ATOM      1  C   UNL A   1      33.024  29.727  25.834  1.00  0.00     0.116 C 
ENDROOT
BRANCH   1   2
ATOM      2  N   UNL A   1      32.754  29.469  24.385  1.00  0.00    -0.356 N 
ATOM      3  C   UNL A   1      32.109  28.421  23.685  1.00  0.00     0.227 C 
ATOM      4  O   UNL A   1      31.646  28.633  22.567  1.00  0.00    -0.274 OA
ATOM      5  H   UNL A   1      33.099  30.177  23.793  1.00  0.00     0.163 HD
BRANCH   3   6
ATOM      6  C   UNL A   1      32.089  27.031  24.347  1.00  0.00     0.063 C 
ATOM      7  C   UNL A   1      33.651  26.857  24.439  1.00  0.00     0.019 C 
ATOM      8  C   UNL A   1      31.721  26.492  25.777  1.00  0.00     0.119 C 
ATOM      9  C   UNL A   1      34.198  25.460  24.572  1.00  0.00     0.018 C 
ATOM     10  N   UNL A   1      32.165  25.001  25.767  1.00  0.00    -0.201 NA
ATOM     11  C   UNL A   1      33.632  24.856  25.841  1.00  0.00     0.102 C 
BRANCH   6  12
ATOM     12  C   UNL A   1      30.882  26.441  23.528  1.00  0.00     0.015 C 
ATOM     13  C   UNL A   1      29.486  26.659  24.186  1.00  0.00     0.005 C 
ENDBRANCH   6  12
BRANCH  10  14
ATOM     14  S   UNL A   1      31.229  23.810  26.515  1.00  0.00     0.216 S 
ATOM     15  O   UNL A   1      32.061  23.264  27.576  1.00  0.00    -0.212 OA
ATOM     16  O   UNL A   1      29.946  24.390  26.813  1.00  0.00    -0.212 OA
BRANCH  14  17
ATOM     17  C   UNL A   1      31.032  22.511  25.243  1.00  0.00     0.182 C 
BRANCH  17  18
ATOM     18  C   UNL A   1      32.259  21.626  25.038  1.00  0.00     0.178 C 
BRANCH  18  19
ATOM     19  O   UNL A   1      32.046  20.227  25.299  1.00  0.00    -0.378 OA
BRANCH  19  20
ATOM     20  C   UNL A   1      32.541  19.267  24.361  1.00  0.00     0.112 C 
ATOM     21  C   UNL A   1      32.199  19.567  22.899  1.00  0.00     0.038 C 
ATOM     22  C   UNL A   1      34.013  19.022  24.589  1.00  0.00     0.038 C 
ENDBRANCH  19  20
ENDBRANCH  18  19
ENDBRANCH  17  18
ENDBRANCH  14  17
ENDBRANCH  10  14
ENDBRANCH   3   6
ENDBRANCH   1   2
BRANCH   1  23
ATOM     23  C   UNL A   1      31.967  30.350  26.763  1.00  0.00     0.023 C 
BRANCH  23  24
ATOM     24  C   UNL A   1      31.758  31.851  26.672  1.00  0.00     0.023 C 
BRANCH  24  25
ATOM     25  C   UNL A   1      32.778  32.696  27.406  1.00  0.00     0.116 C 
BRANCH  25  26
ATOM     26  N   UNL A   1      32.363  34.068  27.672  1.00  0.00    -0.352 N 
ATOM     27  C   UNL A   1      32.936  34.964  28.548  1.00  0.00     0.251 C 
ATOM     28  H   UNL A   1      31.581  34.392  27.166  1.00  0.00     0.163 HD
ATOM     29  O   UNL A   1      32.459  36.080  28.715  1.00  0.00    -0.269 OA
BRANCH  27  30
ATOM     30  C   UNL A   1      34.110  34.524  29.330  1.00  0.00     0.039 A 
ATOM     31  C   UNL A   1      33.910  33.899  30.561  1.00  0.00     0.014 A 
ATOM     32  C   UNL A   1      35.390  34.608  28.775  1.00  0.00     0.014 A 
ATOM     33  C   UNL A   1      34.985  33.269  31.191  1.00  0.00     0.010 A 
ATOM     34  C   UNL A   1      36.428  33.885  29.345  1.00  0.00     0.010 A 
ATOM     35  C   UNL A   1      36.238  33.210  30.560  1.00  0.00    -0.014 A 
BRANCH  35  36
ATOM     36  C   UNL A   1      37.371  32.452  31.148  1.00  0.00     0.031 A 
ATOM     37  C   UNL A   1      37.877  32.813  32.517  1.00  0.00     0.074 A 
ATOM     38  C   UNL A   1      37.993  31.499  30.426  1.00  0.00     0.049 A 
ATOM     39  N   UNL A   1      38.898  32.329  33.179  1.00  0.00    -0.248 NA
ATOM     40  C   UNL A   1      37.161  33.888  33.222  1.00  0.00     0.031 C 
ATOM     41  C   UNL A   1      37.634  31.098  29.065  1.00  0.00     0.029 A 
ATOM     42  N   UNL A   1      39.064  30.700  30.736  1.00  0.00    -0.354 N 
ATOM     43  C   UNL A   1      38.951  33.051  34.364  1.00  0.00     0.074 A 
ATOM     44  C   UNL A   1      37.913  34.054  34.298  1.00  0.00     0.031 C 
ATOM     45  C   UNL A   1      38.446  30.103  28.672  1.00  0.00     0.029 A 
ATOM     46  C   UNL A   1      39.407  29.824  29.734  1.00  0.00     0.049 A 
ATOM     47  H   UNL A   1      39.543  30.749  31.595  1.00  0.00     0.167 HD
ATOM     48  C   UNL A   1      39.770  32.871  35.427  1.00  0.00     0.037 A 
ATOM     49  C   UNL A   1      40.387  28.902  29.681  1.00  0.00     0.037 A 
ATOM     50  C   UNL A   1      40.789  31.858  35.496  1.00  0.00     0.049 A 
ATOM     51  C   UNL A   1      41.297  28.732  30.868  1.00  0.00     0.074 A 
ATOM     52  C   UNL A   1      41.635  31.555  36.547  1.00  0.00     0.029 A 
ATOM     53  N   UNL A   1      41.100  30.983  34.465  1.00  0.00    -0.354 N 
ATOM     54  N   UNL A   1      41.292  29.369  32.015  1.00  0.00    -0.248 NA
ATOM     55  C   UNL A   1      42.347  27.710  30.755  1.00  0.00     0.031 C 
ATOM     56  C   UNL A   1      42.493  30.530  36.134  1.00  0.00     0.029 A 
ATOM     57  C   UNL A   1      42.144  30.156  34.846  1.00  0.00     0.049 A 
ATOM     58  H   UNL A   1      40.647  30.955  33.591  1.00  0.00     0.167 HD
ATOM     59  C   UNL A   1      42.312  28.806  32.769  1.00  0.00     0.074 A 
ATOM     60  C   UNL A   1      42.907  27.766  31.955  1.00  0.00     0.031 C 
ATOM     61  C   UNL A   1      42.719  29.120  34.024  1.00  0.00     0.037 A 
BRANCH  48  62
ATOM     62  C   UNL A   1      39.587  33.794  36.598  1.00  0.00     0.064 A 
ATOM     63  C   UNL A   1      40.204  35.055  36.646  1.00  0.00     0.173 A 
ATOM     64  C   UNL A   1      38.785  33.418  37.686  1.00  0.00     0.173 A 
ATOM     65  F   UNL A   1      40.994  35.459  35.640  1.00  0.00    -0.203 F 
ATOM     66  C   UNL A   1      40.063  35.882  37.757  1.00  0.00     0.198 A 
ATOM     67  C   UNL A   1      38.616  34.264  38.780  1.00  0.00     0.198 A 
ATOM     68  F   UNL A   1      38.168  32.227  37.692  1.00  0.00    -0.203 F 
ATOM     69  F   UNL A   1      40.720  37.049  37.809  1.00  0.00    -0.200 F 
ATOM     70  C   UNL A   1      39.264  35.488  38.820  1.00  0.00     0.200 A 
ATOM     71  F   UNL A   1      37.833  33.887  39.801  1.00  0.00    -0.200 F 
ATOM     72  F   UNL A   1      39.129  36.285  39.890  1.00  0.00    -0.200 F 
ENDBRANCH  48  62
BRANCH  49  73
ATOM     73  C   UNL A   1      40.531  28.038  28.480  1.00  0.00     0.064 A 
ATOM     74  C   UNL A   1      39.907  26.785  28.420  1.00  0.00     0.173 A 
ATOM     75  C   UNL A   1      41.288  28.444  27.371  1.00  0.00     0.173 A 
ATOM     76  F   UNL A   1      39.189  26.344  29.465  1.00  0.00    -0.203 F 
ATOM     77  C   UNL A   1      40.048  25.961  27.305  1.00  0.00     0.198 A 
ATOM     78  C   UNL A   1      41.405  27.631  26.244  1.00  0.00     0.198 A 
ATOM     79  F   UNL A   1      41.901  29.636  27.374  1.00  0.00    -0.203 F 
ATOM     80  F   UNL A   1      39.475  24.750  27.293  1.00  0.00    -0.200 F 
ATOM     81  C   UNL A   1      40.790  26.388  26.216  1.00  0.00     0.200 A 
ATOM     82  F   UNL A   1      42.111  28.053  25.186  1.00  0.00    -0.200 F 
ATOM     83  F   UNL A   1      40.920  25.598  25.141  1.00  0.00    -0.200 F 
ENDBRANCH  49  73
BRANCH  61  84
ATOM     84  C   UNL A   1      43.835  28.305  34.612  1.00  0.00     0.064 A 
ATOM     85  C   UNL A   1      43.593  27.105  35.296  1.00  0.00     0.173 A 
ATOM     86  C   UNL A   1      45.169  28.711  34.450  1.00  0.00     0.173 A 
ATOM     87  F   UNL A   1      42.335  26.681  35.492  1.00  0.00    -0.203 F 
ATOM     88  C   UNL A   1      44.643  26.355  35.820  1.00  0.00     0.198 A 
ATOM     89  C   UNL A   1      46.218  27.943  34.946  1.00  0.00     0.198 A 
ATOM     90  F   UNL A   1      45.456  29.848  33.797  1.00  0.00    -0.203 F 
ATOM     91  F   UNL A   1      44.386  25.238  36.513  1.00  0.00    -0.200 F 
ATOM     92  C   UNL A   1      45.954  26.770  35.637  1.00  0.00     0.200 A 
ATOM     93  F   UNL A   1      47.485  28.337  34.753  1.00  0.00    -0.200 F 
ATOM     94  F   UNL A   1      46.964  26.042  36.133  1.00  0.00    -0.200 F 
ENDBRANCH  61  84
ENDBRANCH  35  36
ENDBRANCH  27  30
ENDBRANCH  25  26
ENDBRANCH  24  25
ENDBRANCH  23  24
ENDBRANCH   1  23
TORSDOF 17
ENDMDL
MODEL 3
REMARK VINA RESULT:     -11.6      1.954      3.046
REMARK SMILES CC[C@]1(C(=O)NCCCCNC(=O)c2ccc(-c3c4nc(c(-c5c(F)c(F)c(F)c(F)c5F)c5ccc([nH]5)c(-c5c(F)c(F)c(F)c(F)c5F)c5nc(c(-c6c(F)c(F)c(F)c(F)c6F)c6ccc3[nH]6)C=C5)C=C4)cc2)CCCN(S(=O)(=O)CCOC(C)C)C1
REMARK SMILES IDX 7 1 6 2 4 3 5 4 3 6 77 7 90 8 78 9 80 10 79 11 2 12 1 13
REMARK SMILES IDX 81 14 82 15 83 16 84 17 85 18 86 19 87 20 88 21 89 22 8 23
REMARK SMILES IDX 9 24 10 25 11 26 12 27 13 29 14 30 15 31 76 32 16 33 75 34
REMARK SMILES IDX 17 35 18 36 19 37 69 38 20 39 74 40 68 41 70 42 21 43 73 44
REMARK SMILES IDX 67 45 66 46 22 48 54 49 34 50 53 51 35 52 38 53 52 54 71 55
REMARK SMILES IDX 36 56 37 57 51 59 72 60 39 61 23 62 24 63 32 64 25 65 26 66
REMARK SMILES IDX 30 67 33 68 27 69 28 70 31 71 29 72 55 73 56 74 64 75 57 76
REMARK SMILES IDX 58 77 62 78 65 79 59 80 60 81 63 82 61 83 40 84 41 85 49 86
REMARK SMILES IDX 42 87 43 88 47 89 50 90 44 91 45 92 48 93 46 94
REMARK H PARENT 6 5 11 28 70 47 38 58
REMARK Flexibility Score: inf
ROOT
ATOM      1  C   UNL A   1      30.891  28.077  22.898  1.00  0.00     0.116 C 
ENDROOT
BRANCH   1   2
ATOM      2  N   UNL A   1      31.988  27.528  22.041  1.00  0.00    -0.356 N 
ATOM      3  C   UNL A   1      32.630  26.269  21.967  1.00  0.00     0.227 C 
ATOM      4  O   UNL A   1      33.190  25.933  20.927  1.00  0.00    -0.274 OA
ATOM      5  H   UNL A   1      32.338  28.181  21.392  1.00  0.00     0.163 HD
BRANCH   3   6
ATOM      6  C   UNL A   1      32.654  25.407  23.243  1.00  0.00     0.063 C 
ATOM      7  C   UNL A   1      33.776  26.224  23.987  1.00  0.00     0.019 C 
ATOM      8  C   UNL A   1      31.680  25.208  24.462  1.00  0.00     0.119 C 
ATOM      9  C   UNL A   1      34.535  25.535  25.089  1.00  0.00     0.018 C 
ATOM     10  N   UNL A   1      32.484  24.345  25.476  1.00  0.00    -0.201 NA
ATOM     11  C   UNL A   1      33.539  25.123  26.155  1.00  0.00     0.102 C 
BRANCH   6  12
ATOM     12  C   UNL A   1      32.480  24.010  22.541  1.00  0.00     0.015 C 
ATOM     13  C   UNL A   1      33.699  23.052  22.699  1.00  0.00     0.005 C 
ENDBRANCH   6  12
BRANCH  10  14
ATOM     14  S   UNL A   1      31.731  23.120  26.364  1.00  0.00     0.216 S 
ATOM     15  O   UNL A   1      30.871  23.798  27.320  1.00  0.00    -0.212 OA
ATOM     16  O   UNL A   1      31.186  22.177  25.423  1.00  0.00    -0.212 OA
BRANCH  14  17
ATOM     17  C   UNL A   1      33.089  22.331  27.303  1.00  0.00     0.182 C 
BRANCH  17  18
ATOM     18  C   UNL A   1      34.097  21.567  26.448  1.00  0.00     0.178 C 
BRANCH  18  19
ATOM     19  O   UNL A   1      35.410  22.154  26.392  1.00  0.00    -0.378 OA
BRANCH  19  20
ATOM     20  C   UNL A   1      36.396  21.560  25.543  1.00  0.00     0.112 C 
ATOM     21  C   UNL A   1      35.994  20.209  24.947  1.00  0.00     0.038 C 
ATOM     22  C   UNL A   1      36.861  22.554  24.506  1.00  0.00     0.038 C 
ENDBRANCH  19  20
ENDBRANCH  18  19
ENDBRANCH  17  18
ENDBRANCH  14  17
ENDBRANCH  10  14
ENDBRANCH   3   6
ENDBRANCH   1   2
BRANCH   1  23
ATOM     23  C   UNL A   1      31.165  29.082  24.031  1.00  0.00     0.023 C 
BRANCH  23  24
ATOM     24  C   UNL A   1      32.614  29.327  24.409  1.00  0.00     0.023 C 
BRANCH  24  25
ATOM     25  C   UNL A   1      32.880  29.497  25.891  1.00  0.00     0.116 C 
BRANCH  25  26
ATOM     26  N   UNL A   1      32.546  30.810  26.429  1.00  0.00    -0.352 N 
ATOM     27  C   UNL A   1      33.321  31.606  27.245  1.00  0.00     0.251 C 
ATOM     28  H   UNL A   1      31.662  31.169  26.181  1.00  0.00     0.163 HD
ATOM     29  O   UNL A   1      32.902  32.674  27.671  1.00  0.00    -0.269 OA
BRANCH  27  30
ATOM     30  C   UNL A   1      34.654  31.108  27.644  1.00  0.00     0.039 A 
ATOM     31  C   UNL A   1      35.695  32.021  27.818  1.00  0.00     0.014 A 
ATOM     32  C   UNL A   1      34.826  29.762  27.977  1.00  0.00     0.014 A 
ATOM     33  C   UNL A   1      36.881  31.599  28.422  1.00  0.00     0.010 A 
ATOM     34  C   UNL A   1      35.959  29.374  28.678  1.00  0.00     0.010 A 
ATOM     35  C   UNL A   1      36.999  30.286  28.906  1.00  0.00    -0.014 A 
BRANCH  35  36
ATOM     36  C   UNL A   1      38.201  29.838  29.653  1.00  0.00     0.031 A 
ATOM     37  C   UNL A   1      38.453  30.358  31.041  1.00  0.00     0.074 A 
ATOM     38  C   UNL A   1      39.103  29.033  29.058  1.00  0.00     0.049 A 
ATOM     39  N   UNL A   1      39.475  30.153  31.832  1.00  0.00    -0.248 NA
ATOM     40  C   UNL A   1      37.433  31.259  31.601  1.00  0.00     0.031 C 
ATOM     41  C   UNL A   1      39.003  28.509  27.695  1.00  0.00     0.029 A 
ATOM     42  N   UNL A   1      40.288  28.520  29.524  1.00  0.00    -0.354 N 
ATOM     43  C   UNL A   1      39.227  30.910  32.969  1.00  0.00     0.074 A 
ATOM     44  C   UNL A   1      38.000  31.637  32.736  1.00  0.00     0.031 C 
ATOM     45  C   UNL A   1      40.062  27.719  27.449  1.00  0.00     0.029 A 
ATOM     46  C   UNL A   1      40.934  27.713  28.619  1.00  0.00     0.049 A 
ATOM     47  H   UNL A   1      40.642  28.712  30.423  1.00  0.00     0.167 HD
ATOM     48  C   UNL A   1      39.939  30.966  34.119  1.00  0.00     0.037 A 
ATOM     49  C   UNL A   1      42.100  27.047  28.723  1.00  0.00     0.037 A 
ATOM     50  C   UNL A   1      41.149  30.225  34.354  1.00  0.00     0.049 A 
ATOM     51  C   UNL A   1      42.884  27.139  30.005  1.00  0.00     0.074 A 
ATOM     52  C   UNL A   1      41.917  30.168  35.502  1.00  0.00     0.029 A 
ATOM     53  N   UNL A   1      41.768  29.411  33.417  1.00  0.00    -0.354 N 
ATOM     54  N   UNL A   1      42.603  27.799  31.103  1.00  0.00    -0.248 NA
ATOM     55  C   UNL A   1      44.146  26.390  30.062  1.00  0.00     0.031 C 
ATOM     56  C   UNL A   1      43.030  29.360  35.243  1.00  0.00     0.029 A 
ATOM     57  C   UNL A   1      42.924  28.867  33.952  1.00  0.00     0.049 A 
ATOM     58  H   UNL A   1      41.435  29.245  32.504  1.00  0.00     0.167 HD
ATOM     59  C   UNL A   1      43.632  27.520  31.991  1.00  0.00     0.074 A 
ATOM     60  C   UNL A   1      44.539  26.620  31.307  1.00  0.00     0.031 C 
ATOM     61  C   UNL A   1      43.811  27.966  33.259  1.00  0.00     0.037 A 
BRANCH  48  62
ATOM     62  C   UNL A   1      39.417  31.863  35.206  1.00  0.00     0.064 A 
ATOM     63  C   UNL A   1      38.596  31.372  36.235  1.00  0.00     0.173 A 
ATOM     64  C   UNL A   1      39.739  33.228  35.223  1.00  0.00     0.173 A 
ATOM     65  F   UNL A   1      38.244  30.078  36.259  1.00  0.00    -0.203 F 
ATOM     66  C   UNL A   1      38.082  32.221  37.211  1.00  0.00     0.198 A 
ATOM     67  C   UNL A   1      39.253  34.067  36.222  1.00  0.00     0.198 A 
ATOM     68  F   UNL A   1      40.523  33.750  34.268  1.00  0.00    -0.203 F 
ATOM     69  F   UNL A   1      37.243  31.742  38.140  1.00  0.00    -0.200 F 
ATOM     70  C   UNL A   1      38.415  33.567  37.207  1.00  0.00     0.200 A 
ATOM     71  F   UNL A   1      39.587  35.366  36.224  1.00  0.00    -0.200 F 
ATOM     72  F   UNL A   1      37.919  34.385  38.146  1.00  0.00    -0.200 F 
ENDBRANCH  48  62
BRANCH  49  73
ATOM     73  C   UNL A   1      42.574  26.198  27.599  1.00  0.00     0.064 A 
ATOM     74  C   UNL A   1      42.081  24.897  27.426  1.00  0.00     0.173 A 
ATOM     75  C   UNL A   1      43.522  26.664  26.675  1.00  0.00     0.173 A 
ATOM     76  F   UNL A   1      41.188  24.399  28.295  1.00  0.00    -0.203 F 
ATOM     77  C   UNL A   1      42.529  24.088  26.384  1.00  0.00     0.198 A 
ATOM     78  C   UNL A   1      43.948  25.864  25.617  1.00  0.00     0.198 A 
ATOM     79  F   UNL A   1      44.021  27.903  26.792  1.00  0.00    -0.203 F 
ATOM     80  F   UNL A   1      42.072  22.834  26.269  1.00  0.00    -0.200 F 
ATOM     81  C   UNL A   1      43.457  24.574  25.477  1.00  0.00     0.200 A 
ATOM     82  F   UNL A   1      44.834  26.342  24.733  1.00  0.00    -0.200 F 
ATOM     83  F   UNL A   1      43.883  23.798  24.471  1.00  0.00    -0.200 F 
ENDBRANCH  49  73
BRANCH  61  84
ATOM     84  C   UNL A   1      45.011  27.459  34.006  1.00  0.00     0.064 A 
ATOM     85  C   UNL A   1      46.232  28.151  34.000  1.00  0.00     0.173 A 
ATOM     86  C   UNL A   1      44.924  26.286  34.772  1.00  0.00     0.173 A 
ATOM     87  F   UNL A   1      46.371  29.268  33.271  1.00  0.00    -0.203 F 
ATOM     88  C   UNL A   1      47.328  27.672  34.713  1.00  0.00     0.198 A 
ATOM     89  C   UNL A   1      46.012  25.829  35.510  1.00  0.00     0.198 A 
ATOM     90  F   UNL A   1      43.777  25.591  34.818  1.00  0.00    -0.203 F 
ATOM     91  F   UNL A   1      48.499  28.322  34.653  1.00  0.00    -0.200 F 
ATOM     92  C   UNL A   1      47.216  26.518  35.473  1.00  0.00     0.200 A 
ATOM     93  F   UNL A   1      45.896  24.723  36.258  1.00  0.00    -0.200 F 
ATOM     94  F   UNL A   1      48.268  26.065  36.166  1.00  0.00    -0.200 F 
ENDBRANCH  61  84
ENDBRANCH  35  36
ENDBRANCH  27  30
ENDBRANCH  25  26
ENDBRANCH  24  25
ENDBRANCH  23  24
ENDBRANCH   1  23
TORSDOF 17
ENDMDL
