MODEL 1
REMARK VINA RESULT:     -13.2      0.000      0.000
REMARK SMILES CC1=C(C)C[C@@H](C(=O)NCc2cccnc2)[C@H](C(=O)NCCCCNC(=O)c2ccc(-c3c4nc(c(-c5c(F)c(F)c(F)c(F)c5F)c5ccc([nH]5)c(-c5c(F)c(F)c(F)c(F)c5F)c5nc(c(-c6c(F)c(F)c(F)c(F)c6F)c6ccc3[nH]6)C=C5)C=C4)cc2)C1
REMARK SMILES IDX 22 1 21 2 20 3 18 4 19 5 17 7 1 8 2 9 3 10 91 11 4 12 5 13
REMARK SMILES IDX 6 14 7 15 8 16 9 17 10 19 11 20 12 21 16 22 13 23 15 24
REMARK SMILES IDX 14 25 23 26 24 27 25 28 26 29 27 31 28 32 29 33 90 34 30 35
REMARK SMILES IDX 89 36 31 37 32 38 33 39 83 40 34 41 88 42 82 43 84 44 35 45
REMARK SMILES IDX 87 46 81 47 80 48 36 50 68 51 48 52 67 53 49 54 52 55 66 56
REMARK SMILES IDX 85 57 50 58 51 59 65 61 86 62 53 63 37 64 38 65 46 66 39 67
REMARK SMILES IDX 40 68 44 69 47 70 41 71 42 72 45 73 43 74 69 75 70 76 78 77
REMARK SMILES IDX 71 78 72 79 76 80 79 81 73 82 74 83 77 84 75 85 54 86 55 87
REMARK SMILES IDX 63 88 56 89 57 90 61 91 64 92 58 93 59 94 62 95 60 96
REMARK H PARENT 20 6 9 18 25 30 84 49 52 60
REMARK Flexibility Score: inf
ROOT
ATOM      1  C   UNL A   1      32.085  30.086  26.979  1.00  0.00     0.023 C 
ENDROOT
BRANCH   1   2
ATOM      2  C   UNL A   1      33.514  29.578  26.830  1.00  0.00     0.116 C 
BRANCH   2   3
ATOM      3  N   UNL A   1      33.912  29.422  25.450  1.00  0.00    -0.356 N 
ATOM      4  C   UNL A   1      33.761  28.368  24.601  1.00  0.00     0.224 C 
ATOM      5  O   UNL A   1      34.115  28.540  23.432  1.00  0.00    -0.275 OA
ATOM      6  H   UNL A   1      34.365  30.203  25.061  1.00  0.00     0.163 HD
BRANCH   4   7
ATOM      7  C   UNL A   1      33.200  27.009  25.044  1.00  0.00     0.095 C 
ATOM      8  C   UNL A   1      35.818  24.141  25.608  1.00  0.00     0.039 C 
ATOM      9  C   UNL A   1      34.637  24.825  24.961  1.00  0.00    -0.074 C 
ATOM     10  C   UNL A   1      33.993  24.392  23.855  1.00  0.00    -0.074 C 
ATOM     11  C   UNL A   1      34.271  26.113  25.672  1.00  0.00     0.045 C 
ATOM     12  C   UNL A   1      34.355  23.161  23.059  1.00  0.00     0.039 C 
ATOM     13  C   UNL A   1      32.819  25.134  23.250  1.00  0.00     0.045 C 
ATOM     14  C   UNL A   1      32.313  26.392  23.958  1.00  0.00     0.095 C 
BRANCH  14  15
ATOM     15  C   UNL A   1      30.865  26.255  24.429  1.00  0.00     0.224 C 
ATOM     16  O   UNL A   1      30.599  25.527  25.391  1.00  0.00    -0.275 OA
ATOM     17  N   UNL A   1      29.820  26.884  23.837  1.00  0.00    -0.352 N 
ATOM     18  H   UNL A   1      28.946  26.654  24.226  1.00  0.00     0.163 HD
BRANCH  17  19
ATOM     19  C   UNL A   1      29.746  27.830  22.745  1.00  0.00     0.153 C 
BRANCH  19  20
ATOM     20  C   UNL A   1      29.105  29.142  23.094  1.00  0.00    -0.010 A 
ATOM     21  C   UNL A   1      29.781  30.221  23.673  1.00  0.00     0.009 A 
ATOM     22  C   UNL A   1      27.756  29.331  22.795  1.00  0.00     0.116 A 
ATOM     23  C   UNL A   1      29.101  31.409  23.927  1.00  0.00     0.020 A 
ATOM     24  N   UNL A   1      27.069  30.472  23.033  1.00  0.00    -0.264 NA
ATOM     25  C   UNL A   1      27.760  31.487  23.592  1.00  0.00     0.111 A 
ENDBRANCH  19  20
ENDBRANCH  17  19
ENDBRANCH  14  15
ENDBRANCH   4   7
ENDBRANCH   2   3
ENDBRANCH   1   2
BRANCH   1  26
ATOM     26  C   UNL A   1      31.918  31.580  26.718  1.00  0.00     0.023 C 
BRANCH  26  27
ATOM     27  C   UNL A   1      32.934  32.477  27.415  1.00  0.00     0.116 C 
BRANCH  27  28
ATOM     28  N   UNL A   1      32.479  33.847  27.620  1.00  0.00    -0.352 N 
ATOM     29  C   UNL A   1      32.988  34.781  28.493  1.00  0.00     0.251 C 
ATOM     30  H   UNL A   1      31.717  34.139  27.068  1.00  0.00     0.163 HD
ATOM     31  O   UNL A   1      32.468  35.882  28.623  1.00  0.00    -0.269 OA
BRANCH  29  32
ATOM     32  C   UNL A   1      34.158  34.405  29.311  1.00  0.00     0.039 A 
ATOM     33  C   UNL A   1      33.951  33.816  30.559  1.00  0.00     0.014 A 
ATOM     34  C   UNL A   1      35.446  34.537  28.786  1.00  0.00     0.014 A 
ATOM     35  C   UNL A   1      35.037  33.281  31.250  1.00  0.00     0.010 A 
ATOM     36  C   UNL A   1      36.512  33.936  29.439  1.00  0.00     0.010 A 
ATOM     37  C   UNL A   1      36.318  33.296  30.673  1.00  0.00    -0.014 A 
BRANCH  37  38
ATOM     38  C   UNL A   1      37.474  32.650  31.340  1.00  0.00     0.031 A 
ATOM     39  C   UNL A   1      38.196  31.525  30.658  1.00  0.00     0.074 A 
ATOM     40  C   UNL A   1      37.817  33.018  32.590  1.00  0.00     0.049 A 
ATOM     41  N   UNL A   1      39.169  30.773  31.102  1.00  0.00    -0.248 NA
ATOM     42  C   UNL A   1      37.737  31.176  29.304  1.00  0.00     0.031 C 
ATOM     43  C   UNL A   1      37.158  34.060  33.377  1.00  0.00     0.029 A 
ATOM     44  N   UNL A   1      38.803  32.547  33.420  1.00  0.00    -0.354 N 
ATOM     45  C   UNL A   1      39.423  29.854  30.095  1.00  0.00     0.074 A 
ATOM     46  C   UNL A   1      38.463  30.101  29.042  1.00  0.00     0.031 C 
ATOM     47  C   UNL A   1      37.779  34.173  34.563  1.00  0.00     0.029 A 
ATOM     48  C   UNL A   1      38.854  33.188  34.633  1.00  0.00     0.049 A 
ATOM     49  H   UNL A   1      39.416  31.818  33.168  1.00  0.00     0.167 HD
ATOM     50  C   UNL A   1      40.387  28.904  30.041  1.00  0.00     0.037 A 
ATOM     51  C   UNL A   1      39.678  33.000  35.680  1.00  0.00     0.037 A 
ATOM     52  C   UNL A   1      41.359  28.681  31.077  1.00  0.00     0.049 A 
ATOM     53  C   UNL A   1      40.742  31.940  35.597  1.00  0.00     0.074 A 
ATOM     54  C   UNL A   1      42.417  27.790  31.092  1.00  0.00     0.029 A 
ATOM     55  N   UNL A   1      41.389  29.360  32.287  1.00  0.00    -0.354 N 
ATOM     56  N   UNL A   1      41.017  31.119  34.613  1.00  0.00    -0.248 NA
ATOM     57  C   UNL A   1      41.611  31.784  36.772  1.00  0.00     0.031 C 
ATOM     58  C   UNL A   1      43.066  27.905  32.327  1.00  0.00     0.029 A 
ATOM     59  C   UNL A   1      42.437  28.896  33.064  1.00  0.00     0.049 A 
ATOM     60  H   UNL A   1      40.758  30.067  32.553  1.00  0.00     0.167 HD
ATOM     61  C   UNL A   1      42.105  30.369  35.035  1.00  0.00     0.074 A 
ATOM     62  C   UNL A   1      42.446  30.839  36.363  1.00  0.00     0.031 C 
ATOM     63  C   UNL A   1      42.765  29.382  34.381  1.00  0.00     0.037 A 
BRANCH  50  64
ATOM     64  C   UNL A   1      40.429  28.043  28.812  1.00  0.00     0.064 A 
ATOM     65  C   UNL A   1      39.733  26.826  28.744  1.00  0.00     0.173 A 
ATOM     66  C   UNL A   1      41.178  28.434  27.693  1.00  0.00     0.173 A 
ATOM     67  F   UNL A   1      39.015  26.399  29.794  1.00  0.00    -0.203 F 
ATOM     68  C   UNL A   1      39.823  26.011  27.619  1.00  0.00     0.198 A 
ATOM     69  C   UNL A   1      41.239  27.631  26.556  1.00  0.00     0.198 A 
ATOM     70  F   UNL A   1      41.858  29.590  27.703  1.00  0.00    -0.203 F 
ATOM     71  F   UNL A   1      39.206  24.822  27.605  1.00  0.00    -0.200 F 
ATOM     72  C   UNL A   1      40.572  26.416  26.525  1.00  0.00     0.200 A 
ATOM     73  F   UNL A   1      41.956  28.028  25.496  1.00  0.00    -0.200 F 
ATOM     74  F   UNL A   1      40.664  25.628  25.445  1.00  0.00    -0.200 F 
ENDBRANCH  50  64
BRANCH  51  75
ATOM     75  C   UNL A   1      39.563  33.874  36.875  1.00  0.00     0.064 A 
ATOM     76  C   UNL A   1      40.215  35.115  36.915  1.00  0.00     0.173 A 
ATOM     77  C   UNL A   1      38.793  33.504  37.987  1.00  0.00     0.173 A 
ATOM     78  F   UNL A   1      40.978  35.502  35.881  1.00  0.00    -0.203 F 
ATOM     79  C   UNL A   1      40.109  35.948  38.025  1.00  0.00     0.198 A 
ATOM     80  C   UNL A   1      38.671  34.349  39.088  1.00  0.00     0.198 A 
ATOM     81  F   UNL A   1      38.147  32.329  37.994  1.00  0.00    -0.203 F 
ATOM     82  F   UNL A   1      40.768  37.115  38.049  1.00  0.00    -0.200 F 
ATOM     83  C   UNL A   1      39.332  35.568  39.109  1.00  0.00     0.200 A 
ATOM     84  F   UNL A   1      37.909  33.983  40.129  1.00  0.00    -0.200 F 
ATOM     85  F   UNL A   1      39.224  36.374  40.173  1.00  0.00    -0.200 F 
ENDBRANCH  51  75
BRANCH  63  86
ATOM     86  C   UNL A   1      43.944  28.768  35.075  1.00  0.00     0.064 A 
ATOM     87  C   UNL A   1      45.233  29.306  34.952  1.00  0.00     0.173 A 
ATOM     88  C   UNL A   1      43.772  27.653  35.909  1.00  0.00     0.173 A 
ATOM     89  F   UNL A   1      45.449  30.361  34.153  1.00  0.00    -0.203 F 
ATOM     90  C   UNL A   1      46.312  28.738  35.624  1.00  0.00     0.198 A 
ATOM     91  C   UNL A   1      44.847  27.104  36.601  1.00  0.00     0.198 A 
ATOM     92  F   UNL A   1      42.557  27.105  36.063  1.00  0.00    -0.203 F 
ATOM     93  F   UNL A   1      47.542  29.243  35.461  1.00  0.00    -0.200 F 
ATOM     94  C   UNL A   1      46.117  27.642  36.453  1.00  0.00     0.200 A 
ATOM     95  F   UNL A   1      44.656  26.053  37.409  1.00  0.00    -0.200 F 
ATOM     96  F   UNL A   1      47.155  27.102  37.106  1.00  0.00    -0.200 F 
ENDBRANCH  63  86
ENDBRANCH  37  38
ENDBRANCH  29  32
ENDBRANCH  27  28
ENDBRANCH  26  27
ENDBRANCH   1  26
TORSDOF 14
ENDMDL
MODEL 2
REMARK VINA RESULT:     -13.2      5.671     10.042
REMARK SMILES CC1=C(C)C[C@@H](C(=O)NCc2cccnc2)[C@H](C(=O)NCCCCNC(=O)c2ccc(-c3c4nc(c(-c5c(F)c(F)c(F)c(F)c5F)c5ccc([nH]5)c(-c5c(F)c(F)c(F)c(F)c5F)c5nc(c(-c6c(F)c(F)c(F)c(F)c6F)c6ccc3[nH]6)C=C5)C=C4)cc2)C1
REMARK SMILES IDX 22 1 21 2 20 3 18 4 19 5 17 7 1 8 2 9 3 10 91 11 4 12 5 13
REMARK SMILES IDX 6 14 7 15 8 16 9 17 10 19 11 20 12 21 16 22 13 23 15 24
REMARK SMILES IDX 14 25 23 26 24 27 25 28 26 29 27 31 28 32 29 33 90 34 30 35
REMARK SMILES IDX 89 36 31 37 32 38 33 39 83 40 34 41 88 42 82 43 84 44 35 45
REMARK SMILES IDX 87 46 81 47 80 48 36 50 68 51 48 52 67 53 49 54 52 55 66 56
REMARK SMILES IDX 85 57 50 58 51 59 65 61 86 62 53 63 37 64 38 65 46 66 39 67
REMARK SMILES IDX 40 68 44 69 47 70 41 71 42 72 45 73 43 74 69 75 70 76 78 77
REMARK SMILES IDX 71 78 72 79 76 80 79 81 73 82 74 83 77 84 75 85 54 86 55 87
REMARK SMILES IDX 63 88 56 89 57 90 61 91 64 92 58 93 59 94 62 95 60 96
REMARK H PARENT 20 6 9 18 25 30 84 49 52 60
REMARK Flexibility Score: inf
ROOT
ATOM      1  C   UNL A   1      37.127  21.483  24.460  1.00  0.00     0.023 C 
ENDROOT
BRANCH   1   2
ATOM      2  C   UNL A   1      37.156  22.675  25.410  1.00  0.00     0.116 C 
BRANCH   2   3
ATOM      3  N   UNL A   1      36.199  22.557  26.486  1.00  0.00    -0.356 N 
ATOM      4  C   UNL A   1      34.900  22.955  26.561  1.00  0.00     0.224 C 
ATOM      5  O   UNL A   1      34.278  22.640  27.579  1.00  0.00    -0.275 OA
ATOM      6  H   UNL A   1      36.543  22.118  27.296  1.00  0.00     0.163 HD
BRANCH   4   7
ATOM      7  C   UNL A   1      34.209  23.772  25.459  1.00  0.00     0.095 C 
ATOM      8  C   UNL A   1      34.003  27.648  26.033  1.00  0.00     0.039 C 
ATOM      9  C   UNL A   1      33.464  26.251  25.836  1.00  0.00    -0.074 C 
ATOM     10  C   UNL A   1      32.169  25.888  25.961  1.00  0.00    -0.074 C 
ATOM     11  C   UNL A   1      34.568  25.259  25.525  1.00  0.00     0.045 C 
ATOM     12  C   UNL A   1      31.036  26.812  26.341  1.00  0.00     0.039 C 
ATOM     13  C   UNL A   1      31.697  24.463  25.760  1.00  0.00     0.045 C 
ATOM     14  C   UNL A   1      32.725  23.410  25.344  1.00  0.00     0.095 C 
BRANCH  14  15
ATOM     15  C   UNL A   1      32.404  22.786  23.985  1.00  0.00     0.224 C 
ATOM     16  O   UNL A   1      32.322  23.505  22.985  1.00  0.00    -0.275 OA
ATOM     17  N   UNL A   1      32.185  21.461  23.801  1.00  0.00    -0.352 N 
ATOM     18  H   UNL A   1      31.940  21.224  22.877  1.00  0.00     0.163 HD
BRANCH  17  19
ATOM     19  C   UNL A   1      32.241  20.331  24.701  1.00  0.00     0.153 C 
BRANCH  19  20
ATOM     20  C   UNL A   1      32.968  19.133  24.160  1.00  0.00    -0.010 A 
ATOM     21  C   UNL A   1      34.150  18.617  24.701  1.00  0.00     0.009 A 
ATOM     22  C   UNL A   1      32.426  18.455  23.070  1.00  0.00     0.116 A 
ATOM     23  C   UNL A   1      34.728  17.479  24.144  1.00  0.00     0.020 A 
ATOM     24  N   UNL A   1      32.966  17.350  22.506  1.00  0.00    -0.264 NA
ATOM     25  C   UNL A   1      34.106  16.886  23.060  1.00  0.00     0.111 A 
ENDBRANCH  19  20
ENDBRANCH  17  19
ENDBRANCH  14  15
ENDBRANCH   4   7
ENDBRANCH   2   3
ENDBRANCH   1   2
BRANCH   1  26
ATOM     26  C   UNL A   1      37.834  20.240  24.991  1.00  0.00     0.023 C 
BRANCH  26  27
ATOM     27  C   UNL A   1      39.105  20.508  25.789  1.00  0.00     0.116 C 
BRANCH  27  28
ATOM     28  N   UNL A   1      40.023  19.376  25.849  1.00  0.00    -0.352 N 
ATOM     29  C   UNL A   1      41.376  19.403  26.093  1.00  0.00     0.251 C 
ATOM     30  H   UNL A   1      39.626  18.487  25.697  1.00  0.00     0.163 HD
ATOM     31  O   UNL A   1      42.053  18.382  26.045  1.00  0.00    -0.269 OA
BRANCH  29  32
ATOM     32  C   UNL A   1      42.009  20.707  26.369  1.00  0.00     0.039 A 
ATOM     33  C   UNL A   1      42.298  21.559  25.303  1.00  0.00     0.014 A 
ATOM     34  C   UNL A   1      42.207  21.118  27.689  1.00  0.00     0.014 A 
ATOM     35  C   UNL A   1      42.712  22.865  25.565  1.00  0.00     0.010 A 
ATOM     36  C   UNL A   1      42.543  22.440  27.948  1.00  0.00     0.010 A 
ATOM     37  C   UNL A   1      42.792  23.327  26.889  1.00  0.00    -0.014 A 
BRANCH  37  38
ATOM     38  C   UNL A   1      43.135  24.737  27.196  1.00  0.00     0.031 A 
ATOM     39  C   UNL A   1      44.529  25.236  26.953  1.00  0.00     0.074 A 
ATOM     40  C   UNL A   1      42.217  25.538  27.771  1.00  0.00     0.049 A 
ATOM     41  N   UNL A   1      45.054  26.400  27.233  1.00  0.00    -0.248 NA
ATOM     42  C   UNL A   1      45.469  24.283  26.344  1.00  0.00     0.031 C 
ATOM     43  C   UNL A   1      40.846  25.154  28.106  1.00  0.00     0.029 A 
ATOM     44  N   UNL A   1      42.307  26.844  28.184  1.00  0.00    -0.354 N 
ATOM     45  C   UNL A   1      46.386  26.312  26.854  1.00  0.00     0.074 A 
ATOM     46  C   UNL A   1      46.605  24.963  26.381  1.00  0.00     0.031 C 
ATOM     47  C   UNL A   1      40.212  26.210  28.642  1.00  0.00     0.029 A 
ATOM     48  C   UNL A   1      41.142  27.332  28.722  1.00  0.00     0.049 A 
ATOM     49  H   UNL A   1      43.129  27.380  28.102  1.00  0.00     0.167 HD
ATOM     50  C   UNL A   1      47.336  27.277  26.874  1.00  0.00     0.037 A 
ATOM     51  C   UNL A   1      40.858  28.550  29.220  1.00  0.00     0.037 A 
ATOM     52  C   UNL A   1      47.107  28.626  27.316  1.00  0.00     0.049 A 
ATOM     53  C   UNL A   1      41.929  29.606  29.232  1.00  0.00     0.074 A 
ATOM     54  C   UNL A   1      47.982  29.696  27.316  1.00  0.00     0.029 A 
ATOM     55  N   UNL A   1      45.908  29.089  27.841  1.00  0.00    -0.354 N 
ATOM     56  N   UNL A   1      43.168  29.533  28.810  1.00  0.00    -0.248 NA
ATOM     57  C   UNL A   1      41.559  30.915  29.787  1.00  0.00     0.031 C 
ATOM     58  C   UNL A   1      47.325  30.799  27.874  1.00  0.00     0.029 A 
ATOM     59  C   UNL A   1      46.027  30.425  28.185  1.00  0.00     0.049 A 
ATOM     60  H   UNL A   1      45.095  28.546  27.954  1.00  0.00     0.167 HD
ATOM     61  C   UNL A   1      43.717  30.790  29.021  1.00  0.00     0.074 A 
ATOM     62  C   UNL A   1      42.674  31.610  29.602  1.00  0.00     0.031 C 
ATOM     63  C   UNL A   1      44.973  31.226  28.755  1.00  0.00     0.037 A 
BRANCH  50  64
ATOM     64  C   UNL A   1      48.707  26.895  26.396  1.00  0.00     0.064 A 
ATOM     65  C   UNL A   1      49.084  27.042  25.052  1.00  0.00     0.173 A 
ATOM     66  C   UNL A   1      49.651  26.366  27.288  1.00  0.00     0.173 A 
ATOM     67  F   UNL A   1      48.211  27.528  24.156  1.00  0.00    -0.203 F 
ATOM     68  C   UNL A   1      50.339  26.634  24.611  1.00  0.00     0.198 A 
ATOM     69  C   UNL A   1      50.918  25.989  26.849  1.00  0.00     0.198 A 
ATOM     70  F   UNL A   1      49.344  26.208  28.584  1.00  0.00    -0.203 F 
ATOM     71  F   UNL A   1      50.651  26.721  23.311  1.00  0.00    -0.200 F 
ATOM     72  C   UNL A   1      51.256  26.112  25.510  1.00  0.00     0.200 A 
ATOM     73  F   UNL A   1      51.806  25.493  27.721  1.00  0.00    -0.200 F 
ATOM     74  F   UNL A   1      52.463  25.712  25.083  1.00  0.00    -0.200 F 
ENDBRANCH  50  64
BRANCH  51  75
ATOM     75  C   UNL A   1      39.486  28.850  29.699  1.00  0.00     0.064 A 
ATOM     76  C   UNL A   1      39.127  28.603  31.032  1.00  0.00     0.173 A 
ATOM     77  C   UNL A   1      38.513  29.401  28.852  1.00  0.00     0.173 A 
ATOM     78  F   UNL A   1      40.019  28.060  31.874  1.00  0.00    -0.203 F 
ATOM     79  C   UNL A   1      37.846  28.887  31.497  1.00  0.00     0.198 A 
ATOM     80  C   UNL A   1      37.238  29.704  29.324  1.00  0.00     0.198 A 
ATOM     81  F   UNL A   1      38.810  29.659  27.570  1.00  0.00    -0.203 F 
ATOM     82  F   UNL A   1      37.520  28.612  32.768  1.00  0.00    -0.200 F 
ATOM     83  C   UNL A   1      36.904  29.443  30.645  1.00  0.00     0.200 A 
ATOM     84  F   UNL A   1      36.334  30.253  28.501  1.00  0.00    -0.200 F 
ATOM     85  F   UNL A   1      35.673  29.723  31.095  1.00  0.00    -0.200 F 
ENDBRANCH  51  75
BRANCH  63  86
ATOM     86  C   UNL A   1      45.278  32.664  29.056  1.00  0.00     0.064 A 
ATOM     87  C   UNL A   1      45.010  33.682  28.130  1.00  0.00     0.173 A 
ATOM     88  C   UNL A   1      45.803  33.029  30.304  1.00  0.00     0.173 A 
ATOM     89  F   UNL A   1      44.523  33.379  26.917  1.00  0.00    -0.203 F 
ATOM     90  C   UNL A   1      45.275  35.014  28.436  1.00  0.00     0.198 A 
ATOM     91  C   UNL A   1      46.042  34.364  30.618  1.00  0.00     0.198 A 
ATOM     92  F   UNL A   1      46.072  32.092  31.225  1.00  0.00    -0.203 F 
ATOM     93  F   UNL A   1      45.050  35.967  27.523  1.00  0.00    -0.200 F 
ATOM     94  C   UNL A   1      45.784  35.354  29.682  1.00  0.00     0.200 A 
ATOM     95  F   UNL A   1      46.524  34.692  31.824  1.00  0.00    -0.200 F 
ATOM     96  F   UNL A   1      46.031  36.637  29.978  1.00  0.00    -0.200 F 
ENDBRANCH  63  86
ENDBRANCH  37  38
ENDBRANCH  29  32
ENDBRANCH  27  28
ENDBRANCH  26  27
ENDBRANCH   1  26
TORSDOF 14
ENDMDL
MODEL 3
REMARK VINA RESULT:     -13.2      2.734      4.755
REMARK SMILES CC1=C(C)C[C@@H](C(=O)NCc2cccnc2)[C@H](C(=O)NCCCCNC(=O)c2ccc(-c3c4nc(c(-c5c(F)c(F)c(F)c(F)c5F)c5ccc([nH]5)c(-c5c(F)c(F)c(F)c(F)c5F)c5nc(c(-c6c(F)c(F)c(F)c(F)c6F)c6ccc3[nH]6)C=C5)C=C4)cc2)C1
REMARK SMILES IDX 22 1 21 2 20 3 18 4 19 5 17 7 1 8 2 9 3 10 91 11 4 12 5 13
REMARK SMILES IDX 6 14 7 15 8 16 9 17 10 19 11 20 12 21 16 22 13 23 15 24
REMARK SMILES IDX 14 25 23 26 24 27 25 28 26 29 27 31 28 32 29 33 90 34 30 35
REMARK SMILES IDX 89 36 31 37 32 38 33 39 83 40 34 41 88 42 82 43 84 44 35 45
REMARK SMILES IDX 87 46 81 47 80 48 36 50 68 51 48 52 67 53 49 54 52 55 66 56
REMARK SMILES IDX 85 57 50 58 51 59 65 61 86 62 53 63 37 64 38 65 46 66 39 67
REMARK SMILES IDX 40 68 44 69 47 70 41 71 42 72 45 73 43 74 69 75 70 76 78 77
REMARK SMILES IDX 71 78 72 79 76 80 79 81 73 82 74 83 77 84 75 85 54 86 55 87
REMARK SMILES IDX 63 88 56 89 57 90 61 91 64 92 58 93 59 94 62 95 60 96
REMARK H PARENT 20 6 9 18 25 30 84 49 52 60
REMARK Flexibility Score: inf
ROOT
ATOM      1  C   UNL A   1      33.076  26.735  25.796  1.00  0.00     0.023 C 
ENDROOT
BRANCH   1   2
ATOM      2  C   UNL A   1      32.466  25.559  25.042  1.00  0.00     0.116 C 
BRANCH   2   3
ATOM      3  N   UNL A   1      33.333  25.048  24.005  1.00  0.00    -0.356 N 
ATOM      4  C   UNL A   1      34.350  24.146  24.069  1.00  0.00     0.224 C 
ATOM      5  O   UNL A   1      34.870  23.816  22.999  1.00  0.00    -0.275 OA
ATOM      6  H   UNL A   1      33.161  25.412  23.108  1.00  0.00     0.163 HD
BRANCH   4   7
ATOM      7  C   UNL A   1      34.866  23.557  25.390  1.00  0.00     0.095 C 
ATOM      8  C   UNL A   1      38.584  24.386  26.333  1.00  0.00     0.039 C 
ATOM      9  C   UNL A   1      37.415  23.499  25.976  1.00  0.00    -0.074 C 
ATOM     10  C   UNL A   1      37.490  22.178  25.707  1.00  0.00    -0.074 C 
ATOM     11  C   UNL A   1      36.116  24.279  25.899  1.00  0.00     0.045 C 
ATOM     12  C   UNL A   1      38.761  21.361  25.693  1.00  0.00     0.039 C 
ATOM     13  C   UNL A   1      36.278  21.347  25.343  1.00  0.00     0.045 C 
ATOM     14  C   UNL A   1      34.907  22.026  25.339  1.00  0.00     0.095 C 
BRANCH  14  15
ATOM     15  C   UNL A   1      33.945  21.406  26.354  1.00  0.00     0.224 C 
ATOM     16  O   UNL A   1      34.130  21.585  27.562  1.00  0.00    -0.275 OA
ATOM     17  N   UNL A   1      32.881  20.642  26.009  1.00  0.00    -0.352 N 
ATOM     18  H   UNL A   1      32.389  20.275  26.779  1.00  0.00     0.163 HD
BRANCH  17  19
ATOM     19  C   UNL A   1      32.330  20.262  24.726  1.00  0.00     0.153 C 
BRANCH  19  20
ATOM     20  C   UNL A   1      32.960  19.047  24.108  1.00  0.00    -0.010 A 
ATOM     21  C   UNL A   1      34.073  18.383  24.632  1.00  0.00     0.009 A 
ATOM     22  C   UNL A   1      32.390  18.508  22.955  1.00  0.00     0.116 A 
ATOM     23  C   UNL A   1      34.561  17.242  23.999  1.00  0.00     0.020 A 
ATOM     24  N   UNL A   1      32.844  17.405  22.317  1.00  0.00    -0.264 NA
ATOM     25  C   UNL A   1      33.919  16.795  22.858  1.00  0.00     0.111 A 
ENDBRANCH  19  20
ENDBRANCH  17  19
ENDBRANCH  14  15
ENDBRANCH   4   7
ENDBRANCH   2   3
ENDBRANCH   1   2
BRANCH   1  26
ATOM     26  C   UNL A   1      32.351  28.061  25.584  1.00  0.00     0.023 C 
BRANCH  26  27
ATOM     27  C   UNL A   1      33.254  29.285  25.482  1.00  0.00     0.116 C 
BRANCH  27  28
ATOM     28  N   UNL A   1      32.687  30.496  26.064  1.00  0.00    -0.352 N 
ATOM     29  C   UNL A   1      33.229  31.289  27.048  1.00  0.00     0.251 C 
ATOM     30  H   UNL A   1      31.813  30.779  25.710  1.00  0.00     0.163 HD
ATOM     31  O   UNL A   1      32.616  32.247  27.505  1.00  0.00    -0.269 OA
BRANCH  29  32
ATOM     32  C   UNL A   1      34.558  30.929  27.581  1.00  0.00     0.039 A 
ATOM     33  C   UNL A   1      35.516  31.931  27.743  1.00  0.00     0.014 A 
ATOM     34  C   UNL A   1      34.803  29.625  28.018  1.00  0.00     0.014 A 
ATOM     35  C   UNL A   1      36.698  31.640  28.424  1.00  0.00     0.010 A 
ATOM     36  C   UNL A   1      35.943  29.359  28.762  1.00  0.00     0.010 A 
ATOM     37  C   UNL A   1      36.899  30.366  28.978  1.00  0.00    -0.014 A 
BRANCH  37  38
ATOM     38  C   UNL A   1      38.101  30.055  29.790  1.00  0.00     0.031 A 
ATOM     39  C   UNL A   1      39.150  29.130  29.246  1.00  0.00     0.074 A 
ATOM     40  C   UNL A   1      38.204  30.537  31.043  1.00  0.00     0.049 A 
ATOM     41  N   UNL A   1      40.226  28.664  29.825  1.00  0.00    -0.248 NA
ATOM     42  C   UNL A   1      38.940  28.634  27.877  1.00  0.00     0.031 C 
ATOM     43  C   UNL A   1      37.225  31.402  31.703  1.00  0.00     0.029 A 
ATOM     44  N   UNL A   1      39.181  30.357  31.991  1.00  0.00    -0.354 N 
ATOM     45  C   UNL A   1      40.808  27.809  28.901  1.00  0.00     0.074 A 
ATOM     46  C   UNL A   1      39.936  27.771  27.748  1.00  0.00     0.031 C 
ATOM     47  C   UNL A   1      37.666  31.705  32.935  1.00  0.00     0.029 A 
ATOM     48  C   UNL A   1      38.939  31.028  33.164  1.00  0.00     0.049 A 
ATOM     49  H   UNL A   1      39.979  29.801  31.842  1.00  0.00     0.167 HD
ATOM     50  C   UNL A   1      41.978  27.133  28.995  1.00  0.00     0.037 A 
ATOM     51  C   UNL A   1      39.666  31.088  34.295  1.00  0.00     0.037 A 
ATOM     52  C   UNL A   1      42.857  27.197  30.131  1.00  0.00     0.049 A 
ATOM     53  C   UNL A   1      40.963  30.331  34.376  1.00  0.00     0.074 A 
ATOM     54  C   UNL A   1      44.096  26.605  30.300  1.00  0.00     0.029 A 
ATOM     55  N   UNL A   1      42.586  27.899  31.297  1.00  0.00    -0.354 N 
ATOM     56  N   UNL A   1      41.538  29.577  33.472  1.00  0.00    -0.248 NA
ATOM     57  C   UNL A   1      41.711  30.437  35.636  1.00  0.00     0.031 C 
ATOM     58  C   UNL A   1      44.559  26.919  31.583  1.00  0.00     0.029 A 
ATOM     59  C   UNL A   1      43.626  27.740  32.198  1.00  0.00     0.049 A 
ATOM     60  H   UNL A   1      41.774  28.430  31.461  1.00  0.00     0.167 HD
ATOM     61  C   UNL A   1      42.727  29.141  34.040  1.00  0.00     0.074 A 
ATOM     62  C   UNL A   1      42.795  29.722  35.365  1.00  0.00     0.031 C 
ATOM     63  C   UNL A   1      43.679  28.334  33.510  1.00  0.00     0.037 A 
BRANCH  50  64
ATOM     64  C   UNL A   1      42.366  26.274  27.827  1.00  0.00     0.064 A 
ATOM     65  C   UNL A   1      41.909  24.952  27.704  1.00  0.00     0.173 A 
ATOM     66  C   UNL A   1      43.209  26.772  26.823  1.00  0.00     0.173 A 
ATOM     67  F   UNL A   1      41.113  24.422  28.647  1.00  0.00    -0.203 F 
ATOM     68  C   UNL A   1      42.318  24.148  26.645  1.00  0.00     0.198 A 
ATOM     69  C   UNL A   1      43.590  25.974  25.747  1.00  0.00     0.198 A 
ATOM     70  F   UNL A   1      43.670  28.030  26.890  1.00  0.00    -0.203 F 
ATOM     71  F   UNL A   1      41.925  22.868  26.587  1.00  0.00    -0.200 F 
ATOM     72  C   UNL A   1      43.155  24.660  25.665  1.00  0.00     0.200 A 
ATOM     73  F   UNL A   1      44.391  26.474  24.796  1.00  0.00    -0.200 F 
ATOM     74  F   UNL A   1      43.554  23.883  24.649  1.00  0.00    -0.200 F 
ENDBRANCH  50  64
BRANCH  51  75
ATOM     75  C   UNL A   1      39.208  31.940  35.421  1.00  0.00     0.064 A 
ATOM     76  C   UNL A   1      39.552  33.299  35.471  1.00  0.00     0.173 A 
ATOM     77  C   UNL A   1      38.409  31.430  36.455  1.00  0.00     0.173 A 
ATOM     78  F   UNL A   1      40.330  33.826  34.514  1.00  0.00    -0.203 F 
ATOM     79  C   UNL A   1      39.123  34.113  36.516  1.00  0.00     0.198 A 
ATOM     80  C   UNL A   1      37.963  32.251  37.489  1.00  0.00     0.198 A 
ATOM     81  F   UNL A   1      38.050  30.138  36.449  1.00  0.00    -0.203 F 
ATOM     82  F   UNL A   1      39.493  35.400  36.556  1.00  0.00    -0.200 F 
ATOM     83  C   UNL A   1      38.324  33.589  37.522  1.00  0.00     0.200 A 
ATOM     84  F   UNL A   1      37.181  31.744  38.452  1.00  0.00    -0.200 F 
ATOM     85  F   UNL A   1      37.905  34.375  38.523  1.00  0.00    -0.200 F 
ENDBRANCH  51  75
BRANCH  63  86
ATOM     86  C   UNL A   1      44.892  28.061  34.349  1.00  0.00     0.064 A 
ATOM     87  C   UNL A   1      45.998  28.922  34.344  1.00  0.00     0.173 A 
ATOM     88  C   UNL A   1      44.926  26.948  35.201  1.00  0.00     0.173 A 
ATOM     89  F   UNL A   1      46.018  29.990  33.533  1.00  0.00    -0.203 F 
ATOM     90  C   UNL A   1      47.106  28.666  35.148  1.00  0.00     0.198 A 
ATOM     91  C   UNL A   1      46.023  26.710  36.024  1.00  0.00     0.198 A 
ATOM     92  F   UNL A   1      43.890  26.097  35.245  1.00  0.00    -0.203 F 
ATOM     93  F   UNL A   1      48.169  29.479  35.099  1.00  0.00    -0.200 F 
ATOM     94  C   UNL A   1      47.114  27.565  35.993  1.00  0.00     0.200 A 
ATOM     95  F   UNL A   1      46.025  25.652  36.847  1.00  0.00    -0.200 F 
ATOM     96  F   UNL A   1      48.177  27.326  36.773  1.00  0.00    -0.200 F 
ENDBRANCH  63  86
ENDBRANCH  37  38
ENDBRANCH  29  32
ENDBRANCH  27  28
ENDBRANCH  26  27
ENDBRANCH   1  26
TORSDOF 14
ENDMDL
