MODEL 1
REMARK VINA RESULT:     -12.6      0.000      0.000
REMARK SMILES CSc1ccc(CNc2ccc(N3CCOCC3)c(C(=O)NCCCCNC(=O)c3ccc(-c4c5nc(c(-c6c(F)c(F)c(F)c(F)c6F)c6ccc([nH]6)c(-c6c(F)c(F)c(F)c(F)c6F)c6nc(c(-c7c(F)c(F)c(F)c(F)c7F)c7ccc4[nH]7)C=C6)C=C5)cc3)c2)cc1
REMARK SMILES IDX 23 1 22 2 20 3 21 4 19 6 9 7 10 8 93 9 11 10 12 11 8 12 7 14
REMARK SMILES IDX 6 15 3 16 4 17 95 18 5 19 94 20 2 21 1 22 13 23 14 24 18 25
REMARK SMILES IDX 15 26 17 27 16 28 24 29 25 30 26 31 27 32 28 33 29 35 30 36
REMARK SMILES IDX 31 37 92 38 32 39 91 40 33 41 34 42 35 43 85 44 36 45 90 46
REMARK SMILES IDX 84 47 86 48 37 49 89 50 83 51 82 52 38 54 70 55 50 56 69 57
REMARK SMILES IDX 51 58 54 59 68 60 87 61 52 62 53 63 67 65 88 66 55 67 39 68
REMARK SMILES IDX 40 69 48 70 41 71 42 72 46 73 49 74 43 75 44 76 47 77 45 78
REMARK SMILES IDX 71 79 72 80 80 81 73 82 74 83 78 84 81 85 75 86 76 87 79 88
REMARK SMILES IDX 77 89 56 90 57 91 65 92 58 93 59 94 63 95 66 96 60 97 61 98
REMARK SMILES IDX 64 99 62 100
REMARK H PARENT 22 5 8 13 27 34 86 53 54 64
REMARK Flexibility Score: inf
ROOT
ATOM      1  C   UNL A   1      33.289  27.445  22.230  1.00  0.00     0.116 C 
ENDROOT
BRANCH   1   2
ATOM      2  N   UNL A   1      33.658  26.057  21.987  1.00  0.00    -0.352 N 
ATOM      3  C   UNL A   1      33.293  24.880  22.627  1.00  0.00     0.253 C 
ATOM      4  O   UNL A   1      33.648  23.830  22.096  1.00  0.00    -0.269 OA
ATOM      5  H   UNL A   1      34.276  25.930  21.232  1.00  0.00     0.163 HD
BRANCH   3   6
ATOM      6  C   UNL A   1      32.531  24.897  23.917  1.00  0.00     0.065 A 
ATOM      7  C   UNL A   1      30.495  25.688  25.033  1.00  0.00     0.035 A 
ATOM      8  C   UNL A   1      31.080  25.361  26.251  1.00  0.00     0.028 A 
ATOM      9  C   UNL A   1      31.207  25.358  23.884  1.00  0.00     0.041 A 
ATOM     10  C   UNL A   1      32.316  24.708  26.301  1.00  0.00     0.029 A 
ATOM     11  C   UNL A   1      33.061  24.442  25.139  1.00  0.00     0.050 A 
BRANCH   7  12
ATOM     12  N   UNL A   1      29.263  26.300  25.006  1.00  0.00    -0.381 N 
ATOM     13  H   UNL A   1      28.960  26.727  25.839  1.00  0.00     0.160 HD
BRANCH  12  14
ATOM     14  C   UNL A   1      28.366  26.375  23.865  1.00  0.00     0.148 C 
BRANCH  14  15
ATOM     15  C   UNL A   1      28.383  27.774  23.307  1.00  0.00    -0.029 A 
ATOM     16  C   UNL A   1      28.458  30.397  22.272  1.00  0.00     0.007 A 
ATOM     17  C   UNL A   1      29.611  29.609  22.285  1.00  0.00     0.015 A 
ATOM     18  C   UNL A   1      27.280  29.878  22.824  1.00  0.00     0.015 A 
ATOM     19  C   UNL A   1      29.575  28.314  22.801  1.00  0.00     0.007 A 
ATOM     20  C   UNL A   1      27.241  28.578  23.339  1.00  0.00     0.007 A 
BRANCH  16  21
ATOM     21  S   UNL A   1      28.406  32.057  21.610  1.00  0.00    -0.130 SA
ATOM     22  C   UNL A   1      28.778  33.062  23.073  1.00  0.00     0.091 C 
ENDBRANCH  16  21
ENDBRANCH  14  15
ENDBRANCH  12  14
ENDBRANCH   7  12
BRANCH  11  23
ATOM     23  N   UNL A   1      34.187  23.657  25.246  1.00  0.00    -0.366 N 
ATOM     24  C   UNL A   1      35.542  24.190  25.367  1.00  0.00     0.145 C 
ATOM     25  C   UNL A   1      34.031  22.217  25.472  1.00  0.00     0.145 C 
ATOM     26  C   UNL A   1      36.543  23.291  24.611  1.00  0.00     0.181 C 
ATOM     27  C   UNL A   1      35.060  21.463  24.621  1.00  0.00     0.181 C 
ATOM     28  O   UNL A   1      36.394  21.896  24.940  1.00  0.00    -0.378 OA
ENDBRANCH  11  23
ENDBRANCH   3   6
ENDBRANCH   1   2
BRANCH   1  29
ATOM     29  C   UNL A   1      33.752  28.029  23.558  1.00  0.00     0.023 C 
BRANCH  29  30
ATOM     30  C   UNL A   1      32.853  29.077  24.198  1.00  0.00     0.023 C 
BRANCH  30  31
ATOM     31  C   UNL A   1      33.041  29.302  25.692  1.00  0.00     0.116 C 
BRANCH  31  32
ATOM     32  N   UNL A   1      32.609  30.613  26.153  1.00  0.00    -0.352 N 
ATOM     33  C   UNL A   1      33.215  31.470  27.046  1.00  0.00     0.251 C 
ATOM     34  H   UNL A   1      31.761  30.934  25.771  1.00  0.00     0.163 HD
ATOM     35  O   UNL A   1      32.667  32.514  27.370  1.00  0.00    -0.269 OA
BRANCH  33  36
ATOM     36  C   UNL A   1      34.512  31.096  27.650  1.00  0.00     0.039 A 
ATOM     37  C   UNL A   1      35.462  32.096  27.878  1.00  0.00     0.014 A 
ATOM     38  C   UNL A   1      34.772  29.779  28.034  1.00  0.00     0.014 A 
ATOM     39  C   UNL A   1      36.632  31.791  28.578  1.00  0.00     0.010 A 
ATOM     40  C   UNL A   1      35.896  29.495  28.801  1.00  0.00     0.010 A 
ATOM     41  C   UNL A   1      36.834  30.499  29.087  1.00  0.00    -0.014 A 
BRANCH  41  42
ATOM     42  C   UNL A   1      38.022  30.165  29.915  1.00  0.00     0.031 A 
ATOM     43  C   UNL A   1      39.068  29.230  29.375  1.00  0.00     0.074 A 
ATOM     44  C   UNL A   1      38.121  30.638  31.173  1.00  0.00     0.049 A 
ATOM     45  N   UNL A   1      40.110  28.715  29.976  1.00  0.00    -0.248 NA
ATOM     46  C   UNL A   1      38.901  28.792  27.980  1.00  0.00     0.031 C 
ATOM     47  C   UNL A   1      37.156  31.525  31.826  1.00  0.00     0.029 A 
ATOM     48  N   UNL A   1      39.078  30.427  32.136  1.00  0.00    -0.354 N 
ATOM     49  C   UNL A   1      40.712  27.885  29.040  1.00  0.00     0.074 A 
ATOM     50  C   UNL A   1      39.888  27.919  27.851  1.00  0.00     0.031 C 
ATOM     51  C   UNL A   1      37.581  31.798  33.071  1.00  0.00     0.029 A 
ATOM     52  C   UNL A   1      38.824  31.075  33.320  1.00  0.00     0.049 A 
ATOM     53  H   UNL A   1      39.872  29.863  31.990  1.00  0.00     0.167 HD
ATOM     54  C   UNL A   1      41.862  27.180  29.150  1.00  0.00     0.037 A 
ATOM     55  C   UNL A   1      39.512  31.076  34.478  1.00  0.00     0.037 A 
ATOM     56  C   UNL A   1      42.694  27.167  30.324  1.00  0.00     0.049 A 
ATOM     57  C   UNL A   1      40.779  30.267  34.579  1.00  0.00     0.074 A 
ATOM     58  C   UNL A   1      43.892  26.504  30.526  1.00  0.00     0.029 A 
ATOM     59  N   UNL A   1      42.416  27.859  31.493  1.00  0.00    -0.354 N 
ATOM     60  N   UNL A   1      41.359  29.520  33.672  1.00  0.00    -0.248 NA
ATOM     61  C   UNL A   1      41.489  30.306  35.865  1.00  0.00     0.031 C 
ATOM     62  C   UNL A   1      44.324  26.773  31.830  1.00  0.00     0.029 A 
ATOM     63  C   UNL A   1      43.418  27.635  32.423  1.00  0.00     0.049 A 
ATOM     64  H   UNL A   1      41.623  28.425  31.640  1.00  0.00     0.167 HD
ATOM     65  C   UNL A   1      42.519  29.034  34.262  1.00  0.00     0.074 A 
ATOM     66  C   UNL A   1      42.564  29.578  35.603  1.00  0.00     0.031 C 
ATOM     67  C   UNL A   1      43.461  28.212  33.742  1.00  0.00     0.037 A 
BRANCH  54  68
ATOM     68  C   UNL A   1      42.298  26.378  27.959  1.00  0.00     0.064 A 
ATOM     69  C   UNL A   1      41.801  25.086  27.729  1.00  0.00     0.173 A 
ATOM     70  C   UNL A   1      43.190  26.915  27.021  1.00  0.00     0.173 A 
ATOM     71  F   UNL A   1      40.955  24.522  28.606  1.00  0.00    -0.203 F 
ATOM     72  C   UNL A   1      42.203  24.350  26.618  1.00  0.00     0.198 A 
ATOM     73  C   UNL A   1      43.567  26.187  25.894  1.00  0.00     0.198 A 
ATOM     74  F   UNL A   1      43.691  28.148  27.189  1.00  0.00    -0.203 F 
ATOM     75  F   UNL A   1      41.753  23.099  26.446  1.00  0.00    -0.200 F 
ATOM     76  C   UNL A   1      43.080  24.904  25.698  1.00  0.00     0.200 A 
ATOM     77  F   UNL A   1      44.405  26.728  24.998  1.00  0.00    -0.200 F 
ATOM     78  F   UNL A   1      43.461  24.197  24.625  1.00  0.00    -0.200 F 
ENDBRANCH  54  68
BRANCH  55  79
ATOM     79  C   UNL A   1      39.042  31.886  35.632  1.00  0.00     0.064 A 
ATOM     80  C   UNL A   1      39.455  33.217  35.788  1.00  0.00     0.173 A 
ATOM     81  C   UNL A   1      38.204  31.345  36.617  1.00  0.00     0.173 A 
ATOM     82  F   UNL A   1      40.275  33.773  34.884  1.00  0.00    -0.203 F 
ATOM     83  C   UNL A   1      39.072  33.966  36.900  1.00  0.00     0.198 A 
ATOM     84  C   UNL A   1      37.798  32.103  37.714  1.00  0.00     0.198 A 
ATOM     85  F   UNL A   1      37.777  30.077  36.515  1.00  0.00    -0.203 F 
ATOM     86  F   UNL A   1      39.528  35.217  37.050  1.00  0.00    -0.200 F 
ATOM     87  C   UNL A   1      38.241  33.409  37.859  1.00  0.00     0.200 A 
ATOM     88  F   UNL A   1      36.986  31.566  38.634  1.00  0.00    -0.200 F 
ATOM     89  F   UNL A   1      37.878  34.127  38.930  1.00  0.00    -0.200 F 
ENDBRANCH  55  79
BRANCH  67  90
ATOM     90  C   UNL A   1      44.653  27.899  34.597  1.00  0.00     0.064 A 
ATOM     91  C   UNL A   1      44.689  26.770  35.426  1.00  0.00     0.173 A 
ATOM     92  C   UNL A   1      45.792  28.718  34.547  1.00  0.00     0.173 A 
ATOM     93  F   UNL A   1      43.620  25.965  35.520  1.00  0.00    -0.203 F 
ATOM     94  C   UNL A   1      45.817  26.484  36.193  1.00  0.00     0.198 A 
ATOM     95  C   UNL A   1      46.925  28.414  35.292  1.00  0.00     0.198 A 
ATOM     96  F   UNL A   1      45.806  29.807  33.763  1.00  0.00    -0.203 F 
ATOM     97  F   UNL A   1      45.815  25.423  37.012  1.00  0.00    -0.200 F 
ATOM     98  C   UNL A   1      46.935  27.300  36.119  1.00  0.00     0.200 A 
ATOM     99  F   UNL A   1      48.010  29.198  35.211  1.00  0.00    -0.200 F 
ATOM    100  F   UNL A   1      48.021  27.018  36.851  1.00  0.00    -0.200 F 
ENDBRANCH  67  90
ENDBRANCH  41  42
ENDBRANCH  33  36
ENDBRANCH  31  32
ENDBRANCH  30  31
ENDBRANCH  29  30
ENDBRANCH   1  29
TORSDOF 16
ENDMDL
MODEL 2
REMARK VINA RESULT:     -12.4      4.801      8.270
REMARK SMILES CSc1ccc(CNc2ccc(N3CCOCC3)c(C(=O)NCCCCNC(=O)c3ccc(-c4c5nc(c(-c6c(F)c(F)c(F)c(F)c6F)c6ccc([nH]6)c(-c6c(F)c(F)c(F)c(F)c6F)c6nc(c(-c7c(F)c(F)c(F)c(F)c7F)c7ccc4[nH]7)C=C6)C=C5)cc3)c2)cc1
REMARK SMILES IDX 23 1 22 2 20 3 21 4 19 6 9 7 10 8 93 9 11 10 12 11 8 12 7 14
REMARK SMILES IDX 6 15 3 16 4 17 95 18 5 19 94 20 2 21 1 22 13 23 14 24 18 25
REMARK SMILES IDX 15 26 17 27 16 28 24 29 25 30 26 31 27 32 28 33 29 35 30 36
REMARK SMILES IDX 31 37 92 38 32 39 91 40 33 41 34 42 35 43 85 44 36 45 90 46
REMARK SMILES IDX 84 47 86 48 37 49 89 50 83 51 82 52 38 54 70 55 50 56 69 57
REMARK SMILES IDX 51 58 54 59 68 60 87 61 52 62 53 63 67 65 88 66 55 67 39 68
REMARK SMILES IDX 40 69 48 70 41 71 42 72 46 73 49 74 43 75 44 76 47 77 45 78
REMARK SMILES IDX 71 79 72 80 80 81 73 82 74 83 78 84 81 85 75 86 76 87 79 88
REMARK SMILES IDX 77 89 56 90 57 91 65 92 58 93 59 94 63 95 66 96 60 97 61 98
REMARK SMILES IDX 64 99 62 100
REMARK H PARENT 22 5 8 13 27 34 86 53 54 64
REMARK Flexibility Score: inf
ROOT
ATOM      1  C   UNL A   1      36.689  21.443  24.961  1.00  0.00     0.116 C 
ENDROOT
BRANCH   1   2
ATOM      2  N   UNL A   1      35.719  21.420  26.047  1.00  0.00    -0.352 N 
ATOM      3  C   UNL A   1      34.350  21.187  26.057  1.00  0.00     0.253 C 
ATOM      4  O   UNL A   1      33.816  21.080  27.159  1.00  0.00    -0.269 OA
ATOM      5  H   UNL A   1      36.104  21.599  26.935  1.00  0.00     0.163 HD
BRANCH   3   6
ATOM      6  C   UNL A   1      33.564  21.103  24.784  1.00  0.00     0.065 A 
ATOM      7  C   UNL A   1      32.456  22.401  23.023  1.00  0.00     0.035 A 
ATOM      8  C   UNL A   1      31.827  21.231  22.609  1.00  0.00     0.028 A 
ATOM      9  C   UNL A   1      33.386  22.285  24.050  1.00  0.00     0.041 A 
ATOM     10  C   UNL A   1      32.145  20.000  23.192  1.00  0.00     0.029 A 
ATOM     11  C   UNL A   1      33.033  19.902  24.277  1.00  0.00     0.050 A 
BRANCH   7  12
ATOM     12  N   UNL A   1      32.153  23.596  22.412  1.00  0.00    -0.381 N 
ATOM     13  H   UNL A   1      31.266  23.669  21.994  1.00  0.00     0.160 HD
BRANCH  12  14
ATOM     14  C   UNL A   1      33.018  24.760  22.326  1.00  0.00     0.148 C 
BRANCH  14  15
ATOM     15  C   UNL A   1      32.761  25.662  23.505  1.00  0.00    -0.029 A 
ATOM     16  C   UNL A   1      32.312  27.333  25.733  1.00  0.00     0.007 A 
ATOM     17  C   UNL A   1      33.591  26.845  25.461  1.00  0.00     0.015 A 
ATOM     18  C   UNL A   1      31.251  26.939  24.907  1.00  0.00     0.015 A 
ATOM     19  C   UNL A   1      33.812  26.015  24.363  1.00  0.00     0.007 A 
ATOM     20  C   UNL A   1      31.470  26.110  23.802  1.00  0.00     0.007 A 
BRANCH  16  21
ATOM     21  S   UNL A   1      31.941  28.419  27.103  1.00  0.00    -0.130 SA
ATOM     22  C   UNL A   1      32.920  29.891  26.699  1.00  0.00     0.091 C 
ENDBRANCH  16  21
ENDBRANCH  14  15
ENDBRANCH  12  14
ENDBRANCH   7  12
BRANCH  11  23
ATOM     23  N   UNL A   1      33.423  18.650  24.695  1.00  0.00    -0.366 N 
ATOM     24  C   UNL A   1      34.673  18.010  24.291  1.00  0.00     0.145 C 
ATOM     25  C   UNL A   1      32.671  17.991  25.767  1.00  0.00     0.145 C 
ATOM     26  C   UNL A   1      34.469  16.490  24.117  1.00  0.00     0.181 C 
ATOM     27  C   UNL A   1      32.513  16.504  25.427  1.00  0.00     0.181 C 
ATOM     28  O   UNL A   1      33.799  15.888  25.242  1.00  0.00    -0.378 OA
ENDBRANCH  11  23
ENDBRANCH   3   6
ENDBRANCH   1   2
BRANCH   1  29
ATOM     29  C   UNL A   1      38.152  21.469  25.381  1.00  0.00     0.023 C 
BRANCH  29  30
ATOM     30  C   UNL A   1      38.937  20.176  25.218  1.00  0.00     0.023 C 
BRANCH  30  31
ATOM     31  C   UNL A   1      39.773  19.741  26.413  1.00  0.00     0.116 C 
BRANCH  31  32
ATOM     32  N   UNL A   1      40.855  18.828  26.080  1.00  0.00    -0.352 N 
ATOM     33  C   UNL A   1      42.207  19.072  25.982  1.00  0.00     0.251 C 
ATOM     34  H   UNL A   1      40.581  17.900  25.899  1.00  0.00     0.163 HD
ATOM     35  O   UNL A   1      42.971  18.188  25.621  1.00  0.00    -0.269 OA
BRANCH  33  36
ATOM     36  C   UNL A   1      42.727  20.427  26.270  1.00  0.00     0.039 A 
ATOM     37  C   UNL A   1      43.116  21.240  25.201  1.00  0.00     0.014 A 
ATOM     38  C   UNL A   1      42.786  20.910  27.578  1.00  0.00     0.014 A 
ATOM     39  C   UNL A   1      43.472  22.569  25.439  1.00  0.00     0.010 A 
ATOM     40  C   UNL A   1      43.060  22.254  27.804  1.00  0.00     0.010 A 
ATOM     41  C   UNL A   1      43.399  23.100  26.735  1.00  0.00    -0.014 A 
BRANCH  41  42
ATOM     42  C   UNL A   1      43.680  24.533  27.009  1.00  0.00     0.031 A 
ATOM     43  C   UNL A   1      45.068  25.072  26.807  1.00  0.00     0.074 A 
ATOM     44  C   UNL A   1      42.711  25.326  27.508  1.00  0.00     0.049 A 
ATOM     45  N   UNL A   1      45.551  26.252  27.102  1.00  0.00    -0.248 NA
ATOM     46  C   UNL A   1      46.054  24.149  26.222  1.00  0.00     0.031 C 
ATOM     47  C   UNL A   1      41.333  24.915  27.781  1.00  0.00     0.029 A 
ATOM     48  N   UNL A   1      42.743  26.646  27.888  1.00  0.00    -0.354 N 
ATOM     49  C   UNL A   1      46.895  26.207  26.753  1.00  0.00     0.074 A 
ATOM     50  C   UNL A   1      47.165  24.868  26.279  1.00  0.00     0.031 C 
ATOM     51  C   UNL A   1      40.648  25.964  28.264  1.00  0.00     0.029 A 
ATOM     52  C   UNL A   1      41.545  27.110  28.373  1.00  0.00     0.049 A 
ATOM     53  H   UNL A   1      43.550  27.207  27.819  1.00  0.00     0.167 HD
ATOM     54  C   UNL A   1      47.813  27.200  26.796  1.00  0.00     0.037 A 
ATOM     55  C   UNL A   1      41.213  28.321  28.861  1.00  0.00     0.037 A 
ATOM     56  C   UNL A   1      47.538  28.539  27.244  1.00  0.00     0.049 A 
ATOM     57  C   UNL A   1      42.260  29.403  28.916  1.00  0.00     0.074 A 
ATOM     58  C   UNL A   1      48.394  29.625  27.303  1.00  0.00     0.029 A 
ATOM     59  N   UNL A   1      46.303  28.977  27.702  1.00  0.00    -0.354 N 
ATOM     60  N   UNL A   1      43.516  29.359  28.543  1.00  0.00    -0.248 NA
ATOM     61  C   UNL A   1      41.841  30.704  29.455  1.00  0.00     0.031 C 
ATOM     62  C   UNL A   1      47.685  30.712  27.824  1.00  0.00     0.029 A 
ATOM     63  C   UNL A   1      46.378  30.316  28.050  1.00  0.00     0.049 A 
ATOM     64  H   UNL A   1      45.495  28.419  27.770  1.00  0.00     0.167 HD
ATOM     65  C   UNL A   1      44.024  30.632  28.764  1.00  0.00     0.074 A 
ATOM     66  C   UNL A   1      42.939  31.428  29.297  1.00  0.00     0.031 C 
ATOM     67  C   UNL A   1      45.277  31.100  28.547  1.00  0.00     0.037 A 
BRANCH  54  68
ATOM     68  C   UNL A   1      49.202  26.877  26.329  1.00  0.00     0.064 A 
ATOM     69  C   UNL A   1      49.583  27.063  24.992  1.00  0.00     0.173 A 
ATOM     70  C   UNL A   1      50.171  26.413  27.230  1.00  0.00     0.173 A 
ATOM     71  F   UNL A   1      48.688  27.492  24.088  1.00  0.00    -0.203 F 
ATOM     72  C   UNL A   1      50.876  26.769  24.566  1.00  0.00     0.198 A 
ATOM     73  C   UNL A   1      51.472  26.149  26.807  1.00  0.00     0.198 A 
ATOM     74  F   UNL A   1      49.861  26.224  28.521  1.00  0.00    -0.203 F 
ATOM     75  F   UNL A   1      51.202  26.907  23.274  1.00  0.00    -0.200 F 
ATOM     76  C   UNL A   1      51.821  26.319  25.476  1.00  0.00     0.200 A 
ATOM     77  F   UNL A   1      52.389  25.726  27.689  1.00  0.00    -0.200 F 
ATOM     78  F   UNL A   1      53.067  26.043  25.068  1.00  0.00    -0.200 F 
ENDBRANCH  54  68
BRANCH  55  79
ATOM     79  C   UNL A   1      39.823  28.596  29.313  1.00  0.00     0.064 A 
ATOM     80  C   UNL A   1      38.882  29.153  28.435  1.00  0.00     0.173 A 
ATOM     81  C   UNL A   1      39.416  28.342  30.630  1.00  0.00     0.173 A 
ATOM     82  F   UNL A   1      39.230  29.434  27.171  1.00  0.00    -0.203 F 
ATOM     83  C   UNL A   1      37.595  29.473  28.867  1.00  0.00     0.198 A 
ATOM     84  C   UNL A   1      38.120  28.636  31.053  1.00  0.00     0.198 A 
ATOM     85  F   UNL A   1      40.277  27.807  31.509  1.00  0.00    -0.203 F 
ATOM     86  F   UNL A   1      36.735  30.056  28.021  1.00  0.00    -0.200 F 
ATOM     87  C   UNL A   1      37.215  29.211  30.174  1.00  0.00     0.200 A 
ATOM     88  F   UNL A   1      37.753  28.372  32.313  1.00  0.00    -0.200 F 
ATOM     89  F   UNL A   1      35.981  29.524  30.589  1.00  0.00    -0.200 F 
ENDBRANCH  55  79
BRANCH  67  90
ATOM     90  C   UNL A   1      45.529  32.552  28.824  1.00  0.00     0.064 A 
ATOM     91  C   UNL A   1      46.038  32.992  30.053  1.00  0.00     0.173 A 
ATOM     92  C   UNL A   1      45.301  33.511  27.824  1.00  0.00     0.173 A 
ATOM     93  F   UNL A   1      46.258  32.116  31.046  1.00  0.00    -0.203 F 
ATOM     94  C   UNL A   1      46.289  34.343  30.280  1.00  0.00     0.198 A 
ATOM     95  C   UNL A   1      45.579  34.855  28.044  1.00  0.00     0.198 A 
ATOM     96  F   UNL A   1      44.820  33.138  26.628  1.00  0.00    -0.203 F 
ATOM     97  F   UNL A   1      46.735  34.747  31.477  1.00  0.00    -0.200 F 
ATOM     98  C   UNL A   1      46.067  35.272  29.274  1.00  0.00     0.200 A 
ATOM     99  F   UNL A   1      45.375  35.750  27.067  1.00  0.00    -0.200 F 
ATOM    100  F   UNL A   1      46.318  36.569  29.491  1.00  0.00    -0.200 F 
ENDBRANCH  67  90
ENDBRANCH  41  42
ENDBRANCH  33  36
ENDBRANCH  31  32
ENDBRANCH  30  31
ENDBRANCH  29  30
ENDBRANCH   1  29
TORSDOF 16
ENDMDL
MODEL 3
REMARK VINA RESULT:     -12.2      3.860      7.020
REMARK SMILES CSc1ccc(CNc2ccc(N3CCOCC3)c(C(=O)NCCCCNC(=O)c3ccc(-c4c5nc(c(-c6c(F)c(F)c(F)c(F)c6F)c6ccc([nH]6)c(-c6c(F)c(F)c(F)c(F)c6F)c6nc(c(-c7c(F)c(F)c(F)c(F)c7F)c7ccc4[nH]7)C=C6)C=C5)cc3)c2)cc1
REMARK SMILES IDX 23 1 22 2 20 3 21 4 19 6 9 7 10 8 93 9 11 10 12 11 8 12 7 14
REMARK SMILES IDX 6 15 3 16 4 17 95 18 5 19 94 20 2 21 1 22 13 23 14 24 18 25
REMARK SMILES IDX 15 26 17 27 16 28 24 29 25 30 26 31 27 32 28 33 29 35 30 36
REMARK SMILES IDX 31 37 92 38 32 39 91 40 33 41 34 42 35 43 85 44 36 45 90 46
REMARK SMILES IDX 84 47 86 48 37 49 89 50 83 51 82 52 38 54 70 55 50 56 69 57
REMARK SMILES IDX 51 58 54 59 68 60 87 61 52 62 53 63 67 65 88 66 55 67 39 68
REMARK SMILES IDX 40 69 48 70 41 71 42 72 46 73 49 74 43 75 44 76 47 77 45 78
REMARK SMILES IDX 71 79 72 80 80 81 73 82 74 83 78 84 81 85 75 86 76 87 79 88
REMARK SMILES IDX 77 89 56 90 57 91 65 92 58 93 59 94 63 95 66 96 60 97 61 98
REMARK SMILES IDX 64 99 62 100
REMARK H PARENT 22 5 8 13 27 34 86 53 54 64
REMARK Flexibility Score: inf
ROOT
ATOM      1  C   UNL A   1      36.663  20.767  25.146  1.00  0.00     0.116 C 
ENDROOT
BRANCH   1   2
ATOM      2  N   UNL A   1      35.665  21.073  26.162  1.00  0.00    -0.352 N 
ATOM      3  C   UNL A   1      34.279  21.126  26.106  1.00  0.00     0.253 C 
ATOM      4  O   UNL A   1      33.688  21.264  27.176  1.00  0.00    -0.269 OA
ATOM      5  H   UNL A   1      36.041  21.277  27.048  1.00  0.00     0.163 HD
BRANCH   3   6
ATOM      6  C   UNL A   1      33.547  21.050  24.801  1.00  0.00     0.065 A 
ATOM      7  C   UNL A   1      32.518  22.359  23.000  1.00  0.00     0.035 A 
ATOM      8  C   UNL A   1      31.903  21.192  22.555  1.00  0.00     0.028 A 
ATOM      9  C   UNL A   1      33.403  22.235  24.065  1.00  0.00     0.041 A 
ATOM     10  C   UNL A   1      32.193  19.958  23.146  1.00  0.00     0.029 A 
ATOM     11  C   UNL A   1      33.034  19.853  24.267  1.00  0.00     0.050 A 
BRANCH   7  12
ATOM     12  N   UNL A   1      32.244  23.557  22.383  1.00  0.00    -0.381 N 
ATOM     13  H   UNL A   1      32.786  23.784  21.593  1.00  0.00     0.160 HD
BRANCH  12  14
ATOM     14  C   UNL A   1      31.232  24.519  22.784  1.00  0.00     0.148 C 
BRANCH  14  15
ATOM     15  C   UNL A   1      31.861  25.572  23.659  1.00  0.00    -0.029 A 
ATOM     16  C   UNL A   1      33.001  27.562  25.300  1.00  0.00     0.007 A 
ATOM     17  C   UNL A   1      31.644  27.251  25.405  1.00  0.00     0.015 A 
ATOM     18  C   UNL A   1      33.772  26.902  24.334  1.00  0.00     0.015 A 
ATOM     19  C   UNL A   1      31.080  26.270  24.590  1.00  0.00     0.007 A 
ATOM     20  C   UNL A   1      33.208  25.915  23.518  1.00  0.00     0.007 A 
BRANCH  16  21
ATOM     21  S   UNL A   1      33.813  28.787  26.317  1.00  0.00    -0.130 SA
ATOM     22  C   UNL A   1      32.408  29.623  27.101  1.00  0.00     0.091 C 
ENDBRANCH  16  21
ENDBRANCH  14  15
ENDBRANCH  12  14
ENDBRANCH   7  12
BRANCH  11  23
ATOM     23  N   UNL A   1      33.402  18.597  24.695  1.00  0.00    -0.366 N 
ATOM     24  C   UNL A   1      34.613  17.910  24.253  1.00  0.00     0.145 C 
ATOM     25  C   UNL A   1      32.678  17.985  25.813  1.00  0.00     0.145 C 
ATOM     26  C   UNL A   1      34.354  16.394  24.121  1.00  0.00     0.181 C 
ATOM     27  C   UNL A   1      32.459  16.497  25.512  1.00  0.00     0.181 C 
ATOM     28  O   UNL A   1      33.716  15.837  25.287  1.00  0.00    -0.378 OA
ENDBRANCH  11  23
ENDBRANCH   3   6
ENDBRANCH   1   2
BRANCH   1  29
ATOM     29  C   UNL A   1      36.983  21.893  24.174  1.00  0.00     0.023 C 
BRANCH  29  30
ATOM     30  C   UNL A   1      36.773  23.314  24.676  1.00  0.00     0.023 C 
BRANCH  30  31
ATOM     31  C   UNL A   1      37.701  23.778  25.790  1.00  0.00     0.116 C 
BRANCH  31  32
ATOM     32  N   UNL A   1      38.988  23.098  25.812  1.00  0.00    -0.352 N 
ATOM     33  C   UNL A   1      40.188  23.513  26.347  1.00  0.00     0.251 C 
ATOM     34  H   UNL A   1      39.002  22.213  25.382  1.00  0.00     0.163 HD
ATOM     35  O   UNL A   1      41.194  22.832  26.212  1.00  0.00    -0.269 OA
BRANCH  33  36
ATOM     36  C   UNL A   1      40.264  24.815  27.045  1.00  0.00     0.039 A 
ATOM     37  C   UNL A   1      39.891  24.881  28.391  1.00  0.00     0.014 A 
ATOM     38  C   UNL A   1      40.745  25.952  26.393  1.00  0.00     0.014 A 
ATOM     39  C   UNL A   1      40.092  26.064  29.106  1.00  0.00     0.010 A 
ATOM     40  C   UNL A   1      41.022  27.101  27.126  1.00  0.00     0.010 A 
ATOM     41  C   UNL A   1      40.704  27.167  28.492  1.00  0.00    -0.014 A 
BRANCH  41  42
ATOM     42  C   UNL A   1      41.018  28.406  29.248  1.00  0.00     0.031 A 
ATOM     43  C   UNL A   1      42.383  28.587  29.851  1.00  0.00     0.074 A 
ATOM     44  C   UNL A   1      40.058  29.329  29.456  1.00  0.00     0.049 A 
ATOM     45  N   UNL A   1      42.820  29.529  30.647  1.00  0.00    -0.248 NA
ATOM     46  C   UNL A   1      43.381  27.550  29.542  1.00  0.00     0.031 C 
ATOM     47  C   UNL A   1      38.685  29.256  28.954  1.00  0.00     0.029 A 
ATOM     48  N   UNL A   1      40.089  30.509  30.159  1.00  0.00    -0.354 N 
ATOM     49  C   UNL A   1      44.135  29.192  30.942  1.00  0.00     0.074 A 
ATOM     50  C   UNL A   1      44.406  27.930  30.290  1.00  0.00     0.031 C 
ATOM     51  C   UNL A   1      38.013  30.350  29.346  1.00  0.00     0.029 A 
ATOM     52  C   UNL A   1      38.892  31.183  30.161  1.00  0.00     0.049 A 
ATOM     53  H   UNL A   1      40.894  30.841  30.619  1.00  0.00     0.167 HD
ATOM     54  C   UNL A   1      45.043  29.885  31.668  1.00  0.00     0.037 A 
ATOM     55  C   UNL A   1      38.543  32.338  30.761  1.00  0.00     0.037 A 
ATOM     56  C   UNL A   1      44.780  31.153  32.296  1.00  0.00     0.049 A 
ATOM     57  C   UNL A   1      39.568  33.079  31.579  1.00  0.00     0.074 A 
ATOM     58  C   UNL A   1      45.641  31.948  33.032  1.00  0.00     0.029 A 
ATOM     59  N   UNL A   1      43.562  31.816  32.250  1.00  0.00    -0.354 N 
ATOM     60  N   UNL A   1      40.820  32.770  31.816  1.00  0.00    -0.248 NA
ATOM     61  C   UNL A   1      39.132  34.332  32.210  1.00  0.00     0.031 C 
ATOM     62  C   UNL A   1      44.935  33.078  33.457  1.00  0.00     0.029 A 
ATOM     63  C   UNL A   1      43.649  33.008  32.950  1.00  0.00     0.049 A 
ATOM     64  H   UNL A   1      42.756  31.488  31.789  1.00  0.00     0.167 HD
ATOM     65  C   UNL A   1      41.330  33.806  32.585  1.00  0.00     0.074 A 
ATOM     66  C   UNL A   1      40.254  34.758  32.770  1.00  0.00     0.031 C 
ATOM     67  C   UNL A   1      42.575  33.958  33.095  1.00  0.00     0.037 A 
BRANCH  54  68
ATOM     68  C   UNL A   1      46.414  29.293  31.807  1.00  0.00     0.064 A 
ATOM     69  C   UNL A   1      46.732  28.431  32.868  1.00  0.00     0.173 A 
ATOM     70  C   UNL A   1      47.409  29.556  30.855  1.00  0.00     0.173 A 
ATOM     71  F   UNL A   1      45.819  28.158  33.813  1.00  0.00    -0.203 F 
ATOM     72  C   UNL A   1      48.004  27.878  32.987  1.00  0.00     0.198 A 
ATOM     73  C   UNL A   1      48.672  28.977  30.960  1.00  0.00     0.198 A 
ATOM     74  F   UNL A   1      47.156  30.369  29.817  1.00  0.00    -0.203 F 
ATOM     75  F   UNL A   1      48.299  27.098  34.036  1.00  0.00    -0.200 F 
ATOM     76  C   UNL A   1      48.970  28.146  32.029  1.00  0.00     0.200 A 
ATOM     77  F   UNL A   1      49.601  29.227  30.027  1.00  0.00    -0.200 F 
ATOM     78  F   UNL A   1      50.192  27.607  32.139  1.00  0.00    -0.200 F 
ENDBRANCH  54  68
BRANCH  55  79
ATOM     79  C   UNL A   1      37.171  32.887  30.596  1.00  0.00     0.064 A 
ATOM     80  C   UNL A   1      36.181  32.640  31.557  1.00  0.00     0.173 A 
ATOM     81  C   UNL A   1      36.811  33.636  29.467  1.00  0.00     0.173 A 
ATOM     82  F   UNL A   1      36.471  31.909  32.644  1.00  0.00    -0.203 F 
ATOM     83  C   UNL A   1      34.875  33.096  31.382  1.00  0.00     0.198 A 
ATOM     84  C   UNL A   1      35.512  34.116  29.306  1.00  0.00     0.198 A 
ATOM     85  F   UNL A   1      37.721  33.904  28.519  1.00  0.00    -0.203 F 
ATOM     86  F   UNL A   1      33.937  32.797  32.290  1.00  0.00    -0.200 F 
ATOM     87  C   UNL A   1      34.544  33.837  30.258  1.00  0.00     0.200 A 
ATOM     88  F   UNL A   1      35.197  34.841  28.224  1.00  0.00    -0.200 F 
ATOM     89  F   UNL A   1      33.287  34.271  30.087  1.00  0.00    -0.200 F 
ENDBRANCH  55  79
BRANCH  67  90
ATOM     90  C   UNL A   1      42.865  35.223  33.846  1.00  0.00     0.064 A 
ATOM     91  C   UNL A   1      42.739  35.299  35.240  1.00  0.00     0.173 A 
ATOM     92  C   UNL A   1      43.323  36.361  33.162  1.00  0.00     0.173 A 
ATOM     93  F   UNL A   1      42.291  34.244  35.936  1.00  0.00    -0.203 F 
ATOM     94  C   UNL A   1      43.038  36.477  35.920  1.00  0.00     0.198 A 
ATOM     95  C   UNL A   1      43.647  37.525  33.848  1.00  0.00     0.198 A 
ATOM     96  F   UNL A   1      43.466  36.334  31.828  1.00  0.00    -0.203 F 
ATOM     97  F   UNL A   1      42.869  36.542  37.248  1.00  0.00    -0.200 F 
ATOM     98  C   UNL A   1      43.500  37.586  35.225  1.00  0.00     0.200 A 
ATOM     99  F   UNL A   1      44.104  38.592  33.176  1.00  0.00    -0.200 F 
ATOM    100  F   UNL A   1      43.795  38.714  35.883  1.00  0.00    -0.200 F 
ENDBRANCH  67  90
ENDBRANCH  41  42
ENDBRANCH  33  36
ENDBRANCH  31  32
ENDBRANCH  30  31
ENDBRANCH  29  30
ENDBRANCH   1  29
TORSDOF 16
ENDMDL
