MODEL 1
REMARK VINA RESULT:     -13.2      0.000      0.000
REMARK SMILES O=C(NCc1ccc(C(=O)NCCCCNC(=O)c2ccc(-c3c4nc(c(-c5c(F)c(F)c(F)c(F)c5F)c5ccc([nH]5)c(-c5c(F)c(F)c(F)c(F)c5F)c5nc(c(-c6c(F)c(F)c(F)c(F)c6F)c6ccc3[nH]6)C=C5)C=C4)cc2)o1)Nc1ccc(F)c(Cl)c1
REMARK SMILES IDX 13 1 12 2 11 3 9 4 10 5 8 7 5 8 6 9 82 10 7 11 4 12 3 13
REMARK SMILES IDX 1 14 2 15 83 16 84 19 85 20 91 21 86 22 89 23 87 24 90 25
REMARK SMILES IDX 88 26 14 27 15 28 16 29 17 30 18 32 19 33 20 34 81 35 21 36
REMARK SMILES IDX 80 37 22 38 23 39 24 40 74 41 25 42 79 43 73 44 75 45 26 46
REMARK SMILES IDX 78 47 72 48 71 49 27 51 59 52 39 53 58 54 40 55 43 56 57 57
REMARK SMILES IDX 76 58 41 59 42 60 56 62 77 63 44 64 28 65 29 66 37 67 30 68
REMARK SMILES IDX 31 69 35 70 38 71 32 72 33 73 36 74 34 75 60 76 61 77 69 78
REMARK SMILES IDX 62 79 63 80 67 81 70 82 64 83 65 84 68 85 66 86 45 87 46 88
REMARK SMILES IDX 54 89 47 90 48 91 52 92 55 93 49 94 50 95 53 96 51 97
REMARK H PARENT 11 6 3 17 83 18 16 31 75 50 43 61
REMARK Flexibility Score: inf
ROOT
ATOM      1  C   UNL A   1      31.691  30.874  26.317  1.00  0.00     0.023 C 
ENDROOT
BRANCH   1   2
ATOM      2  C   UNL A   1      33.024  30.253  26.732  1.00  0.00     0.116 C 
BRANCH   2   3
ATOM      3  N   UNL A   1      33.695  29.655  25.600  1.00  0.00    -0.349 N 
ATOM      4  C   UNL A   1      33.424  28.507  24.890  1.00  0.00     0.286 C 
ATOM      5  O   UNL A   1      34.169  28.294  23.930  1.00  0.00    -0.266 OA
ATOM      6  H   UNL A   1      34.481  30.155  25.282  1.00  0.00     0.163 HD
BRANCH   4   7
ATOM      7  C   UNL A   1      32.326  27.625  25.246  1.00  0.00     0.191 A 
ATOM      8  C   UNL A   1      30.615  26.318  24.701  1.00  0.00     0.124 A 
ATOM      9  C   UNL A   1      30.680  26.312  26.074  1.00  0.00     0.048 A 
ATOM     10  O   UNL A   1      31.609  27.099  24.198  1.00  0.00    -0.454 OA
ATOM     11  C   UNL A   1      31.791  27.123  26.422  1.00  0.00     0.056 A 
BRANCH   8  12
ATOM     12  C   UNL A   1      29.737  25.651  23.709  1.00  0.00     0.193 C 
BRANCH  12  13
ATOM     13  N   UNL A   1      28.411  26.222  23.792  1.00  0.00    -0.331 N 
ATOM     14  O   UNL A   1      26.859  27.806  23.877  1.00  0.00    -0.248 OA
ATOM     15  C   UNL A   1      27.997  27.492  23.539  1.00  0.00     0.319 C 
ATOM     16  N   UNL A   1      28.894  28.303  22.900  1.00  0.00    -0.308 N 
ATOM     17  H   UNL A   1      27.703  25.599  24.073  1.00  0.00     0.165 HD
ATOM     18  H   UNL A   1      29.677  27.862  22.498  1.00  0.00     0.171 HD
BRANCH  16  19
ATOM     19  C   UNL A   1      28.815  29.702  22.758  1.00  0.00     0.044 A 
ATOM     20  C   UNL A   1      29.207  30.484  23.856  1.00  0.00     0.029 A 
ATOM     21  C   UNL A   1      28.337  30.334  21.605  1.00  0.00     0.049 A 
ATOM     22  C   UNL A   1      29.146  31.878  23.790  1.00  0.00     0.043 A 
ATOM     23  C   UNL A   1      28.268  31.728  21.546  1.00  0.00     0.078 A 
ATOM     24  C   UNL A   1      28.677  32.492  22.635  1.00  0.00     0.141 A 
ATOM     25  Cl  UNL A   1      27.662  32.489  20.124  1.00  0.00    -0.081 Cl
ATOM     26  F   UNL A   1      28.624  33.831  22.596  1.00  0.00    -0.205 F 
ENDBRANCH  16  19
ENDBRANCH  12  13
ENDBRANCH   8  12
ENDBRANCH   4   7
ENDBRANCH   2   3
ENDBRANCH   1   2
BRANCH   1  27
ATOM     27  C   UNL A   1      31.438  32.266  26.909  1.00  0.00     0.023 C 
BRANCH  27  28
ATOM     28  C   UNL A   1      32.695  33.060  27.260  1.00  0.00     0.116 C 
BRANCH  28  29
ATOM     29  N   UNL A   1      32.415  34.411  27.723  1.00  0.00    -0.352 N 
ATOM     30  C   UNL A   1      33.014  35.105  28.748  1.00  0.00     0.251 C 
ATOM     31  H   UNL A   1      31.705  34.891  27.239  1.00  0.00     0.163 HD
ATOM     32  O   UNL A   1      32.600  36.207  29.081  1.00  0.00    -0.269 OA
BRANCH  30  33
ATOM     33  C   UNL A   1      34.142  34.486  29.474  1.00  0.00     0.039 A 
ATOM     34  C   UNL A   1      33.881  33.795  30.660  1.00  0.00     0.014 A 
ATOM     35  C   UNL A   1      35.441  34.557  28.966  1.00  0.00     0.014 A 
ATOM     36  C   UNL A   1      34.915  33.113  31.303  1.00  0.00     0.010 A 
ATOM     37  C   UNL A   1      36.456  33.825  29.572  1.00  0.00     0.010 A 
ATOM     38  C   UNL A   1      36.202  33.092  30.742  1.00  0.00    -0.014 A 
BRANCH  38  39
ATOM     39  C   UNL A   1      37.305  32.312  31.356  1.00  0.00     0.031 A 
ATOM     40  C   UNL A   1      37.805  32.677  32.724  1.00  0.00     0.074 A 
ATOM     41  C   UNL A   1      37.912  31.340  30.648  1.00  0.00     0.049 A 
ATOM     42  N   UNL A   1      38.840  32.216  33.379  1.00  0.00    -0.248 NA
ATOM     43  C   UNL A   1      37.057  33.724  33.440  1.00  0.00     0.031 C 
ATOM     44  C   UNL A   1      37.541  30.921  29.297  1.00  0.00     0.029 A 
ATOM     45  N   UNL A   1      38.986  30.544  30.961  1.00  0.00    -0.354 N 
ATOM     46  C   UNL A   1      38.880  32.930  34.569  1.00  0.00     0.074 A 
ATOM     47  C   UNL A   1      37.795  33.885  34.529  1.00  0.00     0.031 C 
ATOM     48  C   UNL A   1      38.366  29.937  28.900  1.00  0.00     0.029 A 
ATOM     49  C   UNL A   1      39.347  29.686  29.952  1.00  0.00     0.049 A 
ATOM     50  H   UNL A   1      39.452  30.584  31.827  1.00  0.00     0.167 HD
ATOM     51  C   UNL A   1      39.736  32.789  35.609  1.00  0.00     0.037 A 
ATOM     52  C   UNL A   1      40.364  28.807  29.879  1.00  0.00     0.037 A 
ATOM     53  C   UNL A   1      40.796  31.816  35.658  1.00  0.00     0.049 A 
ATOM     54  C   UNL A   1      41.300  28.668  31.051  1.00  0.00     0.074 A 
ATOM     55  C   UNL A   1      41.684  31.559  36.687  1.00  0.00     0.029 A 
ATOM     56  N   UNL A   1      41.106  30.937  34.631  1.00  0.00    -0.354 N 
ATOM     57  N   UNL A   1      41.299  29.312  32.191  1.00  0.00    -0.248 NA
ATOM     58  C   UNL A   1      42.376  27.674  30.924  1.00  0.00     0.031 C 
ATOM     59  C   UNL A   1      42.555  30.547  36.269  1.00  0.00     0.029 A 
ATOM     60  C   UNL A   1      42.181  30.143  34.998  1.00  0.00     0.049 A 
ATOM     61  H   UNL A   1      40.633  30.885  33.769  1.00  0.00     0.167 HD
ATOM     62  C   UNL A   1      42.345  28.780  32.931  1.00  0.00     0.074 A 
ATOM     63  C   UNL A   1      42.958  27.755  32.113  1.00  0.00     0.031 C 
ATOM     64  C   UNL A   1      42.761  29.111  34.178  1.00  0.00     0.037 A 
BRANCH  51  65
ATOM     65  C   UNL A   1      39.558  33.705  36.784  1.00  0.00     0.064 A 
ATOM     66  C   UNL A   1      38.772  33.340  37.888  1.00  0.00     0.173 A 
ATOM     67  C   UNL A   1      40.207  34.948  36.822  1.00  0.00     0.173 A 
ATOM     68  F   UNL A   1      38.120  32.168  37.894  1.00  0.00    -0.203 F 
ATOM     69  C   UNL A   1      38.621  34.198  38.974  1.00  0.00     0.198 A 
ATOM     70  C   UNL A   1      40.077  35.791  37.923  1.00  0.00     0.198 A 
ATOM     71  F   UNL A   1      40.973  35.344  35.794  1.00  0.00    -0.203 F 
ATOM     72  F   UNL A   1      37.827  33.849  39.995  1.00  0.00    -0.200 F 
ATOM     73  C   UNL A   1      39.279  35.418  38.994  1.00  0.00     0.200 A 
ATOM     74  F   UNL A   1      40.723  36.965  37.946  1.00  0.00    -0.200 F 
ATOM     75  F   UNL A   1      39.137  36.240  40.043  1.00  0.00    -0.200 F 
ENDBRANCH  51  65
BRANCH  52  76
ATOM     76  C   UNL A   1      40.541  27.971  28.664  1.00  0.00     0.064 A 
ATOM     77  C   UNL A   1      41.326  28.422  27.593  1.00  0.00     0.173 A 
ATOM     78  C   UNL A   1      39.930  26.715  28.542  1.00  0.00     0.173 A 
ATOM     79  F   UNL A   1      41.913  29.626  27.655  1.00  0.00    -0.203 F 
ATOM     80  C   UNL A   1      41.474  27.658  26.437  1.00  0.00     0.198 A 
ATOM     81  C   UNL A   1      40.101  25.940  27.397  1.00  0.00     0.198 A 
ATOM     82  F   UNL A   1      39.175  26.235  29.540  1.00  0.00    -0.203 F 
ATOM     83  F   UNL A   1      42.192  28.133  25.410  1.00  0.00    -0.200 F 
ATOM     84  C   UNL A   1      40.865  26.416  26.341  1.00  0.00     0.200 A 
ATOM     85  F   UNL A   1      39.524  24.734  27.313  1.00  0.00    -0.200 F 
ATOM     86  F   UNL A   1      41.010  25.680  25.231  1.00  0.00    -0.200 F 
ENDBRANCH  52  76
BRANCH  64  87
ATOM     87  C   UNL A   1      43.897  28.321  34.759  1.00  0.00     0.064 A 
ATOM     88  C   UNL A   1      45.227  28.747  34.642  1.00  0.00     0.173 A 
ATOM     89  C   UNL A   1      43.640  27.151  35.490  1.00  0.00     0.173 A 
ATOM     90  F   UNL A   1      45.523  29.851  33.940  1.00  0.00    -0.203 F 
ATOM     91  C   UNL A   1      46.262  28.017  35.219  1.00  0.00     0.198 A 
ATOM     92  C   UNL A   1      44.676  26.439  36.088  1.00  0.00     0.198 A 
ATOM     93  F   UNL A   1      42.383  26.706  35.635  1.00  0.00    -0.203 F 
ATOM     94  F   UNL A   1      47.532  28.419  35.061  1.00  0.00    -0.200 F 
ATOM     95  C   UNL A   1      45.986  26.870  35.948  1.00  0.00     0.200 A 
ATOM     96  F   UNL A   1      44.404  25.338  36.802  1.00  0.00    -0.200 F 
ATOM     97  F   UNL A   1      46.983  26.175  36.511  1.00  0.00    -0.200 F 
ENDBRANCH  64  87
ENDBRANCH  38  39
ENDBRANCH  30  33
ENDBRANCH  28  29
ENDBRANCH  27  28
ENDBRANCH   1  27
TORSDOF 14
ENDMDL
MODEL 2
REMARK VINA RESULT:     -13.1      0.412      7.325
REMARK SMILES O=C(NCc1ccc(C(=O)NCCCCNC(=O)c2ccc(-c3c4nc(c(-c5c(F)c(F)c(F)c(F)c5F)c5ccc([nH]5)c(-c5c(F)c(F)c(F)c(F)c5F)c5nc(c(-c6c(F)c(F)c(F)c(F)c6F)c6ccc3[nH]6)C=C5)C=C4)cc2)o1)Nc1ccc(F)c(Cl)c1
REMARK SMILES IDX 13 1 12 2 11 3 9 4 10 5 8 7 5 8 6 9 82 10 7 11 4 12 3 13
REMARK SMILES IDX 1 14 2 15 83 16 84 19 85 20 91 21 86 22 89 23 87 24 90 25
REMARK SMILES IDX 88 26 14 27 15 28 16 29 17 30 18 32 19 33 20 34 81 35 21 36
REMARK SMILES IDX 80 37 22 38 23 39 24 40 74 41 25 42 79 43 73 44 75 45 26 46
REMARK SMILES IDX 78 47 72 48 71 49 27 51 59 52 39 53 58 54 40 55 43 56 57 57
REMARK SMILES IDX 76 58 41 59 42 60 56 62 77 63 44 64 28 65 29 66 37 67 30 68
REMARK SMILES IDX 31 69 35 70 38 71 32 72 33 73 36 74 34 75 60 76 61 77 69 78
REMARK SMILES IDX 62 79 63 80 67 81 70 82 64 83 65 84 68 85 66 86 45 87 46 88
REMARK SMILES IDX 54 89 47 90 48 91 52 92 55 93 49 94 50 95 53 96 51 97
REMARK H PARENT 11 6 3 17 83 18 16 31 75 50 43 61
REMARK Flexibility Score: inf
ROOT
ATOM      1  C   UNL A   1      31.794  30.526  26.598  1.00  0.00     0.023 C 
ENDROOT
BRANCH   1   2
ATOM      2  C   UNL A   1      33.227  30.100  26.912  1.00  0.00     0.116 C 
BRANCH   2   3
ATOM      3  N   UNL A   1      33.890  29.590  25.734  1.00  0.00    -0.349 N 
ATOM      4  C   UNL A   1      33.637  28.477  24.964  1.00  0.00     0.286 C 
ATOM      5  O   UNL A   1      34.366  28.342  23.978  1.00  0.00    -0.266 OA
ATOM      6  H   UNL A   1      34.655  30.130  25.430  1.00  0.00     0.163 HD
BRANCH   4   7
ATOM      7  C   UNL A   1      32.572  27.543  25.290  1.00  0.00     0.191 A 
ATOM      8  C   UNL A   1      30.902  26.204  24.703  1.00  0.00     0.124 A 
ATOM      9  C   UNL A   1      30.980  26.139  26.074  1.00  0.00     0.048 A 
ATOM     10  O   UNL A   1      31.863  27.039  24.226  1.00  0.00    -0.454 OA
ATOM     11  C   UNL A   1      32.067  26.972  26.447  1.00  0.00     0.056 A 
BRANCH   8  12
ATOM     12  C   UNL A   1      30.036  25.551  23.691  1.00  0.00     0.193 C 
BRANCH  12  13
ATOM     13  N   UNL A   1      28.696  26.084  23.800  1.00  0.00    -0.331 N 
ATOM     14  O   UNL A   1      27.101  27.623  23.919  1.00  0.00    -0.248 OA
ATOM     15  C   UNL A   1      28.241  27.342  23.559  1.00  0.00     0.319 C 
ATOM     16  N   UNL A   1      29.102  28.180  22.906  1.00  0.00    -0.308 N 
ATOM     17  H   UNL A   1      28.012  25.440  24.092  1.00  0.00     0.165 HD
ATOM     18  H   UNL A   1      29.890  27.762  22.487  1.00  0.00     0.171 HD
BRANCH  16  19
ATOM     19  C   UNL A   1      28.981  29.577  22.769  1.00  0.00     0.044 A 
ATOM     20  C   UNL A   1      29.345  30.365  23.871  1.00  0.00     0.029 A 
ATOM     21  C   UNL A   1      28.487  30.199  21.617  1.00  0.00     0.049 A 
ATOM     22  C   UNL A   1      29.242  31.757  23.811  1.00  0.00     0.043 A 
ATOM     23  C   UNL A   1      28.375  31.590  21.563  1.00  0.00     0.078 A 
ATOM     24  C   UNL A   1      28.758  32.362  22.657  1.00  0.00     0.141 A 
ATOM     25  Cl  UNL A   1      27.751  32.338  20.143  1.00  0.00    -0.081 Cl
ATOM     26  F   UNL A   1      28.664  33.699  22.623  1.00  0.00    -0.205 F 
ENDBRANCH  16  19
ENDBRANCH  12  13
ENDBRANCH   8  12
ENDBRANCH   4   7
ENDBRANCH   2   3
ENDBRANCH   1   2
BRANCH   1  27
ATOM     27  C   UNL A   1      31.509  32.009  26.862  1.00  0.00     0.023 C 
BRANCH  27  28
ATOM     28  C   UNL A   1      32.702  32.820  27.364  1.00  0.00     0.116 C 
BRANCH  28  29
ATOM     29  N   UNL A   1      32.376  34.207  27.658  1.00  0.00    -0.352 N 
ATOM     30  C   UNL A   1      32.974  35.053  28.564  1.00  0.00     0.251 C 
ATOM     31  H   UNL A   1      31.631  34.591  27.142  1.00  0.00     0.163 HD
ATOM     32  O   UNL A   1      32.521  36.171  28.766  1.00  0.00    -0.269 OA
BRANCH  30  33
ATOM     33  C   UNL A   1      34.148  34.579  29.324  1.00  0.00     0.039 A 
ATOM     34  C   UNL A   1      33.945  33.934  30.547  1.00  0.00     0.014 A 
ATOM     35  C   UNL A   1      35.439  34.740  28.814  1.00  0.00     0.014 A 
ATOM     36  C   UNL A   1      35.032  33.385  31.226  1.00  0.00     0.010 A 
ATOM     37  C   UNL A   1      36.513  34.138  29.460  1.00  0.00     0.010 A 
ATOM     38  C   UNL A   1      36.319  33.450  30.669  1.00  0.00    -0.014 A 
BRANCH  38  39
ATOM     39  C   UNL A   1      37.485  32.808  31.327  1.00  0.00     0.031 A 
ATOM     40  C   UNL A   1      38.174  31.653  30.661  1.00  0.00     0.074 A 
ATOM     41  C   UNL A   1      37.861  33.207  32.556  1.00  0.00     0.049 A 
ATOM     42  N   UNL A   1      39.115  30.870  31.124  1.00  0.00    -0.248 NA
ATOM     43  C   UNL A   1      37.722  31.312  29.302  1.00  0.00     0.031 C 
ATOM     44  C   UNL A   1      37.245  34.292  33.320  1.00  0.00     0.029 A 
ATOM     45  N   UNL A   1      38.840  32.727  33.391  1.00  0.00    -0.354 N 
ATOM     46  C   UNL A   1      39.351  29.934  30.126  1.00  0.00     0.074 A 
ATOM     47  C   UNL A   1      38.425  30.217  29.051  1.00  0.00     0.031 C 
ATOM     48  C   UNL A   1      37.867  34.404  34.505  1.00  0.00     0.029 A 
ATOM     49  C   UNL A   1      38.896  33.373  34.601  1.00  0.00     0.049 A 
ATOM     50  H   UNL A   1      39.445  31.991  33.145  1.00  0.00     0.167 HD
ATOM     51  C   UNL A   1      40.269  28.939  30.103  1.00  0.00     0.037 A 
ATOM     52  C   UNL A   1      39.681  33.149  35.672  1.00  0.00     0.037 A 
ATOM     53  C   UNL A   1      41.209  28.681  31.162  1.00  0.00     0.049 A 
ATOM     54  C   UNL A   1      40.695  32.037  35.619  1.00  0.00     0.074 A 
ATOM     55  C   UNL A   1      42.213  27.730  31.212  1.00  0.00     0.029 A 
ATOM     56  N   UNL A   1      41.260  29.382  32.357  1.00  0.00    -0.354 N 
ATOM     57  N   UNL A   1      40.945  31.190  34.651  1.00  0.00    -0.248 NA
ATOM     58  C   UNL A   1      41.541  31.855  36.808  1.00  0.00     0.031 C 
ATOM     59  C   UNL A   1      42.850  27.833  32.453  1.00  0.00     0.029 A 
ATOM     60  C   UNL A   1      42.273  28.877  33.158  1.00  0.00     0.049 A 
ATOM     61  H   UNL A   1      40.666  30.129  32.602  1.00  0.00     0.167 HD
ATOM     62  C   UNL A   1      41.995  30.401  35.096  1.00  0.00     0.074 A 
ATOM     63  C   UNL A   1      42.342  30.871  36.421  1.00  0.00     0.031 C 
ATOM     64  C   UNL A   1      42.618  29.376  34.464  1.00  0.00     0.037 A 
BRANCH  51  65
ATOM     65  C   UNL A   1      40.307  28.058  28.890  1.00  0.00     0.064 A 
ATOM     66  C   UNL A   1      41.051  28.405  27.752  1.00  0.00     0.173 A 
ATOM     67  C   UNL A   1      39.617  26.836  28.875  1.00  0.00     0.173 A 
ATOM     68  F   UNL A   1      41.717  29.569  27.710  1.00  0.00    -0.203 F 
ATOM     69  C   UNL A   1      41.082  27.574  26.635  1.00  0.00     0.198 A 
ATOM     70  C   UNL A   1      39.675  25.994  27.767  1.00  0.00     0.198 A 
ATOM     71  F   UNL A   1      38.894  26.455  29.939  1.00  0.00    -0.203 F 
ATOM     72  F   UNL A   1      41.761  27.950  25.542  1.00  0.00    -0.200 F 
ATOM     73  C   UNL A   1      40.401  26.367  26.646  1.00  0.00     0.200 A 
ATOM     74  F   UNL A   1      39.025  24.821  27.784  1.00  0.00    -0.200 F 
ATOM     75  F   UNL A   1      40.437  25.566  25.573  1.00  0.00    -0.200 F 
ENDBRANCH  51  65
BRANCH  52  76
ATOM     76  C   UNL A   1      39.556  34.005  36.880  1.00  0.00     0.064 A 
ATOM     77  C   UNL A   1      40.229  35.233  36.960  1.00  0.00     0.173 A 
ATOM     78  C   UNL A   1      38.773  33.617  37.976  1.00  0.00     0.173 A 
ATOM     79  F   UNL A   1      41.006  35.637  35.945  1.00  0.00    -0.203 F 
ATOM     80  C   UNL A   1      40.140  36.029  38.100  1.00  0.00     0.198 A 
ATOM     81  C   UNL A   1      38.664  34.426  39.105  1.00  0.00     0.198 A 
ATOM     82  F   UNL A   1      38.105  32.455  37.947  1.00  0.00    -0.203 F 
ATOM     83  F   UNL A   1      40.830  37.176  38.168  1.00  0.00    -0.200 F 
ATOM     84  C   UNL A   1      39.355  35.628  39.170  1.00  0.00     0.200 A 
ATOM     85  F   UNL A   1      37.893  34.043  40.131  1.00  0.00    -0.200 F 
ATOM     86  F   UNL A   1      39.268  36.394  40.265  1.00  0.00    -0.200 F 
ENDBRANCH  52  76
BRANCH  64  87
ATOM     87  C   UNL A   1      43.775  28.731  35.168  1.00  0.00     0.064 A 
ATOM     88  C   UNL A   1      43.606  27.605  35.985  1.00  0.00     0.173 A 
ATOM     89  C   UNL A   1      45.077  29.218  34.977  1.00  0.00     0.173 A 
ATOM     90  F   UNL A   1      42.378  27.113  36.210  1.00  0.00    -0.203 F 
ATOM     91  C   UNL A   1      44.698  27.001  36.602  1.00  0.00     0.198 A 
ATOM     92  C   UNL A   1      46.169  28.595  35.574  1.00  0.00     0.198 A 
ATOM     93  F   UNL A   1      45.292  30.290  34.199  1.00  0.00    -0.203 F 
ATOM     94  F   UNL A   1      44.510  25.949  37.412  1.00  0.00    -0.200 F 
ATOM     95  C   UNL A   1      45.979  27.490  36.389  1.00  0.00     0.200 A 
ATOM     96  F   UNL A   1      47.406  29.062  35.356  1.00  0.00    -0.200 F 
ATOM     97  F   UNL A   1      47.029  26.900  36.975  1.00  0.00    -0.200 F 
ENDBRANCH  64  87
ENDBRANCH  38  39
ENDBRANCH  30  33
ENDBRANCH  28  29
ENDBRANCH  27  28
ENDBRANCH   1  27
TORSDOF 14
ENDMDL
MODEL 3
REMARK VINA RESULT:     -13.1      4.316      6.545
REMARK SMILES O=C(NCc1ccc(C(=O)NCCCCNC(=O)c2ccc(-c3c4nc(c(-c5c(F)c(F)c(F)c(F)c5F)c5ccc([nH]5)c(-c5c(F)c(F)c(F)c(F)c5F)c5nc(c(-c6c(F)c(F)c(F)c(F)c6F)c6ccc3[nH]6)C=C5)C=C4)cc2)o1)Nc1ccc(F)c(Cl)c1
REMARK SMILES IDX 13 1 12 2 11 3 9 4 10 5 8 7 5 8 6 9 82 10 7 11 4 12 3 13
REMARK SMILES IDX 1 14 2 15 83 16 84 19 85 20 91 21 86 22 89 23 87 24 90 25
REMARK SMILES IDX 88 26 14 27 15 28 16 29 17 30 18 32 19 33 20 34 81 35 21 36
REMARK SMILES IDX 80 37 22 38 23 39 24 40 74 41 25 42 79 43 73 44 75 45 26 46
REMARK SMILES IDX 78 47 72 48 71 49 27 51 59 52 39 53 58 54 40 55 43 56 57 57
REMARK SMILES IDX 76 58 41 59 42 60 56 62 77 63 44 64 28 65 29 66 37 67 30 68
REMARK SMILES IDX 31 69 35 70 38 71 32 72 33 73 36 74 34 75 60 76 61 77 69 78
REMARK SMILES IDX 62 79 63 80 67 81 70 82 64 83 65 84 68 85 66 86 45 87 46 88
REMARK SMILES IDX 54 89 47 90 48 91 52 92 55 93 49 94 50 95 53 96 51 97
REMARK H PARENT 11 6 3 17 83 18 16 31 75 50 43 61
REMARK Flexibility Score: inf
ROOT
ATOM      1  C   UNL A   1      33.327  29.260  24.640  1.00  0.00     0.023 C 
ENDROOT
BRANCH   1   2
ATOM      2  C   UNL A   1      33.416  28.826  23.177  1.00  0.00     0.116 C 
BRANCH   2   3
ATOM      3  N   UNL A   1      32.168  29.061  22.487  1.00  0.00    -0.349 N 
ATOM      4  C   UNL A   1      30.946  28.436  22.590  1.00  0.00     0.286 C 
ATOM      5  O   UNL A   1      30.051  28.912  21.886  1.00  0.00    -0.266 OA
ATOM      6  H   UNL A   1      32.198  29.792  21.829  1.00  0.00     0.163 HD
BRANCH   4   7
ATOM      7  C   UNL A   1      30.732  27.308  23.480  1.00  0.00     0.191 A 
ATOM      8  C   UNL A   1      30.686  25.126  23.891  1.00  0.00     0.124 A 
ATOM      9  C   UNL A   1      30.315  25.744  25.062  1.00  0.00     0.048 A 
ATOM     10  O   UNL A   1      30.947  26.062  22.940  1.00  0.00    -0.454 OA
ATOM     11  C   UNL A   1      30.372  27.139  24.808  1.00  0.00     0.056 A 
BRANCH   8  12
ATOM     12  C   UNL A   1      30.877  23.711  23.491  1.00  0.00     0.193 C 
BRANCH  12  13
ATOM     13  N   UNL A   1      31.960  23.631  22.536  1.00  0.00    -0.331 N 
ATOM     14  O   UNL A   1      34.056  23.535  21.811  1.00  0.00    -0.248 OA
ATOM     15  C   UNL A   1      33.273  23.340  22.737  1.00  0.00     0.319 C 
ATOM     16  N   UNL A   1      33.597  22.827  23.962  1.00  0.00    -0.308 N 
ATOM     17  H   UNL A   1      31.710  23.815  21.603  1.00  0.00     0.165 HD
ATOM     18  H   UNL A   1      32.847  22.522  24.523  1.00  0.00     0.171 HD
BRANCH  16  19
ATOM     19  C   UNL A   1      34.889  22.690  24.506  1.00  0.00     0.044 A 
ATOM     20  C   UNL A   1      35.463  23.825  25.097  1.00  0.00     0.029 A 
ATOM     21  C   UNL A   1      35.627  21.502  24.449  1.00  0.00     0.049 A 
ATOM     22  C   UNL A   1      36.745  23.765  25.648  1.00  0.00     0.043 A 
ATOM     23  C   UNL A   1      36.913  21.448  24.991  1.00  0.00     0.078 A 
ATOM     24  C   UNL A   1      37.463  22.576  25.592  1.00  0.00     0.141 A 
ATOM     25  Cl  UNL A   1      37.813  19.982  24.898  1.00  0.00    -0.081 Cl
ATOM     26  F   UNL A   1      38.694  22.543  26.124  1.00  0.00    -0.205 F 
ENDBRANCH  16  19
ENDBRANCH  12  13
ENDBRANCH   8  12
ENDBRANCH   4   7
ENDBRANCH   2   3
ENDBRANCH   1   2
BRANCH   1  27
ATOM     27  C   UNL A   1      33.907  28.244  25.631  1.00  0.00     0.023 C 
BRANCH  27  28
ATOM     28  C   UNL A   1      33.557  28.494  27.096  1.00  0.00     0.116 C 
BRANCH  28  29
ATOM     29  N   UNL A   1      33.471  29.905  27.439  1.00  0.00    -0.352 N 
ATOM     30  C   UNL A   1      34.420  30.699  28.039  1.00  0.00     0.251 C 
ATOM     31  H   UNL A   1      32.623  30.350  27.210  1.00  0.00     0.163 HD
ATOM     32  O   UNL A   1      34.161  31.854  28.351  1.00  0.00    -0.269 OA
BRANCH  30  33
ATOM     33  C   UNL A   1      35.747  30.128  28.344  1.00  0.00     0.039 A 
ATOM     34  C   UNL A   1      36.743  30.177  27.364  1.00  0.00     0.014 A 
ATOM     35  C   UNL A   1      36.016  29.579  29.600  1.00  0.00     0.014 A 
ATOM     36  C   UNL A   1      38.032  29.740  27.668  1.00  0.00     0.010 A 
ATOM     37  C   UNL A   1      37.315  29.204  29.921  1.00  0.00     0.010 A 
ATOM     38  C   UNL A   1      38.336  29.286  28.961  1.00  0.00    -0.014 A 
BRANCH  38  39
ATOM     39  C   UNL A   1      39.715  28.889  29.341  1.00  0.00     0.031 A 
ATOM     40  C   UNL A   1      40.565  29.824  30.152  1.00  0.00     0.074 A 
ATOM     41  C   UNL A   1      40.228  27.732  28.881  1.00  0.00     0.049 A 
ATOM     42  N   UNL A   1      41.831  29.729  30.471  1.00  0.00    -0.248 NA
ATOM     43  C   UNL A   1      39.910  31.046  30.645  1.00  0.00     0.031 C 
ATOM     44  C   UNL A   1      39.514  26.759  28.054  1.00  0.00     0.029 A 
ATOM     45  N   UNL A   1      41.481  27.189  29.025  1.00  0.00    -0.354 N 
ATOM     46  C   UNL A   1      42.127  30.885  31.179  1.00  0.00     0.074 A 
ATOM     47  C   UNL A   1      40.924  31.688  31.207  1.00  0.00     0.031 C 
ATOM     48  C   UNL A   1      40.335  25.733  27.773  1.00  0.00     0.029 A 
ATOM     49  C   UNL A   1      41.643  25.996  28.365  1.00  0.00     0.049 A 
ATOM     50  H   UNL A   1      42.195  27.615  29.553  1.00  0.00     0.167 HD
ATOM     51  C   UNL A   1      43.295  31.237  31.769  1.00  0.00     0.037 A 
ATOM     52  C   UNL A   1      42.730  25.211  28.241  1.00  0.00     0.037 A 
ATOM     53  C   UNL A   1      44.481  30.421  31.766  1.00  0.00     0.049 A 
ATOM     54  C   UNL A   1      44.015  25.624  28.908  1.00  0.00     0.074 A 
ATOM     55  C   UNL A   1      45.697  30.665  32.378  1.00  0.00     0.029 A 
ATOM     56  N   UNL A   1      44.594  29.200  31.118  1.00  0.00    -0.354 N 
ATOM     57  N   UNL A   1      44.271  26.694  29.619  1.00  0.00    -0.248 NA
ATOM     58  C   UNL A   1      45.161  24.715  28.759  1.00  0.00     0.031 C 
ATOM     59  C   UNL A   1      46.560  29.606  32.072  1.00  0.00     0.029 A 
ATOM     60  C   UNL A   1      45.866  28.682  31.307  1.00  0.00     0.049 A 
ATOM     61  H   UNL A   1      43.878  28.764  30.602  1.00  0.00     0.167 HD
ATOM     62  C   UNL A   1      45.590  26.573  30.031  1.00  0.00     0.074 A 
ATOM     63  C   UNL A   1      46.082  25.321  29.496  1.00  0.00     0.031 C 
ATOM     64  C   UNL A   1      46.329  27.422  30.787  1.00  0.00     0.037 A 
BRANCH  51  65
ATOM     65  C   UNL A   1      43.345  32.560  32.474  1.00  0.00     0.064 A 
ATOM     66  C   UNL A   1      43.700  33.739  31.801  1.00  0.00     0.173 A 
ATOM     67  C   UNL A   1      43.002  32.658  33.831  1.00  0.00     0.173 A 
ATOM     68  F   UNL A   1      44.050  33.697  30.506  1.00  0.00    -0.203 F 
ATOM     69  C   UNL A   1      43.736  34.961  32.466  1.00  0.00     0.198 A 
ATOM     70  C   UNL A   1      43.010  33.887  34.486  1.00  0.00     0.198 A 
ATOM     71  F   UNL A   1      42.651  31.561  34.521  1.00  0.00    -0.203 F 
ATOM     72  F   UNL A   1      44.125  36.065  31.814  1.00  0.00    -0.200 F 
ATOM     73  C   UNL A   1      43.384  35.035  33.805  1.00  0.00     0.200 A 
ATOM     74  F   UNL A   1      42.658  33.959  35.777  1.00  0.00    -0.200 F 
ATOM     75  F   UNL A   1      43.413  36.213  34.442  1.00  0.00    -0.200 F 
ENDBRANCH  51  65
BRANCH  52  76
ATOM     76  C   UNL A   1      42.649  23.942  27.472  1.00  0.00     0.064 A 
ATOM     77  C   UNL A   1      42.230  22.755  28.089  1.00  0.00     0.173 A 
ATOM     78  C   UNL A   1      42.989  23.886  26.113  1.00  0.00     0.173 A 
ATOM     79  F   UNL A   1      41.914  22.755  29.392  1.00  0.00    -0.203 F 
ATOM     80  C   UNL A   1      42.179  21.556  27.383  1.00  0.00     0.198 A 
ATOM     81  C   UNL A   1      42.911  22.692  25.400  1.00  0.00     0.198 A 
ATOM     82  F   UNL A   1      43.389  24.995  25.474  1.00  0.00    -0.203 F 
ATOM     83  F   UNL A   1      41.820  20.427  28.009  1.00  0.00    -0.200 F 
ATOM     84  C   UNL A   1      42.515  21.525  26.038  1.00  0.00     0.200 A 
ATOM     85  F   UNL A   1      43.223  22.668  24.097  1.00  0.00    -0.200 F 
ATOM     86  F   UNL A   1      42.462  20.372  25.358  1.00  0.00    -0.200 F 
ENDBRANCH  52  76
BRANCH  64  87
ATOM     87  C   UNL A   1      47.728  27.003  31.129  1.00  0.00     0.064 A 
ATOM     88  C   UNL A   1      47.999  26.146  32.204  1.00  0.00     0.173 A 
ATOM     89  C   UNL A   1      48.804  27.424  30.333  1.00  0.00     0.173 A 
ATOM     90  F   UNL A   1      47.005  25.730  33.003  1.00  0.00    -0.203 F 
ATOM     91  C   UNL A   1      49.302  25.742  32.483  1.00  0.00     0.198 A 
ATOM     92  C   UNL A   1      50.101  26.996  30.599  1.00  0.00     0.198 A 
ATOM     93  F   UNL A   1      48.595  28.240  29.288  1.00  0.00    -0.203 F 
ATOM     94  F   UNL A   1      49.546  24.955  33.540  1.00  0.00    -0.200 F 
ATOM     95  C   UNL A   1      50.350  26.160  31.676  1.00  0.00     0.200 A 
ATOM     96  F   UNL A   1      51.110  27.391  29.809  1.00  0.00    -0.200 F 
ATOM     97  F   UNL A   1      51.601  25.761  31.940  1.00  0.00    -0.200 F 
ENDBRANCH  64  87
ENDBRANCH  38  39
ENDBRANCH  30  33
ENDBRANCH  28  29
ENDBRANCH  27  28
ENDBRANCH   1  27
TORSDOF 14
ENDMDL
