MODEL 1
REMARK VINA RESULT:     -11.8      0.000      0.000
REMARK SMILES CC(C)NC(=O)C[N@@H+]1CCC[C@H]1C(=O)NCCCCNC(=O)c1ccc(-c2c3nc(c(-c4c(F)c(F)c(F)c(F)c4F)c4ccc([nH]4)c(-c4c(F)c(F)c(F)c(F)c4F)c4nc(c(-c5c(F)c(F)c(F)c(F)c5F)c5ccc2[nH]5)C=C4)C=C3)cc1
REMARK SMILES IDX 17 1 16 2 15 3 13 4 14 5 12 7 8 8 9 9 10 11 11 12 7 13 5 14
REMARK SMILES IDX 4 15 6 17 2 18 1 19 3 20 18 21 19 22 20 23 21 24 22 26 23 27
REMARK SMILES IDX 24 28 85 29 25 30 84 31 26 32 27 33 28 34 78 35 29 36 83 37
REMARK SMILES IDX 77 38 79 39 30 40 82 41 76 42 75 43 31 45 63 46 43 47 62 48
REMARK SMILES IDX 44 49 47 50 61 51 80 52 45 53 46 54 60 56 81 57 48 58 32 59
REMARK SMILES IDX 33 60 41 61 34 62 35 63 39 64 42 65 36 66 37 67 40 68 38 69
REMARK SMILES IDX 64 70 65 71 73 72 66 73 67 74 71 75 74 76 68 77 69 78 72 79
REMARK SMILES IDX 70 80 49 81 50 82 58 83 51 84 52 85 56 86 59 87 53 88 54 89
REMARK SMILES IDX 57 90 55 91
REMARK H PARENT 15 6 8 10 4 16 20 25 79 44 47 55
REMARK Flexibility Score: inf
ROOT
ATOM      1  C   UNL A   1      31.754  30.760  26.007  1.00  0.00     0.023 C 
ENDROOT
BRANCH   1   2
ATOM      2  C   UNL A   1      32.705  29.846  26.783  1.00  0.00     0.116 C 
BRANCH   2   3
ATOM      3  N   UNL A   1      33.339  28.871  25.922  1.00  0.00    -0.351 N 
ATOM      4  C   UNL A   1      32.822  27.776  25.288  1.00  0.00     0.278 C 
ATOM      5  O   UNL A   1      33.624  27.085  24.648  1.00  0.00    -0.268 OA
ATOM      6  H   UNL A   1      34.300  29.020  25.768  1.00  0.00     0.163 HD
BRANCH   4   7
ATOM      7  C   UNL A   1      31.312  27.435  25.268  1.00  0.00     0.274 C 
ATOM      8  N   UNL A   1      30.803  27.171  23.898  1.00  0.00    -0.317 N 
ATOM      9  C   UNL A   1      30.265  25.817  23.878  1.00  0.00     0.263 C 
ATOM     10  H   UNL A   1      31.565  27.212  23.221  1.00  0.00     0.349 HD
ATOM     11  C   UNL A   1      30.055  25.376  25.304  1.00  0.00     0.068 C 
ATOM     12  C   UNL A   1      31.005  26.211  26.126  1.00  0.00     0.081 C 
BRANCH   8  13
ATOM     13  C   UNL A   1      29.918  28.241  23.366  1.00  0.00     0.364 C 
BRANCH  13  14
ATOM     14  C   UNL A   1      30.622  29.333  22.543  1.00  0.00     0.275 C 
ATOM     15  N   UNL A   1      29.903  30.371  22.002  1.00  0.00    -0.349 N 
ATOM     16  H   UNL A   1      30.432  30.998  21.457  1.00  0.00     0.163 HD
ATOM     17  O   UNL A   1      31.844  29.324  22.376  1.00  0.00    -0.268 OA
BRANCH  15  18
ATOM     18  C   UNL A   1      28.477  30.699  22.103  1.00  0.00     0.076 C 
ATOM     19  C   UNL A   1      28.167  31.514  23.366  1.00  0.00     0.030 C 
ATOM     20  C   UNL A   1      28.057  31.522  20.889  1.00  0.00     0.030 C 
ENDBRANCH  15  18
ENDBRANCH  13  14
ENDBRANCH   8  13
ENDBRANCH   4   7
ENDBRANCH   2   3
ENDBRANCH   1   2
BRANCH   1  21
ATOM     21  C   UNL A   1      31.403  32.057  26.742  1.00  0.00     0.023 C 
BRANCH  21  22
ATOM     22  C   UNL A   1      32.604  32.810  27.304  1.00  0.00     0.116 C 
BRANCH  22  23
ATOM     23  N   UNL A   1      32.327  34.203  27.626  1.00  0.00    -0.352 N 
ATOM     24  C   UNL A   1      32.973  35.002  28.541  1.00  0.00     0.251 C 
ATOM     25  H   UNL A   1      31.590  34.624  27.128  1.00  0.00     0.163 HD
ATOM     26  O   UNL A   1      32.575  36.140  28.774  1.00  0.00    -0.269 OA
BRANCH  24  27
ATOM     27  C   UNL A   1      34.125  34.451  29.283  1.00  0.00     0.039 A 
ATOM     28  C   UNL A   1      33.894  33.768  30.479  1.00  0.00     0.014 A 
ATOM     29  C   UNL A   1      35.417  34.549  28.762  1.00  0.00     0.014 A 
ATOM     30  C   UNL A   1      34.951  33.112  31.112  1.00  0.00     0.010 A 
ATOM     31  C   UNL A   1      36.452  33.830  29.351  1.00  0.00     0.010 A 
ATOM     32  C   UNL A   1      36.229  33.101  30.529  1.00  0.00    -0.014 A 
BRANCH  32  33
ATOM     33  C   UNL A   1      37.345  32.327  31.129  1.00  0.00     0.031 A 
ATOM     34  C   UNL A   1      37.848  32.673  32.502  1.00  0.00     0.074 A 
ATOM     35  C   UNL A   1      37.952  31.365  30.409  1.00  0.00     0.049 A 
ATOM     36  N   UNL A   1      38.855  32.168  33.168  1.00  0.00    -0.248 NA
ATOM     37  C   UNL A   1      37.143  33.753  33.210  1.00  0.00     0.031 C 
ATOM     38  C   UNL A   1      37.594  30.974  29.045  1.00  0.00     0.029 A 
ATOM     39  N   UNL A   1      39.010  30.545  30.721  1.00  0.00    -0.354 N 
ATOM     40  C   UNL A   1      38.912  32.876  34.361  1.00  0.00     0.074 A 
ATOM     41  C   UNL A   1      37.877  33.885  34.305  1.00  0.00     0.031 C 
ATOM     42  C   UNL A   1      38.401  29.978  28.645  1.00  0.00     0.029 A 
ATOM     43  C   UNL A   1      39.356  29.684  29.708  1.00  0.00     0.049 A 
ATOM     44  H   UNL A   1      39.476  30.574  31.587  1.00  0.00     0.167 HD
ATOM     45  C   UNL A   1      39.736  32.684  35.418  1.00  0.00     0.037 A 
ATOM     46  C   UNL A   1      40.338  28.764  29.645  1.00  0.00     0.037 A 
ATOM     47  C   UNL A   1      40.747  31.662  35.481  1.00  0.00     0.049 A 
ATOM     48  C   UNL A   1      41.240  28.570  30.834  1.00  0.00     0.074 A 
ATOM     49  C   UNL A   1      41.591  31.346  36.531  1.00  0.00     0.029 A 
ATOM     50  N   UNL A   1      41.052  30.791  34.445  1.00  0.00    -0.354 N 
ATOM     51  N   UNL A   1      41.236  29.196  31.987  1.00  0.00    -0.248 NA
ATOM     52  C   UNL A   1      42.278  27.537  30.717  1.00  0.00     0.031 C 
ATOM     53  C   UNL A   1      42.437  30.313  36.115  1.00  0.00     0.029 A 
ATOM     54  C   UNL A   1      42.086  29.950  34.825  1.00  0.00     0.049 A 
ATOM     55  H   UNL A   1      40.601  30.772  33.571  1.00  0.00     0.167 HD
ATOM     56  C   UNL A   1      42.246  28.614  32.741  1.00  0.00     0.074 A 
ATOM     57  C   UNL A   1      42.833  27.576  31.920  1.00  0.00     0.031 C 
ATOM     58  C   UNL A   1      42.652  28.914  33.998  1.00  0.00     0.037 A 
BRANCH  45  59
ATOM     59  C   UNL A   1      39.569  33.596  36.599  1.00  0.00     0.064 A 
ATOM     60  C   UNL A   1      40.209  34.843  36.661  1.00  0.00     0.173 A 
ATOM     61  C   UNL A   1      38.736  33.234  37.668  1.00  0.00     0.173 A 
ATOM     62  F   UNL A   1      41.027  35.233  35.671  1.00  0.00    -0.203 F 
ATOM     63  C   UNL A   1      40.048  35.680  37.763  1.00  0.00     0.198 A 
ATOM     64  C   UNL A   1      38.551  34.086  38.753  1.00  0.00     0.198 A 
ATOM     65  F   UNL A   1      38.096  32.055  37.659  1.00  0.00    -0.203 F 
ATOM     66  F   UNL A   1      40.712  36.842  37.823  1.00  0.00    -0.200 F 
ATOM     67  C   UNL A   1      39.213  35.304  38.804  1.00  0.00     0.200 A 
ATOM     68  F   UNL A   1      37.733  33.728  39.754  1.00  0.00    -0.200 F 
ATOM     69  F   UNL A   1      39.053  36.112  39.861  1.00  0.00    -0.200 F 
ENDBRANCH  45  59
BRANCH  46  70
ATOM     70  C   UNL A   1      40.504  27.935  28.423  1.00  0.00     0.064 A 
ATOM     71  C   UNL A   1      39.889  26.679  28.317  1.00  0.00     0.173 A 
ATOM     72  C   UNL A   1      41.280  28.372  27.341  1.00  0.00     0.173 A 
ATOM     73  F   UNL A   1      39.152  26.207  29.333  1.00  0.00    -0.203 F 
ATOM     74  C   UNL A   1      40.064  25.883  27.187  1.00  0.00     0.198 A 
ATOM     75  C   UNL A   1      41.432  27.589  26.199  1.00  0.00     0.198 A 
ATOM     76  F   UNL A   1      41.885  29.569  27.389  1.00  0.00    -0.203 F 
ATOM     77  F   UNL A   1      39.505  24.667  27.133  1.00  0.00    -0.200 F 
ATOM     78  C   UNL A   1      40.831  26.341  26.126  1.00  0.00     0.200 A 
ATOM     79  F   UNL A   1      42.162  28.041  25.170  1.00  0.00    -0.200 F 
ATOM     80  F   UNL A   1      40.997  25.578  25.038  1.00  0.00    -0.200 F 
ENDBRANCH  46  70
BRANCH  58  81
ATOM     81  C   UNL A   1      43.760  28.085  34.582  1.00  0.00     0.064 A 
ATOM     82  C   UNL A   1      43.504  26.875  35.245  1.00  0.00     0.173 A 
ATOM     83  C   UNL A   1      45.096  28.487  34.438  1.00  0.00     0.173 A 
ATOM     84  F   UNL A   1      42.242  26.455  35.421  1.00  0.00    -0.203 F 
ATOM     85  C   UNL A   1      44.546  26.111  35.764  1.00  0.00     0.198 A 
ATOM     86  C   UNL A   1      46.136  27.704  34.931  1.00  0.00     0.198 A 
ATOM     87  F   UNL A   1      45.394  29.632  33.806  1.00  0.00    -0.203 F 
ATOM     88  F   UNL A   1      44.276  24.982  36.434  1.00  0.00    -0.200 F 
ATOM     89  C   UNL A   1      45.861  26.521  35.600  1.00  0.00     0.200 A 
ATOM     90  F   UNL A   1      47.406  28.095  34.759  1.00  0.00    -0.200 F 
ATOM     91  F   UNL A   1      46.862  25.780  36.092  1.00  0.00    -0.200 F 
ENDBRANCH  58  81
ENDBRANCH  32  33
ENDBRANCH  24  27
ENDBRANCH  22  23
ENDBRANCH  21  22
ENDBRANCH   1  21
TORSDOF 14
ENDMDL
MODEL 2
REMARK VINA RESULT:     -11.8      0.170      2.003
REMARK SMILES CC(C)NC(=O)C[N@@H+]1CCC[C@H]1C(=O)NCCCCNC(=O)c1ccc(-c2c3nc(c(-c4c(F)c(F)c(F)c(F)c4F)c4ccc([nH]4)c(-c4c(F)c(F)c(F)c(F)c4F)c4nc(c(-c5c(F)c(F)c(F)c(F)c5F)c5ccc2[nH]5)C=C4)C=C3)cc1
REMARK SMILES IDX 17 1 16 2 15 3 13 4 14 5 12 7 8 8 9 9 10 11 11 12 7 13 5 14
REMARK SMILES IDX 4 15 6 17 2 18 1 19 3 20 18 21 19 22 20 23 21 24 22 26 23 27
REMARK SMILES IDX 24 28 85 29 25 30 84 31 26 32 27 33 28 34 78 35 29 36 83 37
REMARK SMILES IDX 77 38 79 39 30 40 82 41 76 42 75 43 31 45 63 46 43 47 62 48
REMARK SMILES IDX 44 49 47 50 61 51 80 52 45 53 46 54 60 56 81 57 48 58 32 59
REMARK SMILES IDX 33 60 41 61 34 62 35 63 39 64 42 65 36 66 37 67 40 68 38 69
REMARK SMILES IDX 64 70 65 71 73 72 66 73 67 74 71 75 74 76 68 77 69 78 72 79
REMARK SMILES IDX 70 80 49 81 50 82 58 83 51 84 52 85 56 86 59 87 53 88 54 89
REMARK SMILES IDX 57 90 55 91
REMARK H PARENT 15 6 8 10 4 16 20 25 79 44 47 55
REMARK Flexibility Score: inf
ROOT
ATOM      1  C   UNL A   1      31.771  30.772  26.076  1.00  0.00     0.023 C 
ENDROOT
BRANCH   1   2
ATOM      2  C   UNL A   1      32.704  29.801  26.804  1.00  0.00     0.116 C 
BRANCH   2   3
ATOM      3  N   UNL A   1      33.318  28.857  25.894  1.00  0.00    -0.351 N 
ATOM      4  C   UNL A   1      32.781  27.801  25.214  1.00  0.00     0.278 C 
ATOM      5  O   UNL A   1      33.567  27.128  24.537  1.00  0.00    -0.268 OA
ATOM      6  H   UNL A   1      34.280  28.999  25.741  1.00  0.00     0.163 HD
BRANCH   4   7
ATOM      7  C   UNL A   1      31.265  27.484  25.189  1.00  0.00     0.274 C 
ATOM      8  N   UNL A   1      30.770  27.163  23.825  1.00  0.00    -0.317 N 
ATOM      9  C   UNL A   1      30.210  25.818  23.862  1.00  0.00     0.263 C 
ATOM     10  H   UNL A   1      31.542  27.158  23.158  1.00  0.00     0.349 HD
ATOM     11  C   UNL A   1      29.974  25.449  25.305  1.00  0.00     0.068 C 
ATOM     12  C   UNL A   1      30.926  26.307  26.099  1.00  0.00     0.081 C 
BRANCH   8  13
ATOM     13  C   UNL A   1      29.910  28.220  23.231  1.00  0.00     0.364 C 
BRANCH  13  14
ATOM     14  C   UNL A   1      30.655  29.319  22.454  1.00  0.00     0.275 C 
ATOM     15  N   UNL A   1      29.974  30.396  21.943  1.00  0.00    -0.349 N 
ATOM     16  H   UNL A   1      30.527  31.026  21.427  1.00  0.00     0.163 HD
ATOM     17  O   UNL A   1      31.879  29.280  22.300  1.00  0.00    -0.268 OA
BRANCH  15  18
ATOM     18  C   UNL A   1      28.557  30.762  22.040  1.00  0.00     0.076 C 
ATOM     19  C   UNL A   1      28.254  31.534  23.332  1.00  0.00     0.030 C 
ATOM     20  C   UNL A   1      28.178  31.646  20.855  1.00  0.00     0.030 C 
ENDBRANCH  15  18
ENDBRANCH  13  14
ENDBRANCH   8  13
ENDBRANCH   4   7
ENDBRANCH   2   3
ENDBRANCH   1   2
BRANCH   1  21
ATOM     21  C   UNL A   1      31.438  32.031  26.880  1.00  0.00     0.023 C 
BRANCH  21  22
ATOM     22  C   UNL A   1      32.653  32.838  27.326  1.00  0.00     0.116 C 
BRANCH  22  23
ATOM     23  N   UNL A   1      32.352  34.225  27.650  1.00  0.00    -0.352 N 
ATOM     24  C   UNL A   1      32.982  35.033  28.568  1.00  0.00     0.251 C 
ATOM     25  H   UNL A   1      31.608  34.634  27.152  1.00  0.00     0.163 HD
ATOM     26  O   UNL A   1      32.564  36.163  28.803  1.00  0.00    -0.269 OA
BRANCH  24  27
ATOM     27  C   UNL A   1      34.143  34.500  29.311  1.00  0.00     0.039 A 
ATOM     28  C   UNL A   1      33.924  33.840  30.522  1.00  0.00     0.014 A 
ATOM     29  C   UNL A   1      35.430  34.591  28.777  1.00  0.00     0.014 A 
ATOM     30  C   UNL A   1      34.989  33.200  31.158  1.00  0.00     0.010 A 
ATOM     31  C   UNL A   1      36.472  33.888  29.370  1.00  0.00     0.010 A 
ATOM     32  C   UNL A   1      36.262  33.181  30.564  1.00  0.00    -0.014 A 
BRANCH  32  33
ATOM     33  C   UNL A   1      37.385  32.423  31.170  1.00  0.00     0.031 A 
ATOM     34  C   UNL A   1      37.889  32.787  32.538  1.00  0.00     0.074 A 
ATOM     35  C   UNL A   1      37.999  31.458  30.458  1.00  0.00     0.049 A 
ATOM     36  N   UNL A   1      38.902  32.297  33.206  1.00  0.00    -0.248 NA
ATOM     37  C   UNL A   1      37.177  33.868  33.236  1.00  0.00     0.031 C 
ATOM     38  C   UNL A   1      37.641  31.050  29.098  1.00  0.00     0.029 A 
ATOM     39  N   UNL A   1      39.064  30.651  30.775  1.00  0.00    -0.354 N 
ATOM     40  C   UNL A   1      38.956  33.018  34.391  1.00  0.00     0.074 A 
ATOM     41  C   UNL A   1      37.912  34.017  34.327  1.00  0.00     0.031 C 
ATOM     42  C   UNL A   1      38.454  30.057  28.707  1.00  0.00     0.029 A 
ATOM     43  C   UNL A   1      39.415  29.781  29.771  1.00  0.00     0.049 A 
ATOM     44  H   UNL A   1      39.532  30.692  31.640  1.00  0.00     0.167 HD
ATOM     45  C   UNL A   1      39.784  32.844  35.448  1.00  0.00     0.037 A 
ATOM     46  C   UNL A   1      40.404  28.869  29.715  1.00  0.00     0.037 A 
ATOM     47  C   UNL A   1      40.803  31.831  35.519  1.00  0.00     0.049 A 
ATOM     48  C   UNL A   1      41.310  28.695  30.904  1.00  0.00     0.074 A 
ATOM     49  C   UNL A   1      41.652  31.533  36.570  1.00  0.00     0.029 A 
ATOM     50  N   UNL A   1      41.113  30.951  34.492  1.00  0.00    -0.354 N 
ATOM     51  N   UNL A   1      41.304  29.332  32.050  1.00  0.00    -0.248 NA
ATOM     52  C   UNL A   1      42.356  27.669  30.795  1.00  0.00     0.031 C 
ATOM     53  C   UNL A   1      42.506  30.502  36.163  1.00  0.00     0.029 A 
ATOM     54  C   UNL A   1      42.155  30.123  34.878  1.00  0.00     0.049 A 
ATOM     55  H   UNL A   1      40.660  30.919  33.620  1.00  0.00     0.167 HD
ATOM     56  C   UNL A   1      42.320  28.766  32.808  1.00  0.00     0.074 A 
ATOM     57  C   UNL A   1      42.914  27.725  31.996  1.00  0.00     0.031 C 
ATOM     58  C   UNL A   1      42.727  29.083  34.061  1.00  0.00     0.037 A 
BRANCH  45  59
ATOM     59  C   UNL A   1      39.613  33.767  36.621  1.00  0.00     0.064 A 
ATOM     60  C   UNL A   1      38.818  33.417  37.722  1.00  0.00     0.173 A 
ATOM     61  C   UNL A   1      40.276  35.002  36.658  1.00  0.00     0.173 A 
ATOM     62  F   UNL A   1      38.151  32.253  37.731  1.00  0.00    -0.203 F 
ATOM     63  C   UNL A   1      38.666  34.283  38.803  1.00  0.00     0.198 A 
ATOM     64  C   UNL A   1      40.150  35.851  37.754  1.00  0.00     0.198 A 
ATOM     65  F   UNL A   1      41.054  35.385  35.634  1.00  0.00    -0.203 F 
ATOM     66  F   UNL A   1      37.858  33.949  39.818  1.00  0.00    -0.200 F 
ATOM     67  C   UNL A   1      39.339  35.495  38.821  1.00  0.00     0.200 A 
ATOM     68  F   UNL A   1      40.810  37.018  37.777  1.00  0.00    -0.200 F 
ATOM     69  F   UNL A   1      39.198  36.324  39.864  1.00  0.00    -0.200 F 
ENDBRANCH  45  59
BRANCH  46  70
ATOM     70  C   UNL A   1      40.573  28.028  28.501  1.00  0.00     0.064 A 
ATOM     71  C   UNL A   1      41.346  28.476  27.419  1.00  0.00     0.173 A 
ATOM     72  C   UNL A   1      39.966  26.769  28.391  1.00  0.00     0.173 A 
ATOM     73  F   UNL A   1      41.930  29.681  27.468  1.00  0.00    -0.203 F 
ATOM     74  C   UNL A   1      41.484  27.706  26.266  1.00  0.00     0.198 A 
ATOM     75  C   UNL A   1      40.129  25.988  27.249  1.00  0.00     0.198 A 
ATOM     76  F   UNL A   1      39.222  26.292  29.400  1.00  0.00    -0.203 F 
ATOM     77  F   UNL A   1      42.188  28.179  25.229  1.00  0.00    -0.200 F 
ATOM     78  C   UNL A   1      40.881  26.460  26.184  1.00  0.00     0.200 A 
ATOM     79  F   UNL A   1      39.556  24.779  27.180  1.00  0.00    -0.200 F 
ATOM     80  F   UNL A   1      41.017  25.719  25.076  1.00  0.00    -0.200 F 
ENDBRANCH  46  70
BRANCH  58  81
ATOM     81  C   UNL A   1      43.843  28.269  34.650  1.00  0.00     0.064 A 
ATOM     82  C   UNL A   1      45.182  28.677  34.556  1.00  0.00     0.173 A 
ATOM     83  C   UNL A   1      43.563  27.087  35.352  1.00  0.00     0.173 A 
ATOM     84  F   UNL A   1      45.502  29.792  33.882  1.00  0.00    -0.203 F 
ATOM     85  C   UNL A   1      46.201  27.918  35.124  1.00  0.00     0.198 A 
ATOM     86  C   UNL A   1      44.582  26.347  35.944  1.00  0.00     0.198 A 
ATOM     87  F   UNL A   1      42.298  26.656  35.475  1.00  0.00    -0.203 F 
ATOM     88  F   UNL A   1      47.477  28.302  34.983  1.00  0.00    -0.200 F 
ATOM     89  C   UNL A   1      45.901  26.759  35.824  1.00  0.00     0.200 A 
ATOM     90  F   UNL A   1      44.288  25.236  36.632  1.00  0.00    -0.200 F 
ATOM     91  F   UNL A   1      46.883  26.035  36.377  1.00  0.00    -0.200 F 
ENDBRANCH  58  81
ENDBRANCH  32  33
ENDBRANCH  24  27
ENDBRANCH  22  23
ENDBRANCH  21  22
ENDBRANCH   1  21
TORSDOF 14
ENDMDL
MODEL 3
REMARK VINA RESULT:     -11.6      5.820     11.202
REMARK SMILES CC(C)NC(=O)C[N@@H+]1CCC[C@H]1C(=O)NCCCCNC(=O)c1ccc(-c2c3nc(c(-c4c(F)c(F)c(F)c(F)c4F)c4ccc([nH]4)c(-c4c(F)c(F)c(F)c(F)c4F)c4nc(c(-c5c(F)c(F)c(F)c(F)c5F)c5ccc2[nH]5)C=C4)C=C3)cc1
REMARK SMILES IDX 17 1 16 2 15 3 13 4 14 5 12 7 8 8 9 9 10 11 11 12 7 13 5 14
REMARK SMILES IDX 4 15 6 17 2 18 1 19 3 20 18 21 19 22 20 23 21 24 22 26 23 27
REMARK SMILES IDX 24 28 85 29 25 30 84 31 26 32 27 33 28 34 78 35 29 36 83 37
REMARK SMILES IDX 77 38 79 39 30 40 82 41 76 42 75 43 31 45 63 46 43 47 62 48
REMARK SMILES IDX 44 49 47 50 61 51 80 52 45 53 46 54 60 56 81 57 48 58 32 59
REMARK SMILES IDX 33 60 41 61 34 62 35 63 39 64 42 65 36 66 37 67 40 68 38 69
REMARK SMILES IDX 64 70 65 71 73 72 66 73 67 74 71 75 74 76 68 77 69 78 72 79
REMARK SMILES IDX 70 80 49 81 50 82 58 83 51 84 52 85 56 86 59 87 53 88 54 89
REMARK SMILES IDX 57 90 55 91
REMARK H PARENT 15 6 8 10 4 16 20 25 79 44 47 55
REMARK Flexibility Score: inf
ROOT
ATOM      1  C   UNL A   1      37.069  21.062  24.923  1.00  0.00     0.023 C 
ENDROOT
BRANCH   1   2
ATOM      2  C   UNL A   1      35.620  20.574  25.000  1.00  0.00     0.116 C 
BRANCH   2   3
ATOM      3  N   UNL A   1      34.994  20.935  26.254  1.00  0.00    -0.351 N 
ATOM      4  C   UNL A   1      34.278  22.046  26.602  1.00  0.00     0.278 C 
ATOM      5  O   UNL A   1      33.901  22.109  27.778  1.00  0.00    -0.268 OA
ATOM      6  H   UNL A   1      35.102  20.273  26.975  1.00  0.00     0.163 HD
BRANCH   4   7
ATOM      7  C   UNL A   1      33.860  23.143  25.591  1.00  0.00     0.274 C 
ATOM      8  N   UNL A   1      32.771  24.011  26.108  1.00  0.00    -0.317 N 
ATOM      9  C   UNL A   1      33.269  25.381  26.128  1.00  0.00     0.263 C 
ATOM     10  H   UNL A   1      32.535  23.754  27.067  1.00  0.00     0.349 HD
ATOM     11  C   UNL A   1      34.497  25.445  25.255  1.00  0.00     0.068 C 
ATOM     12  C   UNL A   1      35.039  24.038  25.221  1.00  0.00     0.081 C 
BRANCH   8  13
ATOM     13  C   UNL A   1      31.459  23.795  25.443  1.00  0.00     0.364 C 
BRANCH  13  14
ATOM     14  C   UNL A   1      30.239  24.364  26.187  1.00  0.00     0.275 C 
ATOM     15  N   UNL A   1      29.528  25.414  25.661  1.00  0.00    -0.349 N 
ATOM     16  H   UNL A   1      28.790  25.737  26.226  1.00  0.00     0.163 HD
ATOM     17  O   UNL A   1      29.850  23.875  27.251  1.00  0.00    -0.268 OA
BRANCH  15  18
ATOM     18  C   UNL A   1      29.688  26.134  24.393  1.00  0.00     0.076 C 
ATOM     19  C   UNL A   1      28.351  26.683  23.875  1.00  0.00     0.030 C 
ATOM     20  C   UNL A   1      30.642  27.308  24.592  1.00  0.00     0.030 C 
ENDBRANCH  15  18
ENDBRANCH  13  14
ENDBRANCH   8  13
ENDBRANCH   4   7
ENDBRANCH   2   3
ENDBRANCH   1   2
BRANCH   1  21
ATOM     21  C   UNL A   1      38.106  19.938  24.989  1.00  0.00     0.023 C 
BRANCH  21  22
ATOM     22  C   UNL A   1      39.336  20.261  25.831  1.00  0.00     0.116 C 
BRANCH  22  23
ATOM     23  N   UNL A   1      40.307  19.178  25.894  1.00  0.00    -0.352 N 
ATOM     24  C   UNL A   1      41.660  19.269  26.127  1.00  0.00     0.251 C 
ATOM     25  H   UNL A   1      39.952  18.270  25.755  1.00  0.00     0.163 HD
ATOM     26  O   UNL A   1      42.377  18.275  26.065  1.00  0.00    -0.269 OA
BRANCH  24  27
ATOM     27  C   UNL A   1      42.249  20.596  26.400  1.00  0.00     0.039 A 
ATOM     28  C   UNL A   1      42.650  21.391  25.324  1.00  0.00     0.014 A 
ATOM     29  C   UNL A   1      42.339  21.077  27.708  1.00  0.00     0.014 A 
ATOM     30  C   UNL A   1      43.066  22.703  25.556  1.00  0.00     0.010 A 
ATOM     31  C   UNL A   1      42.679  22.407  27.929  1.00  0.00     0.010 A 
ATOM     32  C   UNL A   1      43.040  23.235  26.856  1.00  0.00    -0.014 A 
BRANCH  32  33
ATOM     33  C   UNL A   1      43.381  24.657  27.116  1.00  0.00     0.031 A 
ATOM     34  C   UNL A   1      44.776  25.155  26.862  1.00  0.00     0.074 A 
ATOM     35  C   UNL A   1      42.456  25.478  27.648  1.00  0.00     0.049 A 
ATOM     36  N   UNL A   1      45.289  26.336  27.094  1.00  0.00    -0.248 NA
ATOM     37  C   UNL A   1      45.730  24.186  26.301  1.00  0.00     0.031 C 
ATOM     38  C   UNL A   1      41.085  25.100  27.993  1.00  0.00     0.029 A 
ATOM     39  N   UNL A   1      42.533  26.802  28.006  1.00  0.00    -0.354 N 
ATOM     40  C   UNL A   1      46.624  26.248  26.722  1.00  0.00     0.074 A 
ATOM     41  C   UNL A   1      46.857  24.882  26.305  1.00  0.00     0.031 C 
ATOM     42  C   UNL A   1      40.444  26.169  28.490  1.00  0.00     0.029 A 
ATOM     43  C   UNL A   1      41.367  27.299  28.535  1.00  0.00     0.049 A 
ATOM     44  H   UNL A   1      43.348  27.343  27.896  1.00  0.00     0.167 HD
ATOM     45  C   UNL A   1      47.562  27.223  26.704  1.00  0.00     0.037 A 
ATOM     46  C   UNL A   1      41.078  28.527  29.007  1.00  0.00     0.037 A 
ATOM     47  C   UNL A   1      47.319  28.587  27.094  1.00  0.00     0.049 A 
ATOM     48  C   UNL A   1      42.139  29.593  28.976  1.00  0.00     0.074 A 
ATOM     49  C   UNL A   1      48.187  29.663  27.054  1.00  0.00     0.029 A 
ATOM     50  N   UNL A   1      46.117  29.059  27.601  1.00  0.00    -0.354 N 
ATOM     51  N   UNL A   1      43.377  29.517  28.551  1.00  0.00    -0.248 NA
ATOM     52  C   UNL A   1      41.760  30.920  29.482  1.00  0.00     0.031 C 
ATOM     53  C   UNL A   1      47.524  30.778  27.579  1.00  0.00     0.029 A 
ATOM     54  C   UNL A   1      46.227  30.409  27.896  1.00  0.00     0.049 A 
ATOM     55  H   UNL A   1      45.307  28.517  27.730  1.00  0.00     0.167 HD
ATOM     56  C   UNL A   1      43.915  30.787  28.710  1.00  0.00     0.074 A 
ATOM     57  C   UNL A   1      42.864  31.619  29.258  1.00  0.00     0.031 C 
ATOM     58  C   UNL A   1      45.166  31.224  28.431  1.00  0.00     0.037 A 
BRANCH  45  59
ATOM     59  C   UNL A   1      48.940  26.850  26.237  1.00  0.00     0.064 A 
ATOM     60  C   UNL A   1      49.902  26.338  27.121  1.00  0.00     0.173 A 
ATOM     61  C   UNL A   1      49.293  26.975  24.886  1.00  0.00     0.173 A 
ATOM     62  F   UNL A   1      49.620  26.210  28.426  1.00  0.00    -0.203 F 
ATOM     63  C   UNL A   1      51.177  25.997  26.676  1.00  0.00     0.198 A 
ATOM     64  C   UNL A   1      50.557  26.602  24.437  1.00  0.00     0.198 A 
ATOM     65  F   UNL A   1      48.410  27.454  23.996  1.00  0.00    -0.203 F 
ATOM     66  F   UNL A   1      52.095  25.561  27.549  1.00  0.00    -0.200 F 
ATOM     67  C   UNL A   1      51.500  26.122  25.333  1.00  0.00     0.200 A 
ATOM     68  F   UNL A   1      50.866  26.711  23.137  1.00  0.00    -0.200 F 
ATOM     69  F   UNL A   1      52.725  25.786  24.905  1.00  0.00    -0.200 F 
ENDBRANCH  45  59
BRANCH  46  70
ATOM     70  C   UNL A   1      39.716  28.824  29.524  1.00  0.00     0.064 A 
ATOM     71  C   UNL A   1      39.387  28.577  30.865  1.00  0.00     0.173 A 
ATOM     72  C   UNL A   1      38.717  29.352  28.695  1.00  0.00     0.173 A 
ATOM     73  F   UNL A   1      40.302  28.053  31.693  1.00  0.00    -0.203 F 
ATOM     74  C   UNL A   1      38.104  28.825  31.349  1.00  0.00     0.198 A 
ATOM     75  C   UNL A   1      37.443  29.627  29.186  1.00  0.00     0.198 A 
ATOM     76  F   UNL A   1      38.982  29.612  27.406  1.00  0.00    -0.203 F 
ATOM     77  F   UNL A   1      37.803  28.535  32.622  1.00  0.00    -0.200 F 
ATOM     78  C   UNL A   1      37.135  29.356  30.511  1.00  0.00     0.200 A 
ATOM     79  F   UNL A   1      36.513  30.153  28.377  1.00  0.00    -0.200 F 
ATOM     80  F   UNL A   1      35.902  29.597  30.978  1.00  0.00    -0.200 F 
ENDBRANCH  46  70
BRANCH  58  81
ATOM     81  C   UNL A   1      45.460  32.677  28.675  1.00  0.00     0.064 A 
ATOM     82  C   UNL A   1      45.197  33.654  27.703  1.00  0.00     0.173 A 
ATOM     83  C   UNL A   1      45.971  33.098  29.911  1.00  0.00     0.173 A 
ATOM     84  F   UNL A   1      44.722  33.300  26.500  1.00  0.00    -0.203 F 
ATOM     85  C   UNL A   1      45.460  34.999  27.954  1.00  0.00     0.198 A 
ATOM     86  C   UNL A   1      46.203  34.446  30.169  1.00  0.00     0.198 A 
ATOM     87  F   UNL A   1      46.233  32.203  30.876  1.00  0.00    -0.203 F 
ATOM     88  F   UNL A   1      45.245  35.910  26.996  1.00  0.00    -0.200 F 
ATOM     89  C   UNL A   1      45.954  35.394  29.188  1.00  0.00     0.200 A 
ATOM     90  F   UNL A   1      46.667  34.827  31.366  1.00  0.00    -0.200 F 
ATOM     91  F   UNL A   1      46.197  36.689  29.430  1.00  0.00    -0.200 F 
ENDBRANCH  58  81
ENDBRANCH  32  33
ENDBRANCH  24  27
ENDBRANCH  22  23
ENDBRANCH  21  22
ENDBRANCH   1  21
TORSDOF 14
ENDMDL
