MODEL 1
REMARK VINA RESULT:     -11.7      0.000      0.000
REMARK SMILES O=C(CC[N@H+]1CCC[C@H](c2nccn2Cc2cscn2)C1)NCCCCNC(=O)c1ccc(-c2c3nc(c(-c4c(F)c(F)c(F)c(F)c4F)c4ccc([nH]4)c(-c4c(F)c(F)c(F)c(F)c4F)c4nc(c(-c5c(F)c(F)c(F)c(F)c5F)c5ccc2[nH]5)C=C4)C=C3)cc1
REMARK SMILES IDX 23 1 22 2 1 3 2 4 3 6 4 7 5 8 6 9 21 10 7 12 9 13 8 14 10 15
REMARK SMILES IDX 11 16 14 17 12 18 13 19 15 20 16 21 17 22 20 23 18 24 19 25
REMARK SMILES IDX 24 26 25 27 26 28 27 29 28 30 29 32 30 33 31 34 92 35 32 36
REMARK SMILES IDX 91 37 33 38 34 39 35 40 85 41 36 42 90 43 84 44 86 45 37 46
REMARK SMILES IDX 89 47 83 48 82 49 38 51 70 52 50 53 69 54 51 55 54 56 68 57
REMARK SMILES IDX 87 58 52 59 53 60 67 62 88 63 55 64 39 65 40 66 48 67 41 68
REMARK SMILES IDX 42 69 46 70 49 71 43 72 44 73 47 74 45 75 71 76 72 77 80 78
REMARK SMILES IDX 73 79 74 80 78 81 81 82 75 83 76 84 79 85 77 86 56 87 57 88
REMARK SMILES IDX 65 89 58 90 59 91 63 92 66 93 60 94 61 95 64 96 62 97
REMARK H PARENT 22 5 5 11 27 31 86 50 54 61
REMARK Flexibility Score: inf
ROOT
ATOM      1  C   UNL A   1      40.082  22.048  26.687  1.00  0.00     0.116 C 
ENDROOT
BRANCH   1   2
ATOM      2  N   UNL A   1      38.985  21.858  25.733  1.00  0.00    -0.356 N 
ATOM      3  O   UNL A   1      37.969  23.862  26.240  1.00  0.00    -0.275 OA
ATOM      4  C   UNL A   1      38.015  22.852  25.542  1.00  0.00     0.225 C 
ATOM      5  H   UNL A   1      38.928  21.020  25.221  1.00  0.00     0.163 HD
BRANCH   4   6
ATOM      6  C   UNL A   1      37.025  22.616  24.396  1.00  0.00     0.161 C 
BRANCH   6   7
ATOM      7  C   UNL A   1      35.859  23.642  24.257  1.00  0.00     0.272 C 
BRANCH   7   8
ATOM      8  N   UNL A   1      34.564  23.258  24.860  1.00  0.00    -0.334 N 
ATOM      9  C   UNL A   1      34.056  21.950  24.408  1.00  0.00     0.262 C 
ATOM     10  C   UNL A   1      34.566  23.364  26.329  1.00  0.00     0.273 C 
ATOM     11  H   UNL A   1      33.902  23.949  24.508  1.00  0.00     0.348 HD
ATOM     12  C   UNL A   1      32.711  21.554  25.049  1.00  0.00     0.062 C 
ATOM     13  C   UNL A   1      33.183  23.103  26.950  1.00  0.00     0.111 C 
ATOM     14  C   UNL A   1      32.748  21.681  26.568  1.00  0.00     0.023 C 
BRANCH  13  15
ATOM     15  C   UNL A   1      32.022  24.065  26.684  1.00  0.00     0.117 A 
ATOM     16  N   UNL A   1      30.786  23.750  27.032  1.00  0.00    -0.241 NA
ATOM     17  N   UNL A   1      31.975  25.256  25.982  1.00  0.00    -0.328 N 
ATOM     18  C   UNL A   1      29.940  24.659  26.474  1.00  0.00     0.131 A 
ATOM     19  C   UNL A   1      30.655  25.608  25.808  1.00  0.00     0.108 A 
BRANCH  17  20
ATOM     20  C   UNL A   1      33.022  26.228  25.827  1.00  0.00     0.180 C 
BRANCH  20  21
ATOM     21  C   UNL A   1      33.198  26.797  24.464  1.00  0.00     0.071 A 
ATOM     22  C   UNL A   1      33.510  28.117  24.188  1.00  0.00     0.092 A 
ATOM     23  N   UNL A   1      33.212  25.965  23.357  1.00  0.00    -0.248 NA
ATOM     24  S   UNL A   1      33.825  28.318  22.517  1.00  0.00    -0.130 S 
ATOM     25  C   UNL A   1      33.532  26.648  22.282  1.00  0.00     0.175 A 
ENDBRANCH  20  21
ENDBRANCH  17  20
ENDBRANCH  13  15
ENDBRANCH   7   8
ENDBRANCH   6   7
ENDBRANCH   4   6
ENDBRANCH   1   2
BRANCH   1  26
ATOM     26  C   UNL A   1      40.908  20.801  27.116  1.00  0.00     0.023 C 
BRANCH  26  27
ATOM     27  C   UNL A   1      41.437  19.735  26.112  1.00  0.00     0.023 C 
BRANCH  27  28
ATOM     28  C   UNL A   1      42.833  19.165  26.372  1.00  0.00     0.116 C 
BRANCH  28  29
ATOM     29  N   UNL A   1      43.766  19.221  25.242  1.00  0.00    -0.352 N 
ATOM     30  C   UNL A   1      44.307  20.334  24.594  1.00  0.00     0.251 C 
ATOM     31  H   UNL A   1      44.052  18.348  24.889  1.00  0.00     0.163 HD
ATOM     32  O   UNL A   1      44.916  20.193  23.548  1.00  0.00    -0.269 OA
BRANCH  30  33
ATOM     33  C   UNL A   1      44.155  21.695  25.177  1.00  0.00     0.039 A 
ATOM     34  C   UNL A   1      43.254  22.647  24.669  1.00  0.00     0.014 A 
ATOM     35  C   UNL A   1      44.955  22.043  26.246  1.00  0.00     0.014 A 
ATOM     36  C   UNL A   1      43.132  23.902  25.295  1.00  0.00     0.010 A 
ATOM     37  C   UNL A   1      44.699  23.179  26.962  1.00  0.00     0.010 A 
ATOM     38  C   UNL A   1      43.859  24.164  26.462  1.00  0.00    -0.014 A 
BRANCH  38  39
ATOM     39  C   UNL A   1      43.781  25.415  27.229  1.00  0.00     0.031 A 
ATOM     40  C   UNL A   1      44.763  26.490  26.896  1.00  0.00     0.074 A 
ATOM     41  C   UNL A   1      42.705  25.694  28.007  1.00  0.00     0.049 A 
ATOM     42  N   UNL A   1      45.629  27.047  27.680  1.00  0.00    -0.248 NA
ATOM     43  C   UNL A   1      44.835  26.995  25.525  1.00  0.00     0.031 C 
ATOM     44  C   UNL A   1      41.509  24.873  28.270  1.00  0.00     0.029 A 
ATOM     45  N   UNL A   1      42.389  26.860  28.637  1.00  0.00    -0.354 N 
ATOM     46  C   UNL A   1      46.247  28.060  26.939  1.00  0.00     0.074 A 
ATOM     47  C   UNL A   1      45.815  27.894  25.582  1.00  0.00     0.031 C 
ATOM     48  C   UNL A   1      40.518  25.646  28.760  1.00  0.00     0.029 A 
ATOM     49  C   UNL A   1      41.061  26.960  29.034  1.00  0.00     0.049 A 
ATOM     50  H   UNL A   1      43.048  27.574  28.796  1.00  0.00     0.167 HD
ATOM     51  C   UNL A   1      46.918  29.083  27.535  1.00  0.00     0.037 A 
ATOM     52  C   UNL A   1      40.441  28.046  29.557  1.00  0.00     0.037 A 
ATOM     53  C   UNL A   1      47.165  28.800  28.923  1.00  0.00     0.049 A 
ATOM     54  C   UNL A   1      41.503  28.913  30.124  1.00  0.00     0.074 A 
ATOM     55  C   UNL A   1      47.835  27.791  29.586  1.00  0.00     0.029 A 
ATOM     56  N   UNL A   1      46.333  29.372  29.854  1.00  0.00    -0.354 N 
ATOM     57  N   UNL A   1      42.231  28.574  31.153  1.00  0.00    -0.248 NA
ATOM     58  C   UNL A   1      42.082  29.927  29.254  1.00  0.00     0.031 C 
ATOM     59  C   UNL A   1      46.997  27.473  30.694  1.00  0.00     0.029 A 
ATOM     60  C   UNL A   1      45.921  28.363  30.687  1.00  0.00     0.049 A 
ATOM     61  H   UNL A   1      46.081  30.323  29.913  1.00  0.00     0.167 HD
ATOM     62  C   UNL A   1      43.515  28.972  30.815  1.00  0.00     0.074 A 
ATOM     63  C   UNL A   1      43.347  29.883  29.683  1.00  0.00     0.031 C 
ATOM     64  C   UNL A   1      44.611  28.308  31.289  1.00  0.00     0.037 A 
BRANCH  51  65
ATOM     65  C   UNL A   1      47.076  30.472  26.976  1.00  0.00     0.064 A 
ATOM     66  C   UNL A   1      48.347  31.080  27.006  1.00  0.00     0.173 A 
ATOM     67  C   UNL A   1      45.990  31.331  26.704  1.00  0.00     0.173 A 
ATOM     68  F   UNL A   1      49.445  30.355  27.263  1.00  0.00    -0.203 F 
ATOM     69  C   UNL A   1      48.506  32.460  26.866  1.00  0.00     0.198 A 
ATOM     70  C   UNL A   1      46.160  32.702  26.510  1.00  0.00     0.198 A 
ATOM     71  F   UNL A   1      44.722  30.901  26.735  1.00  0.00    -0.203 F 
ATOM     72  F   UNL A   1      49.716  33.012  27.033  1.00  0.00    -0.200 F 
ATOM     73  C   UNL A   1      47.411  33.272  26.627  1.00  0.00     0.200 A 
ATOM     74  F   UNL A   1      45.087  33.476  26.297  1.00  0.00    -0.200 F 
ATOM     75  F   UNL A   1      47.552  34.603  26.561  1.00  0.00    -0.200 F 
ENDBRANCH  51  65
BRANCH  52  76
ATOM     76  C   UNL A   1      39.034  28.475  29.379  1.00  0.00     0.064 A 
ATOM     77  C   UNL A   1      38.174  28.641  30.477  1.00  0.00     0.173 A 
ATOM     78  C   UNL A   1      38.579  28.986  28.146  1.00  0.00     0.173 A 
ATOM     79  F   UNL A   1      38.547  28.224  31.695  1.00  0.00    -0.203 F 
ATOM     80  C   UNL A   1      36.947  29.303  30.353  1.00  0.00     0.198 A 
ATOM     81  C   UNL A   1      37.351  29.639  28.023  1.00  0.00     0.198 A 
ATOM     82  F   UNL A   1      39.357  28.949  27.055  1.00  0.00    -0.203 F 
ATOM     83  F   UNL A   1      36.182  29.500  31.437  1.00  0.00    -0.200 F 
ATOM     84  C   UNL A   1      36.541  29.810  29.129  1.00  0.00     0.200 A 
ATOM     85  F   UNL A   1      36.990  30.158  26.841  1.00  0.00    -0.200 F 
ATOM     86  F   UNL A   1      35.396  30.499  29.025  1.00  0.00    -0.200 F 
ENDBRANCH  52  76
BRANCH  64  87
ATOM     87  C   UNL A   1      44.409  27.266  32.355  1.00  0.00     0.064 A 
ATOM     88  C   UNL A   1      44.268  25.891  32.099  1.00  0.00     0.173 A 
ATOM     89  C   UNL A   1      44.537  27.653  33.696  1.00  0.00     0.173 A 
ATOM     90  F   UNL A   1      44.246  25.418  30.850  1.00  0.00    -0.203 F 
ATOM     91  C   UNL A   1      44.213  24.957  33.131  1.00  0.00     0.198 A 
ATOM     92  C   UNL A   1      44.518  26.716  34.725  1.00  0.00     0.198 A 
ATOM     93  F   UNL A   1      44.736  28.944  34.005  1.00  0.00    -0.203 F 
ATOM     94  F   UNL A   1      44.071  23.653  32.851  1.00  0.00    -0.200 F 
ATOM     95  C   UNL A   1      44.346  25.370  34.444  1.00  0.00     0.200 A 
ATOM     96  F   UNL A   1      44.698  27.116  35.991  1.00  0.00    -0.200 F 
ATOM     97  F   UNL A   1      44.334  24.470  35.437  1.00  0.00    -0.200 F 
ENDBRANCH  64  87
ENDBRANCH  38  39
ENDBRANCH  30  33
ENDBRANCH  28  29
ENDBRANCH  27  28
ENDBRANCH  26  27
ENDBRANCH   1  26
TORSDOF 16
ENDMDL
MODEL 2
REMARK VINA RESULT:     -11.6      2.615      4.188
REMARK SMILES O=C(CC[N@H+]1CCC[C@H](c2nccn2Cc2cscn2)C1)NCCCCNC(=O)c1ccc(-c2c3nc(c(-c4c(F)c(F)c(F)c(F)c4F)c4ccc([nH]4)c(-c4c(F)c(F)c(F)c(F)c4F)c4nc(c(-c5c(F)c(F)c(F)c(F)c5F)c5ccc2[nH]5)C=C4)C=C3)cc1
REMARK SMILES IDX 23 1 22 2 1 3 2 4 3 6 4 7 5 8 6 9 21 10 7 12 9 13 8 14 10 15
REMARK SMILES IDX 11 16 14 17 12 18 13 19 15 20 16 21 17 22 20 23 18 24 19 25
REMARK SMILES IDX 24 26 25 27 26 28 27 29 28 30 29 32 30 33 31 34 92 35 32 36
REMARK SMILES IDX 91 37 33 38 34 39 35 40 85 41 36 42 90 43 84 44 86 45 37 46
REMARK SMILES IDX 89 47 83 48 82 49 38 51 70 52 50 53 69 54 51 55 54 56 68 57
REMARK SMILES IDX 87 58 52 59 53 60 67 62 88 63 55 64 39 65 40 66 48 67 41 68
REMARK SMILES IDX 42 69 46 70 49 71 43 72 44 73 47 74 45 75 71 76 72 77 80 78
REMARK SMILES IDX 73 79 74 80 78 81 81 82 75 83 76 84 79 85 77 86 56 87 57 88
REMARK SMILES IDX 65 89 58 90 59 91 63 92 66 93 60 94 61 95 64 96 62 97
REMARK H PARENT 22 5 5 11 27 31 86 50 54 61
REMARK Flexibility Score: inf
ROOT
ATOM      1  C   UNL A   1      35.214  22.682  23.742  1.00  0.00     0.116 C 
ENDROOT
BRANCH   1   2
ATOM      2  N   UNL A   1      34.280  22.329  24.815  1.00  0.00    -0.356 N 
ATOM      3  O   UNL A   1      34.563  24.315  25.947  1.00  0.00    -0.275 OA
ATOM      4  C   UNL A   1      33.977  23.241  25.836  1.00  0.00     0.225 C 
ATOM      5  H   UNL A   1      33.859  21.440  24.819  1.00  0.00     0.163 HD
BRANCH   4   6
ATOM      6  C   UNL A   1      32.857  22.828  26.798  1.00  0.00     0.161 C 
BRANCH   6   7
ATOM      7  C   UNL A   1      31.610  23.762  26.860  1.00  0.00     0.272 C 
BRANCH   7   8
ATOM      8  N   UNL A   1      31.376  24.632  25.686  1.00  0.00    -0.334 N 
ATOM      9  C   UNL A   1      30.727  23.948  24.553  1.00  0.00     0.262 C 
ATOM     10  C   UNL A   1      30.688  25.885  26.034  1.00  0.00     0.273 C 
ATOM     11  H   UNL A   1      32.311  24.881  25.361  1.00  0.00     0.348 HD
ATOM     12  C   UNL A   1      30.480  24.864  23.338  1.00  0.00     0.062 C 
ATOM     13  C   UNL A   1      30.569  26.854  24.845  1.00  0.00     0.111 C 
ATOM     14  C   UNL A   1      29.770  26.154  23.736  1.00  0.00     0.023 C 
BRANCH  13  15
ATOM     15  C   UNL A   1      31.823  27.482  24.231  1.00  0.00     0.117 A 
ATOM     16  N   UNL A   1      31.799  27.996  23.014  1.00  0.00    -0.241 NA
ATOM     17  N   UNL A   1      33.130  27.520  24.682  1.00  0.00    -0.328 N 
ATOM     18  C   UNL A   1      33.079  28.263  22.636  1.00  0.00     0.131 A 
ATOM     19  C   UNL A   1      33.932  27.969  23.657  1.00  0.00     0.108 A 
BRANCH  17  20
ATOM     20  C   UNL A   1      33.592  27.547  26.043  1.00  0.00     0.180 C 
BRANCH  20  21
ATOM     21  C   UNL A   1      33.912  28.886  26.605  1.00  0.00     0.071 A 
ATOM     22  C   UNL A   1      33.024  29.945  26.689  1.00  0.00     0.092 A 
ATOM     23  N   UNL A   1      35.121  29.104  27.244  1.00  0.00    -0.248 NA
ATOM     24  S   UNL A   1      33.715  31.233  27.580  1.00  0.00    -0.130 S 
ATOM     25  C   UNL A   1      35.132  30.296  27.795  1.00  0.00     0.175 A 
ENDBRANCH  20  21
ENDBRANCH  17  20
ENDBRANCH  13  15
ENDBRANCH   7   8
ENDBRANCH   6   7
ENDBRANCH   4   6
ENDBRANCH   1   2
BRANCH   1  26
ATOM     26  C   UNL A   1      36.733  22.443  23.982  1.00  0.00     0.023 C 
BRANCH  26  27
ATOM     27  C   UNL A   1      37.313  21.867  25.307  1.00  0.00     0.023 C 
BRANCH  27  28
ATOM     28  C   UNL A   1      38.383  22.697  26.018  1.00  0.00     0.116 C 
BRANCH  28  29
ATOM     29  N   UNL A   1      39.713  22.084  26.104  1.00  0.00    -0.352 N 
ATOM     30  C   UNL A   1      40.947  22.679  26.375  1.00  0.00     0.251 C 
ATOM     31  H   UNL A   1      39.739  21.112  25.948  1.00  0.00     0.163 HD
ATOM     32  O   UNL A   1      41.977  22.046  26.215  1.00  0.00    -0.269 OA
BRANCH  30  33
ATOM     33  C   UNL A   1      41.017  24.081  26.868  1.00  0.00     0.039 A 
ATOM     34  C   UNL A   1      40.238  25.120  26.330  1.00  0.00     0.014 A 
ATOM     35  C   UNL A   1      41.908  24.376  27.880  1.00  0.00     0.014 A 
ATOM     36  C   UNL A   1      40.326  26.417  26.874  1.00  0.00     0.010 A 
ATOM     37  C   UNL A   1      41.850  25.579  28.526  1.00  0.00     0.010 A 
ATOM     38  C   UNL A   1      41.136  26.642  27.991  1.00  0.00    -0.014 A 
BRANCH  38  39
ATOM     39  C   UNL A   1      41.273  27.936  28.673  1.00  0.00     0.031 A 
ATOM     40  C   UNL A   1      42.418  28.808  28.274  1.00  0.00     0.074 A 
ATOM     41  C   UNL A   1      40.264  28.441  29.428  1.00  0.00     0.049 A 
ATOM     42  N   UNL A   1      43.370  29.265  29.022  1.00  0.00    -0.248 NA
ATOM     43  C   UNL A   1      42.563  29.203  26.873  1.00  0.00     0.031 C 
ATOM     44  C   UNL A   1      38.950  27.851  29.740  1.00  0.00     0.029 A 
ATOM     45  N   UNL A   1      40.151  29.682  29.977  1.00  0.00    -0.354 N 
ATOM     46  C   UNL A   1      44.143  30.108  28.219  1.00  0.00     0.074 A 
ATOM     47  C   UNL A   1      43.679  29.928  26.873  1.00  0.00     0.031 C 
ATOM     48  C   UNL A   1      38.105  28.808  30.174  1.00  0.00     0.029 A 
ATOM     49  C   UNL A   1      38.862  30.028  30.363  1.00  0.00     0.049 A 
ATOM     50  H   UNL A   1      40.921  30.286  30.091  1.00  0.00     0.167 HD
ATOM     51  C   UNL A   1      44.979  31.043  28.748  1.00  0.00     0.037 A 
ATOM     52  C   UNL A   1      38.434  31.235  30.810  1.00  0.00     0.037 A 
ATOM     53  C   UNL A   1      45.185  30.815  30.152  1.00  0.00     0.049 A 
ATOM     54  C   UNL A   1      39.631  31.948  31.322  1.00  0.00     0.074 A 
ATOM     55  C   UNL A   1      45.683  29.755  30.883  1.00  0.00     0.029 A 
ATOM     56  N   UNL A   1      44.467  31.578  31.040  1.00  0.00    -0.354 N 
ATOM     57  N   UNL A   1      40.299  31.561  32.374  1.00  0.00    -0.248 NA
ATOM     58  C   UNL A   1      40.364  32.792  30.389  1.00  0.00     0.031 C 
ATOM     59  C   UNL A   1      44.812  29.654  32.007  1.00  0.00     0.029 A 
ATOM     60  C   UNL A   1      43.900  30.709  31.936  1.00  0.00     0.049 A 
ATOM     61  H   UNL A   1      44.377  32.559  31.035  1.00  0.00     0.167 HD
ATOM     62  C   UNL A   1      41.630  31.717  32.015  1.00  0.00     0.074 A 
ATOM     63  C   UNL A   1      41.607  32.566  30.825  1.00  0.00     0.031 C 
ATOM     64  C   UNL A   1      42.603  30.913  32.536  1.00  0.00     0.037 A 
BRANCH  51  65
ATOM     65  C   UNL A   1      45.361  32.346  28.098  1.00  0.00     0.064 A 
ATOM     66  C   UNL A   1      44.357  33.301  27.838  1.00  0.00     0.173 A 
ATOM     67  C   UNL A   1      46.596  32.562  27.451  1.00  0.00     0.173 A 
ATOM     68  F   UNL A   1      43.144  33.185  28.397  1.00  0.00    -0.203 F 
ATOM     69  C   UNL A   1      44.548  34.340  26.925  1.00  0.00     0.198 A 
ATOM     70  C   UNL A   1      46.800  33.634  26.582  1.00  0.00     0.198 A 
ATOM     71  F   UNL A   1      47.605  31.686  27.540  1.00  0.00    -0.203 F 
ATOM     72  F   UNL A   1      43.524  35.144  26.608  1.00  0.00    -0.200 F 
ATOM     73  C   UNL A   1      45.767  34.501  26.291  1.00  0.00     0.200 A 
ATOM     74  F   UNL A   1      47.981  33.765  25.962  1.00  0.00    -0.200 F 
ATOM     75  F   UNL A   1      45.931  35.454  25.363  1.00  0.00    -0.200 F 
ENDBRANCH  51  65
BRANCH  52  76
ATOM     76  C   UNL A   1      37.118  31.879  30.599  1.00  0.00     0.064 A 
ATOM     77  C   UNL A   1      36.107  31.817  31.571  1.00  0.00     0.173 A 
ATOM     78  C   UNL A   1      36.916  32.796  29.546  1.00  0.00     0.173 A 
ATOM     79  F   UNL A   1      36.238  31.004  32.629  1.00  0.00    -0.203 F 
ATOM     80  C   UNL A   1      34.977  32.641  31.509  1.00  0.00     0.198 A 
ATOM     81  C   UNL A   1      35.785  33.612  29.481  1.00  0.00     0.198 A 
ATOM     82  F   UNL A   1      37.856  32.989  28.610  1.00  0.00    -0.203 F 
ATOM     83  F   UNL A   1      34.064  32.599  32.490  1.00  0.00    -0.200 F 
ATOM     84  C   UNL A   1      34.822  33.544  30.470  1.00  0.00     0.200 A 
ATOM     85  F   UNL A   1      35.668  34.508  28.492  1.00  0.00    -0.200 F 
ATOM     86  F   UNL A   1      33.772  34.377  30.445  1.00  0.00    -0.200 F 
ENDBRANCH  52  76
BRANCH  64  87
ATOM     87  C   UNL A   1      42.238  29.991  33.669  1.00  0.00     0.064 A 
ATOM     88  C   UNL A   1      41.795  28.668  33.498  1.00  0.00     0.173 A 
ATOM     89  C   UNL A   1      42.513  30.407  34.978  1.00  0.00     0.173 A 
ATOM     90  F   UNL A   1      41.610  28.151  32.281  1.00  0.00    -0.203 F 
ATOM     91  C   UNL A   1      41.596  27.819  34.585  1.00  0.00     0.198 A 
ATOM     92  C   UNL A   1      42.348  29.546  36.060  1.00  0.00     0.198 A 
ATOM     93  F   UNL A   1      42.998  31.638  35.204  1.00  0.00    -0.203 F 
ATOM     94  F   UNL A   1      41.165  26.564  34.387  1.00  0.00    -0.200 F 
ATOM     95  C   UNL A   1      41.879  28.257  35.865  1.00  0.00     0.200 A 
ATOM     96  F   UNL A   1      42.673  29.959  37.293  1.00  0.00    -0.200 F 
ATOM     97  F   UNL A   1      41.727  27.430  36.908  1.00  0.00    -0.200 F 
ENDBRANCH  64  87
ENDBRANCH  38  39
ENDBRANCH  30  33
ENDBRANCH  28  29
ENDBRANCH  27  28
ENDBRANCH  26  27
ENDBRANCH   1  26
TORSDOF 16
ENDMDL
MODEL 3
REMARK VINA RESULT:     -11.5      1.388      1.878
REMARK SMILES O=C(CC[N@H+]1CCC[C@H](c2nccn2Cc2cscn2)C1)NCCCCNC(=O)c1ccc(-c2c3nc(c(-c4c(F)c(F)c(F)c(F)c4F)c4ccc([nH]4)c(-c4c(F)c(F)c(F)c(F)c4F)c4nc(c(-c5c(F)c(F)c(F)c(F)c5F)c5ccc2[nH]5)C=C4)C=C3)cc1
REMARK SMILES IDX 23 1 22 2 1 3 2 4 3 6 4 7 5 8 6 9 21 10 7 12 9 13 8 14 10 15
REMARK SMILES IDX 11 16 14 17 12 18 13 19 15 20 16 21 17 22 20 23 18 24 19 25
REMARK SMILES IDX 24 26 25 27 26 28 27 29 28 30 29 32 30 33 31 34 92 35 32 36
REMARK SMILES IDX 91 37 33 38 34 39 35 40 85 41 36 42 90 43 84 44 86 45 37 46
REMARK SMILES IDX 89 47 83 48 82 49 38 51 70 52 50 53 69 54 51 55 54 56 68 57
REMARK SMILES IDX 87 58 52 59 53 60 67 62 88 63 55 64 39 65 40 66 48 67 41 68
REMARK SMILES IDX 42 69 46 70 49 71 43 72 44 73 47 74 45 75 71 76 72 77 80 78
REMARK SMILES IDX 73 79 74 80 78 81 81 82 75 83 76 84 79 85 77 86 56 87 57 88
REMARK SMILES IDX 65 89 58 90 59 91 63 92 66 93 60 94 61 95 64 96 62 97
REMARK H PARENT 22 5 5 11 27 31 86 50 54 61
REMARK Flexibility Score: inf
ROOT
ATOM      1  C   UNL A   1      40.367  22.242  26.727  1.00  0.00     0.116 C 
ENDROOT
BRANCH   1   2
ATOM      2  N   UNL A   1      39.060  22.115  26.075  1.00  0.00    -0.356 N 
ATOM      3  O   UNL A   1      38.369  24.231  26.665  1.00  0.00    -0.275 OA
ATOM      4  C   UNL A   1      38.160  23.189  26.048  1.00  0.00     0.225 C 
ATOM      5  H   UNL A   1      38.811  21.263  25.650  1.00  0.00     0.163 HD
BRANCH   4   6
ATOM      6  C   UNL A   1      36.906  22.997  25.188  1.00  0.00     0.161 C 
BRANCH   6   7
ATOM      7  C   UNL A   1      35.557  23.479  25.802  1.00  0.00     0.272 C 
BRANCH   7   8
ATOM      8  N   UNL A   1      34.657  24.240  24.907  1.00  0.00    -0.334 N 
ATOM      9  C   UNL A   1      34.622  23.737  23.522  1.00  0.00     0.262 C 
ATOM     10  C   UNL A   1      33.304  24.402  25.463  1.00  0.00     0.273 C 
ATOM     11  H   UNL A   1      35.074  25.169  24.854  1.00  0.00     0.348 HD
ATOM     12  C   UNL A   1      33.676  24.530  22.599  1.00  0.00     0.062 C 
ATOM     13  C   UNL A   1      32.407  25.310  24.603  1.00  0.00     0.111 C 
ATOM     14  C   UNL A   1      32.286  24.681  23.208  1.00  0.00     0.023 C 
BRANCH  13  15
ATOM     15  C   UNL A   1      32.736  26.797  24.450  1.00  0.00     0.117 A 
ATOM     16  N   UNL A   1      33.747  27.341  25.105  1.00  0.00    -0.241 NA
ATOM     17  N   UNL A   1      32.057  27.813  23.801  1.00  0.00    -0.328 N 
ATOM     18  C   UNL A   1      33.665  28.693  24.975  1.00  0.00     0.131 A 
ATOM     19  C   UNL A   1      32.615  29.017  24.170  1.00  0.00     0.108 A 
BRANCH  17  20
ATOM     20  C   UNL A   1      31.237  27.713  22.624  1.00  0.00     0.180 C 
BRANCH  20  21
ATOM     21  C   UNL A   1      29.981  28.508  22.625  1.00  0.00     0.071 A 
ATOM     22  C   UNL A   1      29.802  29.712  21.967  1.00  0.00     0.092 A 
ATOM     23  N   UNL A   1      28.825  27.986  23.182  1.00  0.00    -0.248 NA
ATOM     24  S   UNL A   1      28.162  30.197  22.046  1.00  0.00    -0.130 S 
ATOM     25  C   UNL A   1      27.808  28.780  22.940  1.00  0.00     0.175 A 
ENDBRANCH  20  21
ENDBRANCH  17  20
ENDBRANCH  13  15
ENDBRANCH   7   8
ENDBRANCH   6   7
ENDBRANCH   4   6
ENDBRANCH   1   2
BRANCH   1  26
ATOM     26  C   UNL A   1      40.879  21.049  27.587  1.00  0.00     0.023 C 
BRANCH  26  27
ATOM     27  C   UNL A   1      42.030  20.101  27.140  1.00  0.00     0.023 C 
BRANCH  27  28
ATOM     28  C   UNL A   1      42.086  19.723  25.659  1.00  0.00     0.116 C 
BRANCH  28  29
ATOM     29  N   UNL A   1      43.429  19.584  25.086  1.00  0.00    -0.352 N 
ATOM     30  C   UNL A   1      44.390  20.565  24.835  1.00  0.00     0.251 C 
ATOM     31  H   UNL A   1      43.690  18.667  24.843  1.00  0.00     0.163 HD
ATOM     32  O   UNL A   1      45.379  20.294  24.174  1.00  0.00    -0.269 OA
BRANCH  30  33
ATOM     33  C   UNL A   1      44.224  21.942  25.376  1.00  0.00     0.039 A 
ATOM     34  C   UNL A   1      43.422  22.915  24.756  1.00  0.00     0.014 A 
ATOM     35  C   UNL A   1      44.913  22.282  26.522  1.00  0.00     0.014 A 
ATOM     36  C   UNL A   1      43.278  24.185  25.346  1.00  0.00     0.010 A 
ATOM     37  C   UNL A   1      44.621  23.439  27.188  1.00  0.00     0.010 A 
ATOM     38  C   UNL A   1      43.879  24.443  26.582  1.00  0.00    -0.014 A 
BRANCH  38  39
ATOM     39  C   UNL A   1      43.762  25.710  27.317  1.00  0.00     0.031 A 
ATOM     40  C   UNL A   1      44.714  26.805  26.959  1.00  0.00     0.074 A 
ATOM     41  C   UNL A   1      42.677  25.978  28.086  1.00  0.00     0.049 A 
ATOM     42  N   UNL A   1      45.561  27.407  27.730  1.00  0.00    -0.248 NA
ATOM     43  C   UNL A   1      44.775  27.277  25.576  1.00  0.00     0.031 C 
ATOM     44  C   UNL A   1      41.504  25.130  28.367  1.00  0.00     0.029 A 
ATOM     45  N   UNL A   1      42.325  27.149  28.685  1.00  0.00    -0.354 N 
ATOM     46  C   UNL A   1      46.152  28.418  26.965  1.00  0.00     0.074 A 
ATOM     47  C   UNL A   1      45.728  28.205  25.611  1.00  0.00     0.031 C 
ATOM     48  C   UNL A   1      40.490  25.885  28.835  1.00  0.00     0.029 A 
ATOM     49  C   UNL A   1      40.994  27.221  29.077  1.00  0.00     0.049 A 
ATOM     50  H   UNL A   1      42.962  27.887  28.827  1.00  0.00     0.167 HD
ATOM     51  C   UNL A   1      46.790  29.475  27.536  1.00  0.00     0.037 A 
ATOM     52  C   UNL A   1      40.340  28.301  29.570  1.00  0.00     0.037 A 
ATOM     53  C   UNL A   1      47.042  29.235  28.931  1.00  0.00     0.049 A 
ATOM     54  C   UNL A   1      41.376  29.213  30.117  1.00  0.00     0.074 A 
ATOM     55  C   UNL A   1      47.739  28.264  29.621  1.00  0.00     0.029 A 
ATOM     56  N   UNL A   1      46.191  29.806  29.846  1.00  0.00    -0.354 N 
ATOM     57  N   UNL A   1      42.110  28.922  31.156  1.00  0.00    -0.248 NA
ATOM     58  C   UNL A   1      41.928  30.221  29.223  1.00  0.00     0.031 C 
ATOM     59  C   UNL A   1      46.908  27.949  30.735  1.00  0.00     0.029 A 
ATOM     60  C   UNL A   1      45.806  28.807  30.703  1.00  0.00     0.049 A 
ATOM     61  H   UNL A   1      45.911  30.750  29.879  1.00  0.00     0.167 HD
ATOM     62  C   UNL A   1      43.383  29.349  30.811  1.00  0.00     0.074 A 
ATOM     63  C   UNL A   1      43.192  30.225  29.655  1.00  0.00     0.031 C 
ATOM     64  C   UNL A   1      44.497  28.729  31.304  1.00  0.00     0.037 A 
BRANCH  51  65
ATOM     65  C   UNL A   1      46.909  30.853  26.942  1.00  0.00     0.064 A 
ATOM     66  C   UNL A   1      48.168  31.487  26.932  1.00  0.00     0.173 A 
ATOM     67  C   UNL A   1      45.802  31.685  26.672  1.00  0.00     0.173 A 
ATOM     68  F   UNL A   1      49.286  30.790  27.184  1.00  0.00    -0.203 F 
ATOM     69  C   UNL A   1      48.297  32.867  26.757  1.00  0.00     0.198 A 
ATOM     70  C   UNL A   1      45.940  33.053  26.443  1.00  0.00     0.198 A 
ATOM     71  F   UNL A   1      44.544  31.231  26.738  1.00  0.00    -0.203 F 
ATOM     72  F   UNL A   1      49.499  33.445  26.888  1.00  0.00    -0.200 F 
ATOM     73  C   UNL A   1      47.182  33.650  26.521  1.00  0.00     0.200 A 
ATOM     74  F   UNL A   1      44.848  33.801  26.233  1.00  0.00    -0.200 F 
ATOM     75  F   UNL A   1      47.295  34.982  26.423  1.00  0.00    -0.200 F 
ENDBRANCH  51  65
BRANCH  52  76
ATOM     76  C   UNL A   1      38.923  28.684  29.379  1.00  0.00     0.064 A 
ATOM     77  C   UNL A   1      38.060  28.872  30.470  1.00  0.00     0.173 A 
ATOM     78  C   UNL A   1      38.452  29.133  28.127  1.00  0.00     0.173 A 
ATOM     79  F   UNL A   1      38.445  28.515  31.704  1.00  0.00    -0.203 F 
ATOM     80  C   UNL A   1      36.815  29.495  30.323  1.00  0.00     0.198 A 
ATOM     81  C   UNL A   1      37.207  29.747  27.980  1.00  0.00     0.198 A 
ATOM     82  F   UNL A   1      39.230  29.073  27.036  1.00  0.00    -0.203 F 
ATOM     83  F   UNL A   1      36.046  29.715  31.400  1.00  0.00    -0.200 F 
ATOM     84  C   UNL A   1      36.394  29.940  29.081  1.00  0.00     0.200 A 
ATOM     85  F   UNL A   1      36.830  30.208  26.779  1.00  0.00    -0.200 F 
ATOM     86  F   UNL A   1      35.230  30.593  28.952  1.00  0.00    -0.200 F 
ENDBRANCH  52  76
BRANCH  64  87
ATOM     87  C   UNL A   1      44.322  27.709  32.396  1.00  0.00     0.064 A 
ATOM     88  C   UNL A   1      44.215  26.326  32.174  1.00  0.00     0.173 A 
ATOM     89  C   UNL A   1      44.442  28.133  33.726  1.00  0.00     0.173 A 
ATOM     90  F   UNL A   1      44.202  25.821  30.937  1.00  0.00    -0.203 F 
ATOM     91  C   UNL A   1      44.185  25.416  33.229  1.00  0.00     0.198 A 
ATOM     92  C   UNL A   1      44.448  27.220  34.778  1.00  0.00     0.198 A 
ATOM     93  F   UNL A   1      44.610  29.436  34.003  1.00  0.00    -0.203 F 
ATOM     94  F   UNL A   1      44.074  24.102  32.981  1.00  0.00    -0.200 F 
ATOM     95  C   UNL A   1      44.309  25.865  34.531  1.00  0.00     0.200 A 
ATOM     96  F   UNL A   1      44.620  27.656  36.034  1.00  0.00    -0.200 F 
ATOM     97  F   UNL A   1      44.321  24.990  35.546  1.00  0.00    -0.200 F 
ENDBRANCH  64  87
ENDBRANCH  38  39
ENDBRANCH  30  33
ENDBRANCH  28  29
ENDBRANCH  27  28
ENDBRANCH  26  27
ENDBRANCH   1  26
TORSDOF 16
ENDMDL
