MODEL 1
REMARK VINA RESULT:     -14.0      0.000      0.000
REMARK SMILES O=C(CC1(C(=O)NCCCCNC(=O)c2ccc(-c3c4nc(c(-c5c(F)c(F)c(F)c(F)c5F)c5ccc([nH]5)c(-c5c(F)c(F)c(F)c(F)c5F)c5nc(c(-c6c(F)c(F)c(F)c(F)c6F)c6ccc3[nH]6)C=C5)C=C4)cc2)CCCCC1)Nc1ccc(N2CCOC2=O)cc1
REMARK SMILES IDX 8 1 7 2 5 3 6 4 4 6 78 7 82 8 79 9 81 10 80 11 3 12 2 13
REMARK SMILES IDX 1 14 83 15 84 17 85 18 95 19 86 20 94 21 87 22 88 23 89 24
REMARK SMILES IDX 92 25 90 26 91 27 93 28 9 29 10 30 11 31 12 32 13 33 14 35
REMARK SMILES IDX 15 36 16 37 77 38 17 39 76 40 18 41 19 42 20 43 70 44 21 45
REMARK SMILES IDX 75 46 69 47 71 48 22 49 74 50 68 51 67 52 23 54 55 55 35 56
REMARK SMILES IDX 54 57 36 58 39 59 53 60 72 61 37 62 38 63 52 65 73 66 40 67
REMARK SMILES IDX 24 68 25 69 33 70 26 71 27 72 31 73 34 74 28 75 29 76 32 77
REMARK SMILES IDX 30 78 56 79 57 80 65 81 58 82 59 83 63 84 66 85 60 86 61 87
REMARK SMILES IDX 64 88 62 89 41 90 42 91 50 92 43 93 44 94 48 95 51 96 45 97
REMARK SMILES IDX 46 98 49 99 47 100
REMARK H PARENT 7 5 83 16 12 34 71 53 39 64
REMARK Flexibility Score: inf
ROOT
ATOM      1  C   UNL A   1      33.098  29.399  25.009  1.00  0.00     0.116 C 
ENDROOT
BRANCH   1   2
ATOM      2  N   UNL A   1      33.576  29.015  23.713  1.00  0.00    -0.356 N 
ATOM      3  C   UNL A   1      33.574  27.843  23.035  1.00  0.00     0.226 C 
ATOM      4  O   UNL A   1      34.025  27.961  21.890  1.00  0.00    -0.274 OA
ATOM      5  H   UNL A   1      33.990  29.755  23.213  1.00  0.00     0.163 HD
BRANCH   3   6
ATOM      6  C   UNL A   1      33.073  26.456  23.596  1.00  0.00     0.058 C 
ATOM      7  C   UNL A   1      31.518  26.432  23.685  1.00  0.00     0.017 C 
ATOM      8  C   UNL A   1      33.766  26.101  24.939  1.00  0.00     0.017 C 
ATOM      9  C   UNL A   1      30.830  26.705  25.028  1.00  0.00     0.001 C 
ATOM     10  C   UNL A   1      33.113  26.537  26.237  1.00  0.00     0.001 C 
ATOM     11  C   UNL A   1      31.608  26.327  26.284  1.00  0.00     0.000 C 
BRANCH   6  12
ATOM     12  C   UNL A   1      33.641  25.369  22.557  1.00  0.00     0.117 C 
BRANCH  12  13
ATOM     13  C   UNL A   1      33.981  23.972  23.048  1.00  0.00     0.225 C 
ATOM     14  O   UNL A   1      35.144  23.579  23.074  1.00  0.00    -0.275 OA
ATOM     15  N   UNL A   1      32.875  23.218  23.397  1.00  0.00    -0.326 N 
ATOM     16  H   UNL A   1      31.996  23.659  23.423  1.00  0.00     0.169 HD
BRANCH  15  17
ATOM     17  C   UNL A   1      32.951  21.854  23.719  1.00  0.00     0.041 A 
ATOM     18  C   UNL A   1      32.160  20.968  22.984  1.00  0.00     0.028 A 
ATOM     19  C   UNL A   1      33.791  21.369  24.718  1.00  0.00     0.028 A 
ATOM     20  C   UNL A   1      32.262  19.592  23.203  1.00  0.00     0.028 A 
ATOM     21  C   UNL A   1      33.808  20.004  25.010  1.00  0.00     0.028 A 
ATOM     22  C   UNL A   1      33.062  19.105  24.241  1.00  0.00     0.047 A 
BRANCH  22  23
ATOM     23  N   UNL A   1      33.129  17.728  24.506  1.00  0.00    -0.274 N 
ATOM     24  C   UNL A   1      32.755  17.136  25.748  1.00  0.00     0.171 C 
ATOM     25  C   UNL A   1      33.641  16.773  23.652  1.00  0.00     0.414 C 
ATOM     26  C   UNL A   1      32.719  15.668  25.397  1.00  0.00     0.257 C 
ATOM     27  O   UNL A   1      33.549  15.539  24.241  1.00  0.00    -0.447 OA
ATOM     28  O   UNL A   1      34.165  16.943  22.559  1.00  0.00    -0.224 OA
ENDBRANCH  22  23
ENDBRANCH  15  17
ENDBRANCH  12  13
ENDBRANCH   6  12
ENDBRANCH   3   6
ENDBRANCH   1   2
BRANCH   1  29
ATOM     29  C   UNL A   1      31.695  29.989  24.985  1.00  0.00     0.023 C 
BRANCH  29  30
ATOM     30  C   UNL A   1      31.423  30.989  26.094  1.00  0.00     0.023 C 
BRANCH  30  31
ATOM     31  C   UNL A   1      32.649  31.379  26.907  1.00  0.00     0.116 C 
BRANCH  31  32
ATOM     32  N   UNL A   1      32.720  32.796  27.249  1.00  0.00    -0.352 N 
ATOM     33  C   UNL A   1      33.758  33.455  27.873  1.00  0.00     0.251 C 
ATOM     34  H   UNL A   1      31.939  33.343  27.005  1.00  0.00     0.163 HD
ATOM     35  O   UNL A   1      33.675  34.636  28.181  1.00  0.00    -0.269 OA
BRANCH  33  36
ATOM     36  C   UNL A   1      34.959  32.668  28.205  1.00  0.00     0.039 A 
ATOM     37  C   UNL A   1      36.197  33.309  28.253  1.00  0.00     0.014 A 
ATOM     38  C   UNL A   1      34.812  31.351  28.645  1.00  0.00     0.014 A 
ATOM     39  C   UNL A   1      37.280  32.650  28.837  1.00  0.00     0.010 A 
ATOM     40  C   UNL A   1      35.859  30.745  29.323  1.00  0.00     0.010 A 
ATOM     41  C   UNL A   1      37.104  31.388  29.427  1.00  0.00    -0.014 A 
BRANCH  41  42
ATOM     42  C   UNL A   1      38.206  30.706  30.153  1.00  0.00     0.031 A 
ATOM     43  C   UNL A   1      38.466  31.054  31.592  1.00  0.00     0.074 A 
ATOM     44  C   UNL A   1      39.016  29.846  29.504  1.00  0.00     0.049 A 
ATOM     45  N   UNL A   1      39.433  30.658  32.379  1.00  0.00    -0.248 NA
ATOM     46  C   UNL A   1      37.532  32.002  32.221  1.00  0.00     0.031 C 
ATOM     47  C   UNL A   1      38.899  29.466  28.096  1.00  0.00     0.029 A 
ATOM     48  N   UNL A   1      40.111  29.142  29.945  1.00  0.00    -0.354 N 
ATOM     49  C   UNL A   1      39.235  31.325  33.580  1.00  0.00     0.074 A 
ATOM     50  C   UNL A   1      38.100  32.201  33.400  1.00  0.00     0.031 C 
ATOM     51  C   UNL A   1      39.863  28.581  27.796  1.00  0.00     0.029 A 
ATOM     52  C   UNL A   1      40.697  28.365  28.974  1.00  0.00     0.049 A 
ATOM     53  H   UNL A   1      40.444  29.190  30.870  1.00  0.00     0.167 HD
ATOM     54  C   UNL A   1      39.918  31.194  34.741  1.00  0.00     0.037 A 
ATOM     55  C   UNL A   1      41.790  27.580  29.028  1.00  0.00     0.037 A 
ATOM     56  C   UNL A   1      41.029  30.299  34.923  1.00  0.00     0.049 A 
ATOM     57  C   UNL A   1      42.546  27.467  30.327  1.00  0.00     0.074 A 
ATOM     58  C   UNL A   1      41.750  30.045  36.075  1.00  0.00     0.029 A 
ATOM     59  N   UNL A   1      41.583  29.516  33.919  1.00  0.00    -0.354 N 
ATOM     60  N   UNL A   1      42.304  28.044  31.478  1.00  0.00    -0.248 NA
ATOM     61  C   UNL A   1      43.727  26.590  30.333  1.00  0.00     0.031 C 
ATOM     62  C   UNL A   1      42.780  29.155  35.756  1.00  0.00     0.029 A 
ATOM     63  C   UNL A   1      42.658  28.801  34.421  1.00  0.00     0.049 A 
ATOM     64  H   UNL A   1      41.260  29.475  32.991  1.00  0.00     0.167 HD
ATOM     65  C   UNL A   1      43.275  27.576  32.353  1.00  0.00     0.074 A 
ATOM     66  C   UNL A   1      44.106  26.658  31.602  1.00  0.00     0.031 C 
ATOM     67  C   UNL A   1      43.463  27.878  33.661  1.00  0.00     0.037 A 
BRANCH  54  68
ATOM     68  C   UNL A   1      39.482  32.039  35.903  1.00  0.00     0.064 A 
ATOM     69  C   UNL A   1      40.061  33.290  36.165  1.00  0.00     0.173 A 
ATOM     70  C   UNL A   1      38.450  31.606  36.749  1.00  0.00     0.173 A 
ATOM     71  F   UNL A   1      41.061  33.747  35.396  1.00  0.00    -0.203 F 
ATOM     72  C   UNL A   1      39.649  34.059  37.251  1.00  0.00     0.198 A 
ATOM     73  C   UNL A   1      38.014  32.393  37.811  1.00  0.00     0.198 A 
ATOM     74  F   UNL A   1      37.859  30.419  36.543  1.00  0.00    -0.203 F 
ATOM     75  F   UNL A   1      40.259  35.223  37.515  1.00  0.00    -0.200 F 
ATOM     76  C   UNL A   1      38.620  33.614  38.066  1.00  0.00     0.200 A 
ATOM     77  F   UNL A   1      37.010  31.969  38.589  1.00  0.00    -0.200 F 
ATOM     78  F   UNL A   1      38.218  34.359  39.105  1.00  0.00    -0.200 F 
ENDBRANCH  54  68
BRANCH  55  79
ATOM     79  C   UNL A   1      42.231  26.827  27.822  1.00  0.00     0.064 A 
ATOM     80  C   UNL A   1      41.732  25.545  27.548  1.00  0.00     0.173 A 
ATOM     81  C   UNL A   1      43.170  27.363  26.927  1.00  0.00     0.173 A 
ATOM     82  F   UNL A   1      40.848  24.979  28.384  1.00  0.00    -0.203 F 
ATOM     83  C   UNL A   1      42.172  24.819  26.443  1.00  0.00     0.198 A 
ATOM     84  C   UNL A   1      43.584  26.649  25.804  1.00  0.00     0.198 A 
ATOM     85  F   UNL A   1      43.675  28.587  27.136  1.00  0.00    -0.203 F 
ATOM     86  F   UNL A   1      41.717  23.576  26.237  1.00  0.00    -0.200 F 
ATOM     87  C   UNL A   1      43.093  25.374  25.569  1.00  0.00     0.200 A 
ATOM     88  F   UNL A   1      44.461  27.197  24.951  1.00  0.00    -0.200 F 
ATOM     89  F   UNL A   1      43.513  24.677  24.504  1.00  0.00    -0.200 F 
ENDBRANCH  55  79
BRANCH  67  90
ATOM     90  C   UNL A   1      44.578  27.178  34.385  1.00  0.00     0.064 A 
ATOM     91  C   UNL A   1      45.860  27.737  34.489  1.00  0.00     0.173 A 
ATOM     92  C   UNL A   1      44.338  25.959  35.039  1.00  0.00     0.173 A 
ATOM     93  F   UNL A   1      46.145  28.893  33.871  1.00  0.00    -0.203 F 
ATOM     94  C   UNL A   1      46.865  27.092  35.205  1.00  0.00     0.198 A 
ATOM     95  C   UNL A   1      45.335  25.336  35.783  1.00  0.00     0.198 A 
ATOM     96  F   UNL A   1      43.126  25.386  34.978  1.00  0.00    -0.203 F 
ATOM     97  F   UNL A   1      48.095  27.623  35.254  1.00  0.00    -0.200 F 
ATOM     98  C   UNL A   1      46.599  25.899  35.860  1.00  0.00     0.200 A 
ATOM     99  F   UNL A   1      45.069  24.193  36.431  1.00  0.00    -0.200 F 
ATOM    100  F   UNL A   1      47.563  25.289  36.562  1.00  0.00    -0.200 F 
ENDBRANCH  67  90
ENDBRANCH  41  42
ENDBRANCH  33  36
ENDBRANCH  31  32
ENDBRANCH  30  31
ENDBRANCH  29  30
ENDBRANCH   1  29
TORSDOF 15
ENDMDL
MODEL 2
REMARK VINA RESULT:     -13.9      1.437      7.359
REMARK SMILES O=C(CC1(C(=O)NCCCCNC(=O)c2ccc(-c3c4nc(c(-c5c(F)c(F)c(F)c(F)c5F)c5ccc([nH]5)c(-c5c(F)c(F)c(F)c(F)c5F)c5nc(c(-c6c(F)c(F)c(F)c(F)c6F)c6ccc3[nH]6)C=C5)C=C4)cc2)CCCCC1)Nc1ccc(N2CCOC2=O)cc1
REMARK SMILES IDX 8 1 7 2 5 3 6 4 4 6 78 7 82 8 79 9 81 10 80 11 3 12 2 13
REMARK SMILES IDX 1 14 83 15 84 17 85 18 95 19 86 20 94 21 87 22 88 23 89 24
REMARK SMILES IDX 92 25 90 26 91 27 93 28 9 29 10 30 11 31 12 32 13 33 14 35
REMARK SMILES IDX 15 36 16 37 77 38 17 39 76 40 18 41 19 42 20 43 70 44 21 45
REMARK SMILES IDX 75 46 69 47 71 48 22 49 74 50 68 51 67 52 23 54 55 55 35 56
REMARK SMILES IDX 54 57 36 58 39 59 53 60 72 61 37 62 38 63 52 65 73 66 40 67
REMARK SMILES IDX 24 68 25 69 33 70 26 71 27 72 31 73 34 74 28 75 29 76 32 77
REMARK SMILES IDX 30 78 56 79 57 80 65 81 58 82 59 83 63 84 66 85 60 86 61 87
REMARK SMILES IDX 64 88 62 89 41 90 42 91 50 92 43 93 44 94 48 95 51 96 45 97
REMARK SMILES IDX 46 98 49 99 47 100
REMARK H PARENT 7 5 83 16 12 34 71 53 39 64
REMARK Flexibility Score: inf
ROOT
ATOM      1  C   UNL A   1      32.311  29.690  24.967  1.00  0.00     0.116 C 
ENDROOT
BRANCH   1   2
ATOM      2  N   UNL A   1      33.218  29.331  23.917  1.00  0.00    -0.356 N 
ATOM      3  C   UNL A   1      33.533  28.154  23.325  1.00  0.00     0.226 C 
ATOM      4  O   UNL A   1      34.326  28.296  22.387  1.00  0.00    -0.274 OA
ATOM      5  H   UNL A   1      33.714  30.098  23.549  1.00  0.00     0.163 HD
BRANCH   3   6
ATOM      6  C   UNL A   1      32.986  26.737  23.748  1.00  0.00     0.058 C 
ATOM      7  C   UNL A   1      31.431  26.759  23.850  1.00  0.00     0.017 C 
ATOM      8  C   UNL A   1      33.674  26.223  25.041  1.00  0.00     0.017 C 
ATOM      9  C   UNL A   1      30.762  26.919  25.221  1.00  0.00     0.001 C 
ATOM     10  C   UNL A   1      33.046  26.548  26.384  1.00  0.00     0.001 C 
ATOM     11  C   UNL A   1      31.534  26.388  26.424  1.00  0.00     0.000 C 
BRANCH   6  12
ATOM     12  C   UNL A   1      33.506  25.741  22.599  1.00  0.00     0.117 C 
BRANCH  12  13
ATOM     13  C   UNL A   1      33.841  24.301  22.952  1.00  0.00     0.225 C 
ATOM     14  O   UNL A   1      34.978  23.863  22.800  1.00  0.00    -0.275 OA
ATOM     15  N   UNL A   1      32.755  23.568  23.396  1.00  0.00    -0.326 N 
ATOM     16  H   UNL A   1      31.907  24.040  23.564  1.00  0.00     0.169 HD
BRANCH  15  17
ATOM     17  C   UNL A   1      32.806  22.184  23.618  1.00  0.00     0.041 A 
ATOM     18  C   UNL A   1      33.511  21.730  24.736  1.00  0.00     0.028 A 
ATOM     19  C   UNL A   1      32.169  21.271  22.782  1.00  0.00     0.028 A 
ATOM     20  C   UNL A   1      33.519  20.370  25.053  1.00  0.00     0.028 A 
ATOM     21  C   UNL A   1      32.273  19.902  23.041  1.00  0.00     0.028 A 
ATOM     22  C   UNL A   1      32.928  19.445  24.188  1.00  0.00     0.047 A 
BRANCH  22  23
ATOM     23  N   UNL A   1      32.979  18.070  24.468  1.00  0.00    -0.274 N 
ATOM     24  C   UNL A   1      32.716  17.507  25.751  1.00  0.00     0.171 C 
ATOM     25  C   UNL A   1      33.370  17.087  23.582  1.00  0.00     0.414 C 
ATOM     26  C   UNL A   1      32.598  16.037  25.430  1.00  0.00     0.257 C 
ATOM     27  O   UNL A   1      33.300  15.865  24.197  1.00  0.00    -0.447 OA
ATOM     28  O   UNL A   1      33.783  17.225  22.438  1.00  0.00    -0.224 OA
ENDBRANCH  22  23
ENDBRANCH  15  17
ENDBRANCH  12  13
ENDBRANCH   6  12
ENDBRANCH   3   6
ENDBRANCH   1   2
BRANCH   1  29
ATOM     29  C   UNL A   1      33.009  30.070  26.265  1.00  0.00     0.023 C 
BRANCH  29  30
ATOM     30  C   UNL A   1      32.358  31.223  27.006  1.00  0.00     0.023 C 
BRANCH  30  31
ATOM     31  C   UNL A   1      33.318  32.330  27.419  1.00  0.00     0.116 C 
BRANCH  31  32
ATOM     32  N   UNL A   1      32.693  33.637  27.592  1.00  0.00    -0.352 N 
ATOM     33  C   UNL A   1      33.049  34.623  28.488  1.00  0.00     0.251 C 
ATOM     34  H   UNL A   1      31.930  33.838  27.002  1.00  0.00     0.163 HD
ATOM     35  O   UNL A   1      32.401  35.654  28.598  1.00  0.00    -0.269 OA
BRANCH  33  36
ATOM     36  C   UNL A   1      34.218  34.367  29.349  1.00  0.00     0.039 A 
ATOM     37  C   UNL A   1      34.018  33.816  30.615  1.00  0.00     0.014 A 
ATOM     38  C   UNL A   1      35.501  34.504  28.816  1.00  0.00     0.014 A 
ATOM     39  C   UNL A   1      35.114  33.311  31.316  1.00  0.00     0.010 A 
ATOM     40  C   UNL A   1      36.568  33.900  29.464  1.00  0.00     0.010 A 
ATOM     41  C   UNL A   1      36.387  33.297  30.721  1.00  0.00    -0.014 A 
BRANCH  41  42
ATOM     42  C   UNL A   1      37.554  32.668  31.390  1.00  0.00     0.031 A 
ATOM     43  C   UNL A   1      38.262  31.526  30.717  1.00  0.00     0.074 A 
ATOM     44  C   UNL A   1      37.922  33.063  32.625  1.00  0.00     0.049 A 
ATOM     45  N   UNL A   1      39.231  30.770  31.168  1.00  0.00    -0.248 NA
ATOM     46  C   UNL A   1      37.794  31.160  29.370  1.00  0.00     0.031 C 
ATOM     47  C   UNL A   1      37.282  34.124  33.404  1.00  0.00     0.029 A 
ATOM     48  N   UNL A   1      38.921  32.606  33.451  1.00  0.00    -0.354 N 
ATOM     49  C   UNL A   1      39.468  29.833  30.171  1.00  0.00     0.074 A 
ATOM     50  C   UNL A   1      38.500  30.069  29.124  1.00  0.00     0.031 C 
ATOM     51  C   UNL A   1      37.919  34.255  34.579  1.00  0.00     0.029 A 
ATOM     52  C   UNL A   1      38.981  33.257  34.660  1.00  0.00     0.049 A 
ATOM     53  H   UNL A   1      39.536  31.879  33.199  1.00  0.00     0.167 HD
ATOM     54  C   UNL A   1      40.430  28.882  30.118  1.00  0.00     0.037 A 
ATOM     55  C   UNL A   1      39.792  33.059  35.717  1.00  0.00     0.037 A 
ATOM     56  C   UNL A   1      41.408  28.671  31.151  1.00  0.00     0.049 A 
ATOM     57  C   UNL A   1      40.841  31.980  35.643  1.00  0.00     0.074 A 
ATOM     58  C   UNL A   1      42.462  27.777  31.168  1.00  0.00     0.029 A 
ATOM     59  N   UNL A   1      41.446  29.362  32.354  1.00  0.00    -0.354 N 
ATOM     60  N   UNL A   1      41.106  31.150  34.664  1.00  0.00    -0.248 NA
ATOM     61  C   UNL A   1      41.706  31.812  36.820  1.00  0.00     0.031 C 
ATOM     62  C   UNL A   1      43.102  27.882  32.406  1.00  0.00     0.029 A 
ATOM     63  C   UNL A   1      42.490  28.890  33.134  1.00  0.00     0.049 A 
ATOM     64  H   UNL A   1      40.825  30.080  32.614  1.00  0.00     0.167 HD
ATOM     65  C   UNL A   1      42.186  30.388  35.089  1.00  0.00     0.074 A 
ATOM     66  C   UNL A   1      42.534  30.861  36.413  1.00  0.00     0.031 C 
ATOM     67  C   UNL A   1      42.832  29.386  34.443  1.00  0.00     0.037 A 
BRANCH  54  68
ATOM     68  C   UNL A   1      40.467  27.999  28.905  1.00  0.00     0.064 A 
ATOM     69  C   UNL A   1      39.745  26.797  28.843  1.00  0.00     0.173 A 
ATOM     70  C   UNL A   1      41.212  28.373  27.776  1.00  0.00     0.173 A 
ATOM     71  F   UNL A   1      39.027  26.384  29.899  1.00  0.00    -0.203 F 
ATOM     72  C   UNL A   1      39.795  25.987  27.712  1.00  0.00     0.198 A 
ATOM     73  C   UNL A   1      41.230  27.579  26.633  1.00  0.00     0.198 A 
ATOM     74  F   UNL A   1      41.919  29.513  27.779  1.00  0.00    -0.203 F 
ATOM     75  F   UNL A   1      39.145  24.814  27.700  1.00  0.00    -0.200 F 
ATOM     76  C   UNL A   1      40.530  26.383  26.605  1.00  0.00     0.200 A 
ATOM     77  F   UNL A   1      41.928  27.971  25.559  1.00  0.00    -0.200 F 
ATOM     78  F   UNL A   1      40.570  25.606  25.513  1.00  0.00    -0.200 F 
ENDBRANCH  54  68
BRANCH  55  79
ATOM     79  C   UNL A   1      39.658  33.908  36.933  1.00  0.00     0.064 A 
ATOM     80  C   UNL A   1      38.884  33.490  38.025  1.00  0.00     0.173 A 
ATOM     81  C   UNL A   1      40.288  35.159  37.025  1.00  0.00     0.173 A 
ATOM     82  F   UNL A   1      38.245  32.311  37.980  1.00  0.00    -0.203 F 
ATOM     83  C   UNL A   1      38.723  34.299  39.148  1.00  0.00     0.198 A 
ATOM     84  C   UNL A   1      40.153  35.953  38.162  1.00  0.00     0.198 A 
ATOM     85  F   UNL A   1      41.046  35.606  36.013  1.00  0.00    -0.203 F 
ATOM     86  F   UNL A   1      37.933  33.896  40.153  1.00  0.00    -0.200 F 
ATOM     87  C   UNL A   1      39.362  35.527  39.219  1.00  0.00     0.200 A 
ATOM     88  F   UNL A   1      40.787  37.131  38.233  1.00  0.00    -0.200 F 
ATOM     89  F   UNL A   1      39.210  36.303  40.300  1.00  0.00    -0.200 F 
ENDBRANCH  55  79
BRANCH  67  90
ATOM     90  C   UNL A   1      44.013  28.762  35.130  1.00  0.00     0.064 A 
ATOM     91  C   UNL A   1      43.875  27.656  35.981  1.00  0.00     0.173 A 
ATOM     92  C   UNL A   1      45.309  29.239  34.877  1.00  0.00     0.173 A 
ATOM     93  F   UNL A   1      42.658  27.170  36.266  1.00  0.00    -0.203 F 
ATOM     94  C   UNL A   1      44.990  27.064  36.570  1.00  0.00     0.198 A 
ATOM     95  C   UNL A   1      46.422  28.623  35.439  1.00  0.00     0.198 A 
ATOM     96  F   UNL A   1      45.496  30.289  34.063  1.00  0.00    -0.203 F 
ATOM     97  F   UNL A   1      44.832  26.036  37.415  1.00  0.00    -0.200 F 
ATOM     98  C   UNL A   1      46.262  27.540  36.290  1.00  0.00     0.200 A 
ATOM     99  F   UNL A   1      47.652  29.074  35.151  1.00  0.00    -0.200 F 
ATOM    100  F   UNL A   1      47.334  26.959  36.844  1.00  0.00    -0.200 F 
ENDBRANCH  67  90
ENDBRANCH  41  42
ENDBRANCH  33  36
ENDBRANCH  31  32
ENDBRANCH  30  31
ENDBRANCH  29  30
ENDBRANCH   1  29
TORSDOF 15
ENDMDL
MODEL 3
REMARK VINA RESULT:     -13.9      1.440      7.256
REMARK SMILES O=C(CC1(C(=O)NCCCCNC(=O)c2ccc(-c3c4nc(c(-c5c(F)c(F)c(F)c(F)c5F)c5ccc([nH]5)c(-c5c(F)c(F)c(F)c(F)c5F)c5nc(c(-c6c(F)c(F)c(F)c(F)c6F)c6ccc3[nH]6)C=C5)C=C4)cc2)CCCCC1)Nc1ccc(N2CCOC2=O)cc1
REMARK SMILES IDX 8 1 7 2 5 3 6 4 4 6 78 7 82 8 79 9 81 10 80 11 3 12 2 13
REMARK SMILES IDX 1 14 83 15 84 17 85 18 95 19 86 20 94 21 87 22 88 23 89 24
REMARK SMILES IDX 92 25 90 26 91 27 93 28 9 29 10 30 11 31 12 32 13 33 14 35
REMARK SMILES IDX 15 36 16 37 77 38 17 39 76 40 18 41 19 42 20 43 70 44 21 45
REMARK SMILES IDX 75 46 69 47 71 48 22 49 74 50 68 51 67 52 23 54 55 55 35 56
REMARK SMILES IDX 54 57 36 58 39 59 53 60 72 61 37 62 38 63 52 65 73 66 40 67
REMARK SMILES IDX 24 68 25 69 33 70 26 71 27 72 31 73 34 74 28 75 29 76 32 77
REMARK SMILES IDX 30 78 56 79 57 80 65 81 58 82 59 83 63 84 66 85 60 86 61 87
REMARK SMILES IDX 64 88 62 89 41 90 42 91 50 92 43 93 44 94 48 95 51 96 45 97
REMARK SMILES IDX 46 98 49 99 47 100
REMARK H PARENT 7 5 83 16 12 34 71 53 39 64
REMARK Flexibility Score: inf
ROOT
ATOM      1  C   UNL A   1      32.257  29.619  24.976  1.00  0.00     0.116 C 
ENDROOT
BRANCH   1   2
ATOM      2  N   UNL A   1      33.102  29.285  23.867  1.00  0.00    -0.356 N 
ATOM      3  C   UNL A   1      33.430  28.114  23.271  1.00  0.00     0.226 C 
ATOM      4  O   UNL A   1      34.145  28.276  22.275  1.00  0.00    -0.274 OA
ATOM      5  H   UNL A   1      33.532  30.068  23.453  1.00  0.00     0.163 HD
BRANCH   3   6
ATOM      6  C   UNL A   1      32.985  26.679  23.754  1.00  0.00     0.058 C 
ATOM      7  C   UNL A   1      31.432  26.591  23.847  1.00  0.00     0.017 C 
ATOM      8  C   UNL A   1      33.698  26.275  25.072  1.00  0.00     0.017 C 
ATOM      9  C   UNL A   1      30.742  26.761  25.205  1.00  0.00     0.001 C 
ATOM     10  C   UNL A   1      33.036  26.612  26.396  1.00  0.00     0.001 C 
ATOM     11  C   UNL A   1      31.540  26.342  26.435  1.00  0.00     0.000 C 
BRANCH   6  12
ATOM     12  C   UNL A   1      33.587  25.676  22.653  1.00  0.00     0.117 C 
BRANCH  12  13
ATOM     13  C   UNL A   1      33.923  24.247  23.048  1.00  0.00     0.225 C 
ATOM     14  O   UNL A   1      35.049  23.791  22.867  1.00  0.00    -0.275 OA
ATOM     15  N   UNL A   1      32.850  23.543  23.564  1.00  0.00    -0.326 N 
ATOM     16  H   UNL A   1      32.014  24.030  23.748  1.00  0.00     0.169 HD
BRANCH  15  17
ATOM     17  C   UNL A   1      32.898  22.168  23.838  1.00  0.00     0.041 A 
ATOM     18  C   UNL A   1      32.239  21.306  22.957  1.00  0.00     0.028 A 
ATOM     19  C   UNL A   1      33.587  21.650  24.930  1.00  0.00     0.028 A 
ATOM     20  C   UNL A   1      32.330  19.923  23.134  1.00  0.00     0.028 A 
ATOM     21  C   UNL A   1      33.582  20.273  25.166  1.00  0.00     0.028 A 
ATOM     22  C   UNL A   1      32.974  19.400  24.259  1.00  0.00     0.047 A 
BRANCH  22  23
ATOM     23  N   UNL A   1      33.022  18.014  24.475  1.00  0.00    -0.274 N 
ATOM     24  C   UNL A   1      32.745  17.393  25.728  1.00  0.00     0.171 C 
ATOM     25  C   UNL A   1      33.424  17.073  23.550  1.00  0.00     0.414 C 
ATOM     26  C   UNL A   1      32.632  15.939  25.338  1.00  0.00     0.257 C 
ATOM     27  O   UNL A   1      33.348  15.824  24.106  1.00  0.00    -0.447 OA
ATOM     28  O   UNL A   1      33.850  17.264  22.418  1.00  0.00    -0.224 OA
ENDBRANCH  22  23
ENDBRANCH  15  17
ENDBRANCH  12  13
ENDBRANCH   6  12
ENDBRANCH   3   6
ENDBRANCH   1   2
BRANCH   1  29
ATOM     29  C   UNL A   1      33.022  30.155  26.178  1.00  0.00     0.023 C 
BRANCH  29  30
ATOM     30  C   UNL A   1      32.326  31.296  26.898  1.00  0.00     0.023 C 
BRANCH  30  31
ATOM     31  C   UNL A   1      33.267  32.329  27.500  1.00  0.00     0.116 C 
BRANCH  31  32
ATOM     32  N   UNL A   1      32.694  33.666  27.624  1.00  0.00    -0.352 N 
ATOM     33  C   UNL A   1      33.086  34.667  28.487  1.00  0.00     0.251 C 
ATOM     34  H   UNL A   1      31.944  33.876  27.023  1.00  0.00     0.163 HD
ATOM     35  O   UNL A   1      32.480  35.727  28.558  1.00  0.00    -0.269 OA
BRANCH  33  36
ATOM     36  C   UNL A   1      34.239  34.395  29.365  1.00  0.00     0.039 A 
ATOM     37  C   UNL A   1      34.021  33.790  30.603  1.00  0.00     0.014 A 
ATOM     38  C   UNL A   1      35.532  34.572  28.866  1.00  0.00     0.014 A 
ATOM     39  C   UNL A   1      35.109  33.274  31.307  1.00  0.00     0.010 A 
ATOM     40  C   UNL A   1      36.594  33.959  29.514  1.00  0.00     0.010 A 
ATOM     41  C   UNL A   1      36.395  33.303  30.741  1.00  0.00    -0.014 A 
BRANCH  41  42
ATOM     42  C   UNL A   1      37.557  32.665  31.411  1.00  0.00     0.031 A 
ATOM     43  C   UNL A   1      38.244  31.504  30.747  1.00  0.00     0.074 A 
ATOM     44  C   UNL A   1      37.938  33.070  32.639  1.00  0.00     0.049 A 
ATOM     45  N   UNL A   1      39.205  30.741  31.201  1.00  0.00    -0.248 NA
ATOM     46  C   UNL A   1      37.763  31.130  29.408  1.00  0.00     0.031 C 
ATOM     47  C   UNL A   1      37.318  34.149  33.409  1.00  0.00     0.029 A 
ATOM     48  N   UNL A   1      38.935  32.608  33.464  1.00  0.00    -0.354 N 
ATOM     49  C   UNL A   1      39.422  29.788  30.215  1.00  0.00     0.074 A 
ATOM     50  C   UNL A   1      38.451  30.025  29.170  1.00  0.00     0.031 C 
ATOM     51  C   UNL A   1      37.964  34.285  34.578  1.00  0.00     0.029 A 
ATOM     52  C   UNL A   1      39.012  33.272  34.664  1.00  0.00     0.049 A 
ATOM     53  H   UNL A   1      39.538  31.870  33.217  1.00  0.00     0.167 HD
ATOM     54  C   UNL A   1      40.370  28.822  30.168  1.00  0.00     0.037 A 
ATOM     55  C   UNL A   1      39.827  33.075  35.719  1.00  0.00     0.037 A 
ATOM     56  C   UNL A   1      41.351  28.610  31.197  1.00  0.00     0.049 A 
ATOM     57  C   UNL A   1      40.859  31.980  35.652  1.00  0.00     0.074 A 
ATOM     58  C   UNL A   1      42.392  27.701  31.218  1.00  0.00     0.029 A 
ATOM     59  N   UNL A   1      41.407  29.315  32.391  1.00  0.00    -0.354 N 
ATOM     60  N   UNL A   1      41.107  31.135  34.681  1.00  0.00    -0.248 NA
ATOM     61  C   UNL A   1      41.729  31.814  36.825  1.00  0.00     0.031 C 
ATOM     62  C   UNL A   1      43.041  27.811  32.451  1.00  0.00     0.029 A 
ATOM     63  C   UNL A   1      42.448  28.837  33.170  1.00  0.00     0.049 A 
ATOM     64  H   UNL A   1      40.797  30.044  32.646  1.00  0.00     0.167 HD
ATOM     65  C   UNL A   1      42.178  30.362  35.109  1.00  0.00     0.074 A 
ATOM     66  C   UNL A   1      42.541  30.846  36.425  1.00  0.00     0.031 C 
ATOM     67  C   UNL A   1      42.805  29.344  34.471  1.00  0.00     0.037 A 
BRANCH  54  68
ATOM     68  C   UNL A   1      40.387  27.924  28.965  1.00  0.00     0.064 A 
ATOM     69  C   UNL A   1      41.143  28.233  27.823  1.00  0.00     0.173 A 
ATOM     70  C   UNL A   1      39.662  26.723  28.964  1.00  0.00     0.173 A 
ATOM     71  F   UNL A   1      41.844  29.375  27.765  1.00  0.00    -0.203 F 
ATOM     72  C   UNL A   1      41.144  27.392  26.713  1.00  0.00     0.198 A 
ATOM     73  C   UNL A   1      39.695  25.866  27.868  1.00  0.00     0.198 A 
ATOM     74  F   UNL A   1      38.924  26.377  30.030  1.00  0.00    -0.203 F 
ATOM     75  F   UNL A   1      41.825  27.739  25.612  1.00  0.00    -0.200 F 
ATOM     76  C   UNL A   1      40.427  26.205  26.740  1.00  0.00     0.200 A 
ATOM     77  F   UNL A   1      39.014  24.713  27.901  1.00  0.00    -0.200 F 
ATOM     78  F   UNL A   1      40.436  25.392  25.675  1.00  0.00    -0.200 F 
ENDBRANCH  54  68
BRANCH  55  79
ATOM     79  C   UNL A   1      39.713  33.941  36.925  1.00  0.00     0.064 A 
ATOM     80  C   UNL A   1      38.925  33.555  38.019  1.00  0.00     0.173 A 
ATOM     81  C   UNL A   1      40.376  35.175  37.005  1.00  0.00     0.173 A 
ATOM     82  F   UNL A   1      38.255  32.394  37.985  1.00  0.00    -0.203 F 
ATOM     83  C   UNL A   1      38.783  34.381  39.134  1.00  0.00     0.198 A 
ATOM     84  C   UNL A   1      40.259  35.985  38.134  1.00  0.00     0.198 A 
ATOM     85  F   UNL A   1      41.148  35.591  35.991  1.00  0.00    -0.203 F 
ATOM     86  F   UNL A   1      37.980  34.010  40.140  1.00  0.00    -0.200 F 
ATOM     87  C   UNL A   1      39.454  35.592  39.193  1.00  0.00     0.200 A 
ATOM     88  F   UNL A   1      40.925  37.146  38.194  1.00  0.00    -0.200 F 
ATOM     89  F   UNL A   1      39.320  36.383  40.265  1.00  0.00    -0.200 F 
ENDBRANCH  55  79
BRANCH  67  90
ATOM     90  C   UNL A   1      43.981  28.711  35.158  1.00  0.00     0.064 A 
ATOM     91  C   UNL A   1      43.837  27.599  36.001  1.00  0.00     0.173 A 
ATOM     92  C   UNL A   1      45.280  29.185  34.915  1.00  0.00     0.173 A 
ATOM     93  F   UNL A   1      42.617  27.115  36.278  1.00  0.00    -0.203 F 
ATOM     94  C   UNL A   1      44.947  26.999  36.591  1.00  0.00     0.198 A 
ATOM     95  C   UNL A   1      46.389  28.562  35.476  1.00  0.00     0.198 A 
ATOM     96  F   UNL A   1      45.474  30.241  34.109  1.00  0.00    -0.203 F 
ATOM     97  F   UNL A   1      44.782  25.966  37.428  1.00  0.00    -0.200 F 
ATOM     98  C   UNL A   1      46.222  27.474  36.319  1.00  0.00     0.200 A 
ATOM     99  F   UNL A   1      47.621  29.010  35.197  1.00  0.00    -0.200 F 
ATOM    100  F   UNL A   1      47.289  26.884  36.873  1.00  0.00    -0.200 F 
ENDBRANCH  67  90
ENDBRANCH  41  42
ENDBRANCH  33  36
ENDBRANCH  31  32
ENDBRANCH  30  31
ENDBRANCH  29  30
ENDBRANCH   1  29
TORSDOF 15
ENDMDL
