MODEL 1
REMARK VINA RESULT:     -13.7      0.000      0.000
REMARK SMILES CC(C)(C)c1ccc(C(=O)N/C(=C/c2ccc(O)cc2)C(=O)NCCCCNC(=O)c2ccc(-c3c4nc(c(-c5c(F)c(F)c(F)c(F)c5F)c5ccc([nH]5)c(-c5c(F)c(F)c(F)c(F)c5F)c5nc(c(-c6c(F)c(F)c(F)c(F)c6F)c6ccc3[nH]6)C=C5)C=C4)cc2)cc1
REMARK SMILES IDX 25 1 24 2 23 3 21 4 22 5 12 7 13 8 11 9 9 10 10 11 8 13 5 14
REMARK SMILES IDX 6 15 95 16 7 17 94 18 2 19 1 20 3 21 4 22 14 23 15 24 20 25
REMARK SMILES IDX 16 26 19 27 17 28 18 29 26 31 27 32 28 33 29 34 30 36 31 37
REMARK SMILES IDX 32 38 93 39 33 40 92 41 34 42 35 43 36 44 86 45 37 46 91 47
REMARK SMILES IDX 85 48 87 49 38 50 90 51 84 52 83 53 39 55 71 56 51 57 70 58
REMARK SMILES IDX 52 59 55 60 69 61 88 62 53 63 54 64 68 66 89 67 56 68 40 69
REMARK SMILES IDX 41 70 49 71 42 72 43 73 47 74 50 75 44 76 45 77 48 78 46 79
REMARK SMILES IDX 72 80 73 81 81 82 74 83 75 84 79 85 82 86 76 87 77 88 80 89
REMARK SMILES IDX 78 90 57 91 58 92 66 93 59 94 60 95 64 96 67 97 61 98 62 99
REMARK SMILES IDX 65 100 63 101
REMARK H PARENT 23 6 11 12 18 30 28 35 87 54 55 65
REMARK Flexibility Score: inf
ROOT
ATOM      1  C   UNL A   1      33.804  28.610  25.135  1.00  0.00     0.023 C 
ENDROOT
BRANCH   1   2
ATOM      2  C   UNL A   1      33.171  27.223  25.042  1.00  0.00     0.116 C 
BRANCH   2   3
ATOM      3  N   UNL A   1      32.594  26.747  26.272  1.00  0.00    -0.351 N 
ATOM      4  C   UNL A   1      31.257  26.713  26.544  1.00  0.00     0.267 C 
ATOM      5  O   UNL A   1      30.898  27.281  27.581  1.00  0.00    -0.268 OA
ATOM      6  H   UNL A   1      33.209  26.421  26.969  1.00  0.00     0.163 HD
BRANCH   4   7
ATOM      7  C   UNL A   1      30.232  25.901  25.740  1.00  0.00     0.107 C 
ATOM      8  C   UNL A   1      29.527  26.209  24.626  1.00  0.00     0.040 C 
BRANCH   7   9
ATOM      9  N   UNL A   1      29.915  24.646  26.267  1.00  0.00    -0.317 N 
ATOM     10  C   UNL A   1      30.710  23.586  26.658  1.00  0.00     0.255 C 
ATOM     11  O   UNL A   1      30.212  22.679  27.325  1.00  0.00    -0.269 OA
ATOM     12  H   UNL A   1      28.950  24.488  26.381  1.00  0.00     0.170 HD
BRANCH  10  13
ATOM     13  C   UNL A   1      32.109  23.439  26.179  1.00  0.00     0.040 A 
ATOM     14  C   UNL A   1      34.733  23.041  25.190  1.00  0.00    -0.043 A 
ATOM     15  C   UNL A   1      33.637  23.162  24.318  1.00  0.00     0.005 A 
ATOM     16  C   UNL A   1      34.487  23.208  26.566  1.00  0.00     0.005 A 
ATOM     17  C   UNL A   1      32.340  23.360  24.806  1.00  0.00     0.014 A 
ATOM     18  C   UNL A   1      33.195  23.424  27.056  1.00  0.00     0.014 A 
BRANCH  14  19
ATOM     19  C   UNL A   1      36.153  22.716  24.695  1.00  0.00    -0.013 C 
ATOM     20  C   UNL A   1      36.345  22.914  23.174  1.00  0.00     0.016 C 
ATOM     21  C   UNL A   1      36.475  21.235  25.000  1.00  0.00     0.016 C 
ATOM     22  C   UNL A   1      37.178  23.618  25.412  1.00  0.00     0.016 C 
ENDBRANCH  14  19
ENDBRANCH  10  13
ENDBRANCH   7   9
BRANCH   8  23
ATOM     23  C   UNL A   1      29.598  27.324  23.685  1.00  0.00    -0.023 A 
ATOM     24  C   UNL A   1      28.481  28.117  23.400  1.00  0.00     0.012 A 
ATOM     25  C   UNL A   1      30.821  27.593  23.051  1.00  0.00     0.012 A 
ATOM     26  C   UNL A   1      28.623  29.237  22.577  1.00  0.00     0.047 A 
ATOM     27  C   UNL A   1      30.958  28.710  22.223  1.00  0.00     0.047 A 
ATOM     28  C   UNL A   1      29.863  29.541  22.022  1.00  0.00     0.115 A 
BRANCH  28  29
ATOM     29  O   UNL A   1      29.958  30.688  21.295  1.00  0.00    -0.508 OA
ATOM     30  H   UNL A   1      29.295  30.901  20.668  1.00  0.00     0.293 HD
ENDBRANCH  28  29
ENDBRANCH   8  23
ENDBRANCH   4   7
ENDBRANCH   2   3
ENDBRANCH   1   2
BRANCH   1  31
ATOM     31  C   UNL A   1      32.843  29.759  25.409  1.00  0.00     0.023 C 
BRANCH  31  32
ATOM     32  C   UNL A   1      32.608  30.112  26.875  1.00  0.00     0.116 C 
BRANCH  32  33
ATOM     33  N   UNL A   1      32.503  31.539  27.162  1.00  0.00    -0.352 N 
ATOM     34  C   UNL A   1      33.483  32.415  27.572  1.00  0.00     0.251 C 
ATOM     35  H   UNL A   1      31.607  31.930  27.045  1.00  0.00     0.163 HD
ATOM     36  O   UNL A   1      33.255  33.616  27.675  1.00  0.00    -0.269 OA
BRANCH  34  37
ATOM     37  C   UNL A   1      34.816  31.883  27.917  1.00  0.00     0.039 A 
ATOM     38  C   UNL A   1      35.901  32.761  27.987  1.00  0.00     0.014 A 
ATOM     39  C   UNL A   1      34.956  30.544  28.284  1.00  0.00     0.014 A 
ATOM     40  C   UNL A   1      37.101  32.321  28.548  1.00  0.00     0.010 A 
ATOM     41  C   UNL A   1      36.126  30.129  28.909  1.00  0.00     0.010 A 
ATOM     42  C   UNL A   1      37.197  31.023  29.077  1.00  0.00    -0.014 A 
BRANCH  42  43
ATOM     43  C   UNL A   1      38.371  30.594  29.878  1.00  0.00     0.031 A 
ATOM     44  C   UNL A   1      39.333  29.585  29.326  1.00  0.00     0.074 A 
ATOM     45  C   UNL A   1      38.498  31.026  31.150  1.00  0.00     0.049 A 
ATOM     46  N   UNL A   1      40.331  28.979  29.919  1.00  0.00    -0.248 NA
ATOM     47  C   UNL A   1      39.125  29.175  27.928  1.00  0.00     0.031 C 
ATOM     48  C   UNL A   1      37.594  31.964  31.820  1.00  0.00     0.029 A 
ATOM     49  N   UNL A   1      39.425  30.716  32.114  1.00  0.00    -0.354 N 
ATOM     50  C   UNL A   1      40.855  28.106  28.976  1.00  0.00     0.074 A 
ATOM     51  C   UNL A   1      40.039  28.227  27.786  1.00  0.00     0.031 C 
ATOM     52  C   UNL A   1      38.020  32.165  33.076  1.00  0.00     0.029 A 
ATOM     53  C   UNL A   1      39.201  31.343  33.316  1.00  0.00     0.049 A 
ATOM     54  H   UNL A   1      40.179  30.103  31.959  1.00  0.00     0.167 HD
ATOM     55  C   UNL A   1      41.931  27.292  29.088  1.00  0.00     0.037 A 
ATOM     56  C   UNL A   1      39.865  31.252  34.484  1.00  0.00     0.037 A 
ATOM     57  C   UNL A   1      42.756  27.198  30.262  1.00  0.00     0.049 A 
ATOM     58  C   UNL A   1      41.060  30.344  34.580  1.00  0.00     0.074 A 
ATOM     59  C   UNL A   1      43.907  26.453  30.451  1.00  0.00     0.029 A 
ATOM     60  N   UNL A   1      42.515  27.871  31.451  1.00  0.00    -0.354 N 
ATOM     61  N   UNL A   1      41.584  29.570  33.662  1.00  0.00    -0.248 NA
ATOM     62  C   UNL A   1      41.754  30.295  35.875  1.00  0.00     0.031 C 
ATOM     63  C   UNL A   1      44.345  26.651  31.765  1.00  0.00     0.029 A 
ATOM     64  C   UNL A   1      43.487  27.547  32.384  1.00  0.00     0.049 A 
ATOM     65  H   UNL A   1      41.766  28.490  31.608  1.00  0.00     0.167 HD
ATOM     66  C   UNL A   1      42.679  28.961  34.256  1.00  0.00     0.074 A 
ATOM     67  C   UNL A   1      42.752  29.463  35.613  1.00  0.00     0.031 C 
ATOM     68  C   UNL A   1      43.545  28.063  33.727  1.00  0.00     0.037 A 
BRANCH  55  69
ATOM     69  C   UNL A   1      42.278  26.443  27.902  1.00  0.00     0.064 A 
ATOM     70  C   UNL A   1      43.244  26.848  26.969  1.00  0.00     0.173 A 
ATOM     71  C   UNL A   1      41.656  25.201  27.708  1.00  0.00     0.173 A 
ATOM     72  F   UNL A   1      43.857  28.034  27.104  1.00  0.00    -0.203 F 
ATOM     73  C   UNL A   1      43.553  26.054  25.867  1.00  0.00     0.198 A 
ATOM     74  C   UNL A   1      41.987  24.398  26.619  1.00  0.00     0.198 A 
ATOM     75  F   UNL A   1      40.728  24.766  28.572  1.00  0.00    -0.203 F 
ATOM     76  F   UNL A   1      44.441  26.485  24.961  1.00  0.00    -0.200 F 
ATOM     77  C   UNL A   1      42.929  24.829  25.696  1.00  0.00     0.200 A 
ATOM     78  F   UNL A   1      41.389  23.209  26.459  1.00  0.00    -0.200 F 
ATOM     79  F   UNL A   1      43.227  24.065  24.635  1.00  0.00    -0.200 F 
ENDBRANCH  55  69
BRANCH  56  80
ATOM     80  C   UNL A   1      39.430  32.063  35.650  1.00  0.00     0.064 A 
ATOM     81  C   UNL A   1      39.923  33.361  35.845  1.00  0.00     0.173 A 
ATOM     82  C   UNL A   1      38.515  31.565  36.590  1.00  0.00     0.173 A 
ATOM     83  F   UNL A   1      40.815  33.871  34.984  1.00  0.00    -0.203 F 
ATOM     84  C   UNL A   1      39.529  34.123  36.941  1.00  0.00     0.198 A 
ATOM     85  C   UNL A   1      38.104  32.338  37.674  1.00  0.00     0.198 A 
ATOM     86  F   UNL A   1      38.010  30.330  36.446  1.00  0.00    -0.203 F 
ATOM     87  F   UNL A   1      40.045  35.346  37.123  1.00  0.00    -0.200 F 
ATOM     88  C   UNL A   1      38.617  33.614  37.852  1.00  0.00     0.200 A 
ATOM     89  F   UNL A   1      37.213  31.846  38.545  1.00  0.00    -0.200 F 
ATOM     90  F   UNL A   1      38.235  34.350  38.905  1.00  0.00    -0.200 F 
ENDBRANCH  56  80
BRANCH  68  91
ATOM     91  C   UNL A   1      44.661  27.586  34.606  1.00  0.00     0.064 A 
ATOM     92  C   UNL A   1      45.870  28.288  34.700  1.00  0.00     0.173 A 
ATOM     93  C   UNL A   1      44.497  26.443  35.403  1.00  0.00     0.173 A 
ATOM     94  F   UNL A   1      46.077  29.378  33.945  1.00  0.00    -0.203 F 
ATOM     95  C   UNL A   1      46.883  27.855  35.550  1.00  0.00     0.198 A 
ATOM     96  C   UNL A   1      45.504  26.025  36.268  1.00  0.00     0.198 A 
ATOM     97  F   UNL A   1      43.356  25.739  35.350  1.00  0.00    -0.203 F 
ATOM     98  F   UNL A   1      48.045  28.521  35.599  1.00  0.00    -0.200 F 
ATOM     99  C   UNL A   1      46.697  26.728  36.339  1.00  0.00     0.200 A 
ATOM    100  F   UNL A   1      45.317  24.944  37.038  1.00  0.00    -0.200 F 
ATOM    101  F   UNL A   1      47.669  26.318  37.165  1.00  0.00    -0.200 F 
ENDBRANCH  68  91
ENDBRANCH  42  43
ENDBRANCH  34  37
ENDBRANCH  32  33
ENDBRANCH  31  32
ENDBRANCH   1  31
TORSDOF 16
ENDMDL
MODEL 2
REMARK VINA RESULT:     -13.7      0.196      2.009
REMARK SMILES CC(C)(C)c1ccc(C(=O)N/C(=C/c2ccc(O)cc2)C(=O)NCCCCNC(=O)c2ccc(-c3c4nc(c(-c5c(F)c(F)c(F)c(F)c5F)c5ccc([nH]5)c(-c5c(F)c(F)c(F)c(F)c5F)c5nc(c(-c6c(F)c(F)c(F)c(F)c6F)c6ccc3[nH]6)C=C5)C=C4)cc2)cc1
REMARK SMILES IDX 25 1 24 2 23 3 21 4 22 5 12 7 13 8 11 9 9 10 10 11 8 13 5 14
REMARK SMILES IDX 6 15 95 16 7 17 94 18 2 19 1 20 3 21 4 22 14 23 15 24 20 25
REMARK SMILES IDX 16 26 19 27 17 28 18 29 26 31 27 32 28 33 29 34 30 36 31 37
REMARK SMILES IDX 32 38 93 39 33 40 92 41 34 42 35 43 36 44 86 45 37 46 91 47
REMARK SMILES IDX 85 48 87 49 38 50 90 51 84 52 83 53 39 55 71 56 51 57 70 58
REMARK SMILES IDX 52 59 55 60 69 61 88 62 53 63 54 64 68 66 89 67 56 68 40 69
REMARK SMILES IDX 41 70 49 71 42 72 43 73 47 74 50 75 44 76 45 77 48 78 46 79
REMARK SMILES IDX 72 80 73 81 81 82 74 83 75 84 79 85 82 86 76 87 77 88 80 89
REMARK SMILES IDX 78 90 57 91 58 92 66 93 59 94 60 95 64 96 67 97 61 98 62 99
REMARK SMILES IDX 65 100 63 101
REMARK H PARENT 23 6 11 12 18 30 28 35 87 54 55 65
REMARK Flexibility Score: inf
ROOT
ATOM      1  C   UNL A   1      33.756  28.598  25.175  1.00  0.00     0.023 C 
ENDROOT
BRANCH   1   2
ATOM      2  C   UNL A   1      33.145  27.200  25.125  1.00  0.00     0.116 C 
BRANCH   2   3
ATOM      3  N   UNL A   1      32.572  26.754  26.369  1.00  0.00    -0.351 N 
ATOM      4  C   UNL A   1      31.236  26.738  26.650  1.00  0.00     0.267 C 
ATOM      5  O   UNL A   1      30.890  27.330  27.677  1.00  0.00    -0.268 OA
ATOM      6  H   UNL A   1      33.189  26.437  27.068  1.00  0.00     0.163 HD
BRANCH   4   7
ATOM      7  C   UNL A   1      30.199  25.919  25.869  1.00  0.00     0.107 C 
ATOM      8  C   UNL A   1      29.537  26.184  24.719  1.00  0.00     0.040 C 
BRANCH   7   9
ATOM      9  N   UNL A   1      29.816  24.714  26.464  1.00  0.00    -0.317 N 
ATOM     10  C   UNL A   1      30.547  23.610  26.858  1.00  0.00     0.255 C 
ATOM     11  O   UNL A   1      30.018  22.771  27.588  1.00  0.00    -0.269 OA
ATOM     12  H   UNL A   1      28.849  24.638  26.635  1.00  0.00     0.170 HD
BRANCH  10  13
ATOM     13  C   UNL A   1      31.902  23.335  26.314  1.00  0.00     0.040 A 
ATOM     14  C   UNL A   1      34.538  22.914  25.366  1.00  0.00    -0.043 A 
ATOM     15  C   UNL A   1      34.237  22.843  26.737  1.00  0.00     0.005 A 
ATOM     16  C   UNL A   1      33.464  23.121  24.478  1.00  0.00     0.005 A 
ATOM     17  C   UNL A   1      32.934  23.049  27.206  1.00  0.00     0.014 A 
ATOM     18  C   UNL A   1      32.159  23.310  24.942  1.00  0.00     0.014 A 
BRANCH  14  19
ATOM     19  C   UNL A   1      35.973  22.800  24.826  1.00  0.00    -0.013 C 
ATOM     20  C   UNL A   1      36.612  21.409  25.041  1.00  0.00     0.016 C 
ATOM     21  C   UNL A   1      36.876  23.826  25.549  1.00  0.00     0.016 C 
ATOM     22  C   UNL A   1      35.988  23.086  23.310  1.00  0.00     0.016 C 
ENDBRANCH  14  19
ENDBRANCH  10  13
ENDBRANCH   7   9
BRANCH   8  23
ATOM     23  C   UNL A   1      29.679  27.233  23.713  1.00  0.00    -0.023 A 
ATOM     24  C   UNL A   1      28.628  28.104  23.405  1.00  0.00     0.012 A 
ATOM     25  C   UNL A   1      30.903  27.357  23.037  1.00  0.00     0.012 A 
ATOM     26  C   UNL A   1      28.845  29.159  22.515  1.00  0.00     0.047 A 
ATOM     27  C   UNL A   1      31.115  28.409  22.143  1.00  0.00     0.047 A 
ATOM     28  C   UNL A   1      30.091  29.320  21.917  1.00  0.00     0.115 A 
BRANCH  28  29
ATOM     29  O   UNL A   1      30.266  30.412  21.122  1.00  0.00    -0.508 OA
ATOM     30  H   UNL A   1      30.581  30.307  20.246  1.00  0.00     0.293 HD
ENDBRANCH  28  29
ENDBRANCH   8  23
ENDBRANCH   4   7
ENDBRANCH   2   3
ENDBRANCH   1   2
BRANCH   1  31
ATOM     31  C   UNL A   1      32.779  29.739  25.430  1.00  0.00     0.023 C 
BRANCH  31  32
ATOM     32  C   UNL A   1      32.545  30.119  26.890  1.00  0.00     0.116 C 
BRANCH  32  33
ATOM     33  N   UNL A   1      32.452  31.552  27.152  1.00  0.00    -0.352 N 
ATOM     34  C   UNL A   1      33.439  32.425  27.548  1.00  0.00     0.251 C 
ATOM     35  H   UNL A   1      31.560  31.948  27.027  1.00  0.00     0.163 HD
ATOM     36  O   UNL A   1      33.222  33.630  27.631  1.00  0.00    -0.269 OA
BRANCH  34  37
ATOM     37  C   UNL A   1      34.767  31.888  27.904  1.00  0.00     0.039 A 
ATOM     38  C   UNL A   1      35.864  32.752  27.936  1.00  0.00     0.014 A 
ATOM     39  C   UNL A   1      34.892  30.561  28.317  1.00  0.00     0.014 A 
ATOM     40  C   UNL A   1      37.063  32.316  28.505  1.00  0.00     0.010 A 
ATOM     41  C   UNL A   1      36.061  30.153  28.949  1.00  0.00     0.010 A 
ATOM     42  C   UNL A   1      37.144  31.037  29.079  1.00  0.00    -0.014 A 
BRANCH  42  43
ATOM     43  C   UNL A   1      38.318  30.620  29.887  1.00  0.00     0.031 A 
ATOM     44  C   UNL A   1      39.305  29.636  29.333  1.00  0.00     0.074 A 
ATOM     45  C   UNL A   1      38.423  31.039  31.165  1.00  0.00     0.049 A 
ATOM     46  N   UNL A   1      40.307  29.042  29.929  1.00  0.00    -0.248 NA
ATOM     47  C   UNL A   1      39.119  29.240  27.928  1.00  0.00     0.031 C 
ATOM     48  C   UNL A   1      37.495  31.951  31.837  1.00  0.00     0.029 A 
ATOM     49  N   UNL A   1      39.345  30.735  32.135  1.00  0.00    -0.354 N 
ATOM     50  C   UNL A   1      40.858  28.191  28.981  1.00  0.00     0.074 A 
ATOM     51  C   UNL A   1      40.053  28.311  27.785  1.00  0.00     0.031 C 
ATOM     52  C   UNL A   1      37.904  32.145  33.100  1.00  0.00     0.029 A 
ATOM     53  C   UNL A   1      39.097  31.343  33.342  1.00  0.00     0.049 A 
ATOM     54  H   UNL A   1      40.113  30.138  31.981  1.00  0.00     0.167 HD
ATOM     55  C   UNL A   1      41.948  27.396  29.095  1.00  0.00     0.037 A 
ATOM     56  C   UNL A   1      39.751  31.250  34.516  1.00  0.00     0.037 A 
ATOM     57  C   UNL A   1      42.762  27.303  30.277  1.00  0.00     0.049 A 
ATOM     58  C   UNL A   1      40.961  30.364  34.614  1.00  0.00     0.074 A 
ATOM     59  C   UNL A   1      43.925  26.579  30.469  1.00  0.00     0.029 A 
ATOM     60  N   UNL A   1      42.497  27.958  31.471  1.00  0.00    -0.354 N 
ATOM     61  N   UNL A   1      41.510  29.611  33.692  1.00  0.00    -0.248 NA
ATOM     62  C   UNL A   1      41.643  30.312  35.915  1.00  0.00     0.031 C 
ATOM     63  C   UNL A   1      44.345  26.768  31.790  1.00  0.00     0.029 A 
ATOM     64  C   UNL A   1      43.465  27.640  32.410  1.00  0.00     0.049 A 
ATOM     65  H   UNL A   1      41.733  28.560  31.628  1.00  0.00     0.167 HD
ATOM     66  C   UNL A   1      42.610  29.015  34.291  1.00  0.00     0.074 A 
ATOM     67  C   UNL A   1      42.659  29.503  35.654  1.00  0.00     0.031 C 
ATOM     68  C   UNL A   1      43.498  28.141  33.760  1.00  0.00     0.037 A 
BRANCH  55  69
ATOM     69  C   UNL A   1      42.324  26.569  27.903  1.00  0.00     0.064 A 
ATOM     70  C   UNL A   1      41.751  25.308  27.677  1.00  0.00     0.173 A 
ATOM     71  C   UNL A   1      43.247  27.049  26.963  1.00  0.00     0.173 A 
ATOM     72  F   UNL A   1      40.872  24.799  28.554  1.00  0.00    -0.203 F 
ATOM     73  C   UNL A   1      42.113  24.545  26.569  1.00  0.00     0.198 A 
ATOM     74  C   UNL A   1      43.587  26.294  25.843  1.00  0.00     0.198 A 
ATOM     75  F   UNL A   1      43.821  28.250  27.131  1.00  0.00    -0.203 F 
ATOM     76  F   UNL A   1      41.592  23.322  26.402  1.00  0.00    -0.200 F 
ATOM     77  C   UNL A   1      43.025  25.041  25.652  1.00  0.00     0.200 A 
ATOM     78  F   UNL A   1      44.463  26.779  24.951  1.00  0.00    -0.200 F 
ATOM     79  F   UNL A   1      43.373  24.305  24.586  1.00  0.00    -0.200 F 
ENDBRANCH  55  69
BRANCH  56  80
ATOM     80  C   UNL A   1      39.288  32.038  35.687  1.00  0.00     0.064 A 
ATOM     81  C   UNL A   1      38.395  31.483  36.615  1.00  0.00     0.173 A 
ATOM     82  C   UNL A   1      39.724  33.352  35.907  1.00  0.00     0.173 A 
ATOM     83  F   UNL A   1      37.934  30.237  36.435  1.00  0.00    -0.203 F 
ATOM     84  C   UNL A   1      37.946  32.218  37.710  1.00  0.00     0.198 A 
ATOM     85  C   UNL A   1      39.292  34.079  37.015  1.00  0.00     0.198 A 
ATOM     86  F   UNL A   1      40.582  33.928  35.051  1.00  0.00    -0.203 F 
ATOM     87  F   UNL A   1      37.064  31.676  38.560  1.00  0.00    -0.200 F 
ATOM     88  C   UNL A   1      38.399  33.513  37.912  1.00  0.00     0.200 A 
ATOM     89  F   UNL A   1      39.742  35.325  37.214  1.00  0.00    -0.200 F 
ATOM     90  F   UNL A   1      37.969  34.218  38.968  1.00  0.00    -0.200 F 
ENDBRANCH  56  80
BRANCH  68  91
ATOM     91  C   UNL A   1      44.614  27.674  34.646  1.00  0.00     0.064 A 
ATOM     92  C   UNL A   1      44.503  26.500  35.404  1.00  0.00     0.173 A 
ATOM     93  C   UNL A   1      45.824  28.380  34.695  1.00  0.00     0.173 A 
ATOM     94  F   UNL A   1      43.357  25.801  35.401  1.00  0.00    -0.203 F 
ATOM     95  C   UNL A   1      45.561  26.057  36.192  1.00  0.00     0.198 A 
ATOM     96  C   UNL A   1      46.888  27.922  35.466  1.00  0.00     0.198 A 
ATOM     97  F   UNL A   1      45.979  29.508  33.984  1.00  0.00    -0.203 F 
ATOM     98  F   UNL A   1      45.422  24.951  36.936  1.00  0.00    -0.200 F 
ATOM     99  C   UNL A   1      46.755  26.764  36.217  1.00  0.00     0.200 A 
ATOM    100  F   UNL A   1      48.044  28.599  35.480  1.00  0.00    -0.200 F 
ATOM    101  F   UNL A   1      47.776  26.330  36.968  1.00  0.00    -0.200 F 
ENDBRANCH  68  91
ENDBRANCH  42  43
ENDBRANCH  34  37
ENDBRANCH  32  33
ENDBRANCH  31  32
ENDBRANCH   1  31
TORSDOF 16
ENDMDL
MODEL 3
REMARK VINA RESULT:     -13.5      0.413      7.167
REMARK SMILES CC(C)(C)c1ccc(C(=O)N/C(=C/c2ccc(O)cc2)C(=O)NCCCCNC(=O)c2ccc(-c3c4nc(c(-c5c(F)c(F)c(F)c(F)c5F)c5ccc([nH]5)c(-c5c(F)c(F)c(F)c(F)c5F)c5nc(c(-c6c(F)c(F)c(F)c(F)c6F)c6ccc3[nH]6)C=C5)C=C4)cc2)cc1
REMARK SMILES IDX 25 1 24 2 23 3 21 4 22 5 12 7 13 8 11 9 9 10 10 11 8 13 5 14
REMARK SMILES IDX 6 15 95 16 7 17 94 18 2 19 1 20 3 21 4 22 14 23 15 24 20 25
REMARK SMILES IDX 16 26 19 27 17 28 18 29 26 31 27 32 28 33 29 34 30 36 31 37
REMARK SMILES IDX 32 38 93 39 33 40 92 41 34 42 35 43 36 44 86 45 37 46 91 47
REMARK SMILES IDX 85 48 87 49 38 50 90 51 84 52 83 53 39 55 71 56 51 57 70 58
REMARK SMILES IDX 52 59 55 60 69 61 88 62 53 63 54 64 68 66 89 67 56 68 40 69
REMARK SMILES IDX 41 70 49 71 42 72 43 73 47 74 50 75 44 76 45 77 48 78 46 79
REMARK SMILES IDX 72 80 73 81 81 82 74 83 75 84 79 85 82 86 76 87 77 88 80 89
REMARK SMILES IDX 78 90 57 91 58 92 66 93 59 94 60 95 64 96 67 97 61 98 62 99
REMARK SMILES IDX 65 100 63 101
REMARK H PARENT 23 6 11 12 18 30 28 35 87 54 55 65
REMARK Flexibility Score: inf
ROOT
ATOM      1  C   UNL A   1      33.664  28.704  25.101  1.00  0.00     0.023 C 
ENDROOT
BRANCH   1   2
ATOM      2  C   UNL A   1      33.093  27.294  24.988  1.00  0.00     0.116 C 
BRANCH   2   3
ATOM      3  N   UNL A   1      32.553  26.767  26.215  1.00  0.00    -0.351 N 
ATOM      4  C   UNL A   1      31.223  26.699  26.515  1.00  0.00     0.267 C 
ATOM      5  O   UNL A   1      30.879  27.227  27.578  1.00  0.00    -0.268 OA
ATOM      6  H   UNL A   1      33.190  26.432  26.886  1.00  0.00     0.163 HD
BRANCH   4   7
ATOM      7  C   UNL A   1      30.195  25.893  25.709  1.00  0.00     0.107 C 
ATOM      8  C   UNL A   1      29.486  26.209  24.600  1.00  0.00     0.040 C 
BRANCH   7   9
ATOM      9  N   UNL A   1      29.881  24.634  26.228  1.00  0.00    -0.317 N 
ATOM     10  C   UNL A   1      30.677  23.580  26.629  1.00  0.00     0.255 C 
ATOM     11  O   UNL A   1      30.176  22.667  27.286  1.00  0.00    -0.269 OA
ATOM     12  H   UNL A   1      28.915  24.468  26.326  1.00  0.00     0.170 HD
BRANCH  10  13
ATOM     13  C   UNL A   1      32.085  23.446  26.173  1.00  0.00     0.040 A 
ATOM     14  C   UNL A   1      34.728  23.072  25.224  1.00  0.00    -0.043 A 
ATOM     15  C   UNL A   1      33.645  23.194  24.335  1.00  0.00     0.005 A 
ATOM     16  C   UNL A   1      34.458  23.225  26.597  1.00  0.00     0.005 A 
ATOM     17  C   UNL A   1      32.340  23.381  24.803  1.00  0.00     0.014 A 
ATOM     18  C   UNL A   1      33.156  23.428  27.067  1.00  0.00     0.014 A 
BRANCH  14  19
ATOM     19  C   UNL A   1      36.158  22.760  24.750  1.00  0.00    -0.013 C 
ATOM     20  C   UNL A   1      36.360  22.922  23.226  1.00  0.00     0.016 C 
ATOM     21  C   UNL A   1      36.503  21.293  25.096  1.00  0.00     0.016 C 
ATOM     22  C   UNL A   1      37.160  23.698  25.452  1.00  0.00     0.016 C 
ENDBRANCH  14  19
ENDBRANCH  10  13
ENDBRANCH   7   9
BRANCH   8  23
ATOM     23  C   UNL A   1      29.554  27.331  23.668  1.00  0.00    -0.023 A 
ATOM     24  C   UNL A   1      28.445  28.147  23.417  1.00  0.00     0.012 A 
ATOM     25  C   UNL A   1      30.765  27.583  23.004  1.00  0.00     0.012 A 
ATOM     26  C   UNL A   1      28.587  29.272  22.601  1.00  0.00     0.047 A 
ATOM     27  C   UNL A   1      30.902  28.705  22.183  1.00  0.00     0.047 A 
ATOM     28  C   UNL A   1      29.818  29.558  22.017  1.00  0.00     0.115 A 
BRANCH  28  29
ATOM     29  O   UNL A   1      29.915  30.710  21.298  1.00  0.00    -0.508 OA
ATOM     30  H   UNL A   1      30.024  30.673  20.368  1.00  0.00     0.293 HD
ENDBRANCH  28  29
ENDBRANCH   8  23
ENDBRANCH   4   7
ENDBRANCH   2   3
ENDBRANCH   1   2
BRANCH   1  31
ATOM     31  C   UNL A   1      32.653  29.808  25.386  1.00  0.00     0.023 C 
BRANCH  31  32
ATOM     32  C   UNL A   1      32.449  30.178  26.853  1.00  0.00     0.116 C 
BRANCH  32  33
ATOM     33  N   UNL A   1      32.471  31.609  27.141  1.00  0.00    -0.352 N 
ATOM     34  C   UNL A   1      33.526  32.395  27.547  1.00  0.00     0.251 C 
ATOM     35  H   UNL A   1      31.613  32.077  27.029  1.00  0.00     0.163 HD
ATOM     36  O   UNL A   1      33.405  33.611  27.653  1.00  0.00    -0.269 OA
BRANCH  34  37
ATOM     37  C   UNL A   1      34.809  31.748  27.886  1.00  0.00     0.039 A 
ATOM     38  C   UNL A   1      35.952  32.539  28.031  1.00  0.00     0.014 A 
ATOM     39  C   UNL A   1      34.844  30.383  28.173  1.00  0.00     0.014 A 
ATOM     40  C   UNL A   1      37.104  31.980  28.588  1.00  0.00     0.010 A 
ATOM     41  C   UNL A   1      35.966  29.847  28.794  1.00  0.00     0.010 A 
ATOM     42  C   UNL A   1      37.093  30.650  29.038  1.00  0.00    -0.014 A 
BRANCH  42  43
ATOM     43  C   UNL A   1      38.214  30.089  29.835  1.00  0.00     0.031 A 
ATOM     44  C   UNL A   1      38.444  30.552  31.243  1.00  0.00     0.074 A 
ATOM     45  C   UNL A   1      39.092  29.253  29.244  1.00  0.00     0.049 A 
ATOM     46  N   UNL A   1      39.444  30.293  32.048  1.00  0.00    -0.248 NA
ATOM     47  C   UNL A   1      37.433  31.457  31.811  1.00  0.00     0.031 C 
ATOM     48  C   UNL A   1      39.008  28.774  27.863  1.00  0.00     0.029 A 
ATOM     49  N   UNL A   1      40.242  28.675  29.724  1.00  0.00    -0.354 N 
ATOM     50  C   UNL A   1      39.192  31.016  33.206  1.00  0.00     0.074 A 
ATOM     51  C   UNL A   1      37.969  31.758  32.984  1.00  0.00     0.031 C 
ATOM     52  C   UNL A   1      40.048  27.964  27.613  1.00  0.00     0.029 A 
ATOM     53  C   UNL A   1      40.894  27.897  28.798  1.00  0.00     0.049 A 
ATOM     54  H   UNL A   1      40.567  28.805  30.643  1.00  0.00     0.167 HD
ATOM     55  C   UNL A   1      39.906  31.040  34.355  1.00  0.00     0.037 A 
ATOM     56  C   UNL A   1      42.054  27.218  28.893  1.00  0.00     0.037 A 
ATOM     57  C   UNL A   1      41.105  30.277  34.581  1.00  0.00     0.049 A 
ATOM     58  C   UNL A   1      42.826  27.259  30.182  1.00  0.00     0.074 A 
ATOM     59  C   UNL A   1      41.863  30.182  35.734  1.00  0.00     0.029 A 
ATOM     60  N   UNL A   1      41.720  29.476  33.630  1.00  0.00    -0.354 N 
ATOM     61  N   UNL A   1      42.544  27.895  31.293  1.00  0.00    -0.248 NA
ATOM     62  C   UNL A   1      44.076  26.488  30.232  1.00  0.00     0.031 C 
ATOM     63  C   UNL A   1      42.956  29.350  35.470  1.00  0.00     0.029 A 
ATOM     64  C   UNL A   1      42.859  28.896  34.165  1.00  0.00     0.049 A 
ATOM     65  H   UNL A   1      41.394  29.339  32.711  1.00  0.00     0.167 HD
ATOM     66  C   UNL A   1      43.566  27.587  32.178  1.00  0.00     0.074 A 
ATOM     67  C   UNL A   1      44.470  26.696  31.481  1.00  0.00     0.031 C 
ATOM     68  C   UNL A   1      43.741  28.007  33.455  1.00  0.00     0.037 A 
BRANCH  55  69
ATOM     69  C   UNL A   1      39.402  31.921  35.459  1.00  0.00     0.064 A 
ATOM     70  C   UNL A   1      38.530  31.434  36.445  1.00  0.00     0.173 A 
ATOM     71  C   UNL A   1      39.813  33.259  35.548  1.00  0.00     0.173 A 
ATOM     72  F   UNL A   1      38.098  30.164  36.395  1.00  0.00    -0.203 F 
ATOM     73  C   UNL A   1      38.063  32.263  37.461  1.00  0.00     0.198 A 
ATOM     74  C   UNL A   1      39.365  34.077  36.583  1.00  0.00     0.198 A 
ATOM     75  F   UNL A   1      40.649  33.773  34.634  1.00  0.00    -0.203 F 
ATOM     76  F   UNL A   1      37.190  31.789  38.361  1.00  0.00    -0.200 F 
ATOM     77  C   UNL A   1      38.485  33.581  37.533  1.00  0.00     0.200 A 
ATOM     78  F   UNL A   1      39.780  35.350  36.655  1.00  0.00    -0.200 F 
ATOM     79  F   UNL A   1      38.034  34.378  38.512  1.00  0.00    -0.200 F 
ENDBRANCH  55  69
BRANCH  56  80
ATOM     80  C   UNL A   1      42.543  26.421  27.738  1.00  0.00     0.064 A 
ATOM     81  C   UNL A   1      43.454  26.970  26.824  1.00  0.00     0.173 A 
ATOM     82  C   UNL A   1      42.118  25.102  27.523  1.00  0.00     0.173 A 
ATOM     83  F   UNL A   1      43.872  28.234  26.977  1.00  0.00    -0.203 F 
ATOM     84  C   UNL A   1      43.909  26.235  25.732  1.00  0.00     0.198 A 
ATOM     85  C   UNL A   1      42.592  24.360  26.443  1.00  0.00     0.198 A 
ATOM     86  F   UNL A   1      41.251  24.529  28.372  1.00  0.00    -0.203 F 
ATOM     87  F   UNL A   1      44.750  26.798  24.854  1.00  0.00    -0.200 F 
ATOM     88  C   UNL A   1      43.482  24.929  25.545  1.00  0.00     0.200 A 
ATOM     89  F   UNL A   1      42.187  23.094  26.274  1.00  0.00    -0.200 F 
ATOM     90  F   UNL A   1      43.924  24.221  24.496  1.00  0.00    -0.200 F 
ENDBRANCH  56  80
BRANCH  68  91
ATOM     91  C   UNL A   1      44.940  27.488  34.189  1.00  0.00     0.064 A 
ATOM     92  C   UNL A   1      44.902  26.273  34.887  1.00  0.00     0.173 A 
ATOM     93  C   UNL A   1      46.155  28.188  34.149  1.00  0.00     0.173 A 
ATOM     94  F   UNL A   1      43.757  25.577  34.966  1.00  0.00    -0.203 F 
ATOM     95  C   UNL A   1      46.034  25.784  35.532  1.00  0.00     0.198 A 
ATOM     96  C   UNL A   1      47.291  27.685  34.776  1.00  0.00     0.198 A 
ATOM     97  F   UNL A   1      46.242  29.354  33.490  1.00  0.00    -0.203 F 
ATOM     98  F   UNL A   1      45.967  24.638  36.222  1.00  0.00    -0.200 F 
ATOM     99  C   UNL A   1      47.229  26.486  35.469  1.00  0.00     0.200 A 
ATOM    100  F   UNL A   1      48.447  28.359  34.705  1.00  0.00    -0.200 F 
ATOM    101  F   UNL A   1      48.321  26.009  36.082  1.00  0.00    -0.200 F 
ENDBRANCH  68  91
ENDBRANCH  42  43
ENDBRANCH  34  37
ENDBRANCH  32  33
ENDBRANCH  31  32
ENDBRANCH   1  31
TORSDOF 16
ENDMDL
