MODEL 1
REMARK VINA RESULT:     -12.4      0.000      0.000
REMARK SMILES O=C(NCCCCNC(=O)c1ccc(S(=O)(=O)Cc2cccs2)c(F)c1)c1ccc(-c2c3nc(c(-c4c(F)c(F)c(F)c(F)c4F)c4ccc([nH]4)c(-c4c(F)c(F)c(F)c(F)c4F)c4nc(c(-c5c(F)c(F)c(F)c(F)c5F)c5ccc2[nH]5)C=C4)C=C3)cc1
REMARK SMILES IDX 6 1 5 2 4 3 3 4 1 5 2 6 27 8 28 9 89 10 29 11 88 12 30 13
REMARK SMILES IDX 31 14 32 15 82 16 33 17 87 18 81 19 83 20 34 21 86 22 80 23
REMARK SMILES IDX 79 24 35 26 67 27 47 28 66 29 48 30 51 31 65 32 84 33 49 34
REMARK SMILES IDX 50 35 64 37 85 38 52 39 36 40 37 41 45 42 38 43 39 44 43 45
REMARK SMILES IDX 46 46 40 47 41 48 44 49 42 50 68 51 69 52 77 53 70 54 71 55
REMARK SMILES IDX 75 56 78 57 72 58 73 59 76 60 74 61 53 62 54 63 62 64 55 65
REMARK SMILES IDX 56 66 60 67 63 68 57 69 58 70 61 71 59 72 7 73 8 74 9 75
REMARK SMILES IDX 10 77 11 78 12 79 26 80 13 81 24 82 14 83 25 84 15 85 16 86
REMARK SMILES IDX 17 87 18 88 19 89 20 90 23 91 21 92 22 93
REMARK H PARENT 3 7 83 25 51 36 8 76
REMARK Flexibility Score: inf
ROOT
ATOM      1  C   UNL A   1      31.581  30.596  26.842  1.00  0.00     0.023 C 
ENDROOT
BRANCH   1   2
ATOM      2  C   UNL A   1      31.442  32.117  26.756  1.00  0.00     0.023 C 
BRANCH   2   3
ATOM      3  C   UNL A   1      32.708  32.908  27.064  1.00  0.00     0.116 C 
BRANCH   3   4
ATOM      4  N   UNL A   1      32.430  34.216  27.636  1.00  0.00    -0.352 N 
ATOM      5  O   UNL A   1      32.551  35.901  29.125  1.00  0.00    -0.269 OA
ATOM      6  C   UNL A   1      33.022  34.853  28.698  1.00  0.00     0.251 C 
ATOM      7  H   UNL A   1      31.708  34.720  27.195  1.00  0.00     0.163 HD
BRANCH   6   8
ATOM      8  C   UNL A   1      34.211  34.263  29.348  1.00  0.00     0.039 A 
ATOM      9  C   UNL A   1      35.502  34.567  28.908  1.00  0.00     0.014 A 
ATOM     10  C   UNL A   1      34.022  33.403  30.433  1.00  0.00     0.014 A 
ATOM     11  C   UNL A   1      36.597  33.916  29.471  1.00  0.00     0.010 A 
ATOM     12  C   UNL A   1      35.125  32.801  31.040  1.00  0.00     0.010 A 
ATOM     13  C   UNL A   1      36.418  33.030  30.545  1.00  0.00    -0.014 A 
BRANCH  13  14
ATOM     14  C   UNL A   1      37.588  32.369  31.172  1.00  0.00     0.031 A 
ATOM     15  C   UNL A   1      38.331  31.283  30.451  1.00  0.00     0.074 A 
ATOM     16  C   UNL A   1      37.968  32.745  32.407  1.00  0.00     0.049 A 
ATOM     17  N   UNL A   1      39.324  30.541  30.873  1.00  0.00    -0.248 NA
ATOM     18  C   UNL A   1      37.898  30.983  29.078  1.00  0.00     0.031 C 
ATOM     19  C   UNL A   1      37.328  33.795  33.199  1.00  0.00     0.029 A 
ATOM     20  N   UNL A   1      38.979  32.287  33.212  1.00  0.00    -0.354 N 
ATOM     21  C   UNL A   1      39.619  29.675  29.831  1.00  0.00     0.074 A 
ATOM     22  C   UNL A   1      38.692  29.969  28.760  1.00  0.00     0.031 C 
ATOM     23  C   UNL A   1      37.973  33.917  34.368  1.00  0.00     0.029 A 
ATOM     24  C   UNL A   1      39.033  32.914  34.431  1.00  0.00     0.049 A 
ATOM     25  H   UNL A   1      39.605  31.577  32.941  1.00  0.00     0.167 HD
ATOM     26  C   UNL A   1      40.584  28.725  29.776  1.00  0.00     0.037 A 
ATOM     27  C   UNL A   1      39.829  32.691  35.494  1.00  0.00     0.037 A 
ATOM     28  C   UNL A   1      41.518  28.454  30.838  1.00  0.00     0.049 A 
ATOM     29  C   UNL A   1      40.862  31.606  35.425  1.00  0.00     0.074 A 
ATOM     30  C   UNL A   1      42.559  27.544  30.856  1.00  0.00     0.029 A 
ATOM     31  N   UNL A   1      41.521  29.093  32.070  1.00  0.00    -0.354 N 
ATOM     32  N   UNL A   1      41.144  30.801  34.430  1.00  0.00    -0.248 NA
ATOM     33  C   UNL A   1      41.682  31.389  36.625  1.00  0.00     0.031 C 
ATOM     34  C   UNL A   1      43.164  27.598  32.116  1.00  0.00     0.029 A 
ATOM     35  C   UNL A   1      42.531  28.576  32.866  1.00  0.00     0.049 A 
ATOM     36  H   UNL A   1      40.898  29.806  32.338  1.00  0.00     0.167 HD
ATOM     37  C   UNL A   1      42.180  29.993  34.873  1.00  0.00     0.074 A 
ATOM     38  C   UNL A   1      42.483  30.407  36.228  1.00  0.00     0.031 C 
ATOM     39  C   UNL A   1      42.821  29.001  34.211  1.00  0.00     0.037 A 
BRANCH  26  40
ATOM     40  C   UNL A   1      40.673  27.889  28.533  1.00  0.00     0.064 A 
ATOM     41  C   UNL A   1      40.025  26.646  28.469  1.00  0.00     0.173 A 
ATOM     42  C   UNL A   1      41.445  28.286  27.432  1.00  0.00     0.173 A 
ATOM     43  F   UNL A   1      39.280  26.217  29.498  1.00  0.00    -0.203 F 
ATOM     44  C   UNL A   1      40.152  25.828  27.348  1.00  0.00     0.198 A 
ATOM     45  C   UNL A   1      41.551  27.477  26.303  1.00  0.00     0.198 A 
ATOM     46  F   UNL A   1      42.075  29.470  27.441  1.00  0.00    -0.203 F 
ATOM     47  F   UNL A   1      39.545  24.634  27.319  1.00  0.00    -0.200 F 
ATOM     48  C   UNL A   1      40.911  26.246  26.265  1.00  0.00     0.200 A 
ATOM     49  F   UNL A   1      42.265  27.890  25.248  1.00  0.00    -0.200 F 
ATOM     50  F   UNL A   1      41.023  25.464  25.184  1.00  0.00    -0.200 F 
ENDBRANCH  26  40
BRANCH  27  51
ATOM     51  C   UNL A   1      39.658  33.532  36.704  1.00  0.00     0.064 A 
ATOM     52  C   UNL A   1      38.812  33.137  37.750  1.00  0.00     0.173 A 
ATOM     53  C   UNL A   1      40.275  34.786  36.796  1.00  0.00     0.173 A 
ATOM     54  F   UNL A   1      38.194  31.947  37.701  1.00  0.00    -0.203 F 
ATOM     55  C   UNL A   1      38.564  33.980  38.829  1.00  0.00     0.198 A 
ATOM     56  C   UNL A   1      40.043  35.620  37.887  1.00  0.00     0.198 A 
ATOM     57  F   UNL A   1      41.105  35.197  35.826  1.00  0.00    -0.203 F 
ATOM     58  F   UNL A   1      37.714  33.600  39.793  1.00  0.00    -0.200 F 
ATOM     59  C   UNL A   1      39.178  35.222  38.897  1.00  0.00     0.200 A 
ATOM     60  F   UNL A   1      40.649  36.813  37.957  1.00  0.00    -0.200 F 
ATOM     61  F   UNL A   1      38.934  36.036  39.933  1.00  0.00    -0.200 F 
ENDBRANCH  27  51
BRANCH  39  62
ATOM     62  C   UNL A   1      43.936  28.295  34.923  1.00  0.00     0.064 A 
ATOM     63  C   UNL A   1      43.676  27.143  35.679  1.00  0.00     0.173 A 
ATOM     64  C   UNL A   1      45.237  28.817  34.938  1.00  0.00     0.173 A 
ATOM     65  F   UNL A   1      42.444  26.612  35.700  1.00  0.00    -0.203 F 
ATOM     66  C   UNL A   1      44.674  26.552  36.447  1.00  0.00     0.198 A 
ATOM     67  C   UNL A   1      46.238  28.210  35.691  1.00  0.00     0.198 A 
ATOM     68  F   UNL A   1      45.534  29.910  34.220  1.00  0.00    -0.203 F 
ATOM     69  F   UNL A   1      44.394  25.474  37.193  1.00  0.00    -0.200 F 
ATOM     70  C   UNL A   1      45.953  27.085  36.453  1.00  0.00     0.200 A 
ATOM     71  F   UNL A   1      47.479  28.716  35.684  1.00  0.00    -0.200 F 
ATOM     72  F   UNL A   1      46.914  26.517  37.195  1.00  0.00    -0.200 F 
ENDBRANCH  39  62
ENDBRANCH  13  14
ENDBRANCH   6   8
ENDBRANCH   3   4
ENDBRANCH   2   3
ENDBRANCH   1   2
BRANCH   1  73
ATOM     73  C   UNL A   1      32.951  30.048  26.445  1.00  0.00     0.116 C 
BRANCH  73  74
ATOM     74  N   UNL A   1      33.086  29.907  25.005  1.00  0.00    -0.352 N 
ATOM     75  C   UNL A   1      32.956  28.775  24.243  1.00  0.00     0.251 C 
ATOM     76  H   UNL A   1      33.300  30.733  24.513  1.00  0.00     0.163 HD
ATOM     77  O   UNL A   1      33.188  28.779  23.044  1.00  0.00    -0.269 OA
BRANCH  75  78
ATOM     78  C   UNL A   1      32.539  27.530  24.903  1.00  0.00     0.042 A 
ATOM     79  C   UNL A   1      33.492  26.725  25.538  1.00  0.00     0.015 A 
ATOM     80  C   UNL A   1      31.196  27.163  24.857  1.00  0.00     0.054 A 
ATOM     81  C   UNL A   1      33.091  25.524  26.121  1.00  0.00     0.024 A 
ATOM     82  C   UNL A   1      30.812  25.951  25.419  1.00  0.00     0.142 A 
ATOM     83  C   UNL A   1      31.744  25.141  26.058  1.00  0.00     0.103 A 
ATOM     84  F   UNL A   1      29.531  25.581  25.309  1.00  0.00    -0.206 F 
BRANCH  83  85
ATOM     85  S   UNL A   1      31.257  23.584  26.733  1.00  0.00     0.186 S 
ATOM     86  O   UNL A   1      32.327  23.217  27.646  1.00  0.00    -0.223 OA
ATOM     87  O   UNL A   1      29.912  23.761  27.253  1.00  0.00    -0.223 OA
BRANCH  85  88
ATOM     88  C   UNL A   1      31.206  22.366  25.431  1.00  0.00     0.188 C 
BRANCH  88  89
ATOM     89  C   UNL A   1      32.202  22.630  24.345  1.00  0.00     0.020 A 
ATOM     90  C   UNL A   1      32.003  23.257  23.128  1.00  0.00     0.016 A 
ATOM     91  S   UNL A   1      33.860  22.251  24.580  1.00  0.00    -0.148 S 
ATOM     92  C   UNL A   1      33.206  23.391  22.379  1.00  0.00     0.012 A 
ATOM     93  C   UNL A   1      34.293  22.889  23.056  1.00  0.00     0.065 A 
ENDBRANCH  88  89
ENDBRANCH  85  88
ENDBRANCH  83  85
ENDBRANCH  75  78
ENDBRANCH  73  74
ENDBRANCH   1  73
TORSDOF 14
ENDMDL
MODEL 2
REMARK VINA RESULT:     -12.4      0.276      1.967
REMARK SMILES O=C(NCCCCNC(=O)c1ccc(S(=O)(=O)Cc2cccs2)c(F)c1)c1ccc(-c2c3nc(c(-c4c(F)c(F)c(F)c(F)c4F)c4ccc([nH]4)c(-c4c(F)c(F)c(F)c(F)c4F)c4nc(c(-c5c(F)c(F)c(F)c(F)c5F)c5ccc2[nH]5)C=C4)C=C3)cc1
REMARK SMILES IDX 6 1 5 2 4 3 3 4 1 5 2 6 27 8 28 9 89 10 29 11 88 12 30 13
REMARK SMILES IDX 31 14 32 15 82 16 33 17 87 18 81 19 83 20 34 21 86 22 80 23
REMARK SMILES IDX 79 24 35 26 67 27 47 28 66 29 48 30 51 31 65 32 84 33 49 34
REMARK SMILES IDX 50 35 64 37 85 38 52 39 36 40 37 41 45 42 38 43 39 44 43 45
REMARK SMILES IDX 46 46 40 47 41 48 44 49 42 50 68 51 69 52 77 53 70 54 71 55
REMARK SMILES IDX 75 56 78 57 72 58 73 59 76 60 74 61 53 62 54 63 62 64 55 65
REMARK SMILES IDX 56 66 60 67 63 68 57 69 58 70 61 71 59 72 7 73 8 74 9 75
REMARK SMILES IDX 10 77 11 78 12 79 26 80 13 81 24 82 14 83 25 84 15 85 16 86
REMARK SMILES IDX 17 87 18 88 19 89 20 90 23 91 21 92 22 93
REMARK H PARENT 3 7 83 25 51 36 8 76
REMARK Flexibility Score: inf
ROOT
ATOM      1  C   UNL A   1      31.410  30.661  25.944  1.00  0.00     0.023 C 
ENDROOT
BRANCH   1   2
ATOM      2  C   UNL A   1      31.260  31.943  26.766  1.00  0.00     0.023 C 
BRANCH   2   3
ATOM      3  C   UNL A   1      32.565  32.645  27.126  1.00  0.00     0.116 C 
BRANCH   3   4
ATOM      4  N   UNL A   1      32.368  34.030  27.522  1.00  0.00    -0.352 N 
ATOM      5  O   UNL A   1      32.616  35.891  28.767  1.00  0.00    -0.269 OA
ATOM      6  C   UNL A   1      33.022  34.772  28.474  1.00  0.00     0.251 C 
ATOM      7  H   UNL A   1      31.658  34.507  27.035  1.00  0.00     0.163 HD
BRANCH   6   8
ATOM      8  C   UNL A   1      34.201  34.213  29.169  1.00  0.00     0.039 A 
ATOM      9  C   UNL A   1      35.499  34.519  28.751  1.00  0.00     0.014 A 
ATOM     10  C   UNL A   1      33.994  33.383  30.273  1.00  0.00     0.014 A 
ATOM     11  C   UNL A   1      36.586  33.896  29.358  1.00  0.00     0.010 A 
ATOM     12  C   UNL A   1      35.089  32.810  30.923  1.00  0.00     0.010 A 
ATOM     13  C   UNL A   1      36.391  33.039  30.452  1.00  0.00    -0.014 A 
BRANCH  13  14
ATOM     14  C   UNL A   1      37.552  32.409  31.126  1.00  0.00     0.031 A 
ATOM     15  C   UNL A   1      38.318  31.306  30.458  1.00  0.00     0.074 A 
ATOM     16  C   UNL A   1      37.903  32.829  32.355  1.00  0.00     0.049 A 
ATOM     17  N   UNL A   1      39.308  30.587  30.925  1.00  0.00    -0.248 NA
ATOM     18  C   UNL A   1      37.918  30.957  29.086  1.00  0.00     0.031 C 
ATOM     19  C   UNL A   1      37.239  33.900  33.099  1.00  0.00     0.029 A 
ATOM     20  N   UNL A   1      38.900  32.406  33.197  1.00  0.00    -0.354 N 
ATOM     21  C   UNL A   1      39.632  29.689  29.919  1.00  0.00     0.074 A 
ATOM     22  C   UNL A   1      38.725  29.939  28.819  1.00  0.00     0.031 C 
ATOM     23  C   UNL A   1      37.857  34.065  34.277  1.00  0.00     0.029 A 
ATOM     24  C   UNL A   1      38.923  33.074  34.395  1.00  0.00     0.049 A 
ATOM     25  H   UNL A   1      39.537  31.693  32.963  1.00  0.00     0.167 HD
ATOM     26  C   UNL A   1      40.605  28.746  29.916  1.00  0.00     0.037 A 
ATOM     27  C   UNL A   1      39.697  32.893  35.481  1.00  0.00     0.037 A 
ATOM     28  C   UNL A   1      41.518  28.518  31.006  1.00  0.00     0.049 A 
ATOM     29  C   UNL A   1      40.740  31.815  35.471  1.00  0.00     0.074 A 
ATOM     30  C   UNL A   1      42.565  27.617  31.077  1.00  0.00     0.029 A 
ATOM     31  N   UNL A   1      41.489  29.198  32.216  1.00  0.00    -0.354 N 
ATOM     32  N   UNL A   1      41.049  30.980  34.509  1.00  0.00    -0.248 NA
ATOM     33  C   UNL A   1      41.535  31.645  36.694  1.00  0.00     0.031 C 
ATOM     34  C   UNL A   1      43.142  27.718  32.347  1.00  0.00     0.029 A 
ATOM     35  C   UNL A   1      42.486  28.716  33.050  1.00  0.00     0.049 A 
ATOM     36  H   UNL A   1      40.855  29.914  32.447  1.00  0.00     0.167 HD
ATOM     37  C   UNL A   1      42.082  30.196  35.001  1.00  0.00     0.074 A 
ATOM     38  C   UNL A   1      42.352  30.657  36.347  1.00  0.00     0.031 C 
ATOM     39  C   UNL A   1      42.744  29.188  34.386  1.00  0.00     0.037 A 
BRANCH  26  40
ATOM     40  C   UNL A   1      40.726  27.870  28.704  1.00  0.00     0.064 A 
ATOM     41  C   UNL A   1      41.533  28.262  27.626  1.00  0.00     0.173 A 
ATOM     42  C   UNL A   1      40.000  26.676  28.582  1.00  0.00     0.173 A 
ATOM     43  F   UNL A   1      42.242  29.399  27.690  1.00  0.00    -0.203 F 
ATOM     44  C   UNL A   1      41.604  27.494  26.466  1.00  0.00     0.198 A 
ATOM     45  C   UNL A   1      40.093  25.897  27.431  1.00  0.00     0.198 A 
ATOM     46  F   UNL A   1      39.223  26.253  29.590  1.00  0.00    -0.203 F 
ATOM     47  F   UNL A   1      42.363  27.901  25.439  1.00  0.00    -0.200 F 
ATOM     48  C   UNL A   1      40.888  26.310  26.372  1.00  0.00     0.200 A 
ATOM     49  F   UNL A   1      39.418  24.743  27.348  1.00  0.00    -0.200 F 
ATOM     50  F   UNL A   1      40.967  25.566  25.261  1.00  0.00    -0.200 F 
ENDBRANCH  26  40
BRANCH  27  51
ATOM     51  C   UNL A   1      39.495  33.772  36.659  1.00  0.00     0.064 A 
ATOM     52  C   UNL A   1      40.173  34.993  36.779  1.00  0.00     0.173 A 
ATOM     53  C   UNL A   1      38.682  33.365  37.724  1.00  0.00     0.173 A 
ATOM     54  F   UNL A   1      40.968  35.420  35.786  1.00  0.00    -0.203 F 
ATOM     55  C   UNL A   1      40.072  35.760  37.937  1.00  0.00     0.198 A 
ATOM     56  C   UNL A   1      38.564  34.143  38.874  1.00  0.00     0.198 A 
ATOM     57  F   UNL A   1      38.003  32.211  37.646  1.00  0.00    -0.203 F 
ATOM     58  F   UNL A   1      40.768  36.900  38.046  1.00  0.00    -0.200 F 
ATOM     59  C   UNL A   1      39.268  35.334  38.984  1.00  0.00     0.200 A 
ATOM     60  F   UNL A   1      37.776  33.737  39.878  1.00  0.00    -0.200 F 
ATOM     61  F   UNL A   1      39.176  36.069  40.101  1.00  0.00    -0.200 F 
ENDBRANCH  27  51
BRANCH  39  62
ATOM     62  C   UNL A   1      43.849  28.515  35.145  1.00  0.00     0.064 A 
ATOM     63  C   UNL A   1      45.178  28.931  34.977  1.00  0.00     0.173 A 
ATOM     64  C   UNL A   1      43.602  27.399  35.955  1.00  0.00     0.173 A 
ATOM     65  F   UNL A   1      45.462  29.991  34.205  1.00  0.00    -0.203 F 
ATOM     66  C   UNL A   1      46.225  28.236  35.574  1.00  0.00     0.198 A 
ATOM     67  C   UNL A   1      44.651  26.719  36.568  1.00  0.00     0.198 A 
ATOM     68  F   UNL A   1      42.346  26.973  36.154  1.00  0.00    -0.203 F 
ATOM     69  F   UNL A   1      47.491  28.627  35.369  1.00  0.00    -0.200 F 
ATOM     70  C   UNL A   1      45.961  27.131  36.368  1.00  0.00     0.200 A 
ATOM     71  F   UNL A   1      44.395  25.660  37.350  1.00  0.00    -0.200 F 
ATOM     72  F   UNL A   1      46.970  26.460  36.941  1.00  0.00    -0.200 F 
ENDBRANCH  39  62
ENDBRANCH  13  14
ENDBRANCH   6   8
ENDBRANCH   3   4
ENDBRANCH   2   3
ENDBRANCH   1   2
BRANCH   1  73
ATOM     73  C   UNL A   1      32.806  30.039  25.963  1.00  0.00     0.116 C 
BRANCH  73  74
ATOM     74  N   UNL A   1      33.278  29.717  24.627  1.00  0.00    -0.352 N 
ATOM     75  C   UNL A   1      33.349  28.490  24.020  1.00  0.00     0.251 C 
ATOM     76  H   UNL A   1      33.589  30.480  24.088  1.00  0.00     0.163 HD
ATOM     77  O   UNL A   1      33.858  28.347  22.919  1.00  0.00    -0.269 OA
BRANCH  75  78
ATOM     78  C   UNL A   1      32.809  27.324  24.734  1.00  0.00     0.042 A 
ATOM     79  C   UNL A   1      33.661  26.515  25.494  1.00  0.00     0.015 A 
ATOM     80  C   UNL A   1      31.452  27.032  24.610  1.00  0.00     0.054 A 
ATOM     81  C   UNL A   1      33.143  25.386  26.128  1.00  0.00     0.024 A 
ATOM     82  C   UNL A   1      30.953  25.890  25.225  1.00  0.00     0.142 A 
ATOM     83  C   UNL A   1      31.784  25.078  25.989  1.00  0.00     0.103 A 
ATOM     84  F   UNL A   1      29.662  25.586  25.044  1.00  0.00    -0.206 F 
BRANCH  83  85
ATOM     85  S   UNL A   1      31.153  23.606  26.734  1.00  0.00     0.186 S 
ATOM     86  O   UNL A   1      32.168  23.203  27.693  1.00  0.00    -0.223 OA
ATOM     87  O   UNL A   1      29.816  23.923  27.207  1.00  0.00    -0.223 OA
BRANCH  85  88
ATOM     88  C   UNL A   1      31.027  22.326  25.497  1.00  0.00     0.188 C 
BRANCH  88  89
ATOM     89  C   UNL A   1      32.040  22.469  24.405  1.00  0.00     0.020 A 
ATOM     90  C   UNL A   1      31.866  22.980  23.131  1.00  0.00     0.016 A 
ATOM     91  S   UNL A   1      33.688  22.088  24.696  1.00  0.00    -0.148 S 
ATOM     92  C   UNL A   1      33.079  23.022  22.387  1.00  0.00     0.012 A 
ATOM     93  C   UNL A   1      34.149  22.570  23.123  1.00  0.00     0.065 A 
ENDBRANCH  88  89
ENDBRANCH  85  88
ENDBRANCH  83  85
ENDBRANCH  75  78
ENDBRANCH  73  74
ENDBRANCH   1  73
TORSDOF 14
ENDMDL
MODEL 3
REMARK VINA RESULT:     -12.1      4.186      8.023
REMARK SMILES O=C(NCCCCNC(=O)c1ccc(S(=O)(=O)Cc2cccs2)c(F)c1)c1ccc(-c2c3nc(c(-c4c(F)c(F)c(F)c(F)c4F)c4ccc([nH]4)c(-c4c(F)c(F)c(F)c(F)c4F)c4nc(c(-c5c(F)c(F)c(F)c(F)c5F)c5ccc2[nH]5)C=C4)C=C3)cc1
REMARK SMILES IDX 6 1 5 2 4 3 3 4 1 5 2 6 27 8 28 9 89 10 29 11 88 12 30 13
REMARK SMILES IDX 31 14 32 15 82 16 33 17 87 18 81 19 83 20 34 21 86 22 80 23
REMARK SMILES IDX 79 24 35 26 67 27 47 28 66 29 48 30 51 31 65 32 84 33 49 34
REMARK SMILES IDX 50 35 64 37 85 38 52 39 36 40 37 41 45 42 38 43 39 44 43 45
REMARK SMILES IDX 46 46 40 47 41 48 44 49 42 50 68 51 69 52 77 53 70 54 71 55
REMARK SMILES IDX 75 56 78 57 72 58 73 59 76 60 74 61 53 62 54 63 62 64 55 65
REMARK SMILES IDX 56 66 60 67 63 68 57 69 58 70 61 71 59 72 7 73 8 74 9 75
REMARK SMILES IDX 10 77 11 78 12 79 26 80 13 81 24 82 14 83 25 84 15 85 16 86
REMARK SMILES IDX 17 87 18 88 19 89 20 90 23 91 21 92 22 93
REMARK H PARENT 3 7 83 25 51 36 8 76
REMARK Flexibility Score: inf
ROOT
ATOM      1  C   UNL A   1      35.169  22.609  26.762  1.00  0.00     0.023 C 
ENDROOT
BRANCH   1   2
ATOM      2  C   UNL A   1      35.584  23.867  25.998  1.00  0.00     0.023 C 
BRANCH   2   3
ATOM      3  C   UNL A   1      36.789  23.705  25.078  1.00  0.00     0.116 C 
BRANCH   3   4
ATOM      4  N   UNL A   1      37.715  22.683  25.537  1.00  0.00    -0.352 N 
ATOM      5  O   UNL A   1      39.606  21.837  26.423  1.00  0.00    -0.269 OA
ATOM      6  C   UNL A   1      38.880  22.811  26.250  1.00  0.00     0.251 C 
ATOM      7  H   UNL A   1      37.468  21.759  25.302  1.00  0.00     0.163 HD
BRANCH   6   8
ATOM      8  C   UNL A   1      39.281  24.129  26.787  1.00  0.00     0.039 A 
ATOM      9  C   UNL A   1      39.986  25.045  26.001  1.00  0.00     0.014 A 
ATOM     10  C   UNL A   1      38.923  24.454  28.097  1.00  0.00     0.014 A 
ATOM     11  C   UNL A   1      40.442  26.234  26.565  1.00  0.00     0.010 A 
ATOM     12  C   UNL A   1      39.323  25.675  28.641  1.00  0.00     0.010 A 
ATOM     13  C   UNL A   1      40.111  26.562  27.889  1.00  0.00    -0.014 A 
BRANCH  13  14
ATOM     14  C   UNL A   1      40.559  27.847  28.476  1.00  0.00     0.031 A 
ATOM     15  C   UNL A   1      41.998  28.061  28.841  1.00  0.00     0.074 A 
ATOM     16  C   UNL A   1      39.654  28.819  28.694  1.00  0.00     0.049 A 
ATOM     17  N   UNL A   1      42.557  29.086  29.434  1.00  0.00    -0.248 NA
ATOM     18  C   UNL A   1      42.936  26.979  28.502  1.00  0.00     0.031 C 
ATOM     19  C   UNL A   1      38.230  28.728  28.372  1.00  0.00     0.029 A 
ATOM     20  N   UNL A   1      39.794  30.069  29.240  1.00  0.00    -0.354 N 
ATOM     21  C   UNL A   1      43.901  28.766  29.560  1.00  0.00     0.074 A 
ATOM     22  C   UNL A   1      44.075  27.444  28.997  1.00  0.00     0.031 C 
ATOM     23  C   UNL A   1      37.630  29.879  28.705  1.00  0.00     0.029 A 
ATOM     24  C   UNL A   1      38.615  30.766  29.319  1.00  0.00     0.049 A 
ATOM     25  H   UNL A   1      40.657  30.431  29.545  1.00  0.00     0.167 HD
ATOM     26  C   UNL A   1      44.896  29.514  30.093  1.00  0.00     0.037 A 
ATOM     27  C   UNL A   1      38.348  31.974  29.850  1.00  0.00     0.037 A 
ATOM     28  C   UNL A   1      44.718  30.838  30.630  1.00  0.00     0.049 A 
ATOM     29  C   UNL A   1      39.459  32.767  30.471  1.00  0.00     0.074 A 
ATOM     30  C   UNL A   1      45.675  31.692  31.149  1.00  0.00     0.029 A 
ATOM     31  N   UNL A   1      43.501  31.498  30.718  1.00  0.00    -0.354 N 
ATOM     32  N   UNL A   1      40.729  32.461  30.573  1.00  0.00    -0.248 NA
ATOM     33  C   UNL A   1      39.103  34.064  31.061  1.00  0.00     0.031 C 
ATOM     34  C   UNL A   1      45.031  32.850  31.594  1.00  0.00     0.029 A 
ATOM     35  C   UNL A   1      43.680  32.739  31.307  1.00  0.00     0.049 A 
ATOM     36  H   UNL A   1      42.639  31.137  30.407  1.00  0.00     0.167 HD
ATOM     37  C   UNL A   1      41.329  33.531  31.222  1.00  0.00     0.074 A 
ATOM     38  C   UNL A   1      40.283  34.498  31.487  1.00  0.00     0.031 C 
ATOM     39  C   UNL A   1      42.629  33.692  31.562  1.00  0.00     0.037 A 
BRANCH  26  40
ATOM     40  C   UNL A   1      46.272  28.916  30.142  1.00  0.00     0.064 A 
ATOM     41  C   UNL A   1      46.696  28.211  31.278  1.00  0.00     0.173 A 
ATOM     42  C   UNL A   1      47.188  29.090  29.095  1.00  0.00     0.173 A 
ATOM     43  F   UNL A   1      45.860  28.023  32.309  1.00  0.00    -0.203 F 
ATOM     44  C   UNL A   1      47.992  27.708  31.367  1.00  0.00     0.198 A 
ATOM     45  C   UNL A   1      48.476  28.564  29.177  1.00  0.00     0.198 A 
ATOM     46  F   UNL A   1      46.827  29.747  27.983  1.00  0.00    -0.203 F 
ATOM     47  F   UNL A   1      48.384  27.059  32.472  1.00  0.00    -0.200 F 
ATOM     48  C   UNL A   1      48.879  27.880  30.315  1.00  0.00     0.200 A 
ATOM     49  F   UNL A   1      49.325  28.712  28.151  1.00  0.00    -0.200 F 
ATOM     50  F   UNL A   1      50.120  27.385  30.396  1.00  0.00    -0.200 F 
ENDBRANCH  26  40
BRANCH  27  51
ATOM     51  C   UNL A   1      36.957  32.486  29.799  1.00  0.00     0.064 A 
ATOM     52  C   UNL A   1      36.487  33.206  28.692  1.00  0.00     0.173 A 
ATOM     53  C   UNL A   1      36.099  32.335  30.896  1.00  0.00     0.173 A 
ATOM     54  F   UNL A   1      37.276  33.381  27.622  1.00  0.00    -0.203 F 
ATOM     55  C   UNL A   1      35.221  33.785  28.696  1.00  0.00     0.198 A 
ATOM     56  C   UNL A   1      34.824  32.897  30.892  1.00  0.00     0.198 A 
ATOM     57  F   UNL A   1      36.501  31.641  31.971  1.00  0.00    -0.203 F 
ATOM     58  F   UNL A   1      34.813  34.508  27.645  1.00  0.00    -0.200 F 
ATOM     59  C   UNL A   1      34.390  33.631  29.797  1.00  0.00     0.200 A 
ATOM     60  F   UNL A   1      34.019  32.735  31.949  1.00  0.00    -0.200 F 
ATOM     61  F   UNL A   1      33.174  34.194  29.804  1.00  0.00    -0.200 F 
ENDBRANCH  27  51
BRANCH  39  62
ATOM     62  C   UNL A   1      43.019  34.970  32.242  1.00  0.00     0.064 A 
ATOM     63  C   UNL A   1      43.475  36.062  31.488  1.00  0.00     0.173 A 
ATOM     64  C   UNL A   1      43.037  35.077  33.639  1.00  0.00     0.173 A 
ATOM     65  F   UNL A   1      43.482  36.003  30.148  1.00  0.00    -0.203 F 
ATOM     66  C   UNL A   1      43.959  37.208  32.112  1.00  0.00     0.198 A 
ATOM     67  C   UNL A   1      43.502  36.233  34.258  1.00  0.00     0.198 A 
ATOM     68  F   UNL A   1      42.598  34.062  34.399  1.00  0.00    -0.203 F 
ATOM     69  F   UNL A   1      44.426  38.224  31.374  1.00  0.00    -0.200 F 
ATOM     70  C   UNL A   1      43.973  37.292  33.495  1.00  0.00     0.200 A 
ATOM     71  F   UNL A   1      43.500  36.321  35.596  1.00  0.00    -0.200 F 
ATOM     72  F   UNL A   1      44.443  38.395  34.096  1.00  0.00    -0.200 F 
ENDBRANCH  39  62
ENDBRANCH  13  14
ENDBRANCH   6   8
ENDBRANCH   3   4
ENDBRANCH   2   3
ENDBRANCH   1   2
BRANCH   1  73
ATOM     73  C   UNL A   1      33.672  22.488  27.046  1.00  0.00     0.116 C 
BRANCH  73  74
ATOM     74  N   UNL A   1      33.105  21.276  26.481  1.00  0.00    -0.352 N 
ATOM     75  C   UNL A   1      32.512  21.102  25.257  1.00  0.00     0.251 C 
ATOM     76  H   UNL A   1      33.154  20.475  27.051  1.00  0.00     0.163 HD
ATOM     77  O   UNL A   1      31.990  20.044  24.942  1.00  0.00    -0.269 OA
BRANCH  75  78
ATOM     78  C   UNL A   1      32.498  22.233  24.319  1.00  0.00     0.042 A 
ATOM     79  C   UNL A   1      33.529  22.377  23.384  1.00  0.00     0.015 A 
ATOM     80  C   UNL A   1      31.462  23.162  24.403  1.00  0.00     0.054 A 
ATOM     81  C   UNL A   1      33.527  23.479  22.530  1.00  0.00     0.024 A 
ATOM     82  C   UNL A   1      31.485  24.270  23.565  1.00  0.00     0.142 A 
ATOM     83  C   UNL A   1      32.499  24.426  22.626  1.00  0.00     0.103 A 
ATOM     84  F   UNL A   1      30.519  25.187  23.702  1.00  0.00    -0.206 F 
BRANCH  83  85
ATOM     85  S   UNL A   1      32.544  25.857  21.593  1.00  0.00     0.186 S 
ATOM     86  O   UNL A   1      33.275  25.443  20.407  1.00  0.00    -0.223 OA
ATOM     87  O   UNL A   1      31.171  26.313  21.457  1.00  0.00    -0.223 OA
BRANCH  85  88
ATOM     88  C   UNL A   1      33.490  27.137  22.399  1.00  0.00     0.188 C 
BRANCH  88  89
ATOM     89  C   UNL A   1      33.076  27.360  23.820  1.00  0.00     0.020 A 
ATOM     90  C   UNL A   1      33.667  26.877  24.975  1.00  0.00     0.016 A 
ATOM     91  S   UNL A   1      31.785  28.429  24.189  1.00  0.00    -0.148 S 
ATOM     92  C   UNL A   1      33.033  27.359  26.155  1.00  0.00     0.012 A 
ATOM     93  C   UNL A   1      31.997  28.217  25.870  1.00  0.00     0.065 A 
ENDBRANCH  88  89
ENDBRANCH  85  88
ENDBRANCH  83  85
ENDBRANCH  75  78
ENDBRANCH  73  74
ENDBRANCH   1  73
TORSDOF 14
ENDMDL
