MODEL 1
REMARK VINA RESULT:     -11.8      0.000      0.000
REMARK SMILES CN(CC(=O)NCCCCNC(=O)c1ccc(-c2c3nc(c(-c4c(F)c(F)c(F)c(F)c4F)c4ccc([nH]4)c(-c4c(F)c(F)c(F)c(F)c4F)c4nc(c(-c5c(F)c(F)c(F)c(F)c5F)c5ccc2[nH]5)C=C4)C=C3)cc1)C(=O)c1ccccn1
REMARK SMILES IDX 8 1 7 2 6 3 4 4 5 5 3 7 2 8 1 9 77 10 78 11 79 12 80 13
REMARK SMILES IDX 84 14 81 15 83 16 82 17 9 18 10 19 11 20 12 21 13 23 14 24
REMARK SMILES IDX 15 25 76 26 16 27 75 28 17 29 18 30 19 31 69 32 20 33 74 34
REMARK SMILES IDX 68 35 70 36 21 37 73 38 67 39 66 40 22 42 54 43 34 44 53 45
REMARK SMILES IDX 35 46 38 47 52 48 71 49 36 50 37 51 51 53 72 54 39 55 23 56
REMARK SMILES IDX 24 57 32 58 25 59 26 60 30 61 33 62 27 63 28 64 31 65 29 66
REMARK SMILES IDX 55 67 56 68 64 69 57 70 58 71 62 72 65 73 59 74 60 75 63 76
REMARK SMILES IDX 61 77 40 78 41 79 49 80 42 81 43 82 47 83 50 84 44 85 45 86
REMARK SMILES IDX 48 87 46 88
REMARK H PARENT 6 6 11 22 70 41 38 52
REMARK Flexibility Score: inf
ROOT
ATOM      1  C   UNL A   1      31.667  30.454  26.745  1.00  0.00     0.023 C 
ENDROOT
BRANCH   1   2
ATOM      2  C   UNL A   1      33.043  29.824  26.535  1.00  0.00     0.116 C 
BRANCH   2   3
ATOM      3  N   UNL A   1      33.428  29.727  25.144  1.00  0.00    -0.355 N 
ATOM      4  C   UNL A   1      32.834  29.050  24.119  1.00  0.00     0.239 C 
ATOM      5  O   UNL A   1      33.200  29.346  22.976  1.00  0.00    -0.273 OA
ATOM      6  H   UNL A   1      34.241  30.225  24.900  1.00  0.00     0.163 HD
BRANCH   4   7
ATOM      7  C   UNL A   1      31.666  28.072  24.337  1.00  0.00     0.219 C 
BRANCH   7   8
ATOM      8  N   UNL A   1      30.792  27.832  23.183  1.00  0.00    -0.331 N 
ATOM      9  C   UNL A   1      31.208  26.849  22.194  1.00  0.00     0.147 C 
BRANCH   8  10
ATOM     10  C   UNL A   1      29.448  28.235  23.119  1.00  0.00     0.272 C 
ATOM     11  O   UNL A   1      28.521  27.464  23.372  1.00  0.00    -0.267 OA
BRANCH  10  12
ATOM     12  C   UNL A   1      29.114  29.638  22.750  1.00  0.00     0.128 A 
ATOM     13  C   UNL A   1      29.207  30.656  23.690  1.00  0.00     0.034 A 
ATOM     14  N   UNL A   1      28.758  29.836  21.455  1.00  0.00    -0.251 NA
ATOM     15  C   UNL A   1      28.874  31.946  23.291  1.00  0.00     0.004 A 
ATOM     16  C   UNL A   1      28.484  31.105  21.092  1.00  0.00     0.112 A 
ATOM     17  C   UNL A   1      28.514  32.180  21.968  1.00  0.00     0.020 A 
ENDBRANCH  10  12
ENDBRANCH   8  10
ENDBRANCH   7   8
ENDBRANCH   4   7
ENDBRANCH   2   3
ENDBRANCH   1   2
BRANCH   1  18
ATOM     18  C   UNL A   1      31.611  31.976  26.607  1.00  0.00     0.023 C 
BRANCH  18  19
ATOM     19  C   UNL A   1      32.765  32.744  27.238  1.00  0.00     0.116 C 
BRANCH  19  20
ATOM     20  N   UNL A   1      32.425  34.107  27.614  1.00  0.00    -0.352 N 
ATOM     21  C   UNL A   1      33.012  34.917  28.557  1.00  0.00     0.251 C 
ATOM     22  H   UNL A   1      31.669  34.505  27.125  1.00  0.00     0.163 HD
ATOM     23  O   UNL A   1      32.541  36.024  28.800  1.00  0.00    -0.269 OA
BRANCH  21  24
ATOM     24  C   UNL A   1      34.189  34.437  29.312  1.00  0.00     0.039 A 
ATOM     25  C   UNL A   1      33.986  33.795  30.537  1.00  0.00     0.014 A 
ATOM     26  C   UNL A   1      35.484  34.597  28.811  1.00  0.00     0.014 A 
ATOM     27  C   UNL A   1      35.073  33.247  31.222  1.00  0.00     0.010 A 
ATOM     28  C   UNL A   1      36.555  33.988  29.457  1.00  0.00     0.010 A 
ATOM     29  C   UNL A   1      36.361  33.303  30.666  1.00  0.00    -0.014 A 
BRANCH  29  30
ATOM     30  C   UNL A   1      37.518  32.652  31.329  1.00  0.00     0.031 A 
ATOM     31  C   UNL A   1      38.244  31.527  30.647  1.00  0.00     0.074 A 
ATOM     32  C   UNL A   1      37.870  33.022  32.574  1.00  0.00     0.049 A 
ATOM     33  N   UNL A   1      39.225  30.781  31.091  1.00  0.00    -0.248 NA
ATOM     34  C   UNL A   1      37.788  31.176  29.294  1.00  0.00     0.031 C 
ATOM     35  C   UNL A   1      37.222  34.074  33.358  1.00  0.00     0.029 A 
ATOM     36  N   UNL A   1      38.857  32.550  33.403  1.00  0.00    -0.354 N 
ATOM     37  C   UNL A   1      39.491  29.867  30.082  1.00  0.00     0.074 A 
ATOM     38  C   UNL A   1      38.530  30.112  29.026  1.00  0.00     0.031 C 
ATOM     39  C   UNL A   1      37.846  34.187  34.542  1.00  0.00     0.029 A 
ATOM     40  C   UNL A   1      38.911  33.192  34.616  1.00  0.00     0.049 A 
ATOM     41  H   UNL A   1      39.467  31.819  33.153  1.00  0.00     0.167 HD
ATOM     42  C   UNL A   1      40.462  28.925  30.026  1.00  0.00     0.037 A 
ATOM     43  C   UNL A   1      39.727  32.998  35.668  1.00  0.00     0.037 A 
ATOM     44  C   UNL A   1      41.426  28.694  31.069  1.00  0.00     0.049 A 
ATOM     45  C   UNL A   1      40.779  31.926  35.597  1.00  0.00     0.074 A 
ATOM     46  C   UNL A   1      42.482  27.799  31.089  1.00  0.00     0.029 A 
ATOM     47  N   UNL A   1      41.448  29.362  32.286  1.00  0.00    -0.354 N 
ATOM     48  N   UNL A   1      41.062  31.106  34.614  1.00  0.00    -0.248 NA
ATOM     49  C   UNL A   1      41.629  31.754  36.785  1.00  0.00     0.031 C 
ATOM     50  C   UNL A   1      43.114  27.893  32.335  1.00  0.00     0.029 A 
ATOM     51  C   UNL A   1      42.483  28.883  33.072  1.00  0.00     0.049 A 
ATOM     52  H   UNL A   1      40.819  30.072  32.551  1.00  0.00     0.167 HD
ATOM     53  C   UNL A   1      42.139  30.345  35.048  1.00  0.00     0.074 A 
ATOM     54  C   UNL A   1      42.463  30.805  36.382  1.00  0.00     0.031 C 
ATOM     55  C   UNL A   1      42.800  29.357  34.397  1.00  0.00     0.037 A 
BRANCH  42  56
ATOM     56  C   UNL A   1      40.521  28.073  28.790  1.00  0.00     0.064 A 
ATOM     57  C   UNL A   1      39.827  26.855  28.702  1.00  0.00     0.173 A 
ATOM     58  C   UNL A   1      41.283  28.472  27.683  1.00  0.00     0.173 A 
ATOM     59  F   UNL A   1      39.093  26.420  29.739  1.00  0.00    -0.203 F 
ATOM     60  C   UNL A   1      39.930  26.050  27.571  1.00  0.00     0.198 A 
ATOM     61  C   UNL A   1      41.357  27.680  26.539  1.00  0.00     0.198 A 
ATOM     62  F   UNL A   1      41.962  29.629  27.709  1.00  0.00    -0.203 F 
ATOM     63  F   UNL A   1      39.312  24.861  27.539  1.00  0.00    -0.200 F 
ATOM     64  C   UNL A   1      40.691  26.465  26.489  1.00  0.00     0.200 A 
ATOM     65  F   UNL A   1      42.083  28.087  25.489  1.00  0.00    -0.200 F 
ATOM     66  F   UNL A   1      40.793  25.687  25.403  1.00  0.00    -0.200 F 
ENDBRANCH  42  56
BRANCH  43  67
ATOM     67  C   UNL A   1      39.608  33.871  36.865  1.00  0.00     0.064 A 
ATOM     68  C   UNL A   1      40.261  35.111  36.909  1.00  0.00     0.173 A 
ATOM     69  C   UNL A   1      38.836  33.498  37.974  1.00  0.00     0.173 A 
ATOM     70  F   UNL A   1      41.028  35.499  35.879  1.00  0.00    -0.203 F 
ATOM     71  C   UNL A   1      40.154  35.941  38.022  1.00  0.00     0.198 A 
ATOM     72  C   UNL A   1      38.710  34.340  39.077  1.00  0.00     0.198 A 
ATOM     73  F   UNL A   1      38.190  32.323  37.979  1.00  0.00    -0.203 F 
ATOM     74  F   UNL A   1      40.816  37.105  38.052  1.00  0.00    -0.200 F 
ATOM     75  C   UNL A   1      39.374  35.559  39.102  1.00  0.00     0.200 A 
ATOM     76  F   UNL A   1      37.945  33.974  40.114  1.00  0.00    -0.200 F 
ATOM     77  F   UNL A   1      39.264  36.362  40.170  1.00  0.00    -0.200 F 
ENDBRANCH  43  67
BRANCH  55  78
ATOM     78  C   UNL A   1      43.968  28.731  35.102  1.00  0.00     0.064 A 
ATOM     79  C   UNL A   1      43.818  27.597  35.915  1.00  0.00     0.173 A 
ATOM     80  C   UNL A   1      45.261  29.249  34.928  1.00  0.00     0.173 A 
ATOM     81  F   UNL A   1      42.602  27.074  36.126  1.00  0.00    -0.203 F 
ATOM     82  C   UNL A   1      44.918  27.020  36.547  1.00  0.00     0.198 A 
ATOM     83  C   UNL A   1      46.361  28.651  35.538  1.00  0.00     0.198 A 
ATOM     84  F   UNL A   1      45.458  30.328  34.157  1.00  0.00    -0.203 F 
ATOM     85  F   UNL A   1      44.745  25.966  37.355  1.00  0.00    -0.200 F 
ATOM     86  C   UNL A   1      46.188  27.542  36.351  1.00  0.00     0.200 A 
ATOM     87  F   UNL A   1      47.589  29.150  35.338  1.00  0.00    -0.200 F 
ATOM     88  F   UNL A   1      47.245  26.981  36.954  1.00  0.00    -0.200 F 
ENDBRANCH  55  78
ENDBRANCH  29  30
ENDBRANCH  21  24
ENDBRANCH  19  20
ENDBRANCH  18  19
ENDBRANCH   1  18
TORSDOF 14
ENDMDL
MODEL 2
REMARK VINA RESULT:     -11.5      0.661      2.172
REMARK SMILES CN(CC(=O)NCCCCNC(=O)c1ccc(-c2c3nc(c(-c4c(F)c(F)c(F)c(F)c4F)c4ccc([nH]4)c(-c4c(F)c(F)c(F)c(F)c4F)c4nc(c(-c5c(F)c(F)c(F)c(F)c5F)c5ccc2[nH]5)C=C4)C=C3)cc1)C(=O)c1ccccn1
REMARK SMILES IDX 8 1 7 2 6 3 4 4 5 5 3 7 2 8 1 9 77 10 78 11 79 12 80 13
REMARK SMILES IDX 84 14 81 15 83 16 82 17 9 18 10 19 11 20 12 21 13 23 14 24
REMARK SMILES IDX 15 25 76 26 16 27 75 28 17 29 18 30 19 31 69 32 20 33 74 34
REMARK SMILES IDX 68 35 70 36 21 37 73 38 67 39 66 40 22 42 54 43 34 44 53 45
REMARK SMILES IDX 35 46 38 47 52 48 71 49 36 50 37 51 51 53 72 54 39 55 23 56
REMARK SMILES IDX 24 57 32 58 25 59 26 60 30 61 33 62 27 63 28 64 31 65 29 66
REMARK SMILES IDX 55 67 56 68 64 69 57 70 58 71 62 72 65 73 59 74 60 75 63 76
REMARK SMILES IDX 61 77 40 78 41 79 49 80 42 81 43 82 47 83 50 84 44 85 45 86
REMARK SMILES IDX 48 87 46 88
REMARK H PARENT 6 6 11 22 70 41 38 52
REMARK Flexibility Score: inf
ROOT
ATOM      1  C   UNL A   1      31.707  30.590  25.749  1.00  0.00     0.023 C 
ENDROOT
BRANCH   1   2
ATOM      2  C   UNL A   1      33.011  29.795  25.763  1.00  0.00     0.116 C 
BRANCH   2   3
ATOM      3  N   UNL A   1      33.590  29.611  24.450  1.00  0.00    -0.355 N 
ATOM      4  C   UNL A   1      33.521  28.541  23.607  1.00  0.00     0.239 C 
ATOM      5  O   UNL A   1      33.868  28.734  22.437  1.00  0.00    -0.273 OA
ATOM      6  H   UNL A   1      34.112  30.375  24.113  1.00  0.00     0.163 HD
BRANCH   4   7
ATOM      7  C   UNL A   1      32.910  27.192  24.027  1.00  0.00     0.219 C 
BRANCH   7   8
ATOM      8  N   UNL A   1      31.450  27.078  23.928  1.00  0.00    -0.331 N 
ATOM      9  C   UNL A   1      30.686  26.902  25.153  1.00  0.00     0.147 C 
BRANCH   8  10
ATOM     10  C   UNL A   1      30.710  27.443  22.791  1.00  0.00     0.272 C 
ATOM     11  O   UNL A   1      30.917  26.940  21.686  1.00  0.00    -0.267 OA
BRANCH  10  12
ATOM     12  C   UNL A   1      29.628  28.460  22.909  1.00  0.00     0.128 A 
ATOM     13  C   UNL A   1      29.925  29.815  22.846  1.00  0.00     0.034 A 
ATOM     14  N   UNL A   1      28.371  27.966  23.046  1.00  0.00    -0.251 NA
ATOM     15  C   UNL A   1      28.876  30.720  22.972  1.00  0.00     0.004 A 
ATOM     16  C   UNL A   1      27.374  28.871  23.122  1.00  0.00     0.112 A 
ATOM     17  C   UNL A   1      27.576  30.243  23.105  1.00  0.00     0.020 A 
ENDBRANCH  10  12
ENDBRANCH   8  10
ENDBRANCH   7   8
ENDBRANCH   4   7
ENDBRANCH   2   3
ENDBRANCH   1   2
BRANCH   1  18
ATOM     18  C   UNL A   1      31.539  31.599  26.886  1.00  0.00     0.023 C 
BRANCH  18  19
ATOM     19  C   UNL A   1      32.753  32.468  27.190  1.00  0.00     0.116 C 
BRANCH  19  20
ATOM     20  N   UNL A   1      32.420  33.845  27.515  1.00  0.00    -0.352 N 
ATOM     21  C   UNL A   1      33.012  34.687  28.426  1.00  0.00     0.251 C 
ATOM     22  H   UNL A   1      31.666  34.229  27.011  1.00  0.00     0.163 HD
ATOM     23  O   UNL A   1      32.547  35.805  28.627  1.00  0.00    -0.269 OA
BRANCH  21  24
ATOM     24  C   UNL A   1      34.187  34.230  29.198  1.00  0.00     0.039 A 
ATOM     25  C   UNL A   1      33.978  33.532  30.391  1.00  0.00     0.014 A 
ATOM     26  C   UNL A   1      35.488  34.466  28.743  1.00  0.00     0.014 A 
ATOM     27  C   UNL A   1      35.067  33.005  31.087  1.00  0.00     0.010 A 
ATOM     28  C   UNL A   1      36.566  33.879  29.398  1.00  0.00     0.010 A 
ATOM     29  C   UNL A   1      36.367  33.139  30.574  1.00  0.00    -0.014 A 
BRANCH  29  30
ATOM     30  C   UNL A   1      37.533  32.514  31.246  1.00  0.00     0.031 A 
ATOM     31  C   UNL A   1      38.280  31.395  30.577  1.00  0.00     0.074 A 
ATOM     32  C   UNL A   1      37.874  32.902  32.489  1.00  0.00     0.049 A 
ATOM     33  N   UNL A   1      39.271  30.670  31.032  1.00  0.00    -0.248 NA
ATOM     34  C   UNL A   1      37.834  31.024  29.226  1.00  0.00     0.031 C 
ATOM     35  C   UNL A   1      37.207  33.950  33.261  1.00  0.00     0.029 A 
ATOM     36  N   UNL A   1      38.866  32.453  33.326  1.00  0.00    -0.354 N 
ATOM     37  C   UNL A   1      39.555  29.751  30.032  1.00  0.00     0.074 A 
ATOM     38  C   UNL A   1      38.594  29.970  28.971  1.00  0.00     0.031 C 
ATOM     39  C   UNL A   1      37.825  34.085  34.445  1.00  0.00     0.029 A 
ATOM     40  C   UNL A   1      38.906  33.108  34.532  1.00  0.00     0.049 A 
ATOM     41  H   UNL A   1      39.489  31.730  33.084  1.00  0.00     0.167 HD
ATOM     42  C   UNL A   1      40.543  28.824  29.988  1.00  0.00     0.037 A 
ATOM     43  C   UNL A   1      39.721  32.937  35.590  1.00  0.00     0.037 A 
ATOM     44  C   UNL A   1      41.507  28.619  31.037  1.00  0.00     0.049 A 
ATOM     45  C   UNL A   1      40.791  31.882  35.532  1.00  0.00     0.074 A 
ATOM     46  C   UNL A   1      42.577  27.742  31.069  1.00  0.00     0.029 A 
ATOM     47  N   UNL A   1      41.513  29.299  32.247  1.00  0.00    -0.354 N 
ATOM     48  N   UNL A   1      41.091  31.058  34.558  1.00  0.00    -0.248 NA
ATOM     49  C   UNL A   1      41.639  31.736  36.724  1.00  0.00     0.031 C 
ATOM     50  C   UNL A   1      43.203  27.859  32.315  1.00  0.00     0.029 A 
ATOM     51  C   UNL A   1      42.554  28.844  33.041  1.00  0.00     0.049 A 
ATOM     52  H   UNL A   1      40.871  30.001  32.503  1.00  0.00     0.167 HD
ATOM     53  C   UNL A   1      42.179  30.319  35.002  1.00  0.00     0.074 A 
ATOM     54  C   UNL A   1      42.491  30.797  36.333  1.00  0.00     0.031 C 
ATOM     55  C   UNL A   1      42.858  29.336  34.363  1.00  0.00     0.037 A 
BRANCH  42  56
ATOM     56  C   UNL A   1      40.620  27.961  28.761  1.00  0.00     0.064 A 
ATOM     57  C   UNL A   1      41.397  28.329  27.650  1.00  0.00     0.173 A 
ATOM     58  C   UNL A   1      39.908  26.756  28.690  1.00  0.00     0.173 A 
ATOM     59  F   UNL A   1      42.088  29.480  27.660  1.00  0.00    -0.203 F 
ATOM     60  C   UNL A   1      41.420  27.545  26.500  1.00  0.00     0.198 A 
ATOM     61  C   UNL A   1      39.961  25.957  27.550  1.00  0.00     0.198 A 
ATOM     62  F   UNL A   1      39.155  26.352  29.724  1.00  0.00    -0.203 F 
ATOM     63  F   UNL A   1      42.115  27.953  25.428  1.00  0.00    -0.200 F 
ATOM     64  C   UNL A   1      40.706  26.358  26.452  1.00  0.00     0.200 A 
ATOM     65  F   UNL A   1      39.280  24.803  27.509  1.00  0.00    -0.200 F 
ATOM     66  F   UNL A   1      40.726  25.607  25.342  1.00  0.00    -0.200 F 
ENDBRANCH  42  56
BRANCH  43  67
ATOM     67  C   UNL A   1      39.584  33.819  36.778  1.00  0.00     0.064 A 
ATOM     68  C   UNL A   1      38.801  33.425  37.871  1.00  0.00     0.173 A 
ATOM     69  C   UNL A   1      40.238  35.056  36.854  1.00  0.00     0.173 A 
ATOM     70  F   UNL A   1      38.139  32.258  37.833  1.00  0.00    -0.203 F 
ATOM     71  C   UNL A   1      38.668  34.239  38.993  1.00  0.00     0.198 A 
ATOM     72  C   UNL A   1      40.125  35.859  37.987  1.00  0.00     0.198 A 
ATOM     73  F   UNL A   1      41.002  35.478  35.836  1.00  0.00    -0.203 F 
ATOM     74  F   UNL A   1      37.885  33.853  40.009  1.00  0.00    -0.200 F 
ATOM     75  C   UNL A   1      39.335  35.452  39.053  1.00  0.00     0.200 A 
ATOM     76  F   UNL A   1      40.781  37.026  38.048  1.00  0.00    -0.200 F 
ATOM     77  F   UNL A   1      39.215  36.233  40.136  1.00  0.00    -0.200 F 
ENDBRANCH  43  67
BRANCH  55  78
ATOM     78  C   UNL A   1      44.034  28.736  35.077  1.00  0.00     0.064 A 
ATOM     79  C   UNL A   1      45.323  29.277  34.962  1.00  0.00     0.173 A 
ATOM     80  C   UNL A   1      43.860  27.628  35.921  1.00  0.00     0.173 A 
ATOM     81  F   UNL A   1      45.545  30.325  34.155  1.00  0.00    -0.203 F 
ATOM     82  C   UNL A   1      46.398  28.716  35.647  1.00  0.00     0.198 A 
ATOM     83  C   UNL A   1      44.931  27.089  36.627  1.00  0.00     0.198 A 
ATOM     84  F   UNL A   1      42.646  27.075  36.070  1.00  0.00    -0.203 F 
ATOM     85  F   UNL A   1      47.628  29.221  35.486  1.00  0.00    -0.200 F 
ATOM     86  C   UNL A   1      46.200  27.629  36.485  1.00  0.00     0.200 A 
ATOM     87  F   UNL A   1      44.736  26.045  37.446  1.00  0.00    -0.200 F 
ATOM     88  F   UNL A   1      47.235  27.096  37.150  1.00  0.00    -0.200 F 
ENDBRANCH  55  78
ENDBRANCH  29  30
ENDBRANCH  21  24
ENDBRANCH  19  20
ENDBRANCH  18  19
ENDBRANCH   1  18
TORSDOF 14
ENDMDL
MODEL 3
REMARK VINA RESULT:     -11.5      4.193     10.232
REMARK SMILES CN(CC(=O)NCCCCNC(=O)c1ccc(-c2c3nc(c(-c4c(F)c(F)c(F)c(F)c4F)c4ccc([nH]4)c(-c4c(F)c(F)c(F)c(F)c4F)c4nc(c(-c5c(F)c(F)c(F)c(F)c5F)c5ccc2[nH]5)C=C4)C=C3)cc1)C(=O)c1ccccn1
REMARK SMILES IDX 8 1 7 2 6 3 4 4 5 5 3 7 2 8 1 9 77 10 78 11 79 12 80 13
REMARK SMILES IDX 84 14 81 15 83 16 82 17 9 18 10 19 11 20 12 21 13 23 14 24
REMARK SMILES IDX 15 25 76 26 16 27 75 28 17 29 18 30 19 31 69 32 20 33 74 34
REMARK SMILES IDX 68 35 70 36 21 37 73 38 67 39 66 40 22 42 54 43 34 44 53 45
REMARK SMILES IDX 35 46 38 47 52 48 71 49 36 50 37 51 51 53 72 54 39 55 23 56
REMARK SMILES IDX 24 57 32 58 25 59 26 60 30 61 33 62 27 63 28 64 31 65 29 66
REMARK SMILES IDX 55 67 56 68 64 69 57 70 58 71 62 72 65 73 59 74 60 75 63 76
REMARK SMILES IDX 61 77 40 78 41 79 49 80 42 81 43 82 47 83 50 84 44 85 45 86
REMARK SMILES IDX 48 87 46 88
REMARK H PARENT 6 6 11 22 70 41 38 52
REMARK Flexibility Score: inf
ROOT
ATOM      1  C   UNL A   1      34.436  35.228  28.486  1.00  0.00     0.023 C 
ENDROOT
BRANCH   1   2
ATOM      2  C   UNL A   1      33.033  35.353  29.079  1.00  0.00     0.116 C 
BRANCH   2   3
ATOM      3  N   UNL A   1      32.835  36.564  29.844  1.00  0.00    -0.355 N 
ATOM      4  C   UNL A   1      32.724  36.738  31.193  1.00  0.00     0.239 C 
ATOM      5  O   UNL A   1      32.833  37.895  31.613  1.00  0.00    -0.273 OA
ATOM      6  H   UNL A   1      32.772  37.389  29.310  1.00  0.00     0.163 HD
BRANCH   4   7
ATOM      7  C   UNL A   1      32.613  35.558  32.174  1.00  0.00     0.219 C 
BRANCH   7   8
ATOM      8  N   UNL A   1      33.871  34.899  32.546  1.00  0.00    -0.331 N 
ATOM      9  C   UNL A   1      35.059  35.722  32.714  1.00  0.00     0.147 C 
BRANCH   8  10
ATOM     10  C   UNL A   1      33.951  33.594  33.062  1.00  0.00     0.272 C 
ATOM     11  O   UNL A   1      32.949  32.962  33.399  1.00  0.00    -0.267 OA
BRANCH  10  12
ATOM     12  C   UNL A   1      35.279  32.935  33.199  1.00  0.00     0.128 A 
ATOM     13  C   UNL A   1      35.840  32.251  32.128  1.00  0.00     0.034 A 
ATOM     14  N   UNL A   1      35.886  33.082  34.404  1.00  0.00    -0.251 NA
ATOM     15  C   UNL A   1      37.079  31.646  32.316  1.00  0.00     0.004 A 
ATOM     16  C   UNL A   1      37.105  32.519  34.538  1.00  0.00     0.112 A 
ATOM     17  C   UNL A   1      37.729  31.787  33.539  1.00  0.00     0.020 A 
ENDBRANCH  10  12
ENDBRANCH   8  10
ENDBRANCH   7   8
ENDBRANCH   4   7
ENDBRANCH   2   3
ENDBRANCH   1   2
BRANCH   1  18
ATOM     18  C   UNL A   1      35.266  34.050  28.999  1.00  0.00     0.023 C 
BRANCH  18  19
ATOM     19  C   UNL A   1      35.639  32.998  27.963  1.00  0.00     0.116 C 
BRANCH  19  20
ATOM     20  N   UNL A   1      34.639  31.954  27.804  1.00  0.00    -0.352 N 
ATOM     21  C   UNL A   1      34.792  30.590  27.878  1.00  0.00     0.251 C 
ATOM     22  H   UNL A   1      33.725  32.268  27.617  1.00  0.00     0.163 HD
ATOM     23  O   UNL A   1      33.844  29.848  27.638  1.00  0.00    -0.269 OA
BRANCH  21  24
ATOM     24  C   UNL A   1      36.113  30.012  28.206  1.00  0.00     0.039 A 
ATOM     25  C   UNL A   1      37.129  30.070  27.248  1.00  0.00     0.014 A 
ATOM     26  C   UNL A   1      36.359  29.436  29.456  1.00  0.00     0.014 A 
ATOM     27  C   UNL A   1      38.412  29.621  27.569  1.00  0.00     0.010 A 
ATOM     28  C   UNL A   1      37.653  29.056  29.798  1.00  0.00     0.010 A 
ATOM     29  C   UNL A   1      38.694  29.148  28.860  1.00  0.00    -0.014 A 
BRANCH  29  30
ATOM     30  C   UNL A   1      40.067  28.747  29.255  1.00  0.00     0.031 A 
ATOM     31  C   UNL A   1      40.891  29.642  30.138  1.00  0.00     0.074 A 
ATOM     32  C   UNL A   1      40.601  27.615  28.759  1.00  0.00     0.049 A 
ATOM     33  N   UNL A   1      42.133  29.507  30.528  1.00  0.00    -0.248 NA
ATOM     34  C   UNL A   1      40.237  30.865  30.624  1.00  0.00     0.031 C 
ATOM     35  C   UNL A   1      39.918  26.680  27.864  1.00  0.00     0.029 A 
ATOM     36  N   UNL A   1      41.844  27.061  28.934  1.00  0.00    -0.354 N 
ATOM     37  C   UNL A   1      42.413  30.632  31.290  1.00  0.00     0.074 A 
ATOM     38  C   UNL A   1      41.231  31.468  31.259  1.00  0.00     0.031 C 
ATOM     39  C   UNL A   1      40.741  25.654  27.591  1.00  0.00     0.029 A 
ATOM     40  C   UNL A   1      42.019  25.878  28.260  1.00  0.00     0.049 A 
ATOM     41  H   UNL A   1      42.545  27.473  29.490  1.00  0.00     0.167 HD
ATOM     42  C   UNL A   1      43.542  30.932  31.976  1.00  0.00     0.037 A 
ATOM     43  C   UNL A   1      43.090  25.066  28.187  1.00  0.00     0.037 A 
ATOM     44  C   UNL A   1      44.710  30.092  32.019  1.00  0.00     0.049 A 
ATOM     45  C   UNL A   1      44.344  25.433  28.932  1.00  0.00     0.074 A 
ATOM     46  C   UNL A   1      45.886  30.280  32.725  1.00  0.00     0.029 A 
ATOM     47  N   UNL A   1      44.852  28.901  31.319  1.00  0.00    -0.354 N 
ATOM     48  N   UNL A   1      44.579  26.470  29.699  1.00  0.00    -0.248 NA
ATOM     49  C   UNL A   1      45.483  24.514  28.801  1.00  0.00     0.031 C 
ATOM     50  C   UNL A   1      46.756  29.227  32.416  1.00  0.00     0.029 A 
ATOM     51  C   UNL A   1      46.104  28.357  31.558  1.00  0.00     0.049 A 
ATOM     52  H   UNL A   1      44.163  28.503  30.738  1.00  0.00     0.167 HD
ATOM     53  C   UNL A   1      45.876  26.313  30.168  1.00  0.00     0.074 A 
ATOM     54  C   UNL A   1      46.376  25.076  29.604  1.00  0.00     0.031 C 
ATOM     55  C   UNL A   1      46.586  27.119  30.995  1.00  0.00     0.037 A 
BRANCH  42  56
ATOM     56  C   UNL A   1      43.562  32.230  32.732  1.00  0.00     0.064 A 
ATOM     57  C   UNL A   1      43.122  32.313  34.063  1.00  0.00     0.173 A 
ATOM     58  C   UNL A   1      44.021  33.405  32.120  1.00  0.00     0.173 A 
ATOM     59  F   UNL A   1      42.660  31.221  34.692  1.00  0.00    -0.203 F 
ATOM     60  C   UNL A   1      43.098  33.532  34.736  1.00  0.00     0.198 A 
ATOM     61  C   UNL A   1      44.028  34.616  32.808  1.00  0.00     0.198 A 
ATOM     62  F   UNL A   1      44.459  33.382  30.853  1.00  0.00    -0.203 F 
ATOM     63  F   UNL A   1      42.610  33.597  35.983  1.00  0.00    -0.200 F 
ATOM     64  C   UNL A   1      43.555  34.681  34.110  1.00  0.00     0.200 A 
ATOM     65  F   UNL A   1      44.481  35.725  32.206  1.00  0.00    -0.200 F 
ATOM     66  F   UNL A   1      43.527  35.854  34.757  1.00  0.00    -0.200 F 
ENDBRANCH  42  56
BRANCH  43  67
ATOM     67  C   UNL A   1      43.007  23.800  27.413  1.00  0.00     0.064 A 
ATOM     68  C   UNL A   1      42.508  22.633  28.008  1.00  0.00     0.173 A 
ATOM     69  C   UNL A   1      43.403  23.732  26.070  1.00  0.00     0.173 A 
ATOM     70  F   UNL A   1      42.137  22.647  29.297  1.00  0.00    -0.203 F 
ATOM     71  C   UNL A   1      42.420  21.442  27.293  1.00  0.00     0.198 A 
ATOM     72  C   UNL A   1      43.291  22.546  25.348  1.00  0.00     0.198 A 
ATOM     73  F   UNL A   1      43.883  24.822  25.454  1.00  0.00    -0.203 F 
ATOM     74  F   UNL A   1      41.973  20.333  27.897  1.00  0.00    -0.200 F 
ATOM     75  C   UNL A   1      42.805  21.400  25.962  1.00  0.00     0.200 A 
ATOM     76  F   UNL A   1      43.652  22.511  24.058  1.00  0.00    -0.200 F 
ATOM     77  F   UNL A   1      42.712  20.255  25.271  1.00  0.00    -0.200 F 
ENDBRANCH  43  67
BRANCH  55  78
ATOM     78  C   UNL A   1      47.968  26.672  31.372  1.00  0.00     0.064 A 
ATOM     79  C   UNL A   1      48.192  25.782  32.434  1.00  0.00     0.173 A 
ATOM     80  C   UNL A   1      49.080  27.108  30.635  1.00  0.00     0.173 A 
ATOM     81  F   UNL A   1      47.165  25.350  33.180  1.00  0.00    -0.203 F 
ATOM     82  C   UNL A   1      49.481  25.366  32.758  1.00  0.00     0.198 A 
ATOM     83  C   UNL A   1      50.363  26.665  30.943  1.00  0.00     0.198 A 
ATOM     84  F   UNL A   1      48.919  27.955  29.606  1.00  0.00    -0.203 F 
ATOM     85  F   UNL A   1      49.676  24.552  33.804  1.00  0.00    -0.200 F 
ATOM     86  C   UNL A   1      50.563  25.801  32.007  1.00  0.00     0.200 A 
ATOM     87  F   UNL A   1      51.407  27.077  30.209  1.00  0.00    -0.200 F 
ATOM     88  F   UNL A   1      51.802  25.392  32.316  1.00  0.00    -0.200 F 
ENDBRANCH  55  78
ENDBRANCH  29  30
ENDBRANCH  21  24
ENDBRANCH  19  20
ENDBRANCH  18  19
ENDBRANCH   1  18
TORSDOF 14
ENDMDL
