MODEL 1
REMARK VINA RESULT:     -13.2      0.000      0.000
REMARK SMILES O=C(NCCCCNC(=O)[C@@H]1CC=CC[C@@H]1C(=O)Nc1ccc(O)cc1)c1ccc(-c2c3nc(c(-c4c(F)c(F)c(F)c(F)c4F)c4ccc([nH]4)c(-c4c(F)c(F)c(F)c(F)c4F)c4nc(c(-c5c(F)c(F)c(F)c(F)c5F)c5ccc2[nH]5)C=C4)C=C3)cc1
REMARK SMILES IDX 6 1 5 2 4 3 3 4 1 5 2 6 27 8 28 9 89 10 29 11 88 12 30 13
REMARK SMILES IDX 31 14 32 15 82 16 33 17 87 18 81 19 83 20 34 21 86 22 80 23
REMARK SMILES IDX 79 24 35 26 67 27 47 28 66 29 48 30 51 31 65 32 84 33 49 34
REMARK SMILES IDX 50 35 64 37 85 38 52 39 36 40 37 41 45 42 38 43 39 44 43 45
REMARK SMILES IDX 46 46 40 47 41 48 44 49 42 50 68 51 69 52 77 53 70 54 71 55
REMARK SMILES IDX 75 56 78 57 72 58 73 59 76 60 74 61 53 62 54 63 62 64 55 65
REMARK SMILES IDX 56 66 60 67 63 68 57 69 58 70 61 71 59 72 7 73 8 74 9 75
REMARK SMILES IDX 10 77 11 78 12 79 16 80 13 81 15 82 14 83 17 84 18 85 19 86
REMARK SMILES IDX 20 88 21 89 26 90 22 91 25 92 23 93 24 94
REMARK H PARENT 3 7 83 25 51 36 8 76 19 87 24 95
REMARK Flexibility Score: inf
ROOT
ATOM      1  C   UNL A   1      31.418  30.731  26.364  1.00  0.00     0.023 C 
ENDROOT
BRANCH   1   2
ATOM      2  C   UNL A   1      31.383  32.247  26.506  1.00  0.00     0.023 C 
BRANCH   2   3
ATOM      3  C   UNL A   1      32.580  32.845  27.229  1.00  0.00     0.116 C 
BRANCH   3   4
ATOM      4  N   UNL A   1      32.362  34.219  27.654  1.00  0.00    -0.352 N 
ATOM      5  O   UNL A   1      32.661  36.040  28.962  1.00  0.00    -0.269 OA
ATOM      6  C   UNL A   1      33.031  34.925  28.625  1.00  0.00     0.251 C 
ATOM      7  H   UNL A   1      31.642  34.704  27.188  1.00  0.00     0.163 HD
BRANCH   6   8
ATOM      8  C   UNL A   1      34.196  34.296  29.276  1.00  0.00     0.039 A 
ATOM      9  C   UNL A   1      34.019  33.479  30.397  1.00  0.00     0.014 A 
ATOM     10  C   UNL A   1      35.474  34.551  28.774  1.00  0.00     0.014 A 
ATOM     11  C   UNL A   1      35.129  33.010  31.086  1.00  0.00     0.010 A 
ATOM     12  C   UNL A   1      36.586  34.011  29.421  1.00  0.00     0.010 A 
ATOM     13  C   UNL A   1      36.419  33.247  30.588  1.00  0.00    -0.014 A 
BRANCH  13  14
ATOM     14  C   UNL A   1      37.574  32.575  31.226  1.00  0.00     0.031 A 
ATOM     15  C   UNL A   1      38.291  31.444  30.555  1.00  0.00     0.074 A 
ATOM     16  C   UNL A   1      37.952  33.005  32.445  1.00  0.00     0.049 A 
ATOM     17  N   UNL A   1      39.290  30.727  31.002  1.00  0.00    -0.248 NA
ATOM     18  C   UNL A   1      37.829  31.058  29.212  1.00  0.00     0.031 C 
ATOM     19  C   UNL A   1      37.302  34.085  33.192  1.00  0.00     0.029 A 
ATOM     20  N   UNL A   1      38.962  32.591  33.272  1.00  0.00    -0.354 N 
ATOM     21  C   UNL A   1      39.563  29.792  30.013  1.00  0.00     0.074 A 
ATOM     22  C   UNL A   1      38.619  30.025  28.940  1.00  0.00     0.031 C 
ATOM     23  C   UNL A   1      37.940  34.262  34.357  1.00  0.00     0.029 A 
ATOM     24  C   UNL A   1      38.999  33.267  34.467  1.00  0.00     0.049 A 
ATOM     25  H   UNL A   1      39.599  31.879  33.034  1.00  0.00     0.167 HD
ATOM     26  C   UNL A   1      40.519  28.833  30.011  1.00  0.00     0.037 A 
ATOM     27  C   UNL A   1      39.773  33.081  35.550  1.00  0.00     0.037 A 
ATOM     28  C   UNL A   1      41.471  28.638  31.075  1.00  0.00     0.049 A 
ATOM     29  C   UNL A   1      40.803  31.991  35.521  1.00  0.00     0.074 A 
ATOM     30  C   UNL A   1      42.541  27.761  31.122  1.00  0.00     0.029 A 
ATOM     31  N   UNL A   1      41.461  29.322  32.280  1.00  0.00    -0.354 N 
ATOM     32  N   UNL A   1      41.098  31.160  34.553  1.00  0.00    -0.248 NA
ATOM     33  C   UNL A   1      41.602  31.804  36.740  1.00  0.00     0.031 C 
ATOM     34  C   UNL A   1      43.144  27.875  32.378  1.00  0.00     0.029 A 
ATOM     35  C   UNL A   1      42.478  28.853  33.098  1.00  0.00     0.049 A 
ATOM     36  H   UNL A   1      40.826  30.033  32.522  1.00  0.00     0.167 HD
ATOM     37  C   UNL A   1      42.112  30.352  35.041  1.00  0.00     0.074 A 
ATOM     38  C   UNL A   1      42.405  30.813  36.382  1.00  0.00     0.031 C 
ATOM     39  C   UNL A   1      42.739  29.315  34.436  1.00  0.00     0.037 A 
BRANCH  26  40
ATOM     40  C   UNL A   1      40.590  27.902  28.838  1.00  0.00     0.064 A 
ATOM     41  C   UNL A   1      39.815  26.736  28.773  1.00  0.00     0.173 A 
ATOM     42  C   UNL A   1      41.365  28.240  27.718  1.00  0.00     0.173 A 
ATOM     43  F   UNL A   1      39.062  26.367  29.820  1.00  0.00    -0.203 F 
ATOM     44  C   UNL A   1      39.817  25.939  27.630  1.00  0.00     0.198 A 
ATOM     45  C   UNL A   1      41.350  27.452  26.570  1.00  0.00     0.198 A 
ATOM     46  F   UNL A   1      42.119  29.350  27.728  1.00  0.00    -0.203 F 
ATOM     47  F   UNL A   1      39.079  24.820  27.594  1.00  0.00    -0.200 F 
ATOM     48  C   UNL A   1      40.574  26.303  26.527  1.00  0.00     0.200 A 
ATOM     49  F   UNL A   1      42.073  27.812  25.501  1.00  0.00    -0.200 F 
ATOM     50  F   UNL A   1      40.558  25.547  25.421  1.00  0.00    -0.200 F 
ENDBRANCH  26  40
BRANCH  27  51
ATOM     51  C   UNL A   1      39.564  33.917  36.758  1.00  0.00     0.064 A 
ATOM     52  C   UNL A   1      38.777  33.468  37.824  1.00  0.00     0.173 A 
ATOM     53  C   UNL A   1      40.159  35.184  36.872  1.00  0.00     0.173 A 
ATOM     54  F   UNL A   1      38.174  32.271  37.753  1.00  0.00    -0.203 F 
ATOM     55  C   UNL A   1      38.576  34.260  38.953  1.00  0.00     0.198 A 
ATOM     56  C   UNL A   1      39.983  35.962  38.012  1.00  0.00     0.198 A 
ATOM     57  F   UNL A   1      40.927  35.657  35.880  1.00  0.00    -0.203 F 
ATOM     58  F   UNL A   1      37.782  33.825  39.940  1.00  0.00    -0.200 F 
ATOM     59  C   UNL A   1      39.184  35.503  39.049  1.00  0.00     0.200 A 
ATOM     60  F   UNL A   1      40.587  37.154  38.107  1.00  0.00    -0.200 F 
ATOM     61  F   UNL A   1      38.994  36.262  40.136  1.00  0.00    -0.200 F 
ENDBRANCH  27  51
BRANCH  39  62
ATOM     62  C   UNL A   1      43.794  28.607  35.229  1.00  0.00     0.064 A 
ATOM     63  C   UNL A   1      45.139  29.000  35.159  1.00  0.00     0.173 A 
ATOM     64  C   UNL A   1      43.458  27.550  36.086  1.00  0.00     0.173 A 
ATOM     65  F   UNL A   1      45.510  29.994  34.336  1.00  0.00    -0.203 F 
ATOM     66  C   UNL A   1      46.113  28.345  35.905  1.00  0.00     0.198 A 
ATOM     67  C   UNL A   1      44.431  26.915  36.851  1.00  0.00     0.198 A 
ATOM     68  F   UNL A   1      42.185  27.141  36.188  1.00  0.00    -0.203 F 
ATOM     69  F   UNL A   1      47.398  28.708  35.791  1.00  0.00    -0.200 F 
ATOM     70  C   UNL A   1      45.758  27.308  36.755  1.00  0.00     0.200 A 
ATOM     71  F   UNL A   1      44.086  25.919  37.679  1.00  0.00    -0.200 F 
ATOM     72  F   UNL A   1      46.697  26.682  37.478  1.00  0.00    -0.200 F 
ENDBRANCH  39  62
ENDBRANCH  13  14
ENDBRANCH   6   8
ENDBRANCH   3   4
ENDBRANCH   2   3
ENDBRANCH   1   2
BRANCH   1  73
ATOM     73  C   UNL A   1      32.799  30.110  26.543  1.00  0.00     0.116 C 
BRANCH  73  74
ATOM     74  N   UNL A   1      33.435  29.769  25.280  1.00  0.00    -0.356 N 
ATOM     75  C   UNL A   1      33.526  28.543  24.674  1.00  0.00     0.224 C 
ATOM     76  H   UNL A   1      33.854  30.518  24.797  1.00  0.00     0.163 HD
ATOM     77  O   UNL A   1      34.109  28.437  23.598  1.00  0.00    -0.275 OA
BRANCH  75  78
ATOM     78  C   UNL A   1      32.911  27.367  25.399  1.00  0.00     0.095 C 
ATOM     79  C   UNL A   1      33.783  26.113  25.374  1.00  0.00     0.041 C 
ATOM     80  C   UNL A   1      31.460  27.070  24.953  1.00  0.00     0.095 C 
ATOM     81  C   UNL A   1      33.111  25.018  26.160  1.00  0.00    -0.030 C 
ATOM     82  C   UNL A   1      30.845  26.084  25.947  1.00  0.00     0.041 C 
ATOM     83  C   UNL A   1      31.799  25.032  26.452  1.00  0.00    -0.030 C 
BRANCH  80  84
ATOM     84  C   UNL A   1      31.311  26.892  23.426  1.00  0.00     0.228 C 
ATOM     85  O   UNL A   1      32.050  26.064  22.870  1.00  0.00    -0.274 OA
ATOM     86  N   UNL A   1      30.323  27.423  22.657  1.00  0.00    -0.326 N 
ATOM     87  H   UNL A   1      30.153  26.928  21.824  1.00  0.00     0.169 HD
BRANCH  86  88
ATOM     88  C   UNL A   1      29.507  28.540  22.834  1.00  0.00     0.041 A 
ATOM     89  C   UNL A   1      30.028  29.822  22.989  1.00  0.00     0.030 A 
ATOM     90  C   UNL A   1      28.124  28.358  22.802  1.00  0.00     0.030 A 
ATOM     91  C   UNL A   1      29.187  30.888  23.316  1.00  0.00     0.048 A 
ATOM     92  C   UNL A   1      27.279  29.418  23.130  1.00  0.00     0.048 A 
ATOM     93  C   UNL A   1      27.821  30.662  23.433  1.00  0.00     0.115 A 
BRANCH  93  94
ATOM     94  O   UNL A   1      26.977  31.643  23.857  1.00  0.00    -0.508 OA
ATOM     95  H   UNL A   1      26.948  31.876  24.764  1.00  0.00     0.293 HD
ENDBRANCH  93  94
ENDBRANCH  86  88
ENDBRANCH  80  84
ENDBRANCH  75  78
ENDBRANCH  73  74
ENDBRANCH   1  73
TORSDOF 14
ENDMDL
MODEL 2
REMARK VINA RESULT:     -13.1      6.172     11.571
REMARK SMILES O=C(NCCCCNC(=O)[C@@H]1CC=CC[C@@H]1C(=O)Nc1ccc(O)cc1)c1ccc(-c2c3nc(c(-c4c(F)c(F)c(F)c(F)c4F)c4ccc([nH]4)c(-c4c(F)c(F)c(F)c(F)c4F)c4nc(c(-c5c(F)c(F)c(F)c(F)c5F)c5ccc2[nH]5)C=C4)C=C3)cc1
REMARK SMILES IDX 6 1 5 2 4 3 3 4 1 5 2 6 27 8 28 9 89 10 29 11 88 12 30 13
REMARK SMILES IDX 31 14 32 15 82 16 33 17 87 18 81 19 83 20 34 21 86 22 80 23
REMARK SMILES IDX 79 24 35 26 67 27 47 28 66 29 48 30 51 31 65 32 84 33 49 34
REMARK SMILES IDX 50 35 64 37 85 38 52 39 36 40 37 41 45 42 38 43 39 44 43 45
REMARK SMILES IDX 46 46 40 47 41 48 44 49 42 50 68 51 69 52 77 53 70 54 71 55
REMARK SMILES IDX 75 56 78 57 72 58 73 59 76 60 74 61 53 62 54 63 62 64 55 65
REMARK SMILES IDX 56 66 60 67 63 68 57 69 58 70 61 71 59 72 7 73 8 74 9 75
REMARK SMILES IDX 10 77 11 78 12 79 16 80 13 81 15 82 14 83 17 84 18 85 19 86
REMARK SMILES IDX 20 88 21 89 26 90 22 91 25 92 23 93 24 94
REMARK H PARENT 3 7 83 25 51 36 8 76 19 87 24 95
REMARK Flexibility Score: inf
ROOT
ATOM      1  C   UNL A   1      36.985  20.672  24.614  1.00  0.00     0.023 C 
ENDROOT
BRANCH   1   2
ATOM      2  C   UNL A   1      37.989  19.587  24.983  1.00  0.00     0.023 C 
BRANCH   2   3
ATOM      3  C   UNL A   1      39.203  20.082  25.754  1.00  0.00     0.116 C 
BRANCH   3   4
ATOM      4  N   UNL A   1      40.258  19.086  25.856  1.00  0.00    -0.352 N 
ATOM      5  O   UNL A   1      42.393  18.363  26.048  1.00  0.00    -0.269 OA
ATOM      6  C   UNL A   1      41.594  19.286  26.109  1.00  0.00     0.251 C 
ATOM      7  H   UNL A   1      39.981  18.150  25.725  1.00  0.00     0.163 HD
BRANCH   6   8
ATOM      8  C   UNL A   1      42.053  20.651  26.432  1.00  0.00     0.039 A 
ATOM      9  C   UNL A   1      42.298  21.571  25.407  1.00  0.00     0.014 A 
ATOM     10  C   UNL A   1      42.264  20.997  27.768  1.00  0.00     0.014 A 
ATOM     11  C   UNL A   1      42.864  22.801  25.711  1.00  0.00     0.010 A 
ATOM     12  C   UNL A   1      42.757  22.266  28.078  1.00  0.00     0.010 A 
ATOM     13  C   UNL A   1      43.071  23.169  27.050  1.00  0.00    -0.014 A 
BRANCH  13  14
ATOM     14  C   UNL A   1      43.491  24.555  27.360  1.00  0.00     0.031 A 
ATOM     15  C   UNL A   1      42.522  25.567  27.891  1.00  0.00     0.074 A 
ATOM     16  C   UNL A   1      44.777  24.885  27.132  1.00  0.00     0.049 A 
ATOM     17  N   UNL A   1      42.726  26.829  28.170  1.00  0.00    -0.248 NA
ATOM     18  C   UNL A   1      41.143  25.114  28.136  1.00  0.00     0.031 C 
ATOM     19  C   UNL A   1      45.793  23.975  26.595  1.00  0.00     0.029 A 
ATOM     20  N   UNL A   1      45.450  26.063  27.316  1.00  0.00    -0.354 N 
ATOM     21  C   UNL A   1      41.504  27.328  28.599  1.00  0.00     0.074 A 
ATOM     22  C   UNL A   1      40.557  26.235  28.538  1.00  0.00     0.031 C 
ATOM     23  C   UNL A   1      46.964  24.622  26.510  1.00  0.00     0.029 A 
ATOM     24  C   UNL A   1      46.765  26.006  26.924  1.00  0.00     0.049 A 
ATOM     25  H   UNL A   1      45.033  26.872  27.693  1.00  0.00     0.167 HD
ATOM     26  C   UNL A   1      41.213  28.586  29.007  1.00  0.00     0.037 A 
ATOM     27  C   UNL A   1      47.700  26.970  26.866  1.00  0.00     0.037 A 
ATOM     28  C   UNL A   1      42.178  29.652  29.093  1.00  0.00     0.049 A 
ATOM     29  C   UNL A   1      47.333  28.357  27.301  1.00  0.00     0.074 A 
ATOM     30  C   UNL A   1      42.004  30.933  29.590  1.00  0.00     0.029 A 
ATOM     31  N   UNL A   1      43.492  29.566  28.662  1.00  0.00    -0.354 N 
ATOM     32  N   UNL A   1      46.193  28.799  27.771  1.00  0.00    -0.248 NA
ATOM     33  C   UNL A   1      48.377  29.384  27.187  1.00  0.00     0.031 C 
ATOM     34  C   UNL A   1      43.197  31.638  29.408  1.00  0.00     0.029 A 
ATOM     35  C   UNL A   1      44.128  30.785  28.837  1.00  0.00     0.049 A 
ATOM     36  H   UNL A   1      43.912  28.760  28.285  1.00  0.00     0.167 HD
ATOM     37  C   UNL A   1      46.380  30.152  28.009  1.00  0.00     0.074 A 
ATOM     38  C   UNL A   1      47.753  30.452  27.661  1.00  0.00     0.031 C 
ATOM     39  C   UNL A   1      45.491  31.065  28.466  1.00  0.00     0.037 A 
BRANCH  26  40
ATOM     40  C   UNL A   1      39.796  28.902  29.384  1.00  0.00     0.064 A 
ATOM     41  C   UNL A   1      38.861  29.340  28.436  1.00  0.00     0.173 A 
ATOM     42  C   UNL A   1      39.344  28.657  30.690  1.00  0.00     0.173 A 
ATOM     43  F   UNL A   1      39.245  29.593  27.177  1.00  0.00    -0.203 F 
ATOM     44  C   UNL A   1      37.525  29.528  28.784  1.00  0.00     0.198 A 
ATOM     45  C   UNL A   1      38.005  28.826  31.029  1.00  0.00     0.198 A 
ATOM     46  F   UNL A   1      40.199  28.229  31.631  1.00  0.00    -0.203 F 
ATOM     47  F   UNL A   1      36.650  29.961  27.866  1.00  0.00    -0.200 F 
ATOM     48  C   UNL A   1      37.096  29.260  30.076  1.00  0.00     0.200 A 
ATOM     49  F   UNL A   1      37.590  28.556  32.274  1.00  0.00    -0.200 F 
ATOM     50  F   UNL A   1      35.806  29.420  30.403  1.00  0.00    -0.200 F 
ENDBRANCH  26  40
BRANCH  27  51
ATOM     51  C   UNL A   1      49.050  26.657  26.333  1.00  0.00     0.064 A 
ATOM     52  C   UNL A   1      49.367  26.878  24.987  1.00  0.00     0.173 A 
ATOM     53  C   UNL A   1      50.053  26.137  27.166  1.00  0.00     0.173 A 
ATOM     54  F   UNL A   1      48.434  27.357  24.150  1.00  0.00    -0.203 F 
ATOM     55  C   UNL A   1      50.632  26.574  24.489  1.00  0.00     0.198 A 
ATOM     56  C   UNL A   1      51.326  25.863  26.674  1.00  0.00     0.198 A 
ATOM     57  F   UNL A   1      49.800  25.913  28.463  1.00  0.00    -0.203 F 
ATOM     58  F   UNL A   1      50.897  26.754  23.188  1.00  0.00    -0.200 F 
ATOM     59  C   UNL A   1      51.612  26.074  25.333  1.00  0.00     0.200 A 
ATOM     60  F   UNL A   1      52.273  25.396  27.498  1.00  0.00    -0.200 F 
ATOM     61  F   UNL A   1      52.829  25.787  24.855  1.00  0.00    -0.200 F 
ENDBRANCH  27  51
BRANCH  39  62
ATOM     62  C   UNL A   1      45.979  32.475  28.604  1.00  0.00     0.064 A 
ATOM     63  C   UNL A   1      46.604  32.913  29.781  1.00  0.00     0.173 A 
ATOM     64  C   UNL A   1      45.850  33.384  27.545  1.00  0.00     0.173 A 
ATOM     65  F   UNL A   1      46.731  32.083  30.827  1.00  0.00    -0.203 F 
ATOM     66  C   UNL A   1      47.065  34.221  29.898  1.00  0.00     0.198 A 
ATOM     67  C   UNL A   1      46.336  34.683  27.657  1.00  0.00     0.198 A 
ATOM     68  F   UNL A   1      45.261  33.009  26.399  1.00  0.00    -0.203 F 
ATOM     69  F   UNL A   1      47.620  34.632  31.047  1.00  0.00    -0.200 F 
ATOM     70  C   UNL A   1      46.936  35.102  28.836  1.00  0.00     0.200 A 
ATOM     71  F   UNL A   1      46.220  35.532  26.626  1.00  0.00    -0.200 F 
ATOM     72  F   UNL A   1      47.386  36.359  28.949  1.00  0.00    -0.200 F 
ENDBRANCH  39  62
ENDBRANCH  13  14
ENDBRANCH   6   8
ENDBRANCH   3   4
ENDBRANCH   2   3
ENDBRANCH   1   2
BRANCH   1  73
ATOM     73  C   UNL A   1      37.163  21.984  25.370  1.00  0.00     0.116 C 
BRANCH  73  74
ATOM     74  N   UNL A   1      36.212  22.143  26.459  1.00  0.00    -0.356 N 
ATOM     75  C   UNL A   1      35.057  22.880  26.481  1.00  0.00     0.224 C 
ATOM     76  H   UNL A   1      36.425  21.656  27.288  1.00  0.00     0.163 HD
ATOM     77  O   UNL A   1      34.369  22.905  27.499  1.00  0.00    -0.275 OA
BRANCH  75  78
ATOM     78  C   UNL A   1      34.708  23.658  25.232  1.00  0.00     0.095 C 
ATOM     79  C   UNL A   1      34.107  25.032  25.517  1.00  0.00     0.041 C 
ATOM     80  C   UNL A   1      33.849  22.848  24.233  1.00  0.00     0.095 C 
ATOM     81  C   UNL A   1      33.841  25.744  24.217  1.00  0.00    -0.030 C 
ATOM     82  C   UNL A   1      33.820  23.602  22.903  1.00  0.00     0.041 C 
ATOM     83  C   UNL A   1      33.757  25.102  23.039  1.00  0.00    -0.030 C 
BRANCH  80  84
ATOM     84  C   UNL A   1      32.571  22.253  24.864  1.00  0.00     0.228 C 
ATOM     85  O   UNL A   1      31.869  23.006  25.558  1.00  0.00    -0.274 OA
ATOM     86  N   UNL A   1      32.042  21.031  24.585  1.00  0.00    -0.326 N 
ATOM     87  H   UNL A   1      31.076  20.962  24.760  1.00  0.00     0.169 HD
BRANCH  86  88
ATOM     88  C   UNL A   1      32.618  19.859  24.097  1.00  0.00     0.041 A 
ATOM     89  C   UNL A   1      32.190  19.257  22.917  1.00  0.00     0.030 A 
ATOM     90  C   UNL A   1      33.694  19.311  24.798  1.00  0.00     0.030 A 
ATOM     91  C   UNL A   1      32.686  18.006  22.545  1.00  0.00     0.048 A 
ATOM     92  C   UNL A   1      34.193  18.061  24.433  1.00  0.00     0.048 A 
ATOM     93  C   UNL A   1      33.651  17.397  23.338  1.00  0.00     0.115 A 
BRANCH  93  94
ATOM     94  O   UNL A   1      34.084  16.132  23.078  1.00  0.00    -0.508 OA
ATOM     95  H   UNL A   1      34.660  15.702  23.678  1.00  0.00     0.293 HD
ENDBRANCH  93  94
ENDBRANCH  86  88
ENDBRANCH  80  84
ENDBRANCH  75  78
ENDBRANCH  73  74
ENDBRANCH   1  73
TORSDOF 14
ENDMDL
MODEL 3
REMARK VINA RESULT:     -13.1      0.175      1.602
REMARK SMILES O=C(NCCCCNC(=O)[C@@H]1CC=CC[C@@H]1C(=O)Nc1ccc(O)cc1)c1ccc(-c2c3nc(c(-c4c(F)c(F)c(F)c(F)c4F)c4ccc([nH]4)c(-c4c(F)c(F)c(F)c(F)c4F)c4nc(c(-c5c(F)c(F)c(F)c(F)c5F)c5ccc2[nH]5)C=C4)C=C3)cc1
REMARK SMILES IDX 6 1 5 2 4 3 3 4 1 5 2 6 27 8 28 9 89 10 29 11 88 12 30 13
REMARK SMILES IDX 31 14 32 15 82 16 33 17 87 18 81 19 83 20 34 21 86 22 80 23
REMARK SMILES IDX 79 24 35 26 67 27 47 28 66 29 48 30 51 31 65 32 84 33 49 34
REMARK SMILES IDX 50 35 64 37 85 38 52 39 36 40 37 41 45 42 38 43 39 44 43 45
REMARK SMILES IDX 46 46 40 47 41 48 44 49 42 50 68 51 69 52 77 53 70 54 71 55
REMARK SMILES IDX 75 56 78 57 72 58 73 59 76 60 74 61 53 62 54 63 62 64 55 65
REMARK SMILES IDX 56 66 60 67 63 68 57 69 58 70 61 71 59 72 7 73 8 74 9 75
REMARK SMILES IDX 10 77 11 78 12 79 16 80 13 81 15 82 14 83 17 84 18 85 19 86
REMARK SMILES IDX 20 88 21 89 26 90 22 91 25 92 23 93 24 94
REMARK H PARENT 3 7 83 25 51 36 8 76 19 87 24 95
REMARK Flexibility Score: inf
ROOT
ATOM      1  C   UNL A   1      31.414  30.725  26.437  1.00  0.00     0.023 C 
ENDROOT
BRANCH   1   2
ATOM      2  C   UNL A   1      31.384  32.246  26.526  1.00  0.00     0.023 C 
BRANCH   2   3
ATOM      3  C   UNL A   1      32.593  32.866  27.208  1.00  0.00     0.116 C 
BRANCH   3   4
ATOM      4  N   UNL A   1      32.355  34.227  27.663  1.00  0.00    -0.352 N 
ATOM      5  O   UNL A   1      32.621  36.020  29.016  1.00  0.00    -0.269 OA
ATOM      6  C   UNL A   1      33.006  34.917  28.657  1.00  0.00     0.251 C 
ATOM      7  H   UNL A   1      31.635  34.715  27.201  1.00  0.00     0.163 HD
BRANCH   6   8
ATOM      8  C   UNL A   1      34.172  34.285  29.305  1.00  0.00     0.039 A 
ATOM      9  C   UNL A   1      33.995  33.460  30.420  1.00  0.00     0.014 A 
ATOM     10  C   UNL A   1      35.450  34.546  28.807  1.00  0.00     0.014 A 
ATOM     11  C   UNL A   1      35.104  32.988  31.107  1.00  0.00     0.010 A 
ATOM     12  C   UNL A   1      36.562  34.003  29.451  1.00  0.00     0.010 A 
ATOM     13  C   UNL A   1      36.395  33.231  30.612  1.00  0.00    -0.014 A 
BRANCH  13  14
ATOM     14  C   UNL A   1      37.551  32.556  31.247  1.00  0.00     0.031 A 
ATOM     15  C   UNL A   1      38.245  31.405  30.586  1.00  0.00     0.074 A 
ATOM     16  C   UNL A   1      37.949  33.002  32.454  1.00  0.00     0.049 A 
ATOM     17  N   UNL A   1      39.242  30.684  31.033  1.00  0.00    -0.248 NA
ATOM     18  C   UNL A   1      37.762  31.001  29.256  1.00  0.00     0.031 C 
ATOM     19  C   UNL A   1      37.322  34.103  33.190  1.00  0.00     0.029 A 
ATOM     20  N   UNL A   1      38.965  32.591  33.274  1.00  0.00    -0.354 N 
ATOM     21  C   UNL A   1      39.491  29.729  30.057  1.00  0.00     0.074 A 
ATOM     22  C   UNL A   1      38.535  29.954  28.993  1.00  0.00     0.031 C 
ATOM     23  C   UNL A   1      37.977  34.293  34.343  1.00  0.00     0.029 A 
ATOM     24  C   UNL A   1      39.025  33.286  34.457  1.00  0.00     0.049 A 
ATOM     25  H   UNL A   1      39.591  31.867  33.041  1.00  0.00     0.167 HD
ATOM     26  C   UNL A   1      40.435  28.758  30.059  1.00  0.00     0.037 A 
ATOM     27  C   UNL A   1      39.812  33.110  35.533  1.00  0.00     0.037 A 
ATOM     28  C   UNL A   1      41.399  28.571  31.114  1.00  0.00     0.049 A 
ATOM     29  C   UNL A   1      40.829  32.008  35.510  1.00  0.00     0.074 A 
ATOM     30  C   UNL A   1      42.459  27.682  31.163  1.00  0.00     0.029 A 
ATOM     31  N   UNL A   1      41.413  29.275  32.307  1.00  0.00    -0.354 N 
ATOM     32  N   UNL A   1      41.100  31.157  34.552  1.00  0.00    -0.248 NA
ATOM     33  C   UNL A   1      41.641  31.833  36.721  1.00  0.00     0.031 C 
ATOM     34  C   UNL A   1      43.080  27.811  32.408  1.00  0.00     0.029 A 
ATOM     35  C   UNL A   1      42.434  28.808  33.120  1.00  0.00     0.049 A 
ATOM     36  H   UNL A   1      40.789  29.999  32.545  1.00  0.00     0.167 HD
ATOM     37  C   UNL A   1      42.112  30.346  35.041  1.00  0.00     0.074 A 
ATOM     38  C   UNL A   1      42.428  30.826  36.370  1.00  0.00     0.031 C 
ATOM     39  C   UNL A   1      42.718  29.290  34.446  1.00  0.00     0.037 A 
BRANCH  26  40
ATOM     40  C   UNL A   1      40.480  27.806  28.902  1.00  0.00     0.064 A 
ATOM     41  C   UNL A   1      41.327  28.017  27.806  1.00  0.00     0.173 A 
ATOM     42  C   UNL A   1      39.744  26.612  28.945  1.00  0.00     0.173 A 
ATOM     43  F   UNL A   1      42.047  29.145  27.716  1.00  0.00    -0.203 F 
ATOM     44  C   UNL A   1      41.432  27.068  26.791  1.00  0.00     0.198 A 
ATOM     45  C   UNL A   1      39.866  25.658  27.939  1.00  0.00     0.198 A 
ATOM     46  F   UNL A   1      38.924  26.360  29.977  1.00  0.00    -0.203 F 
ATOM     47  F   UNL A   1      42.238  27.295  25.744  1.00  0.00    -0.200 F 
ATOM     48  C   UNL A   1      40.711  25.886  26.863  1.00  0.00     0.200 A 
ATOM     49  F   UNL A   1      39.177  24.510  28.017  1.00  0.00    -0.200 F 
ATOM     50  F   UNL A   1      40.830  24.965  25.897  1.00  0.00    -0.200 F 
ENDBRANCH  26  40
BRANCH  27  51
ATOM     51  C   UNL A   1      39.629  33.970  36.729  1.00  0.00     0.064 A 
ATOM     52  C   UNL A   1      38.830  33.558  37.802  1.00  0.00     0.173 A 
ATOM     53  C   UNL A   1      40.259  35.221  36.823  1.00  0.00     0.173 A 
ATOM     54  F   UNL A   1      38.194  32.378  37.749  1.00  0.00    -0.203 F 
ATOM     55  C   UNL A   1      38.653  34.372  38.919  1.00  0.00     0.198 A 
ATOM     56  C   UNL A   1      40.107  36.020  37.952  1.00  0.00     0.198 A 
ATOM     57  F   UNL A   1      41.038  35.658  35.823  1.00  0.00    -0.203 F 
ATOM     58  F   UNL A   1      37.849  33.975  39.914  1.00  0.00    -0.200 F 
ATOM     59  C   UNL A   1      39.297  35.599  38.996  1.00  0.00     0.200 A 
ATOM     60  F   UNL A   1      40.744  37.196  38.029  1.00  0.00    -0.200 F 
ATOM     61  F   UNL A   1      39.130  36.379  40.072  1.00  0.00    -0.200 F 
ENDBRANCH  27  51
BRANCH  39  62
ATOM     62  C   UNL A   1      43.775  28.584  35.238  1.00  0.00     0.064 A 
ATOM     63  C   UNL A   1      43.446  27.543  36.120  1.00  0.00     0.173 A 
ATOM     64  C   UNL A   1      45.127  28.927  35.095  1.00  0.00     0.173 A 
ATOM     65  F   UNL A   1      42.163  27.196  36.304  1.00  0.00    -0.203 F 
ATOM     66  C   UNL A   1      44.433  26.885  36.845  1.00  0.00     0.198 A 
ATOM     67  C   UNL A   1      46.114  28.247  35.802  1.00  0.00     0.198 A 
ATOM     68  F   UNL A   1      45.490  29.913  34.262  1.00  0.00    -0.203 F 
ATOM     69  F   UNL A   1      44.093  25.922  37.714  1.00  0.00    -0.200 F 
ATOM     70  C   UNL A   1      45.765  27.232  36.681  1.00  0.00     0.200 A 
ATOM     71  F   UNL A   1      47.402  28.577  35.637  1.00  0.00    -0.200 F 
ATOM     72  F   UNL A   1      46.716  26.592  37.376  1.00  0.00    -0.200 F 
ENDBRANCH  39  62
ENDBRANCH  13  14
ENDBRANCH   6   8
ENDBRANCH   3   4
ENDBRANCH   2   3
ENDBRANCH   1   2
BRANCH   1  73
ATOM     73  C   UNL A   1      32.802  30.110  26.573  1.00  0.00     0.116 C 
BRANCH  73  74
ATOM     74  N   UNL A   1      33.407  29.789  25.289  1.00  0.00    -0.356 N 
ATOM     75  C   UNL A   1      33.492  28.571  24.667  1.00  0.00     0.224 C 
ATOM     76  H   UNL A   1      33.807  30.547  24.804  1.00  0.00     0.163 HD
ATOM     77  O   UNL A   1      34.047  28.482  23.575  1.00  0.00    -0.275 OA
BRANCH  75  78
ATOM     78  C   UNL A   1      32.907  27.381  25.394  1.00  0.00     0.095 C 
ATOM     79  C   UNL A   1      33.803  26.145  25.361  1.00  0.00     0.041 C 
ATOM     80  C   UNL A   1      31.459  27.056  24.959  1.00  0.00     0.095 C 
ATOM     81  C   UNL A   1      33.159  25.036  26.149  1.00  0.00    -0.030 C 
ATOM     82  C   UNL A   1      30.871  26.057  25.956  1.00  0.00     0.041 C 
ATOM     83  C   UNL A   1      31.849  25.023  26.451  1.00  0.00    -0.030 C 
BRANCH  80  84
ATOM     84  C   UNL A   1      31.302  26.878  23.433  1.00  0.00     0.228 C 
ATOM     85  O   UNL A   1      32.033  26.044  22.874  1.00  0.00    -0.274 OA
ATOM     86  N   UNL A   1      30.314  27.414  22.668  1.00  0.00    -0.326 N 
ATOM     87  H   UNL A   1      30.137  26.920  21.835  1.00  0.00     0.169 HD
BRANCH  86  88
ATOM     88  C   UNL A   1      29.506  28.537  22.847  1.00  0.00     0.041 A 
ATOM     89  C   UNL A   1      30.037  29.812  23.029  1.00  0.00     0.030 A 
ATOM     90  C   UNL A   1      28.122  28.370  22.788  1.00  0.00     0.030 A 
ATOM     91  C   UNL A   1      29.201  30.881  23.357  1.00  0.00     0.048 A 
ATOM     92  C   UNL A   1      27.282  29.433  23.118  1.00  0.00     0.048 A 
ATOM     93  C   UNL A   1      27.831  30.667  23.448  1.00  0.00     0.115 A 
BRANCH  93  94
ATOM     94  O   UNL A   1      26.989  31.650  23.872  1.00  0.00    -0.508 OA
ATOM     95  H   UNL A   1      27.143  32.539  23.621  1.00  0.00     0.293 HD
ENDBRANCH  93  94
ENDBRANCH  86  88
ENDBRANCH  80  84
ENDBRANCH  75  78
ENDBRANCH  73  74
ENDBRANCH   1  73
TORSDOF 14
ENDMDL
