MODEL 1
REMARK VINA RESULT:     -11.8      0.000      0.000
REMARK SMILES CC(C)C[C@H](C)NS(=O)(=O)c1cc(C(=O)NCCCCNC(=O)c2ccc(-c3c4nc(c(-c5c(F)c(F)c(F)c(F)c5F)c5ccc([nH]5)c(-c5c(F)c(F)c(F)c(F)c5F)c5nc(c(-c6c(F)c(F)c(F)c(F)c6F)c6ccc3[nH]6)C=C5)C=C4)cc2)ccc1Cl
REMARK SMILES IDX 17 1 16 2 14 3 15 4 13 6 11 7 12 8 89 9 88 10 90 11 87 12
REMARK SMILES IDX 8 13 9 14 10 15 7 16 5 18 6 19 4 20 2 21 1 22 3 23 18 24
REMARK SMILES IDX 19 25 20 26 21 27 22 28 23 30 24 31 25 32 86 33 26 34 85 35
REMARK SMILES IDX 27 36 28 37 29 38 79 39 30 40 84 41 78 42 80 43 31 44 83 45
REMARK SMILES IDX 77 46 76 47 32 49 64 50 44 51 63 52 45 53 48 54 62 55 81 56
REMARK SMILES IDX 46 57 47 58 61 60 82 61 49 62 33 63 34 64 42 65 35 66 36 67
REMARK SMILES IDX 40 68 43 69 37 70 38 71 41 72 39 73 65 74 66 75 74 76 67 77
REMARK SMILES IDX 68 78 72 79 75 80 69 81 70 82 73 83 71 84 50 85 51 86 59 87
REMARK SMILES IDX 52 88 53 89 57 90 60 91 54 92 55 93 58 94 56 95
REMARK H PARENT 16 5 7 17 21 29 80 48 48 59
REMARK Flexibility Score: inf
ROOT
ATOM      1  C   UNL A   1      36.915  22.220  25.321  1.00  0.00     0.116 C 
ENDROOT
BRANCH   1   2
ATOM      2  N   UNL A   1      35.868  22.780  26.159  1.00  0.00    -0.352 N 
ATOM      3  C   UNL A   1      34.680  23.426  25.917  1.00  0.00     0.251 C 
ATOM      4  O   UNL A   1      34.014  23.760  26.898  1.00  0.00    -0.269 OA
ATOM      5  H   UNL A   1      36.052  22.671  27.120  1.00  0.00     0.163 HD
BRANCH   3   6
ATOM      6  C   UNL A   1      34.159  23.779  24.564  1.00  0.00     0.041 A 
ATOM      7  C   UNL A   1      33.624  25.564  22.963  1.00  0.00     0.101 A 
ATOM      8  C   UNL A   1      34.122  25.143  24.215  1.00  0.00     0.037 A 
ATOM      9  C   UNL A   1      33.299  24.617  21.997  1.00  0.00     0.061 A 
ATOM     10  C   UNL A   1      33.267  23.269  22.367  1.00  0.00     0.023 A 
ATOM     11  Cl  UNL A   1      32.910  24.945  20.353  1.00  0.00    -0.083 Cl
ATOM     12  C   UNL A   1      33.623  22.868  23.658  1.00  0.00     0.015 A 
BRANCH   7  13
ATOM     13  S   UNL A   1      33.385  27.301  22.732  1.00  0.00     0.242 S 
ATOM     14  O   UNL A   1      34.135  27.779  21.591  1.00  0.00    -0.207 OA
ATOM     15  O   UNL A   1      33.548  27.931  24.020  1.00  0.00    -0.207 OA
BRANCH  13  16
ATOM     16  N   UNL A   1      31.767  27.523  22.281  1.00  0.00    -0.208 NA
ATOM     17  H   UNL A   1      31.793  28.052  21.409  1.00  0.00     0.141 HD
BRANCH  16  18
ATOM     18  C   UNL A   1      30.747  28.196  23.126  1.00  0.00     0.067 C 
ATOM     19  C   UNL A   1      30.280  29.404  22.295  1.00  0.00     0.025 C 
BRANCH  18  20
ATOM     20  C   UNL A   1      29.514  27.325  23.440  1.00  0.00     0.022 C 
BRANCH  20  21
ATOM     21  C   UNL A   1      29.699  26.162  24.431  1.00  0.00    -0.016 C 
ATOM     22  C   UNL A   1      30.188  24.877  23.766  1.00  0.00     0.007 C 
ATOM     23  C   UNL A   1      30.702  26.556  25.522  1.00  0.00     0.007 C 
ENDBRANCH  20  21
ENDBRANCH  18  20
ENDBRANCH  16  18
ENDBRANCH  13  16
ENDBRANCH   7  13
ENDBRANCH   3   6
ENDBRANCH   1   2
BRANCH   1  24
ATOM     24  C   UNL A   1      36.753  20.732  25.035  1.00  0.00     0.023 C 
BRANCH  24  25
ATOM     25  C   UNL A   1      38.046  19.956  24.788  1.00  0.00     0.023 C 
BRANCH  25  26
ATOM     26  C   UNL A   1      39.183  20.196  25.779  1.00  0.00     0.116 C 
BRANCH  26  27
ATOM     27  N   UNL A   1      40.166  19.126  25.840  1.00  0.00    -0.352 N 
ATOM     28  C   UNL A   1      41.506  19.189  26.143  1.00  0.00     0.251 C 
ATOM     29  H   UNL A   1      39.823  18.225  25.636  1.00  0.00     0.163 HD
ATOM     30  O   UNL A   1      42.187  18.169  26.115  1.00  0.00    -0.269 OA
BRANCH  28  31
ATOM     31  C   UNL A   1      42.143  20.490  26.446  1.00  0.00     0.039 A 
ATOM     32  C   UNL A   1      42.665  21.235  25.384  1.00  0.00     0.014 A 
ATOM     33  C   UNL A   1      42.212  20.990  27.749  1.00  0.00     0.014 A 
ATOM     34  C   UNL A   1      43.180  22.512  25.617  1.00  0.00     0.010 A 
ATOM     35  C   UNL A   1      42.663  22.290  27.972  1.00  0.00     0.010 A 
ATOM     36  C   UNL A   1      43.142  23.067  26.908  1.00  0.00    -0.014 A 
BRANCH  36  37
ATOM     37  C   UNL A   1      43.568  24.469  27.141  1.00  0.00     0.031 A 
ATOM     38  C   UNL A   1      42.600  25.487  27.675  1.00  0.00     0.074 A 
ATOM     39  C   UNL A   1      44.822  24.839  26.817  1.00  0.00     0.049 A 
ATOM     40  N   UNL A   1      42.797  26.755  27.938  1.00  0.00    -0.248 NA
ATOM     41  C   UNL A   1      41.225  25.030  27.916  1.00  0.00     0.031 C 
ATOM     42  C   UNL A   1      45.833  23.963  26.220  1.00  0.00     0.029 A 
ATOM     43  N   UNL A   1      45.462  26.047  26.941  1.00  0.00    -0.354 N 
ATOM     44  C   UNL A   1      41.571  27.246  28.365  1.00  0.00     0.074 A 
ATOM     45  C   UNL A   1      40.625  26.155  28.277  1.00  0.00     0.031 C 
ATOM     46  C   UNL A   1      46.974  24.653  26.059  1.00  0.00     0.029 A 
ATOM     47  C   UNL A   1      46.769  26.023  26.521  1.00  0.00     0.049 A 
ATOM     48  H   UNL A   1      45.024  26.854  27.296  1.00  0.00     0.167 HD
ATOM     49  C   UNL A   1      41.267  28.488  28.813  1.00  0.00     0.037 A 
ATOM     50  C   UNL A   1      47.702  26.994  26.522  1.00  0.00     0.037 A 
ATOM     51  C   UNL A   1      42.215  29.567  28.926  1.00  0.00     0.049 A 
ATOM     52  C   UNL A   1      47.353  28.347  27.074  1.00  0.00     0.074 A 
ATOM     53  C   UNL A   1      42.018  30.844  29.423  1.00  0.00     0.029 A 
ATOM     54  N   UNL A   1      43.545  29.490  28.538  1.00  0.00    -0.354 N 
ATOM     55  N   UNL A   1      46.211  28.778  27.551  1.00  0.00    -0.248 NA
ATOM     56  C   UNL A   1      48.431  29.346  27.104  1.00  0.00     0.031 C 
ATOM     57  C   UNL A   1      43.220  31.550  29.308  1.00  0.00     0.029 A 
ATOM     58  C   UNL A   1      44.178  30.700  28.777  1.00  0.00     0.049 A 
ATOM     59  H   UNL A   1      43.975  28.694  28.151  1.00  0.00     0.167 HD
ATOM     60  C   UNL A   1      46.437  30.083  27.962  1.00  0.00     0.074 A 
ATOM     61  C   UNL A   1      47.831  30.370  27.694  1.00  0.00     0.031 C 
ATOM     62  C   UNL A   1      45.567  30.966  28.512  1.00  0.00     0.037 A 
BRANCH  49  63
ATOM     63  C   UNL A   1      39.848  28.744  29.227  1.00  0.00     0.064 A 
ATOM     64  C   UNL A   1      38.895  29.230  28.318  1.00  0.00     0.173 A 
ATOM     65  C   UNL A   1      39.426  28.474  30.537  1.00  0.00     0.173 A 
ATOM     66  F   UNL A   1      39.252  29.517  27.057  1.00  0.00    -0.203 F 
ATOM     67  C   UNL A   1      37.581  29.462  28.712  1.00  0.00     0.198 A 
ATOM     68  C   UNL A   1      38.103  28.682  30.921  1.00  0.00     0.198 A 
ATOM     69  F   UNL A   1      40.295  28.004  31.445  1.00  0.00    -0.203 F 
ATOM     70  F   UNL A   1      36.701  29.973  27.839  1.00  0.00    -0.200 F 
ATOM     71  C   UNL A   1      37.184  29.182  30.011  1.00  0.00     0.200 A 
ATOM     72  F   UNL A   1      37.717  28.401  32.174  1.00  0.00    -0.200 F 
ATOM     73  F   UNL A   1      35.917  29.402  30.387  1.00  0.00    -0.200 F 
ENDBRANCH  49  63
BRANCH  50  74
ATOM     74  C   UNL A   1      49.074  26.700  26.039  1.00  0.00     0.064 A 
ATOM     75  C   UNL A   1      49.452  27.008  24.724  1.00  0.00     0.173 A 
ATOM     76  C   UNL A   1      50.033  26.110  26.873  1.00  0.00     0.173 A 
ATOM     77  F   UNL A   1      48.561  27.557  23.884  1.00  0.00    -0.203 F 
ATOM     78  C   UNL A   1      50.731  26.720  24.256  1.00  0.00     0.198 A 
ATOM     79  C   UNL A   1      51.320  25.843  26.412  1.00  0.00     0.198 A 
ATOM     80  F   UNL A   1      49.722  25.803  28.141  1.00  0.00    -0.203 F 
ATOM     81  F   UNL A   1      51.053  26.987  22.983  1.00  0.00    -0.200 F 
ATOM     82  C   UNL A   1      51.666  26.141  25.101  1.00  0.00     0.200 A 
ATOM     83  F   UNL A   1      52.226  25.296  27.234  1.00  0.00    -0.200 F 
ATOM     84  F   UNL A   1      52.899  25.866  24.653  1.00  0.00    -0.200 F 
ENDBRANCH  50  74
BRANCH  62  85
ATOM     85  C   UNL A   1      46.110  32.313  28.888  1.00  0.00     0.064 A 
ATOM     86  C   UNL A   1      46.650  32.560  30.159  1.00  0.00     0.173 A 
ATOM     87  C   UNL A   1      46.102  33.365  27.960  1.00  0.00     0.173 A 
ATOM     88  F   UNL A   1      46.665  31.590  31.085  1.00  0.00    -0.203 F 
ATOM     89  C   UNL A   1      47.134  33.821  30.497  1.00  0.00     0.198 A 
ATOM     90  C   UNL A   1      46.610  34.617  28.293  1.00  0.00     0.198 A 
ATOM     91  F   UNL A   1      45.601  33.178  26.730  1.00  0.00    -0.203 F 
ATOM     92  F   UNL A   1      47.597  34.049  31.734  1.00  0.00    -0.200 F 
ATOM     93  C   UNL A   1      47.119  34.846  29.563  1.00  0.00     0.200 A 
ATOM     94  F   UNL A   1      46.603  35.604  27.386  1.00  0.00    -0.200 F 
ATOM     95  F   UNL A   1      47.582  36.059  29.891  1.00  0.00    -0.200 F 
ENDBRANCH  62  85
ENDBRANCH  36  37
ENDBRANCH  28  31
ENDBRANCH  26  27
ENDBRANCH  25  26
ENDBRANCH  24  25
ENDBRANCH   1  24
TORSDOF 16
ENDMDL
MODEL 2
REMARK VINA RESULT:     -11.6      5.432      9.719
REMARK SMILES CC(C)C[C@H](C)NS(=O)(=O)c1cc(C(=O)NCCCCNC(=O)c2ccc(-c3c4nc(c(-c5c(F)c(F)c(F)c(F)c5F)c5ccc([nH]5)c(-c5c(F)c(F)c(F)c(F)c5F)c5nc(c(-c6c(F)c(F)c(F)c(F)c6F)c6ccc3[nH]6)C=C5)C=C4)cc2)ccc1Cl
REMARK SMILES IDX 17 1 16 2 14 3 15 4 13 6 11 7 12 8 89 9 88 10 90 11 87 12
REMARK SMILES IDX 8 13 9 14 10 15 7 16 5 18 6 19 4 20 2 21 1 22 3 23 18 24
REMARK SMILES IDX 19 25 20 26 21 27 22 28 23 30 24 31 25 32 86 33 26 34 85 35
REMARK SMILES IDX 27 36 28 37 29 38 79 39 30 40 84 41 78 42 80 43 31 44 83 45
REMARK SMILES IDX 77 46 76 47 32 49 64 50 44 51 63 52 45 53 48 54 62 55 81 56
REMARK SMILES IDX 46 57 47 58 61 60 82 61 49 62 33 63 34 64 42 65 35 66 36 67
REMARK SMILES IDX 40 68 43 69 37 70 38 71 41 72 39 73 65 74 66 75 74 76 67 77
REMARK SMILES IDX 68 78 72 79 75 80 69 81 70 82 73 83 71 84 50 85 51 86 59 87
REMARK SMILES IDX 52 88 53 89 57 90 60 91 54 92 55 93 58 94 56 95
REMARK H PARENT 16 5 7 17 21 29 80 48 48 59
REMARK Flexibility Score: inf
ROOT
ATOM      1  C   UNL A   1      34.506  29.557  27.519  1.00  0.00     0.116 C 
ENDROOT
BRANCH   1   2
ATOM      2  N   UNL A   1      33.213  28.987  27.856  1.00  0.00    -0.352 N 
ATOM      3  C   UNL A   1      32.373  28.078  27.260  1.00  0.00     0.251 C 
ATOM      4  O   UNL A   1      31.327  27.809  27.853  1.00  0.00    -0.269 OA
ATOM      5  H   UNL A   1      32.856  29.332  28.707  1.00  0.00     0.163 HD
BRANCH   3   6
ATOM      6  C   UNL A   1      32.619  27.424  25.941  1.00  0.00     0.041 A 
ATOM      7  C   UNL A   1      32.042  25.593  24.410  1.00  0.00     0.101 A 
ATOM      8  C   UNL A   1      31.858  26.282  25.627  1.00  0.00     0.037 A 
ATOM      9  C   UNL A   1      32.882  26.125  23.437  1.00  0.00     0.061 A 
ATOM     10  C   UNL A   1      33.690  27.214  23.775  1.00  0.00     0.023 A 
ATOM     11  Cl  UNL A   1      33.042  25.555  21.820  1.00  0.00    -0.083 Cl
ATOM     12  C   UNL A   1      33.607  27.807  25.039  1.00  0.00     0.015 A 
BRANCH   7  13
ATOM     13  S   UNL A   1      31.222  24.035  24.231  1.00  0.00     0.242 S 
ATOM     14  O   UNL A   1      30.275  24.072  23.138  1.00  0.00    -0.207 OA
ATOM     15  O   UNL A   1      30.794  23.624  25.547  1.00  0.00    -0.207 OA
BRANCH  13  16
ATOM     16  N   UNL A   1      32.390  22.916  23.726  1.00  0.00    -0.208 NA
ATOM     17  H   UNL A   1      31.979  22.428  22.929  1.00  0.00     0.141 HD
BRANCH  16  18
ATOM     18  C   UNL A   1      32.962  21.853  24.593  1.00  0.00     0.067 C 
ATOM     19  C   UNL A   1      32.658  20.537  23.857  1.00  0.00     0.025 C 
BRANCH  18  20
ATOM     20  C   UNL A   1      34.488  21.951  24.787  1.00  0.00     0.022 C 
BRANCH  20  21
ATOM     21  C   UNL A   1      35.198  23.194  24.220  1.00  0.00    -0.016 C 
ATOM     22  C   UNL A   1      35.542  24.231  25.289  1.00  0.00     0.007 C 
ATOM     23  C   UNL A   1      36.492  22.781  23.509  1.00  0.00     0.007 C 
ENDBRANCH  20  21
ENDBRANCH  18  20
ENDBRANCH  16  18
ENDBRANCH  13  16
ENDBRANCH   7  13
ENDBRANCH   3   6
ENDBRANCH   1   2
BRANCH   1  24
ATOM     24  C   UNL A   1      34.601  31.060  27.751  1.00  0.00     0.023 C 
BRANCH  24  25
ATOM     25  C   UNL A   1      33.271  31.802  27.875  1.00  0.00     0.023 C 
BRANCH  25  26
ATOM     26  C   UNL A   1      33.077  33.008  26.958  1.00  0.00     0.116 C 
BRANCH  26  27
ATOM     27  N   UNL A   1      32.588  34.203  27.628  1.00  0.00    -0.352 N 
ATOM     28  C   UNL A   1      33.092  34.851  28.732  1.00  0.00     0.251 C 
ATOM     29  H   UNL A   1      31.780  34.606  27.236  1.00  0.00     0.163 HD
ATOM     30  O   UNL A   1      32.518  35.841  29.174  1.00  0.00    -0.269 OA
BRANCH  28  31
ATOM     31  C   UNL A   1      34.291  34.326  29.425  1.00  0.00     0.039 A 
ATOM     32  C   UNL A   1      34.107  33.575  30.589  1.00  0.00     0.014 A 
ATOM     33  C   UNL A   1      35.580  34.546  28.932  1.00  0.00     0.014 A 
ATOM     34  C   UNL A   1      35.205  32.977  31.211  1.00  0.00     0.010 A 
ATOM     35  C   UNL A   1      36.666  33.893  29.513  1.00  0.00     0.010 A 
ATOM     36  C   UNL A   1      36.488  33.096  30.652  1.00  0.00    -0.014 A 
BRANCH  36  37
ATOM     37  C   UNL A   1      37.638  32.359  31.233  1.00  0.00     0.031 A 
ATOM     38  C   UNL A   1      38.137  32.680  32.614  1.00  0.00     0.074 A 
ATOM     39  C   UNL A   1      38.270  31.432  30.488  1.00  0.00     0.049 A 
ATOM     40  N   UNL A   1      39.126  32.142  33.280  1.00  0.00    -0.248 NA
ATOM     41  C   UNL A   1      37.454  33.768  33.328  1.00  0.00     0.031 C 
ATOM     42  C   UNL A   1      37.931  31.082  29.107  1.00  0.00     0.029 A 
ATOM     43  N   UNL A   1      39.332  30.614  30.786  1.00  0.00    -0.354 N 
ATOM     44  C   UNL A   1      39.191  32.831  34.484  1.00  0.00     0.074 A 
ATOM     45  C   UNL A   1      38.175  33.860  34.436  1.00  0.00     0.031 C 
ATOM     46  C   UNL A   1      38.747  30.101  28.689  1.00  0.00     0.029 A 
ATOM     47  C   UNL A   1      39.678  29.768  29.762  1.00  0.00     0.049 A 
ATOM     48  H   UNL A   1      39.802  30.634  31.651  1.00  0.00     0.167 HD
ATOM     49  C   UNL A   1      40.007  32.610  35.542  1.00  0.00     0.037 A 
ATOM     50  C   UNL A   1      40.631  28.819  29.701  1.00  0.00     0.037 A 
ATOM     51  C   UNL A   1      41.000  31.568  35.601  1.00  0.00     0.049 A 
ATOM     52  C   UNL A   1      41.487  28.558  30.908  1.00  0.00     0.074 A 
ATOM     53  C   UNL A   1      41.835  31.226  36.650  1.00  0.00     0.029 A 
ATOM     54  N   UNL A   1      41.287  30.696  34.561  1.00  0.00    -0.354 N 
ATOM     55  N   UNL A   1      41.485  29.163  32.071  1.00  0.00    -0.248 NA
ATOM     56  C   UNL A   1      42.469  27.469  30.800  1.00  0.00     0.031 C 
ATOM     57  C   UNL A   1      42.650  30.167  36.236  1.00  0.00     0.029 A 
ATOM     58  C   UNL A   1      42.294  29.822  34.942  1.00  0.00     0.049 A 
ATOM     59  H   UNL A   1      40.843  30.697  33.683  1.00  0.00     0.167 HD
ATOM     60  C   UNL A   1      42.439  28.513  32.840  1.00  0.00     0.074 A 
ATOM     61  C   UNL A   1      42.990  27.456  32.018  1.00  0.00     0.031 C 
ATOM     62  C   UNL A   1      42.825  28.770  34.114  1.00  0.00     0.037 A 
BRANCH  49  63
ATOM     63  C   UNL A   1      39.850  33.508  36.734  1.00  0.00     0.064 A 
ATOM     64  C   UNL A   1      40.582  34.700  36.854  1.00  0.00     0.173 A 
ATOM     65  C   UNL A   1      38.939  33.192  37.753  1.00  0.00     0.173 A 
ATOM     66  F   UNL A   1      41.475  35.040  35.913  1.00  0.00    -0.203 F 
ATOM     67  C   UNL A   1      40.427  35.528  37.962  1.00  0.00     0.198 A 
ATOM     68  C   UNL A   1      38.767  34.037  38.847  1.00  0.00     0.198 A 
ATOM     69  F   UNL A   1      38.211  32.067  37.685  1.00  0.00    -0.203 F 
ATOM     70  F   UNL A   1      41.172  36.636  38.078  1.00  0.00    -0.200 F 
ATOM     71  C   UNL A   1      39.516  35.199  38.954  1.00  0.00     0.200 A 
ATOM     72  F   UNL A   1      37.878  33.724  39.800  1.00  0.00    -0.200 F 
ATOM     73  F   UNL A   1      39.365  35.999  40.019  1.00  0.00    -0.200 F 
ENDBRANCH  49  63
BRANCH  50  74
ATOM     74  C   UNL A   1      40.784  28.003  28.470  1.00  0.00     0.064 A 
ATOM     75  C   UNL A   1      41.600  28.440  27.417  1.00  0.00     0.173 A 
ATOM     76  C   UNL A   1      40.122  26.777  28.319  1.00  0.00     0.173 A 
ATOM     77  F   UNL A   1      42.238  29.617  27.510  1.00  0.00    -0.203 F 
ATOM     78  C   UNL A   1      41.735  27.690  26.251  1.00  0.00     0.198 A 
ATOM     79  C   UNL A   1      40.276  26.015  27.162  1.00  0.00     0.198 A 
ATOM     80  F   UNL A   1      39.336  26.312  29.301  1.00  0.00    -0.203 F 
ATOM     81  F   UNL A   1      42.489  28.151  25.244  1.00  0.00    -0.200 F 
ATOM     82  C   UNL A   1      41.076  26.476  26.126  1.00  0.00     0.200 A 
ATOM     83  F   UNL A   1      39.649  24.837  27.049  1.00  0.00    -0.200 F 
ATOM     84  F   UNL A   1      41.207  25.753  25.006  1.00  0.00    -0.200 F 
ENDBRANCH  50  74
BRANCH  62  85
ATOM     85  C   UNL A   1      43.871  27.871  34.703  1.00  0.00     0.064 A 
ATOM     86  C   UNL A   1      43.534  26.664  35.332  1.00  0.00     0.173 A 
ATOM     87  C   UNL A   1      45.229  28.217  34.626  1.00  0.00     0.173 A 
ATOM     88  F   UNL A   1      42.248  26.298  35.445  1.00  0.00    -0.203 F 
ATOM     89  C   UNL A   1      44.517  25.849  35.888  1.00  0.00     0.198 A 
ATOM     90  C   UNL A   1      46.210  27.388  35.161  1.00  0.00     0.198 A 
ATOM     91  F   UNL A   1      45.602  29.360  34.031  1.00  0.00    -0.203 F 
ATOM     92  F   UNL A   1      44.168  24.725  36.530  1.00  0.00    -0.200 F 
ATOM     93  C   UNL A   1      45.853  26.209  35.798  1.00  0.00     0.200 A 
ATOM     94  F   UNL A   1      47.501  27.733  35.064  1.00  0.00    -0.200 F 
ATOM     95  F   UNL A   1      46.797  25.425  36.337  1.00  0.00    -0.200 F 
ENDBRANCH  62  85
ENDBRANCH  36  37
ENDBRANCH  28  31
ENDBRANCH  26  27
ENDBRANCH  25  26
ENDBRANCH  24  25
ENDBRANCH   1  24
TORSDOF 16
ENDMDL
MODEL 3
REMARK VINA RESULT:     -11.6      5.565     11.147
REMARK SMILES CC(C)C[C@H](C)NS(=O)(=O)c1cc(C(=O)NCCCCNC(=O)c2ccc(-c3c4nc(c(-c5c(F)c(F)c(F)c(F)c5F)c5ccc([nH]5)c(-c5c(F)c(F)c(F)c(F)c5F)c5nc(c(-c6c(F)c(F)c(F)c(F)c6F)c6ccc3[nH]6)C=C5)C=C4)cc2)ccc1Cl
REMARK SMILES IDX 17 1 16 2 14 3 15 4 13 6 11 7 12 8 89 9 88 10 90 11 87 12
REMARK SMILES IDX 8 13 9 14 10 15 7 16 5 18 6 19 4 20 2 21 1 22 3 23 18 24
REMARK SMILES IDX 19 25 20 26 21 27 22 28 23 30 24 31 25 32 86 33 26 34 85 35
REMARK SMILES IDX 27 36 28 37 29 38 79 39 30 40 84 41 78 42 80 43 31 44 83 45
REMARK SMILES IDX 77 46 76 47 32 49 64 50 44 51 63 52 45 53 48 54 62 55 81 56
REMARK SMILES IDX 46 57 47 58 61 60 82 61 49 62 33 63 34 64 42 65 35 66 36 67
REMARK SMILES IDX 40 68 43 69 37 70 38 71 41 72 39 73 65 74 66 75 74 76 67 77
REMARK SMILES IDX 68 78 72 79 75 80 69 81 70 82 73 83 71 84 50 85 51 86 59 87
REMARK SMILES IDX 52 88 53 89 57 90 60 91 54 92 55 93 58 94 56 95
REMARK H PARENT 16 5 7 17 21 29 80 48 48 59
REMARK Flexibility Score: inf
ROOT
ATOM      1  C   UNL A   1      31.482  29.926  25.183  1.00  0.00     0.116 C 
ENDROOT
BRANCH   1   2
ATOM      2  N   UNL A   1      32.675  29.509  24.467  1.00  0.00    -0.352 N 
ATOM      3  C   UNL A   1      33.177  28.301  24.048  1.00  0.00     0.251 C 
ATOM      4  O   UNL A   1      34.246  28.321  23.434  1.00  0.00    -0.269 OA
ATOM      5  H   UNL A   1      33.258  30.266  24.226  1.00  0.00     0.163 HD
BRANCH   3   6
ATOM      6  C   UNL A   1      32.545  26.975  24.310  1.00  0.00     0.041 A 
ATOM      7  C   UNL A   1      32.714  24.534  24.098  1.00  0.00     0.101 A 
ATOM      8  C   UNL A   1      33.250  25.825  23.906  1.00  0.00     0.037 A 
ATOM      9  C   UNL A   1      31.540  24.377  24.828  1.00  0.00     0.061 A 
ATOM     10  C   UNL A   1      30.805  25.517  25.164  1.00  0.00     0.023 A 
ATOM     11  Cl  UNL A   1      30.875  22.881  25.360  1.00  0.00    -0.083 Cl
ATOM     12  C   UNL A   1      31.272  26.795  24.842  1.00  0.00     0.015 A 
BRANCH   7  13
ATOM     13  S   UNL A   1      33.560  23.185  23.327  1.00  0.00     0.242 S 
ATOM     14  O   UNL A   1      34.848  23.604  22.821  1.00  0.00    -0.207 OA
ATOM     15  O   UNL A   1      32.615  22.532  22.451  1.00  0.00    -0.207 OA
BRANCH  13  16
ATOM     16  N   UNL A   1      33.939  22.074  24.548  1.00  0.00    -0.208 NA
ATOM     17  H   UNL A   1      33.044  21.755  24.920  1.00  0.00     0.141 HD
BRANCH  16  18
ATOM     18  C   UNL A   1      34.776  22.387  25.735  1.00  0.00     0.067 C 
ATOM     19  C   UNL A   1      33.933  21.941  26.942  1.00  0.00     0.025 C 
BRANCH  18  20
ATOM     20  C   UNL A   1      36.116  21.627  25.781  1.00  0.00     0.022 C 
BRANCH  20  21
ATOM     21  C   UNL A   1      37.348  22.322  25.174  1.00  0.00    -0.016 C 
ATOM     22  C   UNL A   1      37.330  23.840  25.348  1.00  0.00     0.007 C 
ATOM     23  C   UNL A   1      38.629  21.775  25.815  1.00  0.00     0.007 C 
ENDBRANCH  20  21
ENDBRANCH  18  20
ENDBRANCH  16  18
ENDBRANCH  13  16
ENDBRANCH   7  13
ENDBRANCH   3   6
ENDBRANCH   1   2
BRANCH   1  24
ATOM     24  C   UNL A   1      31.758  30.499  26.568  1.00  0.00     0.023 C 
BRANCH  24  25
ATOM     25  C   UNL A   1      31.523  32.001  26.727  1.00  0.00     0.023 C 
BRANCH  25  26
ATOM     26  C   UNL A   1      32.698  32.821  27.253  1.00  0.00     0.116 C 
BRANCH  26  27
ATOM     27  N   UNL A   1      32.355  34.176  27.657  1.00  0.00    -0.352 N 
ATOM     28  C   UNL A   1      32.963  34.989  28.585  1.00  0.00     0.251 C 
ATOM     29  H   UNL A   1      31.576  34.568  27.200  1.00  0.00     0.163 HD
ATOM     30  O   UNL A   1      32.506  36.105  28.811  1.00  0.00    -0.269 OA
BRANCH  28  31
ATOM     31  C   UNL A   1      34.131  34.503  29.354  1.00  0.00     0.039 A 
ATOM     32  C   UNL A   1      33.908  33.958  30.622  1.00  0.00     0.014 A 
ATOM     33  C   UNL A   1      35.427  34.559  28.836  1.00  0.00     0.014 A 
ATOM     34  C   UNL A   1      34.970  33.395  31.333  1.00  0.00     0.010 A 
ATOM     35  C   UNL A   1      36.474  33.937  29.514  1.00  0.00     0.010 A 
ATOM     36  C   UNL A   1      36.254  33.341  30.764  1.00  0.00    -0.014 A 
BRANCH  36  37
ATOM     37  C   UNL A   1      37.359  32.632  31.457  1.00  0.00     0.031 A 
ATOM     38  C   UNL A   1      38.050  31.467  30.808  1.00  0.00     0.074 A 
ATOM     39  C   UNL A   1      37.703  33.009  32.704  1.00  0.00     0.049 A 
ATOM     40  N   UNL A   1      39.031  30.730  31.264  1.00  0.00    -0.248 NA
ATOM     41  C   UNL A   1      37.556  31.057  29.486  1.00  0.00     0.031 C 
ATOM     42  C   UNL A   1      37.058  34.075  33.473  1.00  0.00     0.029 A 
ATOM     43  N   UNL A   1      38.679  32.537  33.546  1.00  0.00    -0.354 N 
ATOM     44  C   UNL A   1      39.263  29.766  30.292  1.00  0.00     0.074 A 
ATOM     45  C   UNL A   1      38.287  29.979  29.245  1.00  0.00     0.031 C 
ATOM     46  C   UNL A   1      37.675  34.198  34.659  1.00  0.00     0.029 A 
ATOM     47  C   UNL A   1      38.743  33.206  34.743  1.00  0.00     0.049 A 
ATOM     48  H   UNL A   1      39.275  31.789  33.314  1.00  0.00     0.167 HD
ATOM     49  C   UNL A   1      40.218  28.805  30.265  1.00  0.00     0.037 A 
ATOM     50  C   UNL A   1      39.580  33.047  35.786  1.00  0.00     0.037 A 
ATOM     51  C   UNL A   1      41.205  28.610  31.294  1.00  0.00     0.049 A 
ATOM     52  C   UNL A   1      40.664  32.010  35.706  1.00  0.00     0.074 A 
ATOM     53  C   UNL A   1      42.251  27.703  31.330  1.00  0.00     0.029 A 
ATOM     54  N   UNL A   1      41.271  29.342  32.471  1.00  0.00    -0.354 N 
ATOM     55  N   UNL A   1      40.925  31.157  34.747  1.00  0.00    -0.248 NA
ATOM     56  C   UNL A   1      41.583  31.926  36.851  1.00  0.00     0.031 C 
ATOM     57  C   UNL A   1      42.930  27.865  32.543  1.00  0.00     0.029 A 
ATOM     58  C   UNL A   1      42.334  28.900  33.244  1.00  0.00     0.049 A 
ATOM     59  H   UNL A   1      40.654  30.067  32.720  1.00  0.00     0.167 HD
ATOM     60  C   UNL A   1      42.050  30.455  35.155  1.00  0.00     0.074 A 
ATOM     61  C   UNL A   1      42.432  30.993  36.444  1.00  0.00     0.031 C 
ATOM     62  C   UNL A   1      42.706  29.452  34.521  1.00  0.00     0.037 A 
BRANCH  49  63
ATOM     63  C   UNL A   1      40.247  27.896  29.071  1.00  0.00     0.064 A 
ATOM     64  C   UNL A   1      40.986  28.219  27.922  1.00  0.00     0.173 A 
ATOM     65  C   UNL A   1      39.557  26.675  29.085  1.00  0.00     0.173 A 
ATOM     66  F   UNL A   1      41.652  29.381  27.854  1.00  0.00    -0.203 F 
ATOM     67  C   UNL A   1      41.009  27.367  26.822  1.00  0.00     0.198 A 
ATOM     68  C   UNL A   1      39.604  25.813  27.992  1.00  0.00     0.198 A 
ATOM     69  F   UNL A   1      38.840  26.315  30.161  1.00  0.00    -0.203 F 
ATOM     70  F   UNL A   1      41.681  27.721  25.717  1.00  0.00    -0.200 F 
ATOM     71  C   UNL A   1      40.323  26.163  26.860  1.00  0.00     0.200 A 
ATOM     72  F   UNL A   1      38.950  24.643  28.034  1.00  0.00    -0.200 F 
ATOM     73  F   UNL A   1      40.349  25.342  25.800  1.00  0.00    -0.200 F 
ENDBRANCH  49  63
BRANCH  50  74
ATOM     74  C   UNL A   1      39.462  33.935  36.970  1.00  0.00     0.064 A 
ATOM     75  C   UNL A   1      38.721  33.538  38.092  1.00  0.00     0.173 A 
ATOM     76  C   UNL A   1      40.082  35.191  37.007  1.00  0.00     0.173 A 
ATOM     77  F   UNL A   1      38.094  32.352  38.094  1.00  0.00    -0.203 F 
ATOM     78  C   UNL A   1      38.589  34.372  39.200  1.00  0.00     0.198 A 
ATOM     79  C   UNL A   1      39.971  36.015  38.125  1.00  0.00     0.198 A 
ATOM     80  F   UNL A   1      40.808  35.612  35.961  1.00  0.00    -0.203 F 
ATOM     81  F   UNL A   1      37.842  33.984  40.242  1.00  0.00    -0.200 F 
ATOM     82  C   UNL A   1      39.218  35.608  39.217  1.00  0.00     0.200 A 
ATOM     83  F   UNL A   1      40.590  37.203  38.145  1.00  0.00    -0.200 F 
ATOM     84  F   UNL A   1      39.094  36.409  40.284  1.00  0.00    -0.200 F 
ENDBRANCH  50  74
BRANCH  62  85
ATOM     85  C   UNL A   1      43.924  28.899  35.199  1.00  0.00     0.064 A 
ATOM     86  C   UNL A   1      43.833  27.873  36.150  1.00  0.00     0.173 A 
ATOM     87  C   UNL A   1      45.198  29.395  34.883  1.00  0.00     0.173 A 
ATOM     88  F   UNL A   1      42.636  27.378  36.497  1.00  0.00    -0.203 F 
ATOM     89  C   UNL A   1      44.973  27.382  36.783  1.00  0.00     0.198 A 
ATOM     90  C   UNL A   1      46.337  28.884  35.498  1.00  0.00     0.198 A 
ATOM     91  F   UNL A   1      45.337  30.373  33.976  1.00  0.00    -0.203 F 
ATOM     92  F   UNL A   1      44.859  26.437  37.727  1.00  0.00    -0.200 F 
ATOM     93  C   UNL A   1      46.223  27.884  36.453  1.00  0.00     0.200 A 
ATOM     94  F   UNL A   1      47.545  29.364  35.172  1.00  0.00    -0.200 F 
ATOM     95  F   UNL A   1      47.318  27.413  37.065  1.00  0.00    -0.200 F 
ENDBRANCH  62  85
ENDBRANCH  36  37
ENDBRANCH  28  31
ENDBRANCH  26  27
ENDBRANCH  25  26
ENDBRANCH  24  25
ENDBRANCH   1  24
TORSDOF 16
ENDMDL
