MODEL 1
REMARK VINA RESULT:     -12.8      0.000      0.000
REMARK SMILES O=C(NCCCCNC(=O)c1cc2ncoc2cn1)c1ccc(-c2c3nc(c(-c4c(F)c(F)c(F)c(F)c4F)c4ccc([nH]4)c(-c4c(F)c(F)c(F)c(F)c4F)c4nc(c(-c5c(F)c(F)c(F)c(F)c5F)c5ccc2[nH]5)C=C4)C=C3)cc1
REMARK SMILES IDX 4 1 3 2 1 3 2 4 20 6 21 7 82 8 22 9 81 10 23 11 24 12 25 13
REMARK SMILES IDX 75 14 26 15 80 16 74 17 76 18 27 19 79 20 73 21 72 22 28 24
REMARK SMILES IDX 60 25 40 26 59 27 41 28 44 29 58 30 77 31 42 32 43 33 57 35
REMARK SMILES IDX 78 36 45 37 29 38 30 39 38 40 31 41 32 42 36 43 39 44 33 45
REMARK SMILES IDX 34 46 37 47 35 48 61 49 62 50 70 51 63 52 64 53 68 54 71 55
REMARK SMILES IDX 65 56 66 57 69 58 67 59 46 60 47 61 55 62 48 63 49 64 53 65
REMARK SMILES IDX 56 66 50 67 51 68 54 69 52 70 5 71 6 72 7 73 8 74 9 75 10 77
REMARK SMILES IDX 11 78 12 79 19 80 13 81 18 82 14 83 17 84 15 85 16 86
REMARK H PARENT 3 5 76 23 44 34 8 76
REMARK Flexibility Score: inf
ROOT
ATOM      1  C   UNL A   1      35.087  32.899  29.923  1.00  0.00     0.116 C 
ENDROOT
BRANCH   1   2
ATOM      2  N   UNL A   1      34.409  32.042  28.941  1.00  0.00    -0.352 N 
ATOM      3  O   UNL A   1      34.365  30.857  26.995  1.00  0.00    -0.269 OA
ATOM      4  C   UNL A   1      34.981  31.209  27.984  1.00  0.00     0.251 C 
ATOM      5  H   UNL A   1      33.426  32.060  28.962  1.00  0.00     0.163 HD
BRANCH   4   6
ATOM      6  C   UNL A   1      36.362  30.742  28.209  1.00  0.00     0.039 A 
ATOM      7  C   UNL A   1      37.387  31.560  28.685  1.00  0.00     0.014 A 
ATOM      8  C   UNL A   1      36.598  29.401  27.952  1.00  0.00     0.014 A 
ATOM      9  C   UNL A   1      38.629  30.976  28.940  1.00  0.00     0.010 A 
ATOM     10  C   UNL A   1      37.683  28.791  28.500  1.00  0.00     0.010 A 
ATOM     11  C   UNL A   1      38.760  29.580  28.844  1.00  0.00    -0.014 A 
BRANCH  11  12
ATOM     12  C   UNL A   1      40.007  28.883  29.111  1.00  0.00     0.031 A 
ATOM     13  C   UNL A   1      40.295  28.707  30.549  1.00  0.00     0.074 A 
ATOM     14  C   UNL A   1      40.750  28.303  28.139  1.00  0.00     0.049 A 
ATOM     15  N   UNL A   1      41.189  29.329  31.239  1.00  0.00    -0.248 NA
ATOM     16  C   UNL A   1      39.382  27.880  31.351  1.00  0.00     0.031 C 
ATOM     17  C   UNL A   1      40.437  28.135  26.711  1.00  0.00     0.029 A 
ATOM     18  N   UNL A   1      41.944  27.657  28.248  1.00  0.00    -0.354 N 
ATOM     19  C   UNL A   1      41.095  28.818  32.526  1.00  0.00     0.074 A 
ATOM     20  C   UNL A   1      39.856  28.087  32.582  1.00  0.00     0.031 C 
ATOM     21  C   UNL A   1      41.292  27.253  26.148  1.00  0.00     0.029 A 
ATOM     22  C   UNL A   1      42.326  26.948  27.114  1.00  0.00     0.049 A 
ATOM     23  H   UNL A   1      42.493  27.690  29.066  1.00  0.00     0.167 HD
ATOM     24  C   UNL A   1      42.184  28.820  33.341  1.00  0.00     0.037 A 
ATOM     25  C   UNL A   1      43.427  26.171  26.982  1.00  0.00     0.037 A 
ATOM     26  C   UNL A   1      43.199  29.712  32.832  1.00  0.00     0.049 A 
ATOM     27  C   UNL A   1      44.380  26.614  28.024  1.00  0.00     0.074 A 
ATOM     28  C   UNL A   1      43.292  31.072  32.619  1.00  0.00     0.029 A 
ATOM     29  N   UNL A   1      44.182  29.132  32.068  1.00  0.00    -0.354 N 
ATOM     30  N   UNL A   1      44.963  27.781  28.029  1.00  0.00    -0.248 NA
ATOM     31  C   UNL A   1      44.378  25.910  29.295  1.00  0.00     0.031 C 
ATOM     32  C   UNL A   1      44.073  31.217  31.432  1.00  0.00     0.029 A 
ATOM     33  C   UNL A   1      44.471  29.948  31.007  1.00  0.00     0.049 A 
ATOM     34  H   UNL A   1      44.611  28.266  32.255  1.00  0.00     0.167 HD
ATOM     35  C   UNL A   1      45.006  28.142  29.365  1.00  0.00     0.074 A 
ATOM     36  C   UNL A   1      44.766  26.904  30.099  1.00  0.00     0.031 C 
ATOM     37  C   UNL A   1      44.942  29.456  29.729  1.00  0.00     0.037 A 
BRANCH  24  38
ATOM     38  C   UNL A   1      42.510  27.725  34.329  1.00  0.00     0.064 A 
ATOM     39  C   UNL A   1      43.063  26.520  33.851  1.00  0.00     0.173 A 
ATOM     40  C   UNL A   1      42.030  27.686  35.657  1.00  0.00     0.173 A 
ATOM     41  F   UNL A   1      43.525  26.430  32.595  1.00  0.00    -0.203 F 
ATOM     42  C   UNL A   1      43.069  25.352  34.620  1.00  0.00     0.198 A 
ATOM     43  C   UNL A   1      42.087  26.534  36.440  1.00  0.00     0.198 A 
ATOM     44  F   UNL A   1      41.381  28.713  36.217  1.00  0.00    -0.203 F 
ATOM     45  F   UNL A   1      43.489  24.201  34.078  1.00  0.00    -0.200 F 
ATOM     46  C   UNL A   1      42.577  25.360  35.912  1.00  0.00     0.200 A 
ATOM     47  F   UNL A   1      41.582  26.556  37.681  1.00  0.00    -0.200 F 
ATOM     48  F   UNL A   1      42.527  24.230  36.630  1.00  0.00    -0.200 F 
ENDBRANCH  24  38
BRANCH  25  49
ATOM     49  C   UNL A   1      43.602  24.898  26.242  1.00  0.00     0.064 A 
ATOM     50  C   UNL A   1      44.612  24.769  25.273  1.00  0.00     0.173 A 
ATOM     51  C   UNL A   1      43.012  23.701  26.693  1.00  0.00     0.173 A 
ATOM     52  F   UNL A   1      45.245  25.857  24.810  1.00  0.00    -0.203 F 
ATOM     53  C   UNL A   1      45.052  23.517  24.830  1.00  0.00     0.198 A 
ATOM     54  C   UNL A   1      43.449  22.452  26.245  1.00  0.00     0.198 A 
ATOM     55  F   UNL A   1      42.077  23.716  27.653  1.00  0.00    -0.203 F 
ATOM     56  F   UNL A   1      46.076  23.435  23.970  1.00  0.00    -0.200 F 
ATOM     57  C   UNL A   1      44.482  22.360  25.330  1.00  0.00     0.200 A 
ATOM     58  F   UNL A   1      42.912  21.337  26.761  1.00  0.00    -0.200 F 
ATOM     59  F   UNL A   1      44.956  21.160  24.968  1.00  0.00    -0.200 F 
ENDBRANCH  25  49
BRANCH  37  60
ATOM     60  C   UNL A   1      45.192  30.485  28.658  1.00  0.00     0.064 A 
ATOM     61  C   UNL A   1      44.203  31.011  27.807  1.00  0.00     0.173 A 
ATOM     62  C   UNL A   1      46.470  31.055  28.583  1.00  0.00     0.173 A 
ATOM     63  F   UNL A   1      42.939  30.578  27.869  1.00  0.00    -0.203 F 
ATOM     64  C   UNL A   1      44.491  32.039  26.909  1.00  0.00     0.198 A 
ATOM     65  C   UNL A   1      46.746  32.106  27.714  1.00  0.00     0.198 A 
ATOM     66  F   UNL A   1      47.445  30.623  29.399  1.00  0.00    -0.203 F 
ATOM     67  F   UNL A   1      43.532  32.518  26.103  1.00  0.00    -0.200 F 
ATOM     68  C   UNL A   1      45.760  32.592  26.871  1.00  0.00     0.200 A 
ATOM     69  F   UNL A   1      47.964  32.666  27.713  1.00  0.00    -0.200 F 
ATOM     70  F   UNL A   1      46.027  33.611  26.043  1.00  0.00    -0.200 F 
ENDBRANCH  37  60
ENDBRANCH  11  12
ENDBRANCH   4   6
ENDBRANCH   1   2
BRANCH   1  71
ATOM     71  C   UNL A   1      35.400  34.295  29.413  1.00  0.00     0.023 C 
BRANCH  71  72
ATOM     72  C   UNL A   1      34.233  35.014  28.720  1.00  0.00     0.023 C 
BRANCH  72  73
ATOM     73  C   UNL A   1      32.897  35.066  29.471  1.00  0.00     0.116 C 
BRANCH  73  74
ATOM     74  N   UNL A   1      32.745  36.268  30.272  1.00  0.00    -0.351 N 
ATOM     75  C   UNL A   1      33.081  36.484  31.591  1.00  0.00     0.269 C 
ATOM     76  H   UNL A   1      32.345  37.038  29.808  1.00  0.00     0.163 HD
ATOM     77  O   UNL A   1      32.711  37.518  32.146  1.00  0.00    -0.268 OA
BRANCH  75  78
ATOM     78  C   UNL A   1      33.850  35.464  32.364  1.00  0.00     0.130 A 
ATOM     79  C   UNL A   1      35.161  35.770  32.720  1.00  0.00     0.066 A 
ATOM     80  N   UNL A   1      33.207  34.294  32.662  1.00  0.00    -0.247 NA
ATOM     81  C   UNL A   1      35.803  34.808  33.497  1.00  0.00     0.113 A 
ATOM     82  C   UNL A   1      33.854  33.353  33.393  1.00  0.00     0.161 A 
ATOM     83  N   UNL A   1      37.052  34.792  34.066  1.00  0.00    -0.216 NA
ATOM     84  C   UNL A   1      35.136  33.635  33.815  1.00  0.00     0.172 A 
ATOM     85  C   UNL A   1      37.088  33.638  34.698  1.00  0.00     0.309 A 
ATOM     86  O   UNL A   1      35.963  32.874  34.588  1.00  0.00    -0.442 OA
ENDBRANCH  75  78
ENDBRANCH  73  74
ENDBRANCH  72  73
ENDBRANCH  71  72
ENDBRANCH   1  71
TORSDOF 11
ENDMDL
MODEL 2
REMARK VINA RESULT:     -12.6      4.066     10.927
REMARK SMILES O=C(NCCCCNC(=O)c1cc2ncoc2cn1)c1ccc(-c2c3nc(c(-c4c(F)c(F)c(F)c(F)c4F)c4ccc([nH]4)c(-c4c(F)c(F)c(F)c(F)c4F)c4nc(c(-c5c(F)c(F)c(F)c(F)c5F)c5ccc2[nH]5)C=C4)C=C3)cc1
REMARK SMILES IDX 4 1 3 2 1 3 2 4 20 6 21 7 82 8 22 9 81 10 23 11 24 12 25 13
REMARK SMILES IDX 75 14 26 15 80 16 74 17 76 18 27 19 79 20 73 21 72 22 28 24
REMARK SMILES IDX 60 25 40 26 59 27 41 28 44 29 58 30 77 31 42 32 43 33 57 35
REMARK SMILES IDX 78 36 45 37 29 38 30 39 38 40 31 41 32 42 36 43 39 44 33 45
REMARK SMILES IDX 34 46 37 47 35 48 61 49 62 50 70 51 63 52 64 53 68 54 71 55
REMARK SMILES IDX 65 56 66 57 69 58 67 59 46 60 47 61 55 62 48 63 49 64 53 65
REMARK SMILES IDX 56 66 50 67 51 68 54 69 52 70 5 71 6 72 7 73 8 74 9 75 10 77
REMARK SMILES IDX 11 78 12 79 19 80 13 81 18 82 14 83 17 84 15 85 16 86
REMARK H PARENT 3 5 76 23 44 34 8 76
REMARK Flexibility Score: inf
ROOT
ATOM      1  C   UNL A   1      43.074  22.816  25.765  1.00  0.00     0.116 C 
ENDROOT
BRANCH   1   2
ATOM      2  N   UNL A   1      41.686  22.340  25.699  1.00  0.00    -0.352 N 
ATOM      3  O   UNL A   1      39.632  21.990  26.621  1.00  0.00    -0.269 OA
ATOM      4  C   UNL A   1      40.610  22.704  26.503  1.00  0.00     0.251 C 
ATOM      5  H   UNL A   1      41.492  21.678  24.997  1.00  0.00     0.163 HD
BRANCH   4   6
ATOM      6  C   UNL A   1      40.677  24.001  27.202  1.00  0.00     0.039 A 
ATOM      7  C   UNL A   1      41.578  24.280  28.231  1.00  0.00     0.014 A 
ATOM      8  C   UNL A   1      39.801  24.977  26.755  1.00  0.00     0.014 A 
ATOM      9  C   UNL A   1      41.601  25.575  28.751  1.00  0.00     0.010 A 
ATOM     10  C   UNL A   1      40.052  26.285  27.031  1.00  0.00     0.010 A 
ATOM     11  C   UNL A   1      40.827  26.573  28.134  1.00  0.00    -0.014 A 
BRANCH  11  12
ATOM     12  C   UNL A   1      40.805  27.953  28.592  1.00  0.00     0.031 A 
ATOM     13  C   UNL A   1      41.903  28.778  28.051  1.00  0.00     0.074 A 
ATOM     14  C   UNL A   1      39.783  28.473  29.312  1.00  0.00     0.049 A 
ATOM     15  N   UNL A   1      42.934  29.210  28.693  1.00  0.00    -0.248 NA
ATOM     16  C   UNL A   1      41.956  29.010  26.599  1.00  0.00     0.031 C 
ATOM     17  C   UNL A   1      38.491  27.860  29.663  1.00  0.00     0.029 A 
ATOM     18  N   UNL A   1      39.655  29.726  29.829  1.00  0.00    -0.354 N 
ATOM     19  C   UNL A   1      43.667  29.949  27.775  1.00  0.00     0.074 A 
ATOM     20  C   UNL A   1      43.131  29.631  26.478  1.00  0.00     0.031 C 
ATOM     21  C   UNL A   1      37.642  28.801  30.128  1.00  0.00     0.029 A 
ATOM     22  C   UNL A   1      38.381  30.034  30.295  1.00  0.00     0.049 A 
ATOM     23  H   UNL A   1      40.406  30.363  29.870  1.00  0.00     0.167 HD
ATOM     24  C   UNL A   1      44.469  30.962  28.202  1.00  0.00     0.037 A 
ATOM     25  C   UNL A   1      37.971  31.226  30.792  1.00  0.00     0.037 A 
ATOM     26  C   UNL A   1      44.702  30.862  29.624  1.00  0.00     0.049 A 
ATOM     27  C   UNL A   1      39.191  31.941  31.227  1.00  0.00     0.074 A 
ATOM     28  C   UNL A   1      45.324  29.952  30.453  1.00  0.00     0.029 A 
ATOM     29  N   UNL A   1      43.880  31.616  30.424  1.00  0.00    -0.354 N 
ATOM     30  N   UNL A   1      39.942  31.560  32.223  1.00  0.00    -0.248 NA
ATOM     31  C   UNL A   1      39.813  32.862  30.291  1.00  0.00     0.031 C 
ATOM     32  C   UNL A   1      44.551  29.943  31.653  1.00  0.00     0.029 A 
ATOM     33  C   UNL A   1      43.530  30.887  31.528  1.00  0.00     0.049 A 
ATOM     34  H   UNL A   1      43.588  32.537  30.232  1.00  0.00     0.167 HD
ATOM     35  C   UNL A   1      41.235  31.834  31.809  1.00  0.00     0.074 A 
ATOM     36  C   UNL A   1      41.084  32.756  30.687  1.00  0.00     0.031 C 
ATOM     37  C   UNL A   1      42.276  31.059  32.232  1.00  0.00     0.037 A 
BRANCH  24  38
ATOM     38  C   UNL A   1      44.680  32.255  27.450  1.00  0.00     0.064 A 
ATOM     39  C   UNL A   1      45.880  32.438  26.734  1.00  0.00     0.173 A 
ATOM     40  C   UNL A   1      43.908  33.421  27.647  1.00  0.00     0.173 A 
ATOM     41  F   UNL A   1      46.707  31.407  26.511  1.00  0.00    -0.203 F 
ATOM     42  C   UNL A   1      46.305  33.702  26.313  1.00  0.00     0.198 A 
ATOM     43  C   UNL A   1      44.308  34.671  27.177  1.00  0.00     0.198 A 
ATOM     44  F   UNL A   1      42.800  33.432  28.396  1.00  0.00    -0.203 F 
ATOM     45  F   UNL A   1      47.511  33.844  25.749  1.00  0.00    -0.200 F 
ATOM     46  C   UNL A   1      45.519  34.818  26.538  1.00  0.00     0.200 A 
ATOM     47  F   UNL A   1      43.545  35.744  27.429  1.00  0.00    -0.200 F 
ATOM     48  F   UNL A   1      45.949  36.037  26.188  1.00  0.00    -0.200 F 
ENDBRANCH  24  38
BRANCH  25  49
ATOM     49  C   UNL A   1      36.664  31.911  30.646  1.00  0.00     0.064 A 
ATOM     50  C   UNL A   1      35.816  32.073  31.756  1.00  0.00     0.173 A 
ATOM     51  C   UNL A   1      36.371  32.697  29.515  1.00  0.00     0.173 A 
ATOM     52  F   UNL A   1      36.040  31.382  32.883  1.00  0.00    -0.203 F 
ATOM     53  C   UNL A   1      34.778  33.011  31.758  1.00  0.00     0.198 A 
ATOM     54  C   UNL A   1      35.331  33.630  29.517  1.00  0.00     0.198 A 
ATOM     55  F   UNL A   1      37.152  32.652  28.427  1.00  0.00    -0.203 F 
ATOM     56  F   UNL A   1      34.047  33.196  32.866  1.00  0.00    -0.200 F 
ATOM     57  C   UNL A   1      34.549  33.801  30.645  1.00  0.00     0.200 A 
ATOM     58  F   UNL A   1      35.138  34.413  28.447  1.00  0.00    -0.200 F 
ATOM     59  F   UNL A   1      33.608  34.756  30.675  1.00  0.00    -0.200 F 
ENDBRANCH  25  49
BRANCH  37  60
ATOM     60  C   UNL A   1      42.034  30.160  33.416  1.00  0.00     0.064 A 
ATOM     61  C   UNL A   1      41.639  28.813  33.330  1.00  0.00     0.173 A 
ATOM     62  C   UNL A   1      42.347  30.656  34.689  1.00  0.00     0.173 A 
ATOM     63  F   UNL A   1      41.398  28.238  32.146  1.00  0.00    -0.203 F 
ATOM     64  C   UNL A   1      41.537  28.014  34.469  1.00  0.00     0.198 A 
ATOM     65  C   UNL A   1      42.281  29.847  35.819  1.00  0.00     0.198 A 
ATOM     66  F   UNL A   1      42.770  31.923  34.829  1.00  0.00    -0.203 F 
ATOM     67  F   UNL A   1      41.151  26.734  34.361  1.00  0.00    -0.200 F 
ATOM     68  C   UNL A   1      41.869  28.529  35.711  1.00  0.00     0.200 A 
ATOM     69  F   UNL A   1      42.645  30.339  37.011  1.00  0.00    -0.200 F 
ATOM     70  F   UNL A   1      41.817  27.749  36.800  1.00  0.00    -0.200 F 
ENDBRANCH  37  60
ENDBRANCH  11  12
ENDBRANCH   4   6
ENDBRANCH   1   2
BRANCH   1  71
ATOM     71  C   UNL A   1      43.429  23.834  24.695  1.00  0.00     0.023 C 
BRANCH  71  72
ATOM     72  C   UNL A   1      43.293  25.303  25.120  1.00  0.00     0.023 C 
BRANCH  72  73
ATOM     73  C   UNL A   1      44.552  25.999  25.649  1.00  0.00     0.116 C 
BRANCH  73  74
ATOM     74  N   UNL A   1      45.724  25.141  25.627  1.00  0.00    -0.351 N 
ATOM     75  C   UNL A   1      46.469  24.655  26.680  1.00  0.00     0.269 C 
ATOM     76  H   UNL A   1      46.031  24.868  24.732  1.00  0.00     0.163 HD
ATOM     77  O   UNL A   1      47.535  24.085  26.452  1.00  0.00    -0.268 OA
BRANCH  75  78
ATOM     78  C   UNL A   1      46.018  24.846  28.090  1.00  0.00     0.130 A 
ATOM     79  C   UNL A   1      45.172  23.885  28.638  1.00  0.00     0.066 A 
ATOM     80  N   UNL A   1      46.468  25.961  28.741  1.00  0.00    -0.247 NA
ATOM     81  C   UNL A   1      44.841  24.083  29.977  1.00  0.00     0.113 A 
ATOM     82  C   UNL A   1      46.114  26.157  30.036  1.00  0.00     0.161 A 
ATOM     83  N   UNL A   1      44.091  23.327  30.845  1.00  0.00    -0.216 NA
ATOM     84  C   UNL A   1      45.321  25.203  30.638  1.00  0.00     0.172 A 
ATOM     85  C   UNL A   1      44.152  24.003  31.972  1.00  0.00     0.309 A 
ATOM     86  O   UNL A   1      44.876  25.159  31.927  1.00  0.00    -0.442 OA
ENDBRANCH  75  78
ENDBRANCH  73  74
ENDBRANCH  72  73
ENDBRANCH  71  72
ENDBRANCH   1  71
TORSDOF 11
ENDMDL
MODEL 3
REMARK VINA RESULT:     -12.6      4.133     11.684
REMARK SMILES O=C(NCCCCNC(=O)c1cc2ncoc2cn1)c1ccc(-c2c3nc(c(-c4c(F)c(F)c(F)c(F)c4F)c4ccc([nH]4)c(-c4c(F)c(F)c(F)c(F)c4F)c4nc(c(-c5c(F)c(F)c(F)c(F)c5F)c5ccc2[nH]5)C=C4)C=C3)cc1
REMARK SMILES IDX 4 1 3 2 1 3 2 4 20 6 21 7 82 8 22 9 81 10 23 11 24 12 25 13
REMARK SMILES IDX 75 14 26 15 80 16 74 17 76 18 27 19 79 20 73 21 72 22 28 24
REMARK SMILES IDX 60 25 40 26 59 27 41 28 44 29 58 30 77 31 42 32 43 33 57 35
REMARK SMILES IDX 78 36 45 37 29 38 30 39 38 40 31 41 32 42 36 43 39 44 33 45
REMARK SMILES IDX 34 46 37 47 35 48 61 49 62 50 70 51 63 52 64 53 68 54 71 55
REMARK SMILES IDX 65 56 66 57 69 58 67 59 46 60 47 61 55 62 48 63 49 64 53 65
REMARK SMILES IDX 56 66 50 67 51 68 54 69 52 70 5 71 6 72 7 73 8 74 9 75 10 77
REMARK SMILES IDX 11 78 12 79 19 80 13 81 18 82 14 83 17 84 15 85 16 86
REMARK H PARENT 3 5 76 23 44 34 8 76
REMARK Flexibility Score: inf
ROOT
ATOM      1  C   UNL A   1      41.144  21.522  28.000  1.00  0.00     0.116 C 
ENDROOT
BRANCH   1   2
ATOM      2  N   UNL A   1      40.239  21.783  26.872  1.00  0.00    -0.352 N 
ATOM      3  O   UNL A   1      38.474  22.861  25.914  1.00  0.00    -0.269 OA
ATOM      4  C   UNL A   1      39.449  22.905  26.642  1.00  0.00     0.251 C 
ATOM      5  H   UNL A   1      40.184  21.073  26.193  1.00  0.00     0.163 HD
BRANCH   4   6
ATOM      6  C   UNL A   1      39.837  24.170  27.293  1.00  0.00     0.039 A 
ATOM      7  C   UNL A   1      41.088  24.390  27.872  1.00  0.00     0.014 A 
ATOM      8  C   UNL A   1      38.888  25.179  27.274  1.00  0.00     0.014 A 
ATOM      9  C   UNL A   1      41.363  25.661  28.378  1.00  0.00     0.010 A 
ATOM     10  C   UNL A   1      39.272  26.469  27.464  1.00  0.00     0.010 A 
ATOM     11  C   UNL A   1      40.439  26.698  28.162  1.00  0.00    -0.014 A 
BRANCH  11  12
ATOM     12  C   UNL A   1      40.650  28.057  28.633  1.00  0.00     0.031 A 
ATOM     13  C   UNL A   1      41.850  28.703  28.067  1.00  0.00     0.074 A 
ATOM     14  C   UNL A   1      39.745  28.724  29.387  1.00  0.00     0.049 A 
ATOM     15  N   UNL A   1      42.955  28.956  28.683  1.00  0.00    -0.248 NA
ATOM     16  C   UNL A   1      41.900  28.943  26.617  1.00  0.00     0.031 C 
ATOM     17  C   UNL A   1      38.382  28.321  29.771  1.00  0.00     0.029 A 
ATOM     18  N   UNL A   1      39.834  29.975  29.919  1.00  0.00    -0.354 N 
ATOM     19  C   UNL A   1      43.772  29.581  27.750  1.00  0.00     0.074 A 
ATOM     20  C   UNL A   1      43.156  29.370  26.467  1.00  0.00     0.031 C 
ATOM     21  C   UNL A   1      37.707  29.380  30.269  1.00  0.00     0.029 A 
ATOM     22  C   UNL A   1      38.639  30.477  30.424  1.00  0.00     0.049 A 
ATOM     23  H   UNL A   1      40.677  30.483  29.943  1.00  0.00     0.167 HD
ATOM     24  C   UNL A   1      44.737  30.446  28.162  1.00  0.00     0.037 A 
ATOM     25  C   UNL A   1      38.439  31.711  30.944  1.00  0.00     0.037 A 
ATOM     26  C   UNL A   1      44.990  30.291  29.576  1.00  0.00     0.049 A 
ATOM     27  C   UNL A   1      39.770  32.216  31.349  1.00  0.00     0.074 A 
ATOM     28  C   UNL A   1      45.481  29.283  30.379  1.00  0.00     0.029 A 
ATOM     29  N   UNL A   1      44.322  31.157  30.406  1.00  0.00    -0.354 N 
ATOM     30  N   UNL A   1      40.477  31.707  32.320  1.00  0.00    -0.248 NA
ATOM     31  C   UNL A   1      40.505  33.039  30.403  1.00  0.00     0.031 C 
ATOM     32  C   UNL A   1      44.749  29.382  31.600  1.00  0.00     0.029 A 
ATOM     33  C   UNL A   1      43.890  30.478  31.514  1.00  0.00     0.049 A 
ATOM     34  H   UNL A   1      44.176  32.115  30.231  1.00  0.00     0.167 HD
ATOM     35  C   UNL A   1      41.785  31.777  31.870  1.00  0.00     0.074 A 
ATOM     36  C   UNL A   1      41.753  32.725  30.761  1.00  0.00     0.031 C 
ATOM     37  C   UNL A   1      42.699  30.840  32.256  1.00  0.00     0.037 A 
BRANCH  24  38
ATOM     38  C   UNL A   1      45.131  31.699  27.416  1.00  0.00     0.064 A 
ATOM     39  C   UNL A   1      46.434  31.795  26.888  1.00  0.00     0.173 A 
ATOM     40  C   UNL A   1      44.404  32.910  27.458  1.00  0.00     0.173 A 
ATOM     41  F   UNL A   1      47.227  30.716  26.824  1.00  0.00    -0.203 F 
ATOM     42  C   UNL A   1      46.988  33.019  26.502  1.00  0.00     0.198 A 
ATOM     43  C   UNL A   1      44.940  34.120  27.021  1.00  0.00     0.198 A 
ATOM     44  F   UNL A   1      43.198  33.003  28.028  1.00  0.00    -0.203 F 
ATOM     45  F   UNL A   1      48.273  33.080  26.126  1.00  0.00    -0.200 F 
ATOM     46  C   UNL A   1      46.241  34.181  26.572  1.00  0.00     0.200 A 
ATOM     47  F   UNL A   1      44.208  35.238  27.122  1.00  0.00    -0.200 F 
ATOM     48  F   UNL A   1      46.787  35.364  26.259  1.00  0.00    -0.200 F 
ENDBRANCH  24  38
BRANCH  25  49
ATOM     49  C   UNL A   1      37.255  32.599  30.843  1.00  0.00     0.064 A 
ATOM     50  C   UNL A   1      36.935  33.225  29.625  1.00  0.00     0.173 A 
ATOM     51  C   UNL A   1      36.246  32.590  31.825  1.00  0.00     0.173 A 
ATOM     52  F   UNL A   1      37.829  33.254  28.627  1.00  0.00    -0.203 F 
ATOM     53  C   UNL A   1      35.663  33.753  29.381  1.00  0.00     0.198 A 
ATOM     54  C   UNL A   1      34.978  33.122  31.582  1.00  0.00     0.198 A 
ATOM     55  F   UNL A   1      36.437  31.973  33.000  1.00  0.00    -0.203 F 
ATOM     56  F   UNL A   1      35.371  34.263  28.177  1.00  0.00    -0.200 F 
ATOM     57  C   UNL A   1      34.680  33.683  30.353  1.00  0.00     0.200 A 
ATOM     58  F   UNL A   1      34.024  33.020  32.518  1.00  0.00    -0.200 F 
ATOM     59  F   UNL A   1      33.438  34.114  30.092  1.00  0.00    -0.200 F 
ENDBRANCH  25  49
BRANCH  37  60
ATOM     60  C   UNL A   1      42.350  29.975  33.438  1.00  0.00     0.064 A 
ATOM     61  C   UNL A   1      41.767  28.698  33.351  1.00  0.00     0.173 A 
ATOM     62  C   UNL A   1      42.746  30.413  34.709  1.00  0.00     0.173 A 
ATOM     63  F   UNL A   1      41.432  28.172  32.168  1.00  0.00    -0.203 F 
ATOM     64  C   UNL A   1      41.570  27.913  34.487  1.00  0.00     0.198 A 
ATOM     65  C   UNL A   1      42.583  29.613  35.836  1.00  0.00     0.198 A 
ATOM     66  F   UNL A   1      43.346  31.606  34.850  1.00  0.00    -0.203 F 
ATOM     67  F   UNL A   1      41.005  26.701  34.378  1.00  0.00    -0.200 F 
ATOM     68  C   UNL A   1      41.988  28.367  35.727  1.00  0.00     0.200 A 
ATOM     69  F   UNL A   1      43.029  30.040  37.025  1.00  0.00    -0.200 F 
ATOM     70  F   UNL A   1      41.841  27.595  36.812  1.00  0.00    -0.200 F 
ENDBRANCH  37  60
ENDBRANCH  11  12
ENDBRANCH   4   6
ENDBRANCH   1   2
BRANCH   1  71
ATOM     71  C   UNL A   1      42.444  20.844  27.604  1.00  0.00     0.023 C 
BRANCH  71  72
ATOM     72  C   UNL A   1      42.302  19.398  27.106  1.00  0.00     0.023 C 
BRANCH  72  73
ATOM     73  C   UNL A   1      42.511  19.150  25.608  1.00  0.00     0.116 C 
BRANCH  73  74
ATOM     74  N   UNL A   1      43.801  18.554  25.308  1.00  0.00    -0.351 N 
ATOM     75  C   UNL A   1      44.955  19.156  24.853  1.00  0.00     0.269 C 
ATOM     76  H   UNL A   1      43.861  17.581  25.448  1.00  0.00     0.163 HD
ATOM     77  O   UNL A   1      45.897  18.454  24.488  1.00  0.00    -0.268 OA
BRANCH  75  78
ATOM     78  C   UNL A   1      45.060  20.642  24.762  1.00  0.00     0.130 A 
ATOM     79  C   UNL A   1      45.684  21.316  25.808  1.00  0.00     0.066 A 
ATOM     80  N   UNL A   1      44.526  21.236  23.652  1.00  0.00    -0.247 NA
ATOM     81  C   UNL A   1      45.811  22.692  25.633  1.00  0.00     0.113 A 
ATOM     82  C   UNL A   1      44.630  22.581  23.508  1.00  0.00     0.161 A 
ATOM     83  N   UNL A   1      46.408  23.652  26.414  1.00  0.00    -0.216 NA
ATOM     84  C   UNL A   1      45.289  23.284  24.494  1.00  0.00     0.172 A 
ATOM     85  C   UNL A   1      46.232  24.760  25.727  1.00  0.00     0.309 A 
ATOM     86  O   UNL A   1      45.554  24.621  24.550  1.00  0.00    -0.442 OA
ENDBRANCH  75  78
ENDBRANCH  73  74
ENDBRANCH  72  73
ENDBRANCH  71  72
ENDBRANCH   1  71
TORSDOF 11
ENDMDL
