MODEL 1
REMARK VINA RESULT:     -16.3      0.000      0.000
REMARK SMILES O=C(NCCCCNC(=O)[C@]1(NC(=O)C2CCN(C(=O)C3CC3)CC2)CCCc2ccccc21)c1ccc(-c2c3nc(c(-c4c(F)c(F)c(F)c(F)c4F)c4ccc([nH]4)c(-c4c(F)c(F)c(F)c(F)c4F)c4nc(c(-c5c(F)c(F)c(F)c(F)c5F)c5ccc2[nH]5)C=C4)C=C3)cc1
REMARK SMILES IDX 6 1 5 2 4 3 3 4 1 5 2 6 35 8 36 9 97 10 37 11 96 12 38 13
REMARK SMILES IDX 39 14 40 15 90 16 41 17 95 18 89 19 91 20 42 21 94 22 88 23
REMARK SMILES IDX 87 24 43 26 75 27 55 28 74 29 56 30 59 31 73 32 92 33 57 34
REMARK SMILES IDX 58 35 72 37 93 38 60 39 44 40 45 41 53 42 46 43 47 44 51 45
REMARK SMILES IDX 54 46 48 47 49 48 52 49 50 50 76 51 77 52 85 53 78 54 79 55
REMARK SMILES IDX 83 56 86 57 80 58 81 59 84 60 82 61 61 62 62 63 70 64 63 65
REMARK SMILES IDX 64 66 68 67 71 68 65 69 66 70 69 71 67 72 7 73 8 74 9 75
REMARK SMILES IDX 10 77 11 78 26 79 34 80 27 81 29 82 33 83 28 84 30 85 32 86
REMARK SMILES IDX 31 87 12 88 13 89 14 91 15 92 16 93 25 94 17 95 24 96 18 97
REMARK SMILES IDX 19 98 20 99 21 100 22 101 23 102
REMARK H PARENT 3 7 91 25 59 36 8 76 12 90
REMARK Flexibility Score: inf
ROOT
ATOM      1  C   UNL A   1      32.958  29.346  26.582  1.00  0.00     0.023 C 
ENDROOT
BRANCH   1   2
ATOM      2  C   UNL A   1      33.367  31.365  27.164  1.00  0.00     0.023 C 
BRANCH   2   3
ATOM      3  C   UNL A   1      32.223  32.766  27.590  1.00  0.00     0.116 C 
BRANCH   3   4
ATOM      4  N   UNL A   1      32.648  34.232  27.569  1.00  0.00    -0.352 N 
ATOM      5  O   UNL A   1      33.069  36.166  28.698  1.00  0.00    -0.269 OA
ATOM      6  C   UNL A   1      33.316  34.981  28.519  1.00  0.00     0.251 C 
ATOM      7  H   UNL A   1      32.409  34.720  26.748  1.00  0.00     0.163 HD
BRANCH   6   8
ATOM      8  C   UNL A   1      34.384  34.314  29.249  1.00  0.00     0.039 A 
ATOM      9  C   UNL A   1      35.658  34.504  28.720  1.00  0.00     0.014 A 
ATOM     10  C   UNL A   1      34.146  33.506  30.366  1.00  0.00     0.014 A 
ATOM     11  C   UNL A   1      36.702  33.774  29.224  1.00  0.00     0.010 A 
ATOM     12  C   UNL A   1      35.208  32.779  30.892  1.00  0.00     0.010 A 
ATOM     13  C   UNL A   1      36.477  32.911  30.307  1.00  0.00    -0.014 A 
BRANCH  13  14
ATOM     14  C   UNL A   1      37.672  32.326  30.911  1.00  0.00     0.031 A 
ATOM     15  C   UNL A   1      38.100  32.698  32.284  1.00  0.00     0.074 A 
ATOM     16  C   UNL A   1      38.235  31.328  30.212  1.00  0.00     0.049 A 
ATOM     17  N   UNL A   1      38.999  32.132  33.040  1.00  0.00    -0.248 NA
ATOM     18  C   UNL A   1      37.419  33.843  32.902  1.00  0.00     0.031 C 
ATOM     19  C   UNL A   1      37.799  30.899  28.878  1.00  0.00     0.029 A 
ATOM     20  N   UNL A   1      39.252  30.480  30.527  1.00  0.00    -0.354 N 
ATOM     21  C   UNL A   1      38.983  32.839  34.232  1.00  0.00     0.074 A 
ATOM     22  C   UNL A   1      37.996  33.889  34.095  1.00  0.00     0.031 C 
ATOM     23  C   UNL A   1      38.542  29.856  28.492  1.00  0.00     0.029 A 
ATOM     24  C   UNL A   1      39.530  29.587  29.527  1.00  0.00     0.049 A 
ATOM     25  H   UNL A   1      39.736  30.506  31.384  1.00  0.00     0.167 HD
ATOM     26  C   UNL A   1      39.747  32.619  35.326  1.00  0.00     0.037 A 
ATOM     27  C   UNL A   1      40.508  28.672  29.452  1.00  0.00     0.037 A 
ATOM     28  C   UNL A   1      40.762  31.600  35.380  1.00  0.00     0.049 A 
ATOM     29  C   UNL A   1      41.399  28.510  30.642  1.00  0.00     0.074 A 
ATOM     30  C   UNL A   1      41.616  31.280  36.419  1.00  0.00     0.029 A 
ATOM     31  N   UNL A   1      41.082  30.753  34.323  1.00  0.00    -0.354 N 
ATOM     32  N   UNL A   1      41.359  29.151  31.788  1.00  0.00    -0.248 NA
ATOM     33  C   UNL A   1      42.460  27.509  30.541  1.00  0.00     0.031 C 
ATOM     34  C   UNL A   1      42.496  30.292  35.965  1.00  0.00     0.029 A 
ATOM     35  C   UNL A   1      42.149  29.942  34.668  1.00  0.00     0.049 A 
ATOM     36  H   UNL A   1      40.617  30.734  33.455  1.00  0.00     0.167 HD
ATOM     37  C   UNL A   1      42.380  28.620  32.557  1.00  0.00     0.074 A 
ATOM     38  C   UNL A   1      43.015  27.597  31.743  1.00  0.00     0.031 C 
ATOM     39  C   UNL A   1      42.755  28.942  33.820  1.00  0.00     0.037 A 
BRANCH  26  40
ATOM     40  C   UNL A   1      39.561  33.538  36.498  1.00  0.00     0.064 A 
ATOM     41  C   UNL A   1      38.738  33.201  37.584  1.00  0.00     0.173 A 
ATOM     42  C   UNL A   1      40.219  34.775  36.538  1.00  0.00     0.173 A 
ATOM     43  F   UNL A   1      38.068  32.038  37.589  1.00  0.00    -0.203 F 
ATOM     44  C   UNL A   1      38.562  34.079  38.652  1.00  0.00     0.198 A 
ATOM     45  C   UNL A   1      40.063  35.640  37.618  1.00  0.00     0.198 A 
ATOM     46  F   UNL A   1      41.015  35.150  35.525  1.00  0.00    -0.203 F 
ATOM     47  F   UNL A   1      37.734  33.756  39.655  1.00  0.00    -0.200 F 
ATOM     48  C   UNL A   1      39.229  35.294  38.671  1.00  0.00     0.200 A 
ATOM     49  F   UNL A   1      40.713  36.811  37.636  1.00  0.00    -0.200 F 
ATOM     50  F   UNL A   1      39.060  36.140  39.698  1.00  0.00    -0.200 F 
ENDBRANCH  26  40
BRANCH  27  51
ATOM     51  C   UNL A   1      40.659  27.903  28.196  1.00  0.00     0.064 A 
ATOM     52  C   UNL A   1      41.452  28.371  27.145  1.00  0.00     0.173 A 
ATOM     53  C   UNL A   1      40.108  26.614  28.083  1.00  0.00     0.173 A 
ATOM     54  F   UNL A   1      42.000  29.593  27.211  1.00  0.00    -0.203 F 
ATOM     55  C   UNL A   1      41.697  27.575  26.025  1.00  0.00     0.198 A 
ATOM     56  C   UNL A   1      40.377  25.811  26.979  1.00  0.00     0.198 A 
ATOM     57  F   UNL A   1      39.362  26.114  29.079  1.00  0.00    -0.203 F 
ATOM     58  F   UNL A   1      42.457  28.045  25.027  1.00  0.00    -0.200 F 
ATOM     59  C   UNL A   1      41.170  26.294  25.950  1.00  0.00     0.200 A 
ATOM     60  F   UNL A   1      39.893  24.563  26.927  1.00  0.00    -0.200 F 
ATOM     61  F   UNL A   1      41.435  25.520  24.890  1.00  0.00    -0.200 F 
ENDBRANCH  27  51
BRANCH  39  62
ATOM     62  C   UNL A   1      43.889  28.157  34.402  1.00  0.00     0.064 A 
ATOM     63  C   UNL A   1      43.681  26.919  35.025  1.00  0.00     0.173 A 
ATOM     64  C   UNL A   1      45.205  28.627  34.279  1.00  0.00     0.173 A 
ATOM     65  F   UNL A   1      42.437  26.441  35.181  1.00  0.00    -0.203 F 
ATOM     66  C   UNL A   1      44.753  26.184  35.519  1.00  0.00     0.198 A 
ATOM     67  C   UNL A   1      46.276  27.875  34.747  1.00  0.00     0.198 A 
ATOM     68  F   UNL A   1      45.449  29.804  33.685  1.00  0.00    -0.203 F 
ATOM     69  F   UNL A   1      44.533  25.021  36.147  1.00  0.00    -0.200 F 
ATOM     70  C   UNL A   1      46.049  26.656  35.371  1.00  0.00     0.200 A 
ATOM     71  F   UNL A   1      47.528  28.327  34.590  1.00  0.00    -0.200 F 
ATOM     72  F   UNL A   1      47.082  25.940  35.834  1.00  0.00    -0.200 F 
ENDBRANCH  39  62
ENDBRANCH  13  14
ENDBRANCH   6   8
ENDBRANCH   3   4
ENDBRANCH   2   3
ENDBRANCH   1   2
BRANCH   1  73
ATOM     73  C   UNL A   1      32.072  28.025  27.608  1.00  0.00     0.116 C 
BRANCH  73  74
ATOM     74  N   UNL A   1      30.871  27.108  26.978  1.00  0.00    -0.354 N 
ATOM     75  C   UNL A   1      30.594  26.548  25.702  1.00  0.00     0.250 C 
ATOM     76  H   UNL A   1      30.175  26.894  27.641  1.00  0.00     0.163 HD
ATOM     77  O   UNL A   1      29.439  26.570  25.272  1.00  0.00    -0.272 OA
BRANCH  75  78
ATOM     78  C   UNL A   1      31.718  25.662  25.082  1.00  0.00     0.145 C 
ATOM     79  C   UNL A   1      32.847  25.035  25.963  1.00  0.00     0.044 C 
ATOM     80  C   UNL A   1      32.276  26.546  23.924  1.00  0.00    -0.010 A 
ATOM     81  C   UNL A   1      34.249  25.618  25.909  1.00  0.00     0.008 C 
ATOM     82  C   UNL A   1      33.651  26.862  23.882  1.00  0.00    -0.042 A 
ATOM     83  C   UNL A   1      31.410  27.401  23.203  1.00  0.00     0.007 A 
ATOM     84  C   UNL A   1      34.660  25.938  24.488  1.00  0.00     0.036 C 
ATOM     85  C   UNL A   1      34.088  28.082  23.335  1.00  0.00     0.004 A 
ATOM     86  C   UNL A   1      31.841  28.642  22.726  1.00  0.00     0.000 A 
ATOM     87  C   UNL A   1      33.177  28.997  22.823  1.00  0.00     0.000 A 
BRANCH  78  88
ATOM     88  N   UNL A   1      30.898  24.520  24.790  1.00  0.00    -0.338 N 
ATOM     89  C   UNL A   1      31.247  23.728  23.711  1.00  0.00     0.224 C 
ATOM     90  H   UNL A   1      30.111  24.306  25.341  1.00  0.00     0.164 HD
ATOM     91  O   UNL A   1      30.277  23.452  22.993  1.00  0.00    -0.275 OA
BRANCH  89  92
ATOM     92  C   UNL A   1      32.864  23.074  23.395  1.00  0.00     0.082 C 
ATOM     93  C   UNL A   1      32.186  21.480  22.598  1.00  0.00     0.035 C 
ATOM     94  C   UNL A   1      34.338  22.720  24.755  1.00  0.00     0.035 C 
ATOM     95  C   UNL A   1      32.089  19.949  23.596  1.00  0.00     0.120 C 
ATOM     96  C   UNL A   1      34.300  20.897  25.657  1.00  0.00     0.120 C 
ATOM     97  N   UNL A   1      33.275  19.610  24.819  1.00  0.00    -0.342 N 
ATOM     98  C   UNL A   1      33.321  18.238  25.062  1.00  0.00     0.225 C 
ATOM     99  O   UNL A   1      32.340  17.603  25.434  1.00  0.00    -0.275 OA
BRANCH  98 100
ATOM    100  C   UNL A   1      34.400  17.487  24.356  1.00  0.00     0.079 C 
ATOM    101  C   UNL A   1      34.470  16.002  24.309  1.00  0.00     0.014 C 
ATOM    102  C   UNL A   1      34.085  16.742  23.074  1.00  0.00     0.014 C 
ENDBRANCH  98 100
ENDBRANCH  89  92
ENDBRANCH  78  88
ENDBRANCH  75  78
ENDBRANCH  73  74
ENDBRANCH   1  73
TORSDOF 14
ENDMDL
MODEL 2
REMARK VINA RESULT:     -15.8      5.579     11.010
REMARK SMILES O=C(NCCCCNC(=O)[C@]1(NC(=O)C2CCN(C(=O)C3CC3)CC2)CCCc2ccccc21)c1ccc(-c2c3nc(c(-c4c(F)c(F)c(F)c(F)c4F)c4ccc([nH]4)c(-c4c(F)c(F)c(F)c(F)c4F)c4nc(c(-c5c(F)c(F)c(F)c(F)c5F)c5ccc2[nH]5)C=C4)C=C3)cc1
REMARK SMILES IDX 6 1 5 2 4 3 3 4 1 5 2 6 35 8 36 9 97 10 37 11 96 12 38 13
REMARK SMILES IDX 39 14 40 15 90 16 41 17 95 18 89 19 91 20 42 21 94 22 88 23
REMARK SMILES IDX 87 24 43 26 75 27 55 28 74 29 56 30 59 31 73 32 92 33 57 34
REMARK SMILES IDX 58 35 72 37 93 38 60 39 44 40 45 41 53 42 46 43 47 44 51 45
REMARK SMILES IDX 54 46 48 47 49 48 52 49 50 50 76 51 77 52 85 53 78 54 79 55
REMARK SMILES IDX 83 56 86 57 80 58 81 59 84 60 82 61 61 62 62 63 70 64 63 65
REMARK SMILES IDX 64 66 68 67 71 68 65 69 66 70 69 71 67 72 7 73 8 74 9 75
REMARK SMILES IDX 10 77 11 78 26 79 34 80 27 81 29 82 33 83 28 84 30 85 32 86
REMARK SMILES IDX 31 87 12 88 13 89 14 91 15 92 16 93 25 94 17 95 24 96 18 97
REMARK SMILES IDX 19 98 20 99 21 100 22 101 23 102
REMARK H PARENT 3 7 91 25 59 36 8 76 12 90
REMARK Flexibility Score: inf
ROOT
ATOM      1  C   UNL A   1      44.347  22.758  24.351  1.00  0.00     0.023 C 
ENDROOT
BRANCH   1   2
ATOM      2  C   UNL A   1      46.360  23.484  24.399  1.00  0.00     0.023 C 
BRANCH   2   3
ATOM      3  C   UNL A   1      47.139  24.849  25.390  1.00  0.00     0.116 C 
BRANCH   3   4
ATOM      4  N   UNL A   1      48.035  25.923  24.779  1.00  0.00    -0.352 N 
ATOM      5  O   UNL A   1      48.248  27.833  23.553  1.00  0.00    -0.269 OA
ATOM      6  C   UNL A   1      47.785  27.259  24.530  1.00  0.00     0.251 C 
ATOM      7  H   UNL A   1      48.934  25.615  24.522  1.00  0.00     0.163 HD
BRANCH   6   8
ATOM      8  C   UNL A   1      47.003  27.976  25.526  1.00  0.00     0.039 A 
ATOM      9  C   UNL A   1      47.693  28.290  26.694  1.00  0.00     0.014 A 
ATOM     10  C   UNL A   1      45.650  28.286  25.346  1.00  0.00     0.014 A 
ATOM     11  C   UNL A   1      46.999  28.800  27.760  1.00  0.00     0.010 A 
ATOM     12  C   UNL A   1      44.948  28.822  26.420  1.00  0.00     0.010 A 
ATOM     13  C   UNL A   1      45.628  29.064  27.623  1.00  0.00    -0.014 A 
BRANCH  13  14
ATOM     14  C   UNL A   1      45.009  29.790  28.730  1.00  0.00     0.031 A 
ATOM     15  C   UNL A   1      44.704  29.115  30.017  1.00  0.00     0.074 A 
ATOM     16  C   UNL A   1      44.903  31.116  28.553  1.00  0.00     0.049 A 
ATOM     17  N   UNL A   1      44.355  29.647  31.154  1.00  0.00    -0.248 NA
ATOM     18  C   UNL A   1      44.824  27.651  30.041  1.00  0.00     0.031 C 
ATOM     19  C   UNL A   1      45.251  31.820  27.313  1.00  0.00     0.029 A 
ATOM     20  N   UNL A   1      44.515  32.102  29.407  1.00  0.00    -0.354 N 
ATOM     21  C   UNL A   1      44.227  28.588  32.039  1.00  0.00     0.074 A 
ATOM     22  C   UNL A   1      44.521  27.376  31.303  1.00  0.00     0.031 C 
ATOM     23  C   UNL A   1      45.068  33.133  27.493  1.00  0.00     0.029 A 
ATOM     24  C   UNL A   1      44.545  33.345  28.835  1.00  0.00     0.049 A 
ATOM     25  H   UNL A   1      44.242  31.938  30.339  1.00  0.00     0.167 HD
ATOM     26  C   UNL A   1      43.881  28.647  33.345  1.00  0.00     0.037 A 
ATOM     27  C   UNL A   1      44.156  34.525  29.341  1.00  0.00     0.037 A 
ATOM     28  C   UNL A   1      43.534  29.876  34.008  1.00  0.00     0.049 A 
ATOM     29  C   UNL A   1      43.689  34.549  30.761  1.00  0.00     0.074 A 
ATOM     30  C   UNL A   1      43.151  30.076  35.321  1.00  0.00     0.029 A 
ATOM     31  N   UNL A   1      43.496  31.121  33.386  1.00  0.00    -0.354 N 
ATOM     32  N   UNL A   1      43.607  33.554  31.614  1.00  0.00    -0.248 NA
ATOM     33  C   UNL A   1      43.266  35.844  31.295  1.00  0.00     0.031 C 
ATOM     34  C   UNL A   1      42.813  31.425  35.472  1.00  0.00     0.029 A 
ATOM     35  C   UNL A   1      43.052  32.085  34.275  1.00  0.00     0.049 A 
ATOM     36  H   UNL A   1      43.747  31.291  32.449  1.00  0.00     0.167 HD
ATOM     37  C   UNL A   1      43.139  34.100  32.795  1.00  0.00     0.074 A 
ATOM     38  C   UNL A   1      42.963  35.521  32.546  1.00  0.00     0.031 C 
ATOM     39  C   UNL A   1      42.884  33.488  33.978  1.00  0.00     0.037 A 
BRANCH  26  40
ATOM     40  C   UNL A   1      43.791  27.352  34.098  1.00  0.00     0.064 A 
ATOM     41  C   UNL A   1      44.932  26.686  34.573  1.00  0.00     0.173 A 
ATOM     42  C   UNL A   1      42.541  26.768  34.353  1.00  0.00     0.173 A 
ATOM     43  F   UNL A   1      46.153  27.189  34.340  1.00  0.00    -0.203 F 
ATOM     44  C   UNL A   1      44.825  25.473  35.251  1.00  0.00     0.198 A 
ATOM     45  C   UNL A   1      42.436  25.569  35.053  1.00  0.00     0.198 A 
ATOM     46  F   UNL A   1      41.419  27.360  33.918  1.00  0.00    -0.203 F 
ATOM     47  F   UNL A   1      45.931  24.831  35.653  1.00  0.00    -0.200 F 
ATOM     48  C   UNL A   1      43.578  24.919  35.496  1.00  0.00     0.200 A 
ATOM     49  F   UNL A   1      41.229  25.039  35.293  1.00  0.00    -0.200 F 
ATOM     50  F   UNL A   1      43.475  23.751  36.147  1.00  0.00    -0.200 F 
ENDBRANCH  26  40
BRANCH  27  51
ATOM     51  C   UNL A   1      44.186  35.715  28.461  1.00  0.00     0.064 A 
ATOM     52  C   UNL A   1      43.033  36.183  27.825  1.00  0.00     0.173 A 
ATOM     53  C   UNL A   1      45.359  36.483  28.348  1.00  0.00     0.173 A 
ATOM     54  F   UNL A   1      41.892  35.484  27.908  1.00  0.00    -0.203 F 
ATOM     55  C   UNL A   1      43.047  37.381  27.112  1.00  0.00     0.198 A 
ATOM     56  C   UNL A   1      45.363  37.692  27.661  1.00  0.00     0.198 A 
ATOM     57  F   UNL A   1      46.483  36.086  28.964  1.00  0.00    -0.203 F 
ATOM     58  F   UNL A   1      41.931  37.809  26.506  1.00  0.00    -0.200 F 
ATOM     59  C   UNL A   1      44.207  38.140  27.041  1.00  0.00     0.200 A 
ATOM     60  F   UNL A   1      46.477  38.436  27.624  1.00  0.00    -0.200 F 
ATOM     61  F   UNL A   1      44.208  39.307  26.384  1.00  0.00    -0.200 F 
ENDBRANCH  27  51
BRANCH  39  62
ATOM     62  C   UNL A   1      42.413  34.365  35.097  1.00  0.00     0.064 A 
ATOM     63  C   UNL A   1      43.315  35.012  35.952  1.00  0.00     0.173 A 
ATOM     64  C   UNL A   1      41.041  34.602  35.274  1.00  0.00     0.173 A 
ATOM     65  F   UNL A   1      44.634  34.799  35.831  1.00  0.00    -0.203 F 
ATOM     66  C   UNL A   1      42.858  35.858  36.957  1.00  0.00     0.198 A 
ATOM     67  C   UNL A   1      40.591  35.472  36.259  1.00  0.00     0.198 A 
ATOM     68  F   UNL A   1      40.144  34.006  34.475  1.00  0.00    -0.203 F 
ATOM     69  F   UNL A   1      43.732  36.440  37.790  1.00  0.00    -0.200 F 
ATOM     70  C   UNL A   1      41.499  36.096  37.103  1.00  0.00     0.200 A 
ATOM     71  F   UNL A   1      39.278  35.711  36.390  1.00  0.00    -0.200 F 
ATOM     72  F   UNL A   1      41.062  36.923  38.062  1.00  0.00    -0.200 F 
ENDBRANCH  39  62
ENDBRANCH  13  14
ENDBRANCH   6   8
ENDBRANCH   3   4
ENDBRANCH   2   3
ENDBRANCH   1   2
BRANCH   1  73
ATOM     73  C   UNL A   1      43.424  21.873  25.748  1.00  0.00     0.116 C 
BRANCH  73  74
ATOM     74  N   UNL A   1      41.803  22.010  25.930  1.00  0.00    -0.354 N 
ATOM     75  C   UNL A   1      40.944  22.687  26.837  1.00  0.00     0.250 C 
ATOM     76  H   UNL A   1      41.305  21.502  25.249  1.00  0.00     0.163 HD
ATOM     77  O   UNL A   1      39.933  22.116  27.248  1.00  0.00    -0.272 OA
BRANCH  75  78
ATOM     78  C   UNL A   1      41.181  24.220  26.993  1.00  0.00     0.145 C 
ATOM     79  C   UNL A   1      41.394  25.147  25.751  1.00  0.00     0.044 C 
ATOM     80  C   UNL A   1      42.357  24.301  28.015  1.00  0.00    -0.010 A 
ATOM     81  C   UNL A   1      42.783  25.676  25.442  1.00  0.00     0.008 C 
ATOM     82  C   UNL A   1      43.538  24.994  27.673  1.00  0.00    -0.042 A 
ATOM     83  C   UNL A   1      42.466  23.341  29.048  1.00  0.00     0.007 A 
ATOM     84  C   UNL A   1      43.496  26.129  26.698  1.00  0.00     0.036 C 
ATOM     85  C   UNL A   1      44.782  24.587  28.188  1.00  0.00     0.004 A 
ATOM     86  C   UNL A   1      43.711  22.895  29.501  1.00  0.00     0.000 A 
ATOM     87  C   UNL A   1      44.873  23.495  29.043  1.00  0.00     0.000 A 
BRANCH  78  88
ATOM     88  N   UNL A   1      39.847  24.563  27.397  1.00  0.00    -0.338 N 
ATOM     89  C   UNL A   1      39.670  25.708  28.151  1.00  0.00     0.224 C 
ATOM     90  H   UNL A   1      39.080  23.999  27.146  1.00  0.00     0.164 HD
ATOM     91  O   UNL A   1      38.929  25.524  29.125  1.00  0.00    -0.275 OA
BRANCH  89  92
ATOM     92  C   UNL A   1      40.327  27.309  27.761  1.00  0.00     0.082 C 
ATOM     93  C   UNL A   1      41.207  27.481  29.443  1.00  0.00     0.035 C 
ATOM     94  C   UNL A   1      39.281  28.974  27.234  1.00  0.00     0.035 C 
ATOM     95  C   UNL A   1      40.417  28.460  30.773  1.00  0.00     0.120 C 
ATOM     96  C   UNL A   1      38.632  30.144  28.769  1.00  0.00     0.120 C 
ATOM     97  N   UNL A   1      39.457  29.858  30.396  1.00  0.00    -0.342 N 
ATOM     98  C   UNL A   1      39.407  30.706  31.501  1.00  0.00     0.225 C 
ATOM     99  O   UNL A   1      38.969  30.345  32.588  1.00  0.00    -0.275 OA
BRANCH  98 100
ATOM    100  C   UNL A   1      40.371  31.845  31.491  1.00  0.00     0.079 C 
ATOM    101  C   UNL A   1      40.751  32.589  30.261  1.00  0.00     0.014 C 
ATOM    102  C   UNL A   1      39.868  33.255  31.260  1.00  0.00     0.014 C 
ENDBRANCH  98 100
ENDBRANCH  89  92
ENDBRANCH  78  88
ENDBRANCH  75  78
ENDBRANCH  73  74
ENDBRANCH   1  73
TORSDOF 14
ENDMDL
MODEL 3
REMARK VINA RESULT:     -15.6      5.936      9.634
REMARK SMILES O=C(NCCCCNC(=O)[C@]1(NC(=O)C2CCN(C(=O)C3CC3)CC2)CCCc2ccccc21)c1ccc(-c2c3nc(c(-c4c(F)c(F)c(F)c(F)c4F)c4ccc([nH]4)c(-c4c(F)c(F)c(F)c(F)c4F)c4nc(c(-c5c(F)c(F)c(F)c(F)c5F)c5ccc2[nH]5)C=C4)C=C3)cc1
REMARK SMILES IDX 6 1 5 2 4 3 3 4 1 5 2 6 35 8 36 9 97 10 37 11 96 12 38 13
REMARK SMILES IDX 39 14 40 15 90 16 41 17 95 18 89 19 91 20 42 21 94 22 88 23
REMARK SMILES IDX 87 24 43 26 75 27 55 28 74 29 56 30 59 31 73 32 92 33 57 34
REMARK SMILES IDX 58 35 72 37 93 38 60 39 44 40 45 41 53 42 46 43 47 44 51 45
REMARK SMILES IDX 54 46 48 47 49 48 52 49 50 50 76 51 77 52 85 53 78 54 79 55
REMARK SMILES IDX 83 56 86 57 80 58 81 59 84 60 82 61 61 62 62 63 70 64 63 65
REMARK SMILES IDX 64 66 68 67 71 68 65 69 66 70 69 71 67 72 7 73 8 74 9 75
REMARK SMILES IDX 10 77 11 78 26 79 34 80 27 81 29 82 33 83 28 84 30 85 32 86
REMARK SMILES IDX 31 87 12 88 13 89 14 91 15 92 16 93 25 94 17 95 24 96 18 97
REMARK SMILES IDX 19 98 20 99 21 100 22 101 23 102
REMARK H PARENT 3 7 91 25 59 36 8 76 12 90
REMARK Flexibility Score: inf
ROOT
ATOM      1  C   UNL A   1      34.732  33.073  32.778  1.00  0.00     0.023 C 
ENDROOT
BRANCH   1   2
ATOM      2  C   UNL A   1      35.623  33.838  34.568  1.00  0.00     0.023 C 
BRANCH   2   3
ATOM      3  C   UNL A   1      37.381  33.799  35.167  1.00  0.00     0.116 C 
BRANCH   3   4
ATOM      4  N   UNL A   1      37.783  33.316  36.558  1.00  0.00    -0.352 N 
ATOM      5  O   UNL A   1      38.006  31.608  38.051  1.00  0.00    -0.269 OA
ATOM      6  C   UNL A   1      38.294  32.100  36.968  1.00  0.00     0.251 C 
ATOM      7  H   UNL A   1      37.658  33.976  37.277  1.00  0.00     0.163 HD
BRANCH   6   8
ATOM      8  C   UNL A   1      39.256  31.461  36.081  1.00  0.00     0.039 A 
ATOM      9  C   UNL A   1      40.525  32.034  36.087  1.00  0.00     0.014 A 
ATOM     10  C   UNL A   1      38.921  30.384  35.251  1.00  0.00     0.014 A 
ATOM     11  C   UNL A   1      41.444  31.623  35.157  1.00  0.00     0.010 A 
ATOM     12  C   UNL A   1      39.859  29.952  34.321  1.00  0.00     0.010 A 
ATOM     13  C   UNL A   1      41.111  30.586  34.274  1.00  0.00    -0.014 A 
BRANCH  13  14
ATOM     14  C   UNL A   1      42.207  30.073  33.456  1.00  0.00     0.031 A 
ATOM     15  C   UNL A   1      42.720  30.839  32.291  1.00  0.00     0.074 A 
ATOM     16  C   UNL A   1      42.809  28.972  33.932  1.00  0.00     0.049 A 
ATOM     17  N   UNL A   1      43.803  30.637  31.595  1.00  0.00    -0.248 NA
ATOM     18  C   UNL A   1      41.926  31.997  31.860  1.00  0.00     0.031 C 
ATOM     19  C   UNL A   1      42.361  28.225  35.114  1.00  0.00     0.029 A 
ATOM     20  N   UNL A   1      43.925  28.314  33.518  1.00  0.00    -0.354 N 
ATOM     21  C   UNL A   1      43.835  31.651  30.650  1.00  0.00     0.074 A 
ATOM     22  C   UNL A   1      42.652  32.460  30.850  1.00  0.00     0.031 C 
ATOM     23  C   UNL A   1      43.206  27.213  35.335  1.00  0.00     0.029 A 
ATOM     24  C   UNL A   1      44.213  27.216  34.284  1.00  0.00     0.049 A 
ATOM     25  H   UNL A   1      44.470  28.599  32.749  1.00  0.00     0.167 HD
ATOM     26  C   UNL A   1      44.775  31.858  29.700  1.00  0.00     0.037 A 
ATOM     27  C   UNL A   1      45.175  26.295  34.123  1.00  0.00     0.037 A 
ATOM     28  C   UNL A   1      45.897  30.978  29.504  1.00  0.00     0.049 A 
ATOM     29  C   UNL A   1      46.148  26.497  33.006  1.00  0.00     0.074 A 
ATOM     30  C   UNL A   1      46.914  31.062  28.572  1.00  0.00     0.029 A 
ATOM     31  N   UNL A   1      46.128  29.822  30.246  1.00  0.00    -0.354 N 
ATOM     32  N   UNL A   1      46.205  27.479  32.136  1.00  0.00    -0.248 NA
ATOM     33  C   UNL A   1      47.189  25.482  32.846  1.00  0.00     0.031 C 
ATOM     34  C   UNL A   1      47.715  29.923  28.702  1.00  0.00     0.029 A 
ATOM     35  C   UNL A   1      47.244  29.161  29.762  1.00  0.00     0.049 A 
ATOM     36  H   UNL A   1      45.578  29.519  31.003  1.00  0.00     0.167 HD
ATOM     37  C   UNL A   1      47.297  27.213  31.330  1.00  0.00     0.074 A 
ATOM     38  C   UNL A   1      47.878  25.976  31.825  1.00  0.00     0.031 C 
ATOM     39  C   UNL A   1      47.781  27.925  30.283  1.00  0.00     0.037 A 
BRANCH  26  40
ATOM     40  C   UNL A   1      44.580  33.021  28.772  1.00  0.00     0.064 A 
ATOM     41  C   UNL A   1      44.075  32.860  27.472  1.00  0.00     0.173 A 
ATOM     42  C   UNL A   1      44.900  34.321  29.191  1.00  0.00     0.173 A 
ATOM     43  F   UNL A   1      43.772  31.636  27.012  1.00  0.00    -0.203 F 
ATOM     44  C   UNL A   1      43.923  33.952  26.620  1.00  0.00     0.198 A 
ATOM     45  C   UNL A   1      44.722  35.414  28.347  1.00  0.00     0.198 A 
ATOM     46  F   UNL A   1      45.389  34.531  30.423  1.00  0.00    -0.203 F 
ATOM     47  F   UNL A   1      43.485  33.768  25.367  1.00  0.00    -0.200 F 
ATOM     48  C   UNL A   1      44.241  35.228  27.060  1.00  0.00     0.200 A 
ATOM     49  F   UNL A   1      45.024  36.646  28.778  1.00  0.00    -0.200 F 
ATOM     50  F   UNL A   1      44.095  36.279  26.241  1.00  0.00    -0.200 F 
ENDBRANCH  26  40
BRANCH  27  51
ATOM     51  C   UNL A   1      45.195  25.131  35.037  1.00  0.00     0.064 A 
ATOM     52  C   UNL A   1      44.647  23.900  34.664  1.00  0.00     0.173 A 
ATOM     53  C   UNL A   1      45.887  25.200  36.259  1.00  0.00     0.173 A 
ATOM     54  F   UNL A   1      43.982  23.786  33.506  1.00  0.00    -0.203 F 
ATOM     55  C   UNL A   1      44.796  22.776  35.477  1.00  0.00     0.198 A 
ATOM     56  C   UNL A   1      46.059  24.073  37.054  1.00  0.00     0.198 A 
ATOM     57  F   UNL A   1      46.452  26.355  36.645  1.00  0.00    -0.203 F 
ATOM     58  F   UNL A   1      44.260  21.607  35.102  1.00  0.00    -0.200 F 
ATOM     59  C   UNL A   1      45.512  22.861  36.663  1.00  0.00     0.200 A 
ATOM     60  F   UNL A   1      46.779  24.153  38.181  1.00  0.00    -0.200 F 
ATOM     61  F   UNL A   1      45.681  21.772  37.425  1.00  0.00    -0.200 F 
ENDBRANCH  27  51
BRANCH  39  62
ATOM     62  C   UNL A   1      49.014  27.392  29.623  1.00  0.00     0.064 A 
ATOM     63  C   UNL A   1      50.293  27.666  30.127  1.00  0.00     0.173 A 
ATOM     64  C   UNL A   1      48.905  26.548  28.507  1.00  0.00     0.173 A 
ATOM     65  F   UNL A   1      50.444  28.483  31.180  1.00  0.00    -0.203 F 
ATOM     66  C   UNL A   1      51.424  27.124  29.526  1.00  0.00     0.198 A 
ATOM     67  C   UNL A   1      50.036  25.984  27.929  1.00  0.00     0.198 A 
ATOM     68  F   UNL A   1      47.701  26.256  27.996  1.00  0.00    -0.203 F 
ATOM     69  F   UNL A   1      52.641  27.427  29.997  1.00  0.00    -0.200 F 
ATOM     70  C   UNL A   1      51.295  26.276  28.435  1.00  0.00     0.200 A 
ATOM     71  F   UNL A   1      49.908  25.154  26.884  1.00  0.00    -0.200 F 
ATOM     72  F   UNL A   1      52.385  25.742  27.868  1.00  0.00    -0.200 F 
ENDBRANCH  39  62
ENDBRANCH  13  14
ENDBRANCH   6   8
ENDBRANCH   3   4
ENDBRANCH   2   3
ENDBRANCH   1   2
BRANCH   1  73
ATOM     73  C   UNL A   1      34.917  33.773  31.028  1.00  0.00     0.116 C 
BRANCH  73  74
ATOM     74  N   UNL A   1      34.715  32.836  29.701  1.00  0.00    -0.354 N 
ATOM     75  C   UNL A   1      35.583  32.185  28.785  1.00  0.00     0.250 C 
ATOM     76  H   UNL A   1      33.764  32.690  29.487  1.00  0.00     0.163 HD
ATOM     77  O   UNL A   1      35.311  32.199  27.583  1.00  0.00    -0.272 OA
BRANCH  75  78
ATOM     78  C   UNL A   1      36.645  31.227  29.408  1.00  0.00     0.145 C 
ATOM     79  C   UNL A   1      36.263  30.184  30.508  1.00  0.00     0.044 C 
ATOM     80  C   UNL A   1      37.780  32.197  29.863  1.00  0.00    -0.010 A 
ATOM     81  C   UNL A   1      36.671  30.434  31.950  1.00  0.00     0.008 C 
ATOM     82  C   UNL A   1      38.206  32.197  31.208  1.00  0.00    -0.042 A 
ATOM     83  C   UNL A   1      38.061  33.362  29.112  1.00  0.00     0.007 A 
ATOM     84  C   UNL A   1      38.087  30.959  32.041  1.00  0.00     0.036 C 
ATOM     85  C   UNL A   1      38.681  33.377  31.808  1.00  0.00     0.004 A 
ATOM     86  C   UNL A   1      38.466  34.548  29.731  1.00  0.00     0.000 A 
ATOM     87  C   UNL A   1      38.743  34.564  31.088  1.00  0.00     0.000 A 
BRANCH  78  88
ATOM     88  N   UNL A   1      36.826  30.392  28.254  1.00  0.00    -0.338 N 
ATOM     89  C   UNL A   1      38.022  29.711  28.126  1.00  0.00     0.224 C 
ATOM     90  H   UNL A   1      36.120  30.308  27.573  1.00  0.00     0.164 HD
ATOM     91  O   UNL A   1      38.501  29.805  26.989  1.00  0.00    -0.275 OA
BRANCH  89  92
ATOM     92  C   UNL A   1      38.780  28.717  29.384  1.00  0.00     0.082 C 
ATOM     93  C   UNL A   1      40.409  29.706  29.341  1.00  0.00     0.035 C 
ATOM     94  C   UNL A   1      39.070  26.702  29.355  1.00  0.00     0.035 C 
ATOM     95  C   UNL A   1      41.830  29.053  28.390  1.00  0.00     0.120 C 
ATOM     96  C   UNL A   1      40.794  26.061  28.483  1.00  0.00     0.120 C 
ATOM     97  N   UNL A   1      42.106  27.343  28.267  1.00  0.00    -0.342 N 
ATOM     98  C   UNL A   1      43.447  27.102  27.979  1.00  0.00     0.225 C 
ATOM     99  O   UNL A   1      43.996  27.550  26.978  1.00  0.00    -0.275 OA
BRANCH  98 100
ATOM    100  C   UNL A   1      44.314  26.766  29.146  1.00  0.00     0.079 C 
ATOM    101  C   UNL A   1      43.857  25.944  30.299  1.00  0.00     0.014 C 
ATOM    102  C   UNL A   1      44.817  25.348  29.328  1.00  0.00     0.014 C 
ENDBRANCH  98 100
ENDBRANCH  89  92
ENDBRANCH  78  88
ENDBRANCH  75  78
ENDBRANCH  73  74
ENDBRANCH   1  73
TORSDOF 14
ENDMDL
