MODEL 1
REMARK VINA RESULT:     -12.8      0.000      0.000
REMARK SMILES O=C(CCC(=O)Nc1ccc(N2CCN(c3ccc(F)cc3)CC2)cc1)NCCCCNC(=O)c1ccc(-c2c3nc(c(-c4c(F)c(F)c(F)c(F)c4F)c4ccc([nH]4)c(-c4c(F)c(F)c(F)c(F)c4F)c4nc(c(-c5c(F)c(F)c(F)c(F)c5F)c5ccc2[nH]5)C=C4)C=C3)cc1
REMARK SMILES IDX 28 1 27 2 1 3 2 4 3 6 4 7 5 8 6 9 7 10 8 12 9 13 26 14 10 15
REMARK SMILES IDX 25 16 11 17 12 18 13 19 24 20 14 21 23 22 15 23 16 24 17 25
REMARK SMILES IDX 22 26 18 27 21 28 19 29 20 30 29 31 30 32 31 33 32 34 33 35
REMARK SMILES IDX 34 37 35 38 36 39 97 40 37 41 96 42 38 43 39 44 40 45 90 46
REMARK SMILES IDX 41 47 95 48 89 49 91 50 42 51 94 52 88 53 87 54 43 56 75 57
REMARK SMILES IDX 55 58 74 59 56 60 59 61 73 62 92 63 57 64 58 65 72 67 93 68
REMARK SMILES IDX 60 69 44 70 45 71 53 72 46 73 47 74 51 75 54 76 48 77 49 78
REMARK SMILES IDX 52 79 50 80 76 81 77 82 85 83 78 84 79 85 83 86 86 87 80 88
REMARK SMILES IDX 81 89 84 90 82 91 61 92 62 93 70 94 63 95 64 96 68 97 71 98
REMARK SMILES IDX 65 99 66 100 69 101 67 102
REMARK H PARENT 27 5 7 11 32 36 91 55 59 66
REMARK Flexibility Score: inf
ROOT
ATOM      1  C   UNL A   1      34.589  32.366  29.370  1.00  0.00     0.116 C 
ENDROOT
BRANCH   1   2
ATOM      2  N   UNL A   1      34.037  31.468  28.371  1.00  0.00    -0.356 N 
ATOM      3  O   UNL A   1      36.055  30.600  27.685  1.00  0.00    -0.275 OA
ATOM      4  C   UNL A   1      34.828  30.580  27.675  1.00  0.00     0.220 C 
ATOM      5  H   UNL A   1      33.070  31.493  28.188  1.00  0.00     0.163 HD
BRANCH   4   6
ATOM      6  C   UNL A   1      34.059  29.524  26.907  1.00  0.00     0.110 C 
BRANCH   6   7
ATOM      7  C   UNL A   1      32.540  29.605  27.044  1.00  0.00     0.110 C 
BRANCH   7   8
ATOM      8  C   UNL A   1      31.862  30.445  25.990  1.00  0.00     0.224 C 
ATOM      9  O   UNL A   1      31.376  31.537  26.315  1.00  0.00    -0.275 OA
ATOM     10  N   UNL A   1      31.689  30.069  24.694  1.00  0.00    -0.326 N 
ATOM     11  H   UNL A   1      31.460  30.823  24.104  1.00  0.00     0.169 HD
BRANCH  10  12
ATOM     12  C   UNL A   1      31.765  28.843  24.007  1.00  0.00     0.041 A 
ATOM     13  C   UNL A   1      30.743  27.923  24.276  1.00  0.00     0.028 A 
ATOM     14  C   UNL A   1      32.827  28.419  23.220  1.00  0.00     0.028 A 
ATOM     15  C   UNL A   1      30.873  26.579  23.900  1.00  0.00     0.028 A 
ATOM     16  C   UNL A   1      32.965  27.071  22.870  1.00  0.00     0.028 A 
ATOM     17  C   UNL A   1      32.014  26.126  23.239  1.00  0.00     0.037 A 
BRANCH  17  18
ATOM     18  N   UNL A   1      32.152  24.776  22.961  1.00  0.00    -0.368 N 
ATOM     19  C   UNL A   1      33.530  24.253  22.968  1.00  0.00     0.138 C 
ATOM     20  C   UNL A   1      31.120  23.834  23.449  1.00  0.00     0.138 C 
ATOM     21  C   UNL A   1      33.904  23.666  24.346  1.00  0.00     0.138 C 
ATOM     22  C   UNL A   1      31.516  23.090  24.748  1.00  0.00     0.138 C 
ATOM     23  N   UNL A   1      32.921  22.644  24.751  1.00  0.00    -0.368 N 
BRANCH  23  24
ATOM     24  C   UNL A   1      33.293  21.321  24.614  1.00  0.00     0.037 A 
ATOM     25  C   UNL A   1      32.323  20.369  24.249  1.00  0.00     0.029 A 
ATOM     26  C   UNL A   1      34.594  20.865  24.860  1.00  0.00     0.029 A 
ATOM     27  C   UNL A   1      32.632  19.012  24.147  1.00  0.00     0.041 A 
ATOM     28  C   UNL A   1      34.908  19.504  24.775  1.00  0.00     0.041 A 
ATOM     29  C   UNL A   1      33.923  18.590  24.420  1.00  0.00     0.123 A 
ATOM     30  F   UNL A   1      34.222  17.287  24.345  1.00  0.00    -0.207 F 
ENDBRANCH  23  24
ENDBRANCH  17  18
ENDBRANCH  10  12
ENDBRANCH   7   8
ENDBRANCH   6   7
ENDBRANCH   4   6
ENDBRANCH   1   2
BRANCH   1  31
ATOM     31  C   UNL A   1      34.725  33.813  28.903  1.00  0.00     0.023 C 
BRANCH  31  32
ATOM     32  C   UNL A   1      33.425  34.619  28.850  1.00  0.00     0.023 C 
BRANCH  32  33
ATOM     33  C   UNL A   1      33.477  36.004  29.490  1.00  0.00     0.116 C 
BRANCH  33  34
ATOM     34  N   UNL A   1      32.542  36.156  30.594  1.00  0.00    -0.352 N 
ATOM     35  C   UNL A   1      32.597  35.673  31.879  1.00  0.00     0.251 C 
ATOM     36  H   UNL A   1      31.742  36.692  30.388  1.00  0.00     0.163 HD
ATOM     37  O   UNL A   1      31.612  35.777  32.613  1.00  0.00    -0.269 OA
BRANCH  35  38
ATOM     38  C   UNL A   1      33.812  35.001  32.395  1.00  0.00     0.039 A 
ATOM     39  C   UNL A   1      33.700  33.711  32.923  1.00  0.00     0.014 A 
ATOM     40  C   UNL A   1      35.055  35.638  32.390  1.00  0.00     0.014 A 
ATOM     41  C   UNL A   1      34.841  33.031  33.361  1.00  0.00     0.010 A 
ATOM     42  C   UNL A   1      36.203  34.933  32.754  1.00  0.00     0.010 A 
ATOM     43  C   UNL A   1      36.112  33.618  33.237  1.00  0.00    -0.014 A 
BRANCH  43  44
ATOM     44  C   UNL A   1      37.350  32.866  33.581  1.00  0.00     0.031 A 
ATOM     45  C   UNL A   1      38.096  33.157  34.855  1.00  0.00     0.074 A 
ATOM     46  C   UNL A   1      37.847  31.967  32.708  1.00  0.00     0.049 A 
ATOM     47  N   UNL A   1      39.228  32.657  35.285  1.00  0.00    -0.248 NA
ATOM     48  C   UNL A   1      37.503  34.157  35.755  1.00  0.00     0.031 C 
ATOM     49  C   UNL A   1      37.249  31.622  31.417  1.00  0.00     0.029 A 
ATOM     50  N   UNL A   1      38.977  31.188  32.767  1.00  0.00    -0.354 N 
ATOM     51  C   UNL A   1      39.490  33.294  36.492  1.00  0.00     0.074 A 
ATOM     52  C   UNL A   1      38.424  34.250  36.702  1.00  0.00     0.031 C 
ATOM     53  C   UNL A   1      38.001  30.685  30.819  1.00  0.00     0.029 A 
ATOM     54  C   UNL A   1      39.160  30.395  31.660  1.00  0.00     0.049 A 
ATOM     55  H   UNL A   1      39.597  31.196  33.531  1.00  0.00     0.167 HD
ATOM     56  C   UNL A   1      40.515  33.088  37.354  1.00  0.00     0.037 A 
ATOM     57  C   UNL A   1      40.151  29.538  31.348  1.00  0.00     0.037 A 
ATOM     58  C   UNL A   1      41.564  32.120  37.156  1.00  0.00     0.049 A 
ATOM     59  C   UNL A   1      41.287  29.341  32.317  1.00  0.00     0.074 A 
ATOM     60  C   UNL A   1      42.605  31.791  38.007  1.00  0.00     0.029 A 
ATOM     61  N   UNL A   1      41.709  31.330  36.025  1.00  0.00    -0.354 N 
ATOM     62  N   UNL A   1      41.483  29.895  33.488  1.00  0.00    -0.248 NA
ATOM     63  C   UNL A   1      42.339  28.394  31.919  1.00  0.00     0.031 C 
ATOM     64  C   UNL A   1      43.411  30.843  37.367  1.00  0.00     0.029 A 
ATOM     65  C   UNL A   1      42.840  30.536  36.143  1.00  0.00     0.049 A 
ATOM     66  H   UNL A   1      41.099  31.333  35.252  1.00  0.00     0.167 HD
ATOM     67  C   UNL A   1      42.658  29.341  33.981  1.00  0.00     0.074 A 
ATOM     68  C   UNL A   1      43.124  28.397  32.987  1.00  0.00     0.031 C 
ATOM     69  C   UNL A   1      43.291  29.593  35.153  1.00  0.00     0.037 A 
BRANCH  56  70
ATOM     70  C   UNL A   1      40.558  33.928  38.599  1.00  0.00     0.064 A 
ATOM     71  C   UNL A   1      39.901  33.539  39.776  1.00  0.00     0.173 A 
ATOM     72  C   UNL A   1      41.306  35.115  38.631  1.00  0.00     0.173 A 
ATOM     73  F   UNL A   1      39.166  32.417  39.800  1.00  0.00    -0.203 F 
ATOM     74  C   UNL A   1      39.963  34.321  40.926  1.00  0.00     0.198 A 
ATOM     75  C   UNL A   1      41.394  35.878  39.791  1.00  0.00     0.198 A 
ATOM     76  F   UNL A   1      41.963  35.530  37.537  1.00  0.00    -0.203 F 
ATOM     77  F   UNL A   1      39.285  33.954  42.022  1.00  0.00    -0.200 F 
ATOM     78  C   UNL A   1      40.716  35.486  40.936  1.00  0.00     0.200 A 
ATOM     79  F   UNL A   1      42.135  36.995  39.803  1.00  0.00    -0.200 F 
ATOM     80  F   UNL A   1      40.783  36.234  42.046  1.00  0.00    -0.200 F 
ENDBRANCH  56  70
BRANCH  57  81
ATOM     81  C   UNL A   1      40.108  28.781  30.070  1.00  0.00     0.064 A 
ATOM     82  C   UNL A   1      39.494  27.522  30.001  1.00  0.00     0.173 A 
ATOM     83  C   UNL A   1      40.688  29.288  28.898  1.00  0.00     0.173 A 
ATOM     84  F   UNL A   1      38.946  26.984  31.100  1.00  0.00    -0.203 F 
ATOM     85  C   UNL A   1      39.481  26.790  28.815  1.00  0.00     0.198 A 
ATOM     86  C   UNL A   1      40.647  28.570  27.705  1.00  0.00     0.198 A 
ATOM     87  F   UNL A   1      41.285  30.489  28.908  1.00  0.00    -0.203 F 
ATOM     88  F   UNL A   1      38.932  25.568  28.791  1.00  0.00    -0.200 F 
ATOM     89  C   UNL A   1      40.052  27.317  27.667  1.00  0.00     0.200 A 
ATOM     90  F   UNL A   1      41.187  29.088  26.594  1.00  0.00    -0.200 F 
ATOM     91  F   UNL A   1      40.037  26.614  26.525  1.00  0.00    -0.200 F 
ENDBRANCH  57  81
BRANCH  69  92
ATOM     92  C   UNL A   1      44.537  28.805  35.448  1.00  0.00     0.064 A 
ATOM     93  C   UNL A   1      44.489  27.562  36.098  1.00  0.00     0.173 A 
ATOM     94  C   UNL A   1      45.791  29.285  35.041  1.00  0.00     0.173 A 
ATOM     95  F   UNL A   1      43.317  27.067  36.521  1.00  0.00    -0.203 F 
ATOM     96  C   UNL A   1      45.654  26.843  36.352  1.00  0.00     0.198 A 
ATOM     97  C   UNL A   1      46.950  28.547  35.267  1.00  0.00     0.198 A 
ATOM     98  F   UNL A   1      45.892  30.464  34.410  1.00  0.00    -0.203 F 
ATOM     99  F   UNL A   1      45.590  25.683  37.019  1.00  0.00    -0.200 F 
ATOM    100  C   UNL A   1      46.882  27.331  35.930  1.00  0.00     0.200 A 
ATOM    101  F   UNL A   1      48.133  29.015  34.845  1.00  0.00    -0.200 F 
ATOM    102  F   UNL A   1      48.001  26.633  36.168  1.00  0.00    -0.200 F 
ENDBRANCH  69  92
ENDBRANCH  43  44
ENDBRANCH  35  38
ENDBRANCH  33  34
ENDBRANCH  32  33
ENDBRANCH  31  32
ENDBRANCH   1  31
TORSDOF 16
ENDMDL
MODEL 2
REMARK VINA RESULT:     -12.6      0.922      2.029
REMARK SMILES O=C(CCC(=O)Nc1ccc(N2CCN(c3ccc(F)cc3)CC2)cc1)NCCCCNC(=O)c1ccc(-c2c3nc(c(-c4c(F)c(F)c(F)c(F)c4F)c4ccc([nH]4)c(-c4c(F)c(F)c(F)c(F)c4F)c4nc(c(-c5c(F)c(F)c(F)c(F)c5F)c5ccc2[nH]5)C=C4)C=C3)cc1
REMARK SMILES IDX 28 1 27 2 1 3 2 4 3 6 4 7 5 8 6 9 7 10 8 12 9 13 26 14 10 15
REMARK SMILES IDX 25 16 11 17 12 18 13 19 24 20 14 21 23 22 15 23 16 24 17 25
REMARK SMILES IDX 22 26 18 27 21 28 19 29 20 30 29 31 30 32 31 33 32 34 33 35
REMARK SMILES IDX 34 37 35 38 36 39 97 40 37 41 96 42 38 43 39 44 40 45 90 46
REMARK SMILES IDX 41 47 95 48 89 49 91 50 42 51 94 52 88 53 87 54 43 56 75 57
REMARK SMILES IDX 55 58 74 59 56 60 59 61 73 62 92 63 57 64 58 65 72 67 93 68
REMARK SMILES IDX 60 69 44 70 45 71 53 72 46 73 47 74 51 75 54 76 48 77 49 78
REMARK SMILES IDX 52 79 50 80 76 81 77 82 85 83 78 84 79 85 83 86 86 87 80 88
REMARK SMILES IDX 81 89 84 90 82 91 61 92 62 93 70 94 63 95 64 96 68 97 71 98
REMARK SMILES IDX 65 99 66 100 69 101 67 102
REMARK H PARENT 27 5 7 11 32 36 91 55 59 66
REMARK Flexibility Score: inf
ROOT
ATOM      1  C   UNL A   1      34.593  32.395  29.415  1.00  0.00     0.116 C 
ENDROOT
BRANCH   1   2
ATOM      2  N   UNL A   1      34.221  31.307  28.529  1.00  0.00    -0.356 N 
ATOM      3  O   UNL A   1      36.346  30.892  27.748  1.00  0.00    -0.275 OA
ATOM      4  C   UNL A   1      35.163  30.578  27.836  1.00  0.00     0.220 C 
ATOM      5  H   UNL A   1      33.268  31.083  28.421  1.00  0.00     0.163 HD
BRANCH   4   6
ATOM      6  C   UNL A   1      34.632  29.305  27.208  1.00  0.00     0.110 C 
BRANCH   6   7
ATOM      7  C   UNL A   1      33.117  29.130  27.284  1.00  0.00     0.110 C 
BRANCH   7   8
ATOM      8  C   UNL A   1      32.406  29.275  25.961  1.00  0.00     0.224 C 
ATOM      9  O   UNL A   1      31.784  30.321  25.727  1.00  0.00    -0.275 OA
ATOM     10  N   UNL A   1      32.343  28.309  25.006  1.00  0.00    -0.326 N 
ATOM     11  H   UNL A   1      32.062  28.655  24.129  1.00  0.00     0.169 HD
BRANCH  10  12
ATOM     12  C   UNL A   1      32.591  26.923  24.991  1.00  0.00     0.041 A 
ATOM     13  C   UNL A   1      31.665  26.125  25.675  1.00  0.00     0.028 A 
ATOM     14  C   UNL A   1      33.735  26.310  24.498  1.00  0.00     0.028 A 
ATOM     15  C   UNL A   1      31.962  24.792  25.988  1.00  0.00     0.028 A 
ATOM     16  C   UNL A   1      34.040  24.986  24.836  1.00  0.00     0.028 A 
ATOM     17  C   UNL A   1      33.181  24.223  25.619  1.00  0.00     0.037 A 
BRANCH  17  18
ATOM     18  N   UNL A   1      33.482  22.932  26.022  1.00  0.00    -0.368 N 
ATOM     19  C   UNL A   1      32.358  21.978  26.022  1.00  0.00     0.138 C 
ATOM     20  C   UNL A   1      34.796  22.355  25.662  1.00  0.00     0.138 C 
ATOM     21  C   UNL A   1      32.286  21.190  24.697  1.00  0.00     0.138 C 
ATOM     22  C   UNL A   1      34.751  21.418  24.429  1.00  0.00     0.138 C 
ATOM     23  N   UNL A   1      33.576  20.528  24.425  1.00  0.00    -0.368 N 
BRANCH  23  24
ATOM     24  C   UNL A   1      33.655  19.172  24.678  1.00  0.00     0.037 A 
ATOM     25  C   UNL A   1      32.552  18.517  25.256  1.00  0.00     0.029 A 
ATOM     26  C   UNL A   1      34.803  18.413  24.419  1.00  0.00     0.029 A 
ATOM     27  C   UNL A   1      32.595  17.160  25.580  1.00  0.00     0.041 A 
ATOM     28  C   UNL A   1      34.858  17.056  24.756  1.00  0.00     0.041 A 
ATOM     29  C   UNL A   1      33.754  16.443  25.334  1.00  0.00     0.123 A 
ATOM     30  F   UNL A   1      33.810  15.145  25.662  1.00  0.00    -0.207 F 
ENDBRANCH  23  24
ENDBRANCH  17  18
ENDBRANCH  10  12
ENDBRANCH   7   8
ENDBRANCH   6   7
ENDBRANCH   4   6
ENDBRANCH   1   2
BRANCH   1  31
ATOM     31  C   UNL A   1      34.637  33.764  28.741  1.00  0.00     0.023 C 
BRANCH  31  32
ATOM     32  C   UNL A   1      33.346  34.583  28.817  1.00  0.00     0.023 C 
BRANCH  32  33
ATOM     33  C   UNL A   1      33.467  35.951  29.484  1.00  0.00     0.116 C 
BRANCH  33  34
ATOM     34  N   UNL A   1      32.543  36.128  30.593  1.00  0.00    -0.352 N 
ATOM     35  C   UNL A   1      32.607  35.666  31.886  1.00  0.00     0.251 C 
ATOM     36  H   UNL A   1      31.745  36.665  30.386  1.00  0.00     0.163 HD
ATOM     37  O   UNL A   1      31.629  35.788  32.627  1.00  0.00    -0.269 OA
BRANCH  35  38
ATOM     38  C   UNL A   1      33.822  34.994  32.402  1.00  0.00     0.039 A 
ATOM     39  C   UNL A   1      33.702  33.722  32.970  1.00  0.00     0.014 A 
ATOM     40  C   UNL A   1      35.072  35.614  32.357  1.00  0.00     0.014 A 
ATOM     41  C   UNL A   1      34.842  33.041  33.410  1.00  0.00     0.010 A 
ATOM     42  C   UNL A   1      36.218  34.905  32.723  1.00  0.00     0.010 A 
ATOM     43  C   UNL A   1      36.118  33.607  33.247  1.00  0.00    -0.014 A 
BRANCH  43  44
ATOM     44  C   UNL A   1      37.352  32.850  33.593  1.00  0.00     0.031 A 
ATOM     45  C   UNL A   1      38.103  33.145  34.863  1.00  0.00     0.074 A 
ATOM     46  C   UNL A   1      37.842  31.942  32.726  1.00  0.00     0.049 A 
ATOM     47  N   UNL A   1      39.234  32.642  35.294  1.00  0.00    -0.248 NA
ATOM     48  C   UNL A   1      37.519  34.156  35.757  1.00  0.00     0.031 C 
ATOM     49  C   UNL A   1      37.238  31.591  31.439  1.00  0.00     0.029 A 
ATOM     50  N   UNL A   1      38.967  31.156  32.787  1.00  0.00    -0.354 N 
ATOM     51  C   UNL A   1      39.503  33.285  36.495  1.00  0.00     0.074 A 
ATOM     52  C   UNL A   1      38.443  34.250  36.702  1.00  0.00     0.031 C 
ATOM     53  C   UNL A   1      37.983  30.646  30.845  1.00  0.00     0.029 A 
ATOM     54  C   UNL A   1      39.142  30.354  31.685  1.00  0.00     0.049 A 
ATOM     55  H   UNL A   1      39.589  31.166  33.549  1.00  0.00     0.167 HD
ATOM     56  C   UNL A   1      40.529  33.079  37.357  1.00  0.00     0.037 A 
ATOM     57  C   UNL A   1      40.127  29.489  31.377  1.00  0.00     0.037 A 
ATOM     58  C   UNL A   1      41.571  32.103  37.163  1.00  0.00     0.049 A 
ATOM     59  C   UNL A   1      41.265  29.291  32.344  1.00  0.00     0.074 A 
ATOM     60  C   UNL A   1      42.613  31.773  38.013  1.00  0.00     0.029 A 
ATOM     61  N   UNL A   1      41.708  31.305  36.037  1.00  0.00    -0.354 N 
ATOM     62  N   UNL A   1      41.467  29.852  33.511  1.00  0.00    -0.248 NA
ATOM     63  C   UNL A   1      42.309  28.335  31.950  1.00  0.00     0.031 C 
ATOM     64  C   UNL A   1      43.411  30.817  37.378  1.00  0.00     0.029 A 
ATOM     65  C   UNL A   1      42.834  30.505  36.158  1.00  0.00     0.049 A 
ATOM     66  H   UNL A   1      41.096  31.305  35.266  1.00  0.00     0.167 HD
ATOM     67  C   UNL A   1      42.640  29.295  34.004  1.00  0.00     0.074 A 
ATOM     68  C   UNL A   1      43.097  28.341  33.016  1.00  0.00     0.031 C 
ATOM     69  C   UNL A   1      43.278  29.551  35.173  1.00  0.00     0.037 A 
BRANCH  56  70
ATOM     70  C   UNL A   1      40.581  33.928  38.596  1.00  0.00     0.064 A 
ATOM     71  C   UNL A   1      41.307  35.128  38.638  1.00  0.00     0.173 A 
ATOM     72  C   UNL A   1      39.858  33.561  39.740  1.00  0.00     0.173 A 
ATOM     73  F   UNL A   1      42.021  35.523  37.573  1.00  0.00    -0.203 F 
ATOM     74  C   UNL A   1      41.332  35.911  39.788  1.00  0.00     0.198 A 
ATOM     75  C   UNL A   1      39.858  34.362  40.878  1.00  0.00     0.198 A 
ATOM     76  F   UNL A   1      39.139  32.428  39.752  1.00  0.00    -0.203 F 
ATOM     77  F   UNL A   1      42.074  37.027  39.821  1.00  0.00    -0.200 F 
ATOM     78  C   UNL A   1      40.603  35.532  40.906  1.00  0.00     0.200 A 
ATOM     79  F   UNL A   1      39.140  34.002  41.951  1.00  0.00    -0.200 F 
ATOM     80  F   UNL A   1      40.621  36.292  42.009  1.00  0.00    -0.200 F 
ENDBRANCH  56  70
BRANCH  57  81
ATOM     81  C   UNL A   1      40.076  28.723  30.105  1.00  0.00     0.064 A 
ATOM     82  C   UNL A   1      39.471  27.459  30.050  1.00  0.00     0.173 A 
ATOM     83  C   UNL A   1      40.639  29.227  28.923  1.00  0.00     0.173 A 
ATOM     84  F   UNL A   1      38.939  26.924  31.159  1.00  0.00    -0.203 F 
ATOM     85  C   UNL A   1      39.450  26.719  28.869  1.00  0.00     0.198 A 
ATOM     86  C   UNL A   1      40.591  28.500  27.735  1.00  0.00     0.198 A 
ATOM     87  F   UNL A   1      41.227  30.432  28.919  1.00  0.00    -0.203 F 
ATOM     88  F   UNL A   1      38.910  25.493  28.860  1.00  0.00    -0.200 F 
ATOM     89  C   UNL A   1      40.006  27.243  27.712  1.00  0.00     0.200 A 
ATOM     90  F   UNL A   1      41.115  29.015  26.615  1.00  0.00    -0.200 F 
ATOM     91  F   UNL A   1      39.983  26.532  26.575  1.00  0.00    -0.200 F 
ENDBRANCH  57  81
BRANCH  69  92
ATOM     92  C   UNL A   1      44.519  28.758  35.471  1.00  0.00     0.064 A 
ATOM     93  C   UNL A   1      45.794  29.218  35.110  1.00  0.00     0.173 A 
ATOM     94  C   UNL A   1      44.432  27.539  36.162  1.00  0.00     0.173 A 
ATOM     95  F   UNL A   1      45.931  30.368  34.435  1.00  0.00    -0.203 F 
ATOM     96  C   UNL A   1      46.934  28.472  35.405  1.00  0.00     0.198 A 
ATOM     97  C   UNL A   1      45.575  26.814  36.484  1.00  0.00     0.198 A 
ATOM     98  F   UNL A   1      43.238  27.057  36.536  1.00  0.00    -0.203 F 
ATOM     99  F   UNL A   1      48.137  28.906  35.005  1.00  0.00    -0.200 F 
ATOM    100  C   UNL A   1      46.824  27.277  36.099  1.00  0.00     0.200 A 
ATOM    101  F   UNL A   1      45.468  25.666  37.167  1.00  0.00    -0.200 F 
ATOM    102  F   UNL A   1      47.923  26.565  36.389  1.00  0.00    -0.200 F 
ENDBRANCH  69  92
ENDBRANCH  43  44
ENDBRANCH  35  38
ENDBRANCH  33  34
ENDBRANCH  32  33
ENDBRANCH  31  32
ENDBRANCH   1  31
TORSDOF 16
ENDMDL
MODEL 3
REMARK VINA RESULT:     -12.2      0.443      7.041
REMARK SMILES O=C(CCC(=O)Nc1ccc(N2CCN(c3ccc(F)cc3)CC2)cc1)NCCCCNC(=O)c1ccc(-c2c3nc(c(-c4c(F)c(F)c(F)c(F)c4F)c4ccc([nH]4)c(-c4c(F)c(F)c(F)c(F)c4F)c4nc(c(-c5c(F)c(F)c(F)c(F)c5F)c5ccc2[nH]5)C=C4)C=C3)cc1
REMARK SMILES IDX 28 1 27 2 1 3 2 4 3 6 4 7 5 8 6 9 7 10 8 12 9 13 26 14 10 15
REMARK SMILES IDX 25 16 11 17 12 18 13 19 24 20 14 21 23 22 15 23 16 24 17 25
REMARK SMILES IDX 22 26 18 27 21 28 19 29 20 30 29 31 30 32 31 33 32 34 33 35
REMARK SMILES IDX 34 37 35 38 36 39 97 40 37 41 96 42 38 43 39 44 40 45 90 46
REMARK SMILES IDX 41 47 95 48 89 49 91 50 42 51 94 52 88 53 87 54 43 56 75 57
REMARK SMILES IDX 55 58 74 59 56 60 59 61 73 62 92 63 57 64 58 65 72 67 93 68
REMARK SMILES IDX 60 69 44 70 45 71 53 72 46 73 47 74 51 75 54 76 48 77 49 78
REMARK SMILES IDX 52 79 50 80 76 81 77 82 85 83 78 84 79 85 83 86 86 87 80 88
REMARK SMILES IDX 81 89 84 90 82 91 61 92 62 93 70 94 63 95 64 96 68 97 71 98
REMARK SMILES IDX 65 99 66 100 69 101 67 102
REMARK H PARENT 27 5 7 11 32 36 91 55 59 66
REMARK Flexibility Score: inf
ROOT
ATOM      1  C   UNL A   1      34.427  32.971  29.224  1.00  0.00     0.116 C 
ENDROOT
BRANCH   1   2
ATOM      2  N   UNL A   1      34.005  31.965  28.265  1.00  0.00    -0.356 N 
ATOM      3  O   UNL A   1      36.117  31.193  27.777  1.00  0.00    -0.275 OA
ATOM      4  C   UNL A   1      34.898  31.087  27.691  1.00  0.00     0.220 C 
ATOM      5  H   UNL A   1      33.053  31.909  28.019  1.00  0.00     0.163 HD
BRANCH   4   6
ATOM      6  C   UNL A   1      34.253  29.926  26.960  1.00  0.00     0.110 C 
BRANCH   6   7
ATOM      7  C   UNL A   1      32.747  29.789  27.168  1.00  0.00     0.110 C 
BRANCH   7   8
ATOM      8  C   UNL A   1      31.907  30.554  26.176  1.00  0.00     0.224 C 
ATOM      9  O   UNL A   1      31.325  31.581  26.549  1.00  0.00    -0.275 OA
ATOM     10  N   UNL A   1      31.687  30.169  24.890  1.00  0.00    -0.326 N 
ATOM     11  H   UNL A   1      31.334  30.897  24.328  1.00  0.00     0.169 HD
BRANCH  10  12
ATOM     12  C   UNL A   1      31.853  28.964  24.181  1.00  0.00     0.041 A 
ATOM     13  C   UNL A   1      30.913  27.959  24.449  1.00  0.00     0.028 A 
ATOM     14  C   UNL A   1      32.934  28.641  23.373  1.00  0.00     0.028 A 
ATOM     15  C   UNL A   1      31.147  26.637  24.049  1.00  0.00     0.028 A 
ATOM     16  C   UNL A   1      33.176  27.314  22.998  1.00  0.00     0.028 A 
ATOM     17  C   UNL A   1      32.311  26.289  23.364  1.00  0.00     0.037 A 
BRANCH  17  18
ATOM     18  N   UNL A   1      32.554  24.959  23.063  1.00  0.00    -0.368 N 
ATOM     19  C   UNL A   1      33.864  24.431  23.484  1.00  0.00     0.138 C 
ATOM     20  C   UNL A   1      31.436  23.992  23.128  1.00  0.00     0.138 C 
ATOM     21  C   UNL A   1      33.781  23.754  24.869  1.00  0.00     0.138 C 
ATOM     22  C   UNL A   1      31.401  23.163  24.437  1.00  0.00     0.138 C 
ATOM     23  N   UNL A   1      32.737  22.713  24.868  1.00  0.00    -0.368 N 
BRANCH  23  24
ATOM     24  C   UNL A   1      33.156  21.399  24.777  1.00  0.00     0.037 A 
ATOM     25  C   UNL A   1      34.514  21.097  24.985  1.00  0.00     0.029 A 
ATOM     26  C   UNL A   1      32.296  20.345  24.449  1.00  0.00     0.029 A 
ATOM     27  C   UNL A   1      35.002  19.796  24.855  1.00  0.00     0.041 A 
ATOM     28  C   UNL A   1      32.780  19.040  24.303  1.00  0.00     0.041 A 
ATOM     29  C   UNL A   1      34.129  18.778  24.506  1.00  0.00     0.123 A 
ATOM     30  F   UNL A   1      34.594  17.531  24.359  1.00  0.00    -0.207 F 
ENDBRANCH  23  24
ENDBRANCH  17  18
ENDBRANCH  10  12
ENDBRANCH   7   8
ENDBRANCH   6   7
ENDBRANCH   4   6
ENDBRANCH   1   2
BRANCH   1  31
ATOM     31  C   UNL A   1      34.394  34.399  28.688  1.00  0.00     0.023 C 
BRANCH  31  32
ATOM     32  C   UNL A   1      33.077  35.153  28.885  1.00  0.00     0.023 C 
BRANCH  32  33
ATOM     33  C   UNL A   1      33.147  36.386  29.782  1.00  0.00     0.116 C 
BRANCH  33  34
ATOM     34  N   UNL A   1      32.336  36.264  30.984  1.00  0.00    -0.352 N 
ATOM     35  C   UNL A   1      32.545  35.530  32.126  1.00  0.00     0.251 C 
ATOM     36  H   UNL A   1      31.504  36.791  30.977  1.00  0.00     0.163 HD
ATOM     37  O   UNL A   1      31.644  35.433  32.963  1.00  0.00    -0.269 OA
BRANCH  35  38
ATOM     38  C   UNL A   1      33.826  34.826  32.363  1.00  0.00     0.039 A 
ATOM     39  C   UNL A   1      35.025  35.518  32.167  1.00  0.00     0.014 A 
ATOM     40  C   UNL A   1      33.860  33.484  32.748  1.00  0.00     0.014 A 
ATOM     41  C   UNL A   1      36.247  34.894  32.441  1.00  0.00     0.010 A 
ATOM     42  C   UNL A   1      35.072  32.887  33.096  1.00  0.00     0.010 A 
ATOM     43  C   UNL A   1      36.280  33.586  32.954  1.00  0.00    -0.014 A 
BRANCH  43  44
ATOM     44  C   UNL A   1      37.560  32.949  33.370  1.00  0.00     0.031 A 
ATOM     45  C   UNL A   1      38.227  31.924  32.493  1.00  0.00     0.074 A 
ATOM     46  C   UNL A   1      38.088  33.238  34.576  1.00  0.00     0.049 A 
ATOM     47  N   UNL A   1      39.303  31.211  32.722  1.00  0.00    -0.248 NA
ATOM     48  C   UNL A   1      37.591  31.648  31.197  1.00  0.00     0.031 C 
ATOM     49  C   UNL A   1      37.519  34.180  35.543  1.00  0.00     0.029 A 
ATOM     50  N   UNL A   1      39.214  32.762  35.202  1.00  0.00    -0.354 N 
ATOM     51  C   UNL A   1      39.459  30.392  31.611  1.00  0.00     0.074 A 
ATOM     52  C   UNL A   1      38.343  30.662  30.730  1.00  0.00     0.031 C 
ATOM     53  C   UNL A   1      38.310  34.230  36.627  1.00  0.00     0.029 A 
ATOM     54  C   UNL A   1      39.417  33.293  36.453  1.00  0.00     0.049 A 
ATOM     55  H   UNL A   1      39.819  32.103  34.792  1.00  0.00     0.167 HD
ATOM     56  C   UNL A   1      40.452  29.511  31.340  1.00  0.00     0.037 A 
ATOM     57  C   UNL A   1      40.378  33.048  37.364  1.00  0.00     0.037 A 
ATOM     58  C   UNL A   1      41.576  29.259  32.207  1.00  0.00     0.049 A 
ATOM     59  C   UNL A   1      41.460  32.049  37.046  1.00  0.00     0.074 A 
ATOM     60  C   UNL A   1      42.667  28.435  31.987  1.00  0.00     0.029 A 
ATOM     61  N   UNL A   1      41.749  29.822  33.462  1.00  0.00    -0.354 N 
ATOM     62  N   UNL A   1      41.637  31.338  35.960  1.00  0.00    -0.248 NA
ATOM     63  C   UNL A   1      42.478  31.825  38.082  1.00  0.00     0.031 C 
ATOM     64  C   UNL A   1      43.471  28.457  33.131  1.00  0.00     0.029 A 
ATOM     65  C   UNL A   1      42.914  29.341  34.041  1.00  0.00     0.049 A 
ATOM     66  H   UNL A   1      41.136  30.469  33.881  1.00  0.00     0.167 HD
ATOM     67  C   UNL A   1      42.800  30.608  36.167  1.00  0.00     0.074 A 
ATOM     68  C   UNL A   1      43.295  30.974  37.477  1.00  0.00     0.031 C 
ATOM     69  C   UNL A   1      43.404  29.717  35.342  1.00  0.00     0.037 A 
BRANCH  56  70
ATOM     70  C   UNL A   1      40.372  28.744  30.050  1.00  0.00     0.064 A 
ATOM     71  C   UNL A   1      40.987  29.207  28.877  1.00  0.00     0.173 A 
ATOM     72  C   UNL A   1      39.712  27.507  29.998  1.00  0.00     0.173 A 
ATOM     73  F   UNL A   1      41.626  30.386  28.870  1.00  0.00    -0.203 F 
ATOM     74  C   UNL A   1      40.916  28.477  27.694  1.00  0.00     0.198 A 
ATOM     75  C   UNL A   1      39.671  26.764  28.822  1.00  0.00     0.198 A 
ATOM     76  F   UNL A   1      39.114  27.012  31.093  1.00  0.00    -0.203 F 
ATOM     77  F   UNL A   1      41.468  28.965  26.574  1.00  0.00    -0.200 F 
ATOM     78  C   UNL A   1      40.265  27.253  27.668  1.00  0.00     0.200 A 
ATOM     79  F   UNL A   1      39.055  25.574  28.804  1.00  0.00    -0.200 F 
ATOM     80  F   UNL A   1      40.206  26.547  26.531  1.00  0.00    -0.200 F 
ENDBRANCH  56  70
BRANCH  57  81
ATOM     81  C   UNL A   1      40.379  33.774  38.661  1.00  0.00     0.064 A 
ATOM     82  C   UNL A   1      39.553  33.360  39.716  1.00  0.00     0.173 A 
ATOM     83  C   UNL A   1      41.191  34.898  38.872  1.00  0.00     0.173 A 
ATOM     84  F   UNL A   1      38.741  32.305  39.556  1.00  0.00    -0.203 F 
ATOM     85  C   UNL A   1      39.521  34.057  40.923  1.00  0.00     0.198 A 
ATOM     86  C   UNL A   1      41.182  35.575  40.089  1.00  0.00     0.198 A 
ATOM     87  F   UNL A   1      42.002  35.333  37.897  1.00  0.00    -0.203 F 
ATOM     88  F   UNL A   1      38.684  33.670  41.895  1.00  0.00    -0.200 F 
ATOM     89  C   UNL A   1      40.340  35.161  41.110  1.00  0.00     0.200 A 
ATOM     90  F   UNL A   1      41.985  36.632  40.272  1.00  0.00    -0.200 F 
ATOM     91  F   UNL A   1      40.311  35.828  42.272  1.00  0.00    -0.200 F 
ENDBRANCH  57  81
BRANCH  69  92
ATOM     92  C   UNL A   1      44.693  29.104  35.813  1.00  0.00     0.064 A 
ATOM     93  C   UNL A   1      44.721  27.890  36.515  1.00  0.00     0.173 A 
ATOM     94  C   UNL A   1      45.919  29.722  35.522  1.00  0.00     0.173 A 
ATOM     95  F   UNL A   1      43.577  27.266  36.832  1.00  0.00    -0.203 F 
ATOM     96  C   UNL A   1      45.927  27.332  36.933  1.00  0.00     0.198 A 
ATOM     97  C   UNL A   1      47.124  29.145  35.912  1.00  0.00     0.198 A 
ATOM     98  F   UNL A   1      45.949  30.881  34.847  1.00  0.00    -0.203 F 
ATOM     99  F   UNL A   1      45.927  26.198  37.647  1.00  0.00    -0.200 F 
ATOM    100  C   UNL A   1      47.127  27.955  36.624  1.00  0.00     0.200 A 
ATOM    101  F   UNL A   1      48.283  29.741  35.599  1.00  0.00    -0.200 F 
ATOM    102  F   UNL A   1      48.287  27.413  37.019  1.00  0.00    -0.200 F 
ENDBRANCH  69  92
ENDBRANCH  43  44
ENDBRANCH  35  38
ENDBRANCH  33  34
ENDBRANCH  32  33
ENDBRANCH  31  32
ENDBRANCH   1  31
TORSDOF 16
ENDMDL
