MODEL 1
REMARK VINA RESULT:     -13.1      0.000      0.000
REMARK SMILES CC1(C)CN(C(=O)NC[C@H]2CC[C@@H](C(=O)NCCCCNC(=O)c3ccc(-c4c5nc(c(-c6c(F)c(F)c(F)c(F)c6F)c6ccc([nH]6)c(-c6c(F)c(F)c(F)c(F)c6F)c6nc(c(-c7c(F)c(F)c(F)c(F)c7F)c7ccc4[nH]7)C=C6)C=C5)cc3)CC2)CCO1
REMARK SMILES IDX 18 1 17 2 16 3 14 4 15 5 13 7 10 8 11 9 88 10 12 11 87 12
REMARK SMILES IDX 9 13 8 14 6 15 7 16 5 18 1 19 2 20 3 21 4 22 91 23 90 24
REMARK SMILES IDX 89 25 19 26 20 27 21 28 22 29 23 31 24 32 25 33 86 34 26 35
REMARK SMILES IDX 85 36 27 37 28 38 29 39 79 40 30 41 84 42 78 43 80 44 31 45
REMARK SMILES IDX 83 46 77 47 76 48 32 50 64 51 44 52 63 53 45 54 48 55 62 56
REMARK SMILES IDX 81 57 46 58 47 59 61 61 82 62 49 63 33 64 34 65 42 66 35 67
REMARK SMILES IDX 36 68 40 69 43 70 37 71 38 72 41 73 39 74 65 75 66 76 74 77
REMARK SMILES IDX 67 78 68 79 72 80 75 81 69 82 70 83 73 84 71 85 50 86 51 87
REMARK SMILES IDX 59 88 52 89 53 90 57 91 60 92 54 93 55 94 58 95 56 96
REMARK H PARENT 16 6 8 17 21 30 80 49 48 60
REMARK Flexibility Score: inf
ROOT
ATOM      1  C   UNL A   1      31.848  30.516  26.869  1.00  0.00     0.023 C 
ENDROOT
BRANCH   1   2
ATOM      2  C   UNL A   1      33.266  30.017  26.609  1.00  0.00     0.116 C 
BRANCH   2   3
ATOM      3  N   UNL A   1      33.520  29.775  25.207  1.00  0.00    -0.356 N 
ATOM      4  C   UNL A   1      32.884  28.991  24.300  1.00  0.00     0.223 C 
ATOM      5  O   UNL A   1      33.306  29.039  23.139  1.00  0.00    -0.275 OA
ATOM      6  H   UNL A   1      34.293  30.268  24.845  1.00  0.00     0.163 HD
BRANCH   4   7
ATOM      7  C   UNL A   1      31.741  28.032  24.647  1.00  0.00     0.078 C 
ATOM      8  C   UNL A   1      29.993  25.603  24.662  1.00  0.00     0.008 C 
ATOM      9  C   UNL A   1      30.840  26.007  25.892  1.00  0.00     0.006 C 
ATOM     10  C   UNL A   1      29.695  26.838  23.799  1.00  0.00     0.006 C 
ATOM     11  C   UNL A   1      32.086  26.843  25.550  1.00  0.00     0.014 C 
ATOM     12  C   UNL A   1      30.954  27.611  23.405  1.00  0.00     0.014 C 
BRANCH   8  13
ATOM     13  C   UNL A   1      30.670  24.459  23.879  1.00  0.00     0.121 C 
BRANCH  13  14
ATOM     14  N   UNL A   1      30.728  23.200  24.619  1.00  0.00    -0.338 N 
ATOM     15  C   UNL A   1      31.731  22.395  25.045  1.00  0.00     0.317 C 
ATOM     16  O   UNL A   1      31.433  21.220  25.271  1.00  0.00    -0.249 OA
ATOM     17  H   UNL A   1      29.838  22.861  24.864  1.00  0.00     0.165 HD
BRANCH  15  18
ATOM     18  N   UNL A   1      33.005  22.855  25.205  1.00  0.00    -0.320 N 
ATOM     19  C   UNL A   1      35.527  20.846  24.885  1.00  0.00     0.044 C 
ATOM     20  C   UNL A   1      35.411  22.342  24.564  1.00  0.00     0.080 C 
ATOM     21  C   UNL A   1      36.428  22.691  23.468  1.00  0.00     0.044 C 
ATOM     22  C   UNL A   1      33.973  22.714  24.101  1.00  0.00     0.156 C 
ATOM     23  O   UNL A   1      35.816  23.132  25.702  1.00  0.00    -0.372 OA
ATOM     24  C   UNL A   1      34.898  23.039  26.789  1.00  0.00     0.182 C 
ATOM     25  C   UNL A   1      33.519  23.534  26.378  1.00  0.00     0.150 C 
ENDBRANCH  15  18
ENDBRANCH  13  14
ENDBRANCH   8  13
ENDBRANCH   4   7
ENDBRANCH   2   3
ENDBRANCH   1   2
BRANCH   1  26
ATOM     26  C   UNL A   1      31.651  32.023  26.823  1.00  0.00     0.023 C 
BRANCH  26  27
ATOM     27  C   UNL A   1      32.768  32.844  27.464  1.00  0.00     0.116 C 
BRANCH  27  28
ATOM     28  N   UNL A   1      32.429  34.237  27.750  1.00  0.00    -0.352 N 
ATOM     29  C   UNL A   1      32.990  35.137  28.636  1.00  0.00     0.251 C 
ATOM     30  H   UNL A   1      31.676  34.592  27.225  1.00  0.00     0.163 HD
ATOM     31  O   UNL A   1      32.524  36.257  28.756  1.00  0.00    -0.269 OA
BRANCH  29  32
ATOM     32  C   UNL A   1      34.134  34.709  29.471  1.00  0.00     0.039 A 
ATOM     33  C   UNL A   1      33.899  34.207  30.754  1.00  0.00     0.014 A 
ATOM     34  C   UNL A   1      35.421  34.709  28.943  1.00  0.00     0.014 A 
ATOM     35  C   UNL A   1      34.935  33.572  31.444  1.00  0.00     0.010 A 
ATOM     36  C   UNL A   1      36.408  33.961  29.566  1.00  0.00     0.010 A 
ATOM     37  C   UNL A   1      36.177  33.372  30.819  1.00  0.00    -0.014 A 
BRANCH  37  38
ATOM     38  C   UNL A   1      37.252  32.539  31.423  1.00  0.00     0.031 A 
ATOM     39  C   UNL A   1      37.754  32.859  32.805  1.00  0.00     0.074 A 
ATOM     40  C   UNL A   1      37.870  31.593  30.686  1.00  0.00     0.049 A 
ATOM     41  N   UNL A   1      38.807  32.405  33.434  1.00  0.00    -0.248 NA
ATOM     42  C   UNL A   1      37.001  33.878  33.558  1.00  0.00     0.031 C 
ATOM     43  C   UNL A   1      37.541  31.236  29.304  1.00  0.00     0.029 A 
ATOM     44  N   UNL A   1      38.926  30.770  30.992  1.00  0.00    -0.354 N 
ATOM     45  C   UNL A   1      38.872  33.120  34.624  1.00  0.00     0.074 A 
ATOM     46  C   UNL A   1      37.790  34.078  34.602  1.00  0.00     0.031 C 
ATOM     47  C   UNL A   1      38.351  30.247  28.897  1.00  0.00     0.029 A 
ATOM     48  C   UNL A   1      39.289  29.930  29.968  1.00  0.00     0.049 A 
ATOM     49  H   UNL A   1      39.381  30.781  31.866  1.00  0.00     0.167 HD
ATOM     50  C   UNL A   1      39.736  32.970  35.654  1.00  0.00     0.037 A 
ATOM     51  C   UNL A   1      40.272  29.011  29.898  1.00  0.00     0.037 A 
ATOM     52  C   UNL A   1      40.758  31.960  35.708  1.00  0.00     0.049 A 
ATOM     53  C   UNL A   1      41.172  28.811  31.086  1.00  0.00     0.074 A 
ATOM     54  C   UNL A   1      41.620  31.657  36.745  1.00  0.00     0.029 A 
ATOM     55  N   UNL A   1      41.041  31.075  34.678  1.00  0.00    -0.354 N 
ATOM     56  N   UNL A   1      41.183  29.450  32.231  1.00  0.00    -0.248 NA
ATOM     57  C   UNL A   1      42.193  27.761  30.975  1.00  0.00     0.031 C 
ATOM     58  C   UNL A   1      42.443  30.604  36.335  1.00  0.00     0.029 A 
ATOM     59  C   UNL A   1      42.068  30.227  35.055  1.00  0.00     0.049 A 
ATOM     60  H   UNL A   1      40.579  31.052  33.808  1.00  0.00     0.167 HD
ATOM     61  C   UNL A   1      42.190  28.862  32.986  1.00  0.00     0.074 A 
ATOM     62  C   UNL A   1      42.759  27.807  32.174  1.00  0.00     0.031 C 
ATOM     63  C   UNL A   1      42.607  29.171  34.237  1.00  0.00     0.037 A 
BRANCH  50  64
ATOM     64  C   UNL A   1      39.592  33.906  36.819  1.00  0.00     0.064 A 
ATOM     65  C   UNL A   1      40.197  35.173  36.826  1.00  0.00     0.173 A 
ATOM     66  C   UNL A   1      38.827  33.540  37.938  1.00  0.00     0.173 A 
ATOM     67  F   UNL A   1      40.951  35.566  35.788  1.00  0.00    -0.203 F 
ATOM     68  C   UNL A   1      40.076  36.020  37.924  1.00  0.00     0.198 A 
ATOM     69  C   UNL A   1      38.680  34.404  39.019  1.00  0.00     0.198 A 
ATOM     70  F   UNL A   1      38.222  32.344  37.981  1.00  0.00    -0.203 F 
ATOM     71  F   UNL A   1      40.716  37.197  37.932  1.00  0.00    -0.200 F 
ATOM     72  C   UNL A   1      39.312  35.638  39.016  1.00  0.00     0.200 A 
ATOM     73  F   UNL A   1      37.933  34.039  40.070  1.00  0.00    -0.200 F 
ATOM     74  F   UNL A   1      39.195  36.456  40.072  1.00  0.00    -0.200 F 
ENDBRANCH  50  64
BRANCH  51  75
ATOM     75  C   UNL A   1      40.430  28.181  28.675  1.00  0.00     0.064 A 
ATOM     76  C   UNL A   1      39.790  26.938  28.571  1.00  0.00     0.173 A 
ATOM     77  C   UNL A   1      41.217  28.602  27.595  1.00  0.00     0.173 A 
ATOM     78  F   UNL A   1      39.043  26.483  29.587  1.00  0.00    -0.203 F 
ATOM     79  C   UNL A   1      39.947  26.139  27.440  1.00  0.00     0.198 A 
ATOM     80  C   UNL A   1      41.354  27.813  26.454  1.00  0.00     0.198 A 
ATOM     81  F   UNL A   1      41.846  29.786  27.643  1.00  0.00    -0.203 F 
ATOM     82  F   UNL A   1      39.359  24.936  27.386  1.00  0.00    -0.200 F 
ATOM     83  C   UNL A   1      40.725  26.579  26.380  1.00  0.00     0.200 A 
ATOM     84  F   UNL A   1      42.096  28.248  25.426  1.00  0.00    -0.200 F 
ATOM     85  F   UNL A   1      40.875  25.811  25.293  1.00  0.00    -0.200 F 
ENDBRANCH  51  75
BRANCH  63  86
ATOM     86  C   UNL A   1      43.706  28.335  34.822  1.00  0.00     0.064 A 
ATOM     87  C   UNL A   1      45.055  28.675  34.654  1.00  0.00     0.173 A 
ATOM     88  C   UNL A   1      43.399  27.208  35.600  1.00  0.00     0.173 A 
ATOM     89  F   UNL A   1      45.396  29.735  33.906  1.00  0.00    -0.203 F 
ATOM     90  C   UNL A   1      46.061  27.906  35.232  1.00  0.00     0.198 A 
ATOM     91  C   UNL A   1      44.406  26.458  36.198  1.00  0.00     0.198 A 
ATOM     92  F   UNL A   1      42.122  26.848  35.793  1.00  0.00    -0.203 F 
ATOM     93  F   UNL A   1      47.346  28.227  35.029  1.00  0.00    -0.200 F 
ATOM     94  C   UNL A   1      45.736  26.804  36.010  1.00  0.00     0.200 A 
ATOM     95  F   UNL A   1      44.089  25.401  36.958  1.00  0.00    -0.200 F 
ATOM     96  F   UNL A   1      46.706  26.071  36.574  1.00  0.00    -0.200 F 
ENDBRANCH  63  86
ENDBRANCH  37  38
ENDBRANCH  29  32
ENDBRANCH  27  28
ENDBRANCH  26  27
ENDBRANCH   1  26
TORSDOF 14
ENDMDL
MODEL 2
REMARK VINA RESULT:     -13.0      3.840      5.365
REMARK SMILES CC1(C)CN(C(=O)NC[C@H]2CC[C@@H](C(=O)NCCCCNC(=O)c3ccc(-c4c5nc(c(-c6c(F)c(F)c(F)c(F)c6F)c6ccc([nH]6)c(-c6c(F)c(F)c(F)c(F)c6F)c6nc(c(-c7c(F)c(F)c(F)c(F)c7F)c7ccc4[nH]7)C=C6)C=C5)cc3)CC2)CCO1
REMARK SMILES IDX 18 1 17 2 16 3 14 4 15 5 13 7 10 8 11 9 88 10 12 11 87 12
REMARK SMILES IDX 9 13 8 14 6 15 7 16 5 18 1 19 2 20 3 21 4 22 91 23 90 24
REMARK SMILES IDX 89 25 19 26 20 27 21 28 22 29 23 31 24 32 25 33 86 34 26 35
REMARK SMILES IDX 85 36 27 37 28 38 29 39 79 40 30 41 84 42 78 43 80 44 31 45
REMARK SMILES IDX 83 46 77 47 76 48 32 50 64 51 44 52 63 53 45 54 48 55 62 56
REMARK SMILES IDX 81 57 46 58 47 59 61 61 82 62 49 63 33 64 34 65 42 66 35 67
REMARK SMILES IDX 36 68 40 69 43 70 37 71 38 72 41 73 39 74 65 75 66 76 74 77
REMARK SMILES IDX 67 78 68 79 72 80 75 81 69 82 70 83 73 84 71 85 50 86 51 87
REMARK SMILES IDX 59 88 52 89 53 90 57 91 60 92 54 93 55 94 58 95 56 96
REMARK H PARENT 16 6 8 17 21 30 80 49 48 60
REMARK Flexibility Score: inf
ROOT
ATOM      1  C   UNL A   1      32.997  29.411  24.731  1.00  0.00     0.023 C 
ENDROOT
BRANCH   1   2
ATOM      2  C   UNL A   1      33.132  28.998  23.268  1.00  0.00     0.116 C 
BRANCH   2   3
ATOM      3  N   UNL A   1      31.943  29.285  22.500  1.00  0.00    -0.356 N 
ATOM      4  C   UNL A   1      30.765  28.618  22.381  1.00  0.00     0.223 C 
ATOM      5  O   UNL A   1      29.898  29.154  21.682  1.00  0.00    -0.275 OA
ATOM      6  H   UNL A   1      31.994  30.112  21.967  1.00  0.00     0.163 HD
BRANCH   4   7
ATOM      7  C   UNL A   1      30.490  27.246  23.003  1.00  0.00     0.078 C 
ATOM      8  C   UNL A   1      30.907  24.669  24.466  1.00  0.00     0.008 C 
ATOM      9  C   UNL A   1      29.985  25.782  25.018  1.00  0.00     0.006 C 
ATOM     10  C   UNL A   1      31.018  24.787  22.939  1.00  0.00     0.006 C 
ATOM     11  C   UNL A   1      30.342  27.195  24.528  1.00  0.00     0.014 C 
ATOM     12  C   UNL A   1      31.450  26.178  22.476  1.00  0.00     0.014 C 
BRANCH   8  13
ATOM     13  C   UNL A   1      32.274  24.681  25.181  1.00  0.00     0.121 C 
BRANCH  13  14
ATOM     14  N   UNL A   1      32.232  24.123  26.531  1.00  0.00    -0.338 N 
ATOM     15  C   UNL A   1      32.768  23.030  27.124  1.00  0.00     0.317 C 
ATOM     16  O   UNL A   1      32.210  22.630  28.147  1.00  0.00    -0.249 OA
ATOM     17  H   UNL A   1      31.692  24.665  27.150  1.00  0.00     0.165 HD
BRANCH  15  18
ATOM     18  N   UNL A   1      33.862  22.396  26.610  1.00  0.00    -0.320 N 
ATOM     19  C   UNL A   1      35.507  23.704  24.144  1.00  0.00     0.044 C 
ATOM     20  C   UNL A   1      36.001  22.838  25.311  1.00  0.00     0.080 C 
ATOM     21  C   UNL A   1      37.481  23.157  25.569  1.00  0.00     0.044 C 
ATOM     22  C   UNL A   1      35.165  23.087  26.598  1.00  0.00     0.156 C 
ATOM     23  O   UNL A   1      35.989  21.443  24.940  1.00  0.00    -0.372 OA
ATOM     24  C   UNL A   1      34.669  20.926  24.789  1.00  0.00     0.182 C 
ATOM     25  C   UNL A   1      33.889  21.043  26.091  1.00  0.00     0.150 C 
ENDBRANCH  15  18
ENDBRANCH  13  14
ENDBRANCH   8  13
ENDBRANCH   4   7
ENDBRANCH   2   3
ENDBRANCH   1   2
BRANCH   1  26
ATOM     26  C   UNL A   1      33.612  28.466  25.751  1.00  0.00     0.023 C 
BRANCH  26  27
ATOM     27  C   UNL A   1      33.196  28.712  27.200  1.00  0.00     0.116 C 
BRANCH  27  28
ATOM     28  N   UNL A   1      33.315  30.097  27.652  1.00  0.00    -0.352 N 
ATOM     29  C   UNL A   1      34.402  30.793  28.147  1.00  0.00     0.251 C 
ATOM     30  H   UNL A   1      32.483  30.621  27.595  1.00  0.00     0.163 HD
ATOM     31  O   UNL A   1      34.279  31.949  28.515  1.00  0.00    -0.269 OA
BRANCH  29  32
ATOM     32  C   UNL A   1      35.705  30.103  28.269  1.00  0.00     0.039 A 
ATOM     33  C   UNL A   1      36.611  30.152  27.207  1.00  0.00     0.014 A 
ATOM     34  C   UNL A   1      36.064  29.501  29.471  1.00  0.00     0.014 A 
ATOM     35  C   UNL A   1      37.926  29.725  27.406  1.00  0.00     0.010 A 
ATOM     36  C   UNL A   1      37.399  29.208  29.708  1.00  0.00     0.010 A 
ATOM     37  C   UNL A   1      38.351  29.327  28.684  1.00  0.00    -0.014 A 
BRANCH  37  38
ATOM     38  C   UNL A   1      39.777  29.046  29.003  1.00  0.00     0.031 A 
ATOM     39  C   UNL A   1      40.606  30.096  29.692  1.00  0.00     0.074 A 
ATOM     40  C   UNL A   1      40.361  27.916  28.553  1.00  0.00     0.049 A 
ATOM     41  N   UNL A   1      41.901  30.145  29.877  1.00  0.00    -0.248 NA
ATOM     42  C   UNL A   1      39.887  31.283  30.185  1.00  0.00     0.031 C 
ATOM     43  C   UNL A   1      39.696  26.852  27.798  1.00  0.00     0.029 A 
ATOM     44  N   UNL A   1      41.662  27.484  28.647  1.00  0.00    -0.354 N 
ATOM     45  C   UNL A   1      42.151  31.385  30.453  1.00  0.00     0.074 A 
ATOM     46  C   UNL A   1      40.886  32.079  30.531  1.00  0.00     0.031 C 
ATOM     47  C   UNL A   1      40.580  25.879  27.531  1.00  0.00     0.029 A 
ATOM     48  C   UNL A   1      41.886  26.267  28.051  1.00  0.00     0.049 A 
ATOM     49  H   UNL A   1      42.369  28.000  29.101  1.00  0.00     0.167 HD
ATOM     50  C   UNL A   1      43.324  31.886  30.905  1.00  0.00     0.037 A 
ATOM     51  C   UNL A   1      43.019  25.549  27.932  1.00  0.00     0.037 A 
ATOM     52  C   UNL A   1      44.564  31.159  30.901  1.00  0.00     0.049 A 
ATOM     53  C   UNL A   1      44.296  26.095  28.509  1.00  0.00     0.074 A 
ATOM     54  C   UNL A   1      45.788  31.535  31.425  1.00  0.00     0.029 A 
ATOM     55  N   UNL A   1      44.731  29.894  30.358  1.00  0.00    -0.354 N 
ATOM     56  N   UNL A   1      44.508  27.240  29.110  1.00  0.00    -0.248 NA
ATOM     57  C   UNL A   1      45.490  25.246  28.397  1.00  0.00     0.031 C 
ATOM     58  C   UNL A   1      46.702  30.507  31.177  1.00  0.00     0.029 A 
ATOM     59  C   UNL A   1      46.039  29.475  30.531  1.00  0.00     0.049 A 
ATOM     60  H   UNL A   1      44.024  29.370  29.915  1.00  0.00     0.167 HD
ATOM     61  C   UNL A   1      45.848  27.240  29.471  1.00  0.00     0.074 A 
ATOM     62  C   UNL A   1      46.398  25.974  29.033  1.00  0.00     0.031 C 
ATOM     63  C   UNL A   1      46.561  28.203  30.104  1.00  0.00     0.037 A 
BRANCH  50  64
ATOM     64  C   UNL A   1      43.311  33.279  31.465  1.00  0.00     0.064 A 
ATOM     65  C   UNL A   1      43.511  34.403  30.648  1.00  0.00     0.173 A 
ATOM     66  C   UNL A   1      43.082  33.495  32.832  1.00  0.00     0.173 A 
ATOM     67  F   UNL A   1      43.749  34.251  29.336  1.00  0.00    -0.203 F 
ATOM     68  C   UNL A   1      43.521  35.687  31.186  1.00  0.00     0.198 A 
ATOM     69  C   UNL A   1      43.059  34.783  33.360  1.00  0.00     0.198 A 
ATOM     70  F   UNL A   1      42.879  32.457  33.657  1.00  0.00    -0.203 F 
ATOM     71  F   UNL A   1      43.778  36.739  30.396  1.00  0.00    -0.200 F 
ATOM     72  C   UNL A   1      43.289  35.877  32.540  1.00  0.00     0.200 A 
ATOM     73  F   UNL A   1      42.823  34.966  34.667  1.00  0.00    -0.200 F 
ATOM     74  F   UNL A   1      43.298  37.114  33.055  1.00  0.00    -0.200 F 
ENDBRANCH  50  64
BRANCH  51  75
ATOM     75  C   UNL A   1      42.990  24.216  27.275  1.00  0.00     0.064 A 
ATOM     76  C   UNL A   1      43.350  24.078  25.926  1.00  0.00     0.173 A 
ATOM     77  C   UNL A   1      42.605  23.060  27.967  1.00  0.00     0.173 A 
ATOM     78  F   UNL A   1      43.706  25.159  25.216  1.00  0.00    -0.203 F 
ATOM     79  C   UNL A   1      43.306  22.839  25.290  1.00  0.00     0.198 A 
ATOM     80  C   UNL A   1      42.585  21.817  27.337  1.00  0.00     0.198 A 
ATOM     81  F   UNL A   1      42.257  23.137  29.260  1.00  0.00    -0.203 F 
ATOM     82  F   UNL A   1      43.613  22.745  23.989  1.00  0.00    -0.200 F 
ATOM     83  C   UNL A   1      42.929  21.708  25.998  1.00  0.00     0.200 A 
ATOM     84  F   UNL A   1      42.232  20.723  28.028  1.00  0.00    -0.200 F 
ATOM     85  F   UNL A   1      42.887  20.516  25.387  1.00  0.00    -0.200 F 
ENDBRANCH  51  75
BRANCH  63  86
ATOM     86  C   UNL A   1      48.002  27.911  30.398  1.00  0.00     0.064 A 
ATOM     87  C   UNL A   1      49.019  28.259  29.499  1.00  0.00     0.173 A 
ATOM     88  C   UNL A   1      48.369  27.321  31.618  1.00  0.00     0.173 A 
ATOM     89  F   UNL A   1      48.714  28.811  28.316  1.00  0.00    -0.203 F 
ATOM     90  C   UNL A   1      50.355  28.011  29.804  1.00  0.00     0.198 A 
ATOM     91  C   UNL A   1      49.706  27.100  31.929  1.00  0.00     0.198 A 
ATOM     92  F   UNL A   1      47.430  26.977  32.512  1.00  0.00    -0.203 F 
ATOM     93  F   UNL A   1      51.309  28.317  28.915  1.00  0.00    -0.200 F 
ATOM     94  C   UNL A   1      50.697  27.439  31.021  1.00  0.00     0.200 A 
ATOM     95  F   UNL A   1      50.036  26.559  33.110  1.00  0.00    -0.200 F 
ATOM     96  F   UNL A   1      51.985  27.211  31.316  1.00  0.00    -0.200 F 
ENDBRANCH  63  86
ENDBRANCH  37  38
ENDBRANCH  29  32
ENDBRANCH  27  28
ENDBRANCH  26  27
ENDBRANCH   1  26
TORSDOF 14
ENDMDL
MODEL 3
REMARK VINA RESULT:     -13.0      1.763      2.691
REMARK SMILES CC1(C)CN(C(=O)NC[C@H]2CC[C@@H](C(=O)NCCCCNC(=O)c3ccc(-c4c5nc(c(-c6c(F)c(F)c(F)c(F)c6F)c6ccc([nH]6)c(-c6c(F)c(F)c(F)c(F)c6F)c6nc(c(-c7c(F)c(F)c(F)c(F)c7F)c7ccc4[nH]7)C=C6)C=C5)cc3)CC2)CCO1
REMARK SMILES IDX 18 1 17 2 16 3 14 4 15 5 13 7 10 8 11 9 88 10 12 11 87 12
REMARK SMILES IDX 9 13 8 14 6 15 7 16 5 18 1 19 2 20 3 21 4 22 91 23 90 24
REMARK SMILES IDX 89 25 19 26 20 27 21 28 22 29 23 31 24 32 25 33 86 34 26 35
REMARK SMILES IDX 85 36 27 37 28 38 29 39 79 40 30 41 84 42 78 43 80 44 31 45
REMARK SMILES IDX 83 46 77 47 76 48 32 50 64 51 44 52 63 53 45 54 48 55 62 56
REMARK SMILES IDX 81 57 46 58 47 59 61 61 82 62 49 63 33 64 34 65 42 66 35 67
REMARK SMILES IDX 36 68 40 69 43 70 37 71 38 72 41 73 39 74 65 75 66 76 74 77
REMARK SMILES IDX 67 78 68 79 72 80 75 81 69 82 70 83 73 84 71 85 50 86 51 87
REMARK SMILES IDX 59 88 52 89 53 90 57 91 60 92 54 93 55 94 58 95 56 96
REMARK H PARENT 16 6 8 17 21 30 80 49 48 60
REMARK Flexibility Score: inf
ROOT
ATOM      1  C   UNL A   1      34.148  32.550  28.716  1.00  0.00     0.023 C 
ENDROOT
BRANCH   1   2
ATOM      2  C   UNL A   1      34.258  31.613  27.516  1.00  0.00     0.116 C 
BRANCH   2   3
ATOM      3  N   UNL A   1      33.866  30.259  27.833  1.00  0.00    -0.356 N 
ATOM      4  C   UNL A   1      33.320  29.278  27.069  1.00  0.00     0.223 C 
ATOM      5  O   UNL A   1      33.150  28.184  27.618  1.00  0.00    -0.275 OA
ATOM      6  H   UNL A   1      34.024  30.000  28.771  1.00  0.00     0.163 HD
BRANCH   4   7
ATOM      7  C   UNL A   1      32.862  29.474  25.620  1.00  0.00     0.078 C 
ATOM      8  C   UNL A   1      31.819  28.880  22.879  1.00  0.00     0.008 C 
ATOM      9  C   UNL A   1      31.020  29.737  23.889  1.00  0.00     0.006 C 
ATOM     10  C   UNL A   1      33.319  28.946  23.203  1.00  0.00     0.006 C 
ATOM     11  C   UNL A   1      31.351  29.445  25.362  1.00  0.00     0.014 C 
ATOM     12  C   UNL A   1      33.635  28.576  24.653  1.00  0.00     0.014 C 
BRANCH   8  13
ATOM     13  C   UNL A   1      31.269  27.439  22.822  1.00  0.00     0.121 C 
BRANCH  13  14
ATOM     14  N   UNL A   1      31.843  26.638  21.744  1.00  0.00    -0.338 N 
ATOM     15  C   UNL A   1      32.689  25.581  21.693  1.00  0.00     0.317 C 
ATOM     16  O   UNL A   1      33.291  25.410  20.631  1.00  0.00    -0.249 OA
ATOM     17  H   UNL A   1      31.547  26.931  20.853  1.00  0.00     0.165 HD
BRANCH  15  18
ATOM     18  N   UNL A   1      32.876  24.757  22.764  1.00  0.00    -0.320 N 
ATOM     19  C   UNL A   1      35.677  23.174  23.146  1.00  0.00     0.044 C 
ATOM     20  C   UNL A   1      34.705  23.726  24.197  1.00  0.00     0.080 C 
ATOM     21  C   UNL A   1      35.488  24.022  25.485  1.00  0.00     0.044 C 
ATOM     22  C   UNL A   1      33.994  25.013  23.693  1.00  0.00     0.156 C 
ATOM     23  O   UNL A   1      33.750  22.713  24.576  1.00  0.00    -0.372 OA
ATOM     24  C   UNL A   1      32.833  22.403  23.529  1.00  0.00     0.182 C 
ATOM     25  C   UNL A   1      32.034  23.635  23.126  1.00  0.00     0.150 C 
ENDBRANCH  15  18
ENDBRANCH  13  14
ENDBRANCH   8  13
ENDBRANCH   4   7
ENDBRANCH   2   3
ENDBRANCH   1   2
BRANCH   1  26
ATOM     26  C   UNL A   1      33.323  33.811  28.504  1.00  0.00     0.023 C 
BRANCH  26  27
ATOM     27  C   UNL A   1      33.851  35.058  29.209  1.00  0.00     0.116 C 
BRANCH  27  28
ATOM     28  N   UNL A   1      32.896  35.719  30.098  1.00  0.00    -0.352 N 
ATOM     29  C   UNL A   1      32.842  35.777  31.478  1.00  0.00     0.251 C 
ATOM     30  H   UNL A   1      32.173  36.202  29.637  1.00  0.00     0.163 HD
ATOM     31  O   UNL A   1      31.924  36.354  32.036  1.00  0.00    -0.269 OA
BRANCH  29  32
ATOM     32  C   UNL A   1      33.886  35.090  32.270  1.00  0.00     0.039 A 
ATOM     33  C   UNL A   1      33.661  33.788  32.721  1.00  0.00     0.014 A 
ATOM     34  C   UNL A   1      35.120  35.700  32.473  1.00  0.00     0.014 A 
ATOM     35  C   UNL A   1      34.725  33.048  33.245  1.00  0.00     0.010 A 
ATOM     36  C   UNL A   1      36.202  34.924  32.862  1.00  0.00     0.010 A 
ATOM     37  C   UNL A   1      36.023  33.585  33.242  1.00  0.00    -0.014 A 
BRANCH  37  38
ATOM     38  C   UNL A   1      37.222  32.782  33.605  1.00  0.00     0.031 A 
ATOM     39  C   UNL A   1      37.934  33.053  34.903  1.00  0.00     0.074 A 
ATOM     40  C   UNL A   1      37.750  31.915  32.716  1.00  0.00     0.049 A 
ATOM     41  N   UNL A   1      39.099  32.625  35.318  1.00  0.00    -0.248 NA
ATOM     42  C   UNL A   1      37.273  33.984  35.833  1.00  0.00     0.031 C 
ATOM     43  C   UNL A   1      37.210  31.618  31.388  1.00  0.00     0.029 A 
ATOM     44  N   UNL A   1      38.880  31.137  32.790  1.00  0.00    -0.354 N 
ATOM     45  C   UNL A   1      39.330  33.275  36.524  1.00  0.00     0.074 A 
ATOM     46  C   UNL A   1      38.216  34.171  36.743  1.00  0.00     0.031 C 
ATOM     47  C   UNL A   1      37.985  30.700  30.789  1.00  0.00     0.029 A 
ATOM     48  C   UNL A   1      39.104  30.377  31.668  1.00  0.00     0.049 A 
ATOM     49  H   UNL A   1      39.475  31.126  33.576  1.00  0.00     0.167 HD
ATOM     50  C   UNL A   1      40.361  33.117  37.386  1.00  0.00     0.037 A 
ATOM     51  C   UNL A   1      40.102  29.521  31.378  1.00  0.00     0.037 A 
ATOM     52  C   UNL A   1      41.423  32.166  37.204  1.00  0.00     0.049 A 
ATOM     53  C   UNL A   1      41.198  29.307  32.386  1.00  0.00     0.074 A 
ATOM     54  C   UNL A   1      42.461  31.855  38.063  1.00  0.00     0.029 A 
ATOM     55  N   UNL A   1      41.569  31.356  36.087  1.00  0.00    -0.354 N 
ATOM     56  N   UNL A   1      41.373  29.880  33.552  1.00  0.00    -0.248 NA
ATOM     57  C   UNL A   1      42.234  28.324  32.040  1.00  0.00     0.031 C 
ATOM     58  C   UNL A   1      43.251  30.874  37.455  1.00  0.00     0.029 A 
ATOM     59  C   UNL A   1      42.684  30.548  36.234  1.00  0.00     0.049 A 
ATOM     60  H   UNL A   1      40.969  31.356  35.306  1.00  0.00     0.167 HD
ATOM     61  C   UNL A   1      42.518  29.309  34.090  1.00  0.00     0.074 A 
ATOM     62  C   UNL A   1      42.991  28.335  33.129  1.00  0.00     0.031 C 
ATOM     63  C   UNL A   1      43.126  29.572  35.272  1.00  0.00     0.037 A 
BRANCH  50  64
ATOM     64  C   UNL A   1      40.372  33.978  38.616  1.00  0.00     0.064 A 
ATOM     65  C   UNL A   1      41.071  35.195  38.658  1.00  0.00     0.173 A 
ATOM     66  C   UNL A   1      39.663  33.590  39.763  1.00  0.00     0.173 A 
ATOM     67  F   UNL A   1      41.777  35.605  37.593  1.00  0.00    -0.203 F 
ATOM     68  C   UNL A   1      41.093  35.969  39.814  1.00  0.00     0.198 A 
ATOM     69  C   UNL A   1      39.659  34.385  40.906  1.00  0.00     0.198 A 
ATOM     70  F   UNL A   1      38.974  32.440  39.776  1.00  0.00    -0.203 F 
ATOM     71  F   UNL A   1      41.820  37.095  39.850  1.00  0.00    -0.200 F 
ATOM     72  C   UNL A   1      40.382  35.568  40.935  1.00  0.00     0.200 A 
ATOM     73  F   UNL A   1      38.963  34.001  41.986  1.00  0.00    -0.200 F 
ATOM     74  F   UNL A   1      40.403  36.316  42.046  1.00  0.00    -0.200 F 
ENDBRANCH  50  64
BRANCH  51  75
ATOM     75  C   UNL A   1      40.091  28.770  30.095  1.00  0.00     0.064 A 
ATOM     76  C   UNL A   1      40.689  29.312  28.948  1.00  0.00     0.173 A 
ATOM     77  C   UNL A   1      39.488  27.510  29.983  1.00  0.00     0.173 A 
ATOM     78  F   UNL A   1      41.261  30.523  29.000  1.00  0.00    -0.203 F 
ATOM     79  C   UNL A   1      40.667  28.630  27.733  1.00  0.00     0.198 A 
ATOM     80  C   UNL A   1      39.488  26.818  28.773  1.00  0.00     0.198 A 
ATOM     81  F   UNL A   1      38.907  26.947  31.052  1.00  0.00    -0.203 F 
ATOM     82  F   UNL A   1      41.208  29.191  26.643  1.00  0.00    -0.200 F 
ATOM     83  C   UNL A   1      40.071  27.381  27.648  1.00  0.00     0.200 A 
ATOM     84  F   UNL A   1      38.921  25.605  28.697  1.00  0.00    -0.200 F 
ATOM     85  F   UNL A   1      40.050  26.725  26.479  1.00  0.00    -0.200 F 
ENDBRANCH  51  75
BRANCH  63  86
ATOM     86  C   UNL A   1      44.345  28.768  35.612  1.00  0.00     0.064 A 
ATOM     87  C   UNL A   1      45.631  29.201  35.260  1.00  0.00     0.173 A 
ATOM     88  C   UNL A   1      44.225  27.575  36.342  1.00  0.00     0.173 A 
ATOM     89  F   UNL A   1      45.793  30.327  34.550  1.00  0.00    -0.203 F 
ATOM     90  C   UNL A   1      46.754  28.459  35.613  1.00  0.00     0.198 A 
ATOM     91  C   UNL A   1      45.351  26.851  36.716  1.00  0.00     0.198 A 
ATOM     92  F   UNL A   1      43.015  27.125  36.706  1.00  0.00    -0.203 F 
ATOM     93  F   UNL A   1      47.972  28.871  35.236  1.00  0.00    -0.200 F 
ATOM     94  C   UNL A   1      46.614  27.289  36.347  1.00  0.00     0.200 A 
ATOM     95  F   UNL A   1      45.215  25.728  37.435  1.00  0.00    -0.200 F 
ATOM     96  F   UNL A   1      47.698  26.582  36.695  1.00  0.00    -0.200 F 
ENDBRANCH  63  86
ENDBRANCH  37  38
ENDBRANCH  29  32
ENDBRANCH  27  28
ENDBRANCH  26  27
ENDBRANCH   1  26
TORSDOF 14
ENDMDL
