MODEL 1
REMARK VINA RESULT:     -12.5      0.000      0.000
REMARK SMILES O=C(C[C@H]1CCCCO1)N[C@@H](C(=O)NCCCCNC(=O)c1ccc(-c2c3nc(c(-c4c(F)c(F)c(F)c(F)c4F)c4ccc([nH]4)c(-c4c(F)c(F)c(F)c(F)c4F)c4nc(c(-c5c(F)c(F)c(F)c(F)c5F)c5ccc2[nH]5)C=C4)C=C3)cc1)C1CCCCC1
REMARK SMILES IDX 16 1 15 2 14 3 12 4 13 5 11 7 10 8 1 9 2 10 3 12 4 13 5 14
REMARK SMILES IDX 9 15 6 16 8 17 7 18 85 19 86 20 90 21 87 22 89 23 88 24
REMARK SMILES IDX 17 25 18 26 19 27 20 28 21 30 22 31 23 32 84 33 24 34 83 35
REMARK SMILES IDX 25 36 26 37 27 38 77 39 28 40 82 41 76 42 78 43 29 44 81 45
REMARK SMILES IDX 75 46 74 47 30 49 62 50 42 51 61 52 43 53 46 54 60 55 79 56
REMARK SMILES IDX 44 57 45 58 59 60 80 61 47 62 31 63 32 64 40 65 33 66 34 67
REMARK SMILES IDX 38 68 41 69 35 70 36 71 39 72 37 73 63 74 64 75 72 76 65 77
REMARK SMILES IDX 66 78 70 79 73 80 67 81 68 82 71 83 69 84 48 85 49 86 57 87
REMARK SMILES IDX 50 88 51 89 55 90 58 91 52 92 53 93 56 94 54 95
REMARK H PARENT 14 6 10 11 19 29 78 48 46 59
REMARK Flexibility Score: inf
ROOT
ATOM      1  C   UNL A   1      31.717  30.784  25.964  1.00  0.00     0.023 C 
ENDROOT
BRANCH   1   2
ATOM      2  C   UNL A   1      32.874  29.929  26.491  1.00  0.00     0.116 C 
BRANCH   2   3
ATOM      3  N   UNL A   1      32.354  28.741  27.145  1.00  0.00    -0.354 N 
ATOM      4  C   UNL A   1      31.851  27.613  26.553  1.00  0.00     0.242 C 
ATOM      5  O   UNL A   1      30.995  26.989  27.180  1.00  0.00    -0.273 OA
ATOM      6  H   UNL A   1      32.365  28.748  28.129  1.00  0.00     0.163 HD
BRANCH   4   7
ATOM      7  C   UNL A   1      32.284  27.260  25.109  1.00  0.00     0.174 C 
BRANCH   7   8
ATOM      8  N   UNL A   1      31.099  27.486  24.268  1.00  0.00    -0.344 N 
ATOM      9  O   UNL A   1      32.122  28.921  22.807  1.00  0.00    -0.275 OA
ATOM     10  C   UNL A   1      31.105  28.361  23.204  1.00  0.00     0.223 C 
ATOM     11  H   UNL A   1      30.271  26.992  24.472  1.00  0.00     0.164 HD
BRANCH  10  12
ATOM     12  C   UNL A   1      29.734  28.676  22.646  1.00  0.00     0.132 C 
BRANCH  12  13
ATOM     13  C   UNL A   1      29.552  30.162  22.359  1.00  0.00     0.127 C 
ATOM     14  C   UNL A   1      28.446  30.361  21.316  1.00  0.00     0.033 C 
ATOM     15  O   UNL A   1      29.176  30.809  23.580  1.00  0.00    -0.378 OA
ATOM     16  C   UNL A   1      28.153  31.842  21.108  1.00  0.00     0.005 C 
ATOM     17  C   UNL A   1      29.011  32.218  23.432  1.00  0.00     0.160 C 
ATOM     18  C   UNL A   1      27.895  32.527  22.445  1.00  0.00     0.029 C 
ENDBRANCH  12  13
ENDBRANCH  10  12
ENDBRANCH   7   8
BRANCH   7  19
ATOM     19  C   UNL A   1      32.836  25.820  24.888  1.00  0.00     0.021 C 
ATOM     20  C   UNL A   1      33.580  25.775  23.531  1.00  0.00     0.006 C 
ATOM     21  C   UNL A   1      33.769  25.310  26.005  1.00  0.00     0.006 C 
ATOM     22  C   UNL A   1      34.211  24.418  23.233  1.00  0.00     0.000 C 
ATOM     23  C   UNL A   1      34.379  23.946  25.685  1.00  0.00     0.000 C 
ATOM     24  C   UNL A   1      35.126  23.962  24.362  1.00  0.00     0.000 C 
ENDBRANCH   7  19
ENDBRANCH   4   7
ENDBRANCH   2   3
ENDBRANCH   1   2
BRANCH   1  25
ATOM     25  C   UNL A   1      31.418  32.026  26.810  1.00  0.00     0.023 C 
BRANCH  25  26
ATOM     26  C   UNL A   1      32.647  32.781  27.296  1.00  0.00     0.116 C 
BRANCH  26  27
ATOM     27  N   UNL A   1      32.363  34.171  27.614  1.00  0.00    -0.352 N 
ATOM     28  C   UNL A   1      32.958  34.972  28.556  1.00  0.00     0.251 C 
ATOM     29  H   UNL A   1      31.649  34.593  27.084  1.00  0.00     0.163 HD
ATOM     30  O   UNL A   1      32.503  36.084  28.804  1.00  0.00    -0.269 OA
BRANCH  28  31
ATOM     31  C   UNL A   1      34.132  34.472  29.299  1.00  0.00     0.039 A 
ATOM     32  C   UNL A   1      33.933  33.849  30.534  1.00  0.00     0.014 A 
ATOM     33  C   UNL A   1      35.420  34.596  28.770  1.00  0.00     0.014 A 
ATOM     34  C   UNL A   1      35.021  33.294  31.209  1.00  0.00     0.010 A 
ATOM     35  C   UNL A   1      36.491  33.980  29.408  1.00  0.00     0.010 A 
ATOM     36  C   UNL A   1      36.302  33.323  30.633  1.00  0.00    -0.014 A 
BRANCH  36  37
ATOM     37  C   UNL A   1      37.457  32.668  31.298  1.00  0.00     0.031 A 
ATOM     38  C   UNL A   1      38.169  31.528  30.626  1.00  0.00     0.074 A 
ATOM     39  C   UNL A   1      37.822  33.059  32.535  1.00  0.00     0.049 A 
ATOM     40  N   UNL A   1      39.150  30.786  31.071  1.00  0.00    -0.248 NA
ATOM     41  C   UNL A   1      37.696  31.155  29.283  1.00  0.00     0.031 C 
ATOM     42  C   UNL A   1      37.178  34.120  33.310  1.00  0.00     0.029 A 
ATOM     43  N   UNL A   1      38.816  32.599  33.362  1.00  0.00    -0.354 N 
ATOM     44  C   UNL A   1      39.402  29.854  30.074  1.00  0.00     0.074 A 
ATOM     45  C   UNL A   1      38.436  30.087  29.023  1.00  0.00     0.031 C 
ATOM     46  C   UNL A   1      37.807  34.245  34.490  1.00  0.00     0.029 A 
ATOM     47  C   UNL A   1      38.871  33.248  34.572  1.00  0.00     0.049 A 
ATOM     48  H   UNL A   1      39.432  31.872  33.113  1.00  0.00     0.167 HD
ATOM     49  C   UNL A   1      40.368  28.905  30.029  1.00  0.00     0.037 A 
ATOM     50  C   UNL A   1      39.680  33.055  35.629  1.00  0.00     0.037 A 
ATOM     51  C   UNL A   1      41.341  28.692  31.068  1.00  0.00     0.049 A 
ATOM     52  C   UNL A   1      40.739  31.987  35.557  1.00  0.00     0.074 A 
ATOM     53  C   UNL A   1      42.398  27.797  31.090  1.00  0.00     0.029 A 
ATOM     54  N   UNL A   1      41.376  29.381  32.272  1.00  0.00    -0.354 N 
ATOM     55  N   UNL A   1      41.014  31.159  34.579  1.00  0.00    -0.248 NA
ATOM     56  C   UNL A   1      41.604  31.831  36.734  1.00  0.00     0.031 C 
ATOM     57  C   UNL A   1      43.039  27.910  32.327  1.00  0.00     0.029 A 
ATOM     58  C   UNL A   1      42.420  28.913  33.054  1.00  0.00     0.049 A 
ATOM     59  H   UNL A   1      40.750  30.096  32.531  1.00  0.00     0.167 HD
ATOM     60  C   UNL A   1      42.100  30.407  35.008  1.00  0.00     0.074 A 
ATOM     61  C   UNL A   1      42.442  30.888  36.330  1.00  0.00     0.031 C 
ATOM     62  C   UNL A   1      42.753  29.408  34.365  1.00  0.00     0.037 A 
BRANCH  49  63
ATOM     63  C   UNL A   1      40.421  28.025  28.813  1.00  0.00     0.064 A 
ATOM     64  C   UNL A   1      41.175  28.376  27.683  1.00  0.00     0.173 A 
ATOM     65  C   UNL A   1      39.741  26.798  28.792  1.00  0.00     0.173 A 
ATOM     66  F   UNL A   1      41.835  29.543  27.646  1.00  0.00    -0.203 F 
ATOM     67  C   UNL A   1      41.220  27.546  26.565  1.00  0.00     0.198 A 
ATOM     68  C   UNL A   1      39.815  25.956  27.686  1.00  0.00     0.198 A 
ATOM     69  F   UNL A   1      39.010  26.411  29.849  1.00  0.00    -0.203 F 
ATOM     70  F   UNL A   1      41.905  27.927  25.478  1.00  0.00    -0.200 F 
ATOM     71  C   UNL A   1      40.547  26.334  26.570  1.00  0.00     0.200 A 
ATOM     72  F   UNL A   1      39.175  24.778  27.697  1.00  0.00    -0.200 F 
ATOM     73  F   UNL A   1      40.599  25.533  25.497  1.00  0.00    -0.200 F 
ENDBRANCH  49  63
BRANCH  50  74
ATOM     74  C   UNL A   1      39.538  33.904  36.840  1.00  0.00     0.064 A 
ATOM     75  C   UNL A   1      38.772  33.475  37.934  1.00  0.00     0.173 A 
ATOM     76  C   UNL A   1      40.156  35.160  36.930  1.00  0.00     0.173 A 
ATOM     77  F   UNL A   1      38.146  32.290  37.888  1.00  0.00    -0.203 F 
ATOM     78  C   UNL A   1      38.610  34.280  39.060  1.00  0.00     0.198 A 
ATOM     79  C   UNL A   1      40.018  35.951  38.069  1.00  0.00     0.198 A 
ATOM     80  F   UNL A   1      40.904  35.614  35.914  1.00  0.00    -0.203 F 
ATOM     81  F   UNL A   1      37.833  33.866  40.070  1.00  0.00    -0.200 F 
ATOM     82  C   UNL A   1      39.238  35.515  39.129  1.00  0.00     0.200 A 
ATOM     83  F   UNL A   1      40.639  37.137  38.138  1.00  0.00    -0.200 F 
ATOM     84  F   UNL A   1      39.084  36.287  40.213  1.00  0.00    -0.200 F 
ENDBRANCH  50  74
BRANCH  62  85
ATOM     85  C   UNL A   1      43.930  28.793  35.065  1.00  0.00     0.064 A 
ATOM     86  C   UNL A   1      43.791  27.669  35.894  1.00  0.00     0.173 A 
ATOM     87  C   UNL A   1      45.220  29.310  34.872  1.00  0.00     0.173 A 
ATOM     88  F   UNL A   1      42.577  27.147  36.124  1.00  0.00    -0.203 F 
ATOM     89  C   UNL A   1      44.896  27.103  36.523  1.00  0.00     0.198 A 
ATOM     90  C   UNL A   1      46.327  28.722  35.476  1.00  0.00     0.198 A 
ATOM     91  F   UNL A   1      45.409  30.379  34.083  1.00  0.00    -0.203 F 
ATOM     92  F   UNL A   1      44.734  26.061  37.350  1.00  0.00    -0.200 F 
ATOM     93  C   UNL A   1      46.164  27.624  36.307  1.00  0.00     0.200 A 
ATOM     94  F   UNL A   1      47.552  29.218  35.254  1.00  0.00    -0.200 F 
ATOM     95  F   UNL A   1      47.228  27.072  36.906  1.00  0.00    -0.200 F 
ENDBRANCH  62  85
ENDBRANCH  36  37
ENDBRANCH  28  31
ENDBRANCH  26  27
ENDBRANCH  25  26
ENDBRANCH   1  25
TORSDOF 15
ENDMDL
MODEL 2
REMARK VINA RESULT:     -12.4      0.188      1.595
REMARK SMILES O=C(C[C@H]1CCCCO1)N[C@@H](C(=O)NCCCCNC(=O)c1ccc(-c2c3nc(c(-c4c(F)c(F)c(F)c(F)c4F)c4ccc([nH]4)c(-c4c(F)c(F)c(F)c(F)c4F)c4nc(c(-c5c(F)c(F)c(F)c(F)c5F)c5ccc2[nH]5)C=C4)C=C3)cc1)C1CCCCC1
REMARK SMILES IDX 16 1 15 2 14 3 12 4 13 5 11 7 10 8 1 9 2 10 3 12 4 13 5 14
REMARK SMILES IDX 9 15 6 16 8 17 7 18 85 19 86 20 90 21 87 22 89 23 88 24
REMARK SMILES IDX 17 25 18 26 19 27 20 28 21 30 22 31 23 32 84 33 24 34 83 35
REMARK SMILES IDX 25 36 26 37 27 38 77 39 28 40 82 41 76 42 78 43 29 44 81 45
REMARK SMILES IDX 75 46 74 47 30 49 62 50 42 51 61 52 43 53 46 54 60 55 79 56
REMARK SMILES IDX 44 57 45 58 59 60 80 61 47 62 31 63 32 64 40 65 33 66 34 67
REMARK SMILES IDX 38 68 41 69 35 70 36 71 39 72 37 73 63 74 64 75 72 76 65 77
REMARK SMILES IDX 66 78 70 79 73 80 67 81 68 82 71 83 69 84 48 85 49 86 57 87
REMARK SMILES IDX 50 88 51 89 55 90 58 91 52 92 53 93 56 94 54 95
REMARK H PARENT 14 6 10 11 19 29 78 48 46 59
REMARK Flexibility Score: inf
ROOT
ATOM      1  C   UNL A   1      31.719  30.770  26.089  1.00  0.00     0.023 C 
ENDROOT
BRANCH   1   2
ATOM      2  C   UNL A   1      32.866  29.940  26.675  1.00  0.00     0.116 C 
BRANCH   2   3
ATOM      3  N   UNL A   1      32.342  28.732  27.285  1.00  0.00    -0.354 N 
ATOM      4  C   UNL A   1      31.769  27.658  26.656  1.00  0.00     0.242 C 
ATOM      5  O   UNL A   1      30.927  27.024  27.292  1.00  0.00    -0.273 OA
ATOM      6  H   UNL A   1      32.405  28.678  28.266  1.00  0.00     0.163 HD
BRANCH   4   7
ATOM      7  C   UNL A   1      32.110  27.380  25.172  1.00  0.00     0.174 C 
BRANCH   7   8
ATOM      8  N   UNL A   1      30.875  27.644  24.419  1.00  0.00    -0.344 N 
ATOM      9  O   UNL A   1      31.843  29.002  22.851  1.00  0.00    -0.275 OA
ATOM     10  C   UNL A   1      30.836  28.497  23.338  1.00  0.00     0.223 C 
ATOM     11  H   UNL A   1      30.044  27.192  24.697  1.00  0.00     0.164 HD
BRANCH  10  12
ATOM     12  C   UNL A   1      29.442  28.863  22.880  1.00  0.00     0.132 C 
BRANCH  12  13
ATOM     13  C   UNL A   1      29.382  30.253  22.256  1.00  0.00     0.127 C 
ATOM     14  C   UNL A   1      28.223  30.326  21.254  1.00  0.00     0.033 C 
ATOM     15  O   UNL A   1      29.165  31.203  23.304  1.00  0.00    -0.378 OA
ATOM     16  C   UNL A   1      28.060  31.741  20.714  1.00  0.00     0.005 C 
ATOM     17  C   UNL A   1      29.126  32.548  22.833  1.00  0.00     0.160 C 
ATOM     18  C   UNL A   1      27.972  32.743  21.860  1.00  0.00     0.029 C 
ENDBRANCH  12  13
ENDBRANCH  10  12
ENDBRANCH   7   8
BRANCH   7  19
ATOM     19  C   UNL A   1      32.649  25.957  24.844  1.00  0.00     0.021 C 
ATOM     20  C   UNL A   1      33.529  26.037  23.573  1.00  0.00     0.006 C 
ATOM     21  C   UNL A   1      33.448  25.292  25.983  1.00  0.00     0.006 C 
ATOM     22  C   UNL A   1      34.157  24.701  23.187  1.00  0.00     0.000 C 
ATOM     23  C   UNL A   1      34.056  23.952  25.572  1.00  0.00     0.000 C 
ATOM     24  C   UNL A   1      34.938  24.090  24.342  1.00  0.00     0.000 C 
ENDBRANCH   7  19
ENDBRANCH   4   7
ENDBRANCH   2   3
ENDBRANCH   1   2
BRANCH   1  25
ATOM     25  C   UNL A   1      31.432  32.070  26.847  1.00  0.00     0.023 C 
BRANCH  25  26
ATOM     26  C   UNL A   1      32.670  32.836  27.293  1.00  0.00     0.116 C 
BRANCH  26  27
ATOM     27  N   UNL A   1      32.385  34.227  27.611  1.00  0.00    -0.352 N 
ATOM     28  C   UNL A   1      32.973  35.026  28.559  1.00  0.00     0.251 C 
ATOM     29  H   UNL A   1      31.675  34.649  27.077  1.00  0.00     0.163 HD
ATOM     30  O   UNL A   1      32.518  36.139  28.804  1.00  0.00    -0.269 OA
BRANCH  28  31
ATOM     31  C   UNL A   1      34.142  34.524  29.309  1.00  0.00     0.039 A 
ATOM     32  C   UNL A   1      33.937  33.929  30.556  1.00  0.00     0.014 A 
ATOM     33  C   UNL A   1      35.430  34.619  28.775  1.00  0.00     0.014 A 
ATOM     34  C   UNL A   1      35.018  33.372  31.240  1.00  0.00     0.010 A 
ATOM     35  C   UNL A   1      36.494  34.001  29.424  1.00  0.00     0.010 A 
ATOM     36  C   UNL A   1      36.298  33.372  30.662  1.00  0.00    -0.014 A 
BRANCH  36  37
ATOM     37  C   UNL A   1      37.445  32.713  31.338  1.00  0.00     0.031 A 
ATOM     38  C   UNL A   1      38.153  31.565  30.677  1.00  0.00     0.074 A 
ATOM     39  C   UNL A   1      37.806  33.110  32.574  1.00  0.00     0.049 A 
ATOM     40  N   UNL A   1      39.127  30.819  31.133  1.00  0.00    -0.248 NA
ATOM     41  C   UNL A   1      37.685  31.185  29.335  1.00  0.00     0.031 C 
ATOM     42  C   UNL A   1      37.165  34.181  33.338  1.00  0.00     0.029 A 
ATOM     43  N   UNL A   1      38.792  32.650  33.410  1.00  0.00    -0.354 N 
ATOM     44  C   UNL A   1      39.379  29.879  30.144  1.00  0.00     0.074 A 
ATOM     45  C   UNL A   1      38.420  30.111  29.086  1.00  0.00     0.031 C 
ATOM     46  C   UNL A   1      37.788  34.310  34.521  1.00  0.00     0.029 A 
ATOM     47  C   UNL A   1      38.844  33.306  34.615  1.00  0.00     0.049 A 
ATOM     48  H   UNL A   1      39.404  31.917  33.169  1.00  0.00     0.167 HD
ATOM     49  C   UNL A   1      40.338  28.923  30.111  1.00  0.00     0.037 A 
ATOM     50  C   UNL A   1      39.647  33.115  35.679  1.00  0.00     0.037 A 
ATOM     51  C   UNL A   1      41.304  28.711  31.156  1.00  0.00     0.049 A 
ATOM     52  C   UNL A   1      40.698  32.040  35.619  1.00  0.00     0.074 A 
ATOM     53  C   UNL A   1      42.354  27.809  31.190  1.00  0.00     0.029 A 
ATOM     54  N   UNL A   1      41.337  29.408  32.356  1.00  0.00    -0.354 N 
ATOM     55  N   UNL A   1      40.974  31.204  34.649  1.00  0.00    -0.248 NA
ATOM     56  C   UNL A   1      41.556  31.887  36.803  1.00  0.00     0.031 C 
ATOM     57  C   UNL A   1      42.990  27.926  32.431  1.00  0.00     0.029 A 
ATOM     58  C   UNL A   1      42.373  28.939  33.147  1.00  0.00     0.049 A 
ATOM     59  H   UNL A   1      40.714  30.128  32.606  1.00  0.00     0.167 HD
ATOM     60  C   UNL A   1      42.052  30.448  35.089  1.00  0.00     0.074 A 
ATOM     61  C   UNL A   1      42.390  30.935  36.410  1.00  0.00     0.031 C 
ATOM     62  C   UNL A   1      42.702  29.440  34.457  1.00  0.00     0.037 A 
BRANCH  49  63
ATOM     63  C   UNL A   1      40.392  28.034  28.901  1.00  0.00     0.064 A 
ATOM     64  C   UNL A   1      39.684  26.824  28.844  1.00  0.00     0.173 A 
ATOM     65  C   UNL A   1      41.131  28.415  27.771  1.00  0.00     0.173 A 
ATOM     66  F   UNL A   1      38.971  26.408  29.901  1.00  0.00    -0.203 F 
ATOM     67  C   UNL A   1      39.739  26.014  27.713  1.00  0.00     0.198 A 
ATOM     68  C   UNL A   1      41.156  27.618  26.629  1.00  0.00     0.198 A 
ATOM     69  F   UNL A   1      41.822  29.565  27.769  1.00  0.00    -0.203 F 
ATOM     70  F   UNL A   1      39.095  24.838  27.702  1.00  0.00    -0.200 F 
ATOM     71  C   UNL A   1      40.467  26.414  26.604  1.00  0.00     0.200 A 
ATOM     72  F   UNL A   1      41.851  28.014  25.553  1.00  0.00    -0.200 F 
ATOM     73  F   UNL A   1      40.512  25.638  25.512  1.00  0.00    -0.200 F 
ENDBRANCH  49  63
BRANCH  50  74
ATOM     74  C   UNL A   1      39.503  33.974  36.883  1.00  0.00     0.064 A 
ATOM     75  C   UNL A   1      40.145  35.219  36.960  1.00  0.00     0.173 A 
ATOM     76  C   UNL A   1      38.731  33.570  37.982  1.00  0.00     0.173 A 
ATOM     77  F   UNL A   1      40.910  35.641  35.942  1.00  0.00    -0.203 F 
ATOM     78  C   UNL A   1      40.039  36.015  38.099  1.00  0.00     0.198 A 
ATOM     79  C   UNL A   1      38.602  34.381  39.108  1.00  0.00     0.198 A 
ATOM     80  F   UNL A   1      38.092  32.391  37.957  1.00  0.00    -0.203 F 
ATOM     81  F   UNL A   1      40.702  37.178  38.164  1.00  0.00    -0.200 F 
ATOM     82  C   UNL A   1      39.263  35.598  39.169  1.00  0.00     0.200 A 
ATOM     83  F   UNL A   1      37.838  33.981  40.134  1.00  0.00    -0.200 F 
ATOM     84  F   UNL A   1      39.159  36.365  40.262  1.00  0.00    -0.200 F 
ENDBRANCH  50  74
BRANCH  62  85
ATOM     85  C   UNL A   1      43.871  28.822  35.167  1.00  0.00     0.064 A 
ATOM     86  C   UNL A   1      43.716  27.723  36.026  1.00  0.00     0.173 A 
ATOM     87  C   UNL A   1      45.170  29.311  34.956  1.00  0.00     0.173 A 
ATOM     88  F   UNL A   1      42.494  27.228  36.274  1.00  0.00    -0.203 F 
ATOM     89  C   UNL A   1      44.814  27.153  36.664  1.00  0.00     0.198 A 
ATOM     90  C   UNL A   1      46.269  28.718  35.569  1.00  0.00     0.198 A 
ATOM     91  F   UNL A   1      45.374  30.355  34.139  1.00  0.00    -0.203 F 
ATOM     92  F   UNL A   1      44.637  26.135  37.518  1.00  0.00    -0.200 F 
ATOM     93  C   UNL A   1      46.089  27.645  36.429  1.00  0.00     0.200 A 
ATOM     94  F   UNL A   1      47.501  29.186  35.330  1.00  0.00    -0.200 F 
ATOM     95  F   UNL A   1      47.147  27.090  37.038  1.00  0.00    -0.200 F 
ENDBRANCH  62  85
ENDBRANCH  36  37
ENDBRANCH  28  31
ENDBRANCH  26  27
ENDBRANCH  25  26
ENDBRANCH   1  25
TORSDOF 15
ENDMDL
MODEL 3
REMARK VINA RESULT:     -12.3      0.485      7.372
REMARK SMILES O=C(C[C@H]1CCCCO1)N[C@@H](C(=O)NCCCCNC(=O)c1ccc(-c2c3nc(c(-c4c(F)c(F)c(F)c(F)c4F)c4ccc([nH]4)c(-c4c(F)c(F)c(F)c(F)c4F)c4nc(c(-c5c(F)c(F)c(F)c(F)c5F)c5ccc2[nH]5)C=C4)C=C3)cc1)C1CCCCC1
REMARK SMILES IDX 16 1 15 2 14 3 12 4 13 5 11 7 10 8 1 9 2 10 3 12 4 13 5 14
REMARK SMILES IDX 9 15 6 16 8 17 7 18 85 19 86 20 90 21 87 22 89 23 88 24
REMARK SMILES IDX 17 25 18 26 19 27 20 28 21 30 22 31 23 32 84 33 24 34 83 35
REMARK SMILES IDX 25 36 26 37 27 38 77 39 28 40 82 41 76 42 78 43 29 44 81 45
REMARK SMILES IDX 75 46 74 47 30 49 62 50 42 51 61 52 43 53 46 54 60 55 79 56
REMARK SMILES IDX 44 57 45 58 59 60 80 61 47 62 31 63 32 64 40 65 33 66 34 67
REMARK SMILES IDX 38 68 41 69 35 70 36 71 39 72 37 73 63 74 64 75 72 76 65 77
REMARK SMILES IDX 66 78 70 79 73 80 67 81 68 82 71 83 69 84 48 85 49 86 57 87
REMARK SMILES IDX 50 88 51 89 55 90 58 91 52 92 53 93 56 94 54 95
REMARK H PARENT 14 6 10 11 19 29 78 48 46 59
REMARK Flexibility Score: inf
ROOT
ATOM      1  C   UNL A   1      31.583  30.826  25.970  1.00  0.00     0.023 C 
ENDROOT
BRANCH   1   2
ATOM      2  C   UNL A   1      32.777  30.070  26.561  1.00  0.00     0.116 C 
BRANCH   2   3
ATOM      3  N   UNL A   1      32.317  28.871  27.240  1.00  0.00    -0.354 N 
ATOM      4  C   UNL A   1      31.838  27.721  26.673  1.00  0.00     0.242 C 
ATOM      5  O   UNL A   1      31.021  27.074  27.330  1.00  0.00    -0.273 OA
ATOM      6  H   UNL A   1      32.354  28.889  28.224  1.00  0.00     0.163 HD
BRANCH   4   7
ATOM      7  C   UNL A   1      32.243  27.367  25.222  1.00  0.00     0.174 C 
BRANCH   7   8
ATOM      8  N   UNL A   1      31.037  27.576  24.406  1.00  0.00    -0.344 N 
ATOM      9  O   UNL A   1      32.011  29.015  22.916  1.00  0.00    -0.275 OA
ATOM     10  C   UNL A   1      31.009  28.447  23.338  1.00  0.00     0.223 C 
ATOM     11  H   UNL A   1      30.219  27.075  24.631  1.00  0.00     0.164 HD
BRANCH  10  12
ATOM     12  C   UNL A   1      29.623  28.744  22.810  1.00  0.00     0.132 C 
BRANCH  12  13
ATOM     13  C   UNL A   1      29.491  30.176  22.303  1.00  0.00     0.127 C 
ATOM     14  C   UNL A   1      28.349  30.265  21.283  1.00  0.00     0.033 C 
ATOM     15  O   UNL A   1      29.195  31.018  23.422  1.00  0.00    -0.378 OA
ATOM     16  C   UNL A   1      28.109  31.709  20.860  1.00  0.00     0.005 C 
ATOM     17  C   UNL A   1      29.082  32.394  23.065  1.00  0.00     0.160 C 
ATOM     18  C   UNL A   1      27.937  32.602  22.083  1.00  0.00     0.029 C 
ENDBRANCH  12  13
ENDBRANCH  10  12
ENDBRANCH   7   8
BRANCH   7  19
ATOM     19  C   UNL A   1      32.807  25.934  24.993  1.00  0.00     0.021 C 
ATOM     20  C   UNL A   1      33.168  25.773  23.496  1.00  0.00     0.006 C 
ATOM     21  C   UNL A   1      34.032  25.578  25.860  1.00  0.00     0.006 C 
ATOM     22  C   UNL A   1      33.783  24.416  23.165  1.00  0.00     0.000 C 
ATOM     23  C   UNL A   1      34.620  24.211  25.514  1.00  0.00     0.000 C 
ATOM     24  C   UNL A   1      34.989  24.116  24.043  1.00  0.00     0.000 C 
ENDBRANCH   7  19
ENDBRANCH   4   7
ENDBRANCH   2   3
ENDBRANCH   1   2
BRANCH   1  25
ATOM     25  C   UNL A   1      31.352  32.212  26.580  1.00  0.00     0.023 C 
BRANCH  25  26
ATOM     26  C   UNL A   1      32.569  32.822  27.261  1.00  0.00     0.116 C 
BRANCH  26  27
ATOM     27  N   UNL A   1      32.363  34.211  27.641  1.00  0.00    -0.352 N 
ATOM     28  C   UNL A   1      33.014  34.941  28.603  1.00  0.00     0.251 C 
ATOM     29  H   UNL A   1      31.662  34.690  27.143  1.00  0.00     0.163 HD
ATOM     30  O   UNL A   1      32.621  36.064  28.905  1.00  0.00    -0.269 OA
BRANCH  28  31
ATOM     31  C   UNL A   1      34.173  34.351  29.302  1.00  0.00     0.039 A 
ATOM     32  C   UNL A   1      33.949  33.563  30.433  1.00  0.00     0.014 A 
ATOM     33  C   UNL A   1      35.473  34.556  28.830  1.00  0.00     0.014 A 
ATOM     34  C   UNL A   1      35.025  32.928  31.055  1.00  0.00     0.010 A 
ATOM     35  C   UNL A   1      36.534  33.866  29.407  1.00  0.00     0.010 A 
ATOM     36  C   UNL A   1      36.320  33.045  30.525  1.00  0.00    -0.014 A 
BRANCH  36  37
ATOM     37  C   UNL A   1      37.465  32.313  31.124  1.00  0.00     0.031 A 
ATOM     38  C   UNL A   1      37.973  32.692  32.487  1.00  0.00     0.074 A 
ATOM     39  C   UNL A   1      38.084  31.350  30.414  1.00  0.00     0.049 A 
ATOM     40  N   UNL A   1      38.999  32.220  33.148  1.00  0.00    -0.248 NA
ATOM     41  C   UNL A   1      37.249  33.764  33.187  1.00  0.00     0.031 C 
ATOM     42  C   UNL A   1      37.714  30.926  29.063  1.00  0.00     0.029 A 
ATOM     43  N   UNL A   1      39.165  30.564  30.724  1.00  0.00    -0.354 N 
ATOM     44  C   UNL A   1      39.050  32.943  34.332  1.00  0.00     0.074 A 
ATOM     45  C   UNL A   1      37.988  33.923  34.275  1.00  0.00     0.031 C 
ATOM     46  C   UNL A   1      38.539  29.942  28.669  1.00  0.00     0.029 A 
ATOM     47  C   UNL A   1      39.520  29.694  29.722  1.00  0.00     0.049 A 
ATOM     48  H   UNL A   1      39.642  30.618  31.584  1.00  0.00     0.167 HD
ATOM     49  C   UNL A   1      39.893  32.788  35.381  1.00  0.00     0.037 A 
ATOM     50  C   UNL A   1      40.527  28.803  29.656  1.00  0.00     0.037 A 
ATOM     51  C   UNL A   1      40.934  31.796  35.442  1.00  0.00     0.049 A 
ATOM     52  C   UNL A   1      41.455  28.658  30.832  1.00  0.00     0.074 A 
ATOM     53  C   UNL A   1      41.800  31.518  36.485  1.00  0.00     0.029 A 
ATOM     54  N   UNL A   1      41.252  30.920  34.414  1.00  0.00    -0.354 N 
ATOM     55  N   UNL A   1      41.449  29.298  31.976  1.00  0.00    -0.248 NA
ATOM     56  C   UNL A   1      42.526  27.660  30.711  1.00  0.00     0.031 C 
ATOM     57  C   UNL A   1      42.676  30.510  36.070  1.00  0.00     0.029 A 
ATOM     58  C   UNL A   1      42.318  30.119  34.789  1.00  0.00     0.049 A 
ATOM     59  H   UNL A   1      40.789  30.876  33.547  1.00  0.00     0.167 HD
ATOM     60  C   UNL A   1      42.491  28.761  32.720  1.00  0.00     0.074 A 
ATOM     61  C   UNL A   1      43.099  27.732  31.904  1.00  0.00     0.031 C 
ATOM     62  C   UNL A   1      42.908  29.093  33.967  1.00  0.00     0.037 A 
BRANCH  49  63
ATOM     63  C   UNL A   1      39.721  33.712  36.553  1.00  0.00     0.064 A 
ATOM     64  C   UNL A   1      38.891  33.381  37.635  1.00  0.00     0.173 A 
ATOM     65  C   UNL A   1      40.422  34.925  36.612  1.00  0.00     0.173 A 
ATOM     66  F   UNL A   1      38.189  32.238  37.625  1.00  0.00    -0.203 F 
ATOM     67  C   UNL A   1      38.747  34.245  38.718  1.00  0.00     0.198 A 
ATOM     68  C   UNL A   1      40.301  35.770  37.711  1.00  0.00     0.198 A 
ATOM     69  F   UNL A   1      41.234  35.287  35.607  1.00  0.00    -0.203 F 
ATOM     70  F   UNL A   1      37.909  33.931  39.716  1.00  0.00    -0.200 F 
ATOM     71  C   UNL A   1      39.457  35.434  38.760  1.00  0.00     0.200 A 
ATOM     72  F   UNL A   1      40.999  36.914  37.756  1.00  0.00    -0.200 F 
ATOM     73  F   UNL A   1      39.324  36.260  39.807  1.00  0.00    -0.200 F 
ENDBRANCH  49  63
BRANCH  50  74
ATOM     74  C   UNL A   1      40.700  27.964  28.442  1.00  0.00     0.064 A 
ATOM     75  C   UNL A   1      40.103  26.699  28.352  1.00  0.00     0.173 A 
ATOM     76  C   UNL A   1      41.467  28.402  27.352  1.00  0.00     0.173 A 
ATOM     77  F   UNL A   1      39.376  26.227  29.375  1.00  0.00    -0.203 F 
ATOM     78  C   UNL A   1      40.286  25.894  27.228  1.00  0.00     0.198 A 
ATOM     79  C   UNL A   1      41.625  27.609  26.217  1.00  0.00     0.198 A 
ATOM     80  F   UNL A   1      42.054  29.607  27.386  1.00  0.00    -0.203 F 
ATOM     81  F   UNL A   1      39.744  24.669  27.189  1.00  0.00    -0.200 F 
ATOM     82  C   UNL A   1      41.042  26.352  26.160  1.00  0.00     0.200 A 
ATOM     83  F   UNL A   1      42.343  28.062  25.181  1.00  0.00    -0.200 F 
ATOM     84  F   UNL A   1      41.215  25.580  25.079  1.00  0.00    -0.200 F 
ENDBRANCH  50  74
BRANCH  62  85
ATOM     85  C   UNL A   1      44.051  28.308  34.543  1.00  0.00     0.064 A 
ATOM     86  C   UNL A   1      45.379  28.746  34.424  1.00  0.00     0.173 A 
ATOM     87  C   UNL A   1      43.812  27.124  35.256  1.00  0.00     0.173 A 
ATOM     88  F   UNL A   1      45.663  29.863  33.739  1.00  0.00    -0.203 F 
ATOM     89  C   UNL A   1      46.425  28.013  34.978  1.00  0.00     0.198 A 
ATOM     90  C   UNL A   1      44.856  26.411  35.836  1.00  0.00     0.198 A 
ATOM     91  F   UNL A   1      42.559  26.666  35.405  1.00  0.00    -0.203 F 
ATOM     92  F   UNL A   1      47.691  28.423  34.810  1.00  0.00    -0.200 F 
ATOM     93  C   UNL A   1      46.163  26.852  35.690  1.00  0.00     0.200 A 
ATOM     94  F   UNL A   1      44.600  25.298  36.536  1.00  0.00    -0.200 F 
ATOM     95  F   UNL A   1      47.171  26.152  36.229  1.00  0.00    -0.200 F 
ENDBRANCH  62  85
ENDBRANCH  36  37
ENDBRANCH  28  31
ENDBRANCH  26  27
ENDBRANCH  25  26
ENDBRANCH   1  25
TORSDOF 15
ENDMDL
