MODEL 1
REMARK VINA RESULT:     -13.1      0.000      0.000
REMARK SMILES O=C(CCN1C(=O)/C(=C\c2ccc(-c3cccc(Cl)c3)o2)SC1=S)NCCCCNC(=O)c1ccc(-c2c3nc(c(-c4c(F)c(F)c(F)c(F)c4F)c4ccc([nH]4)c(-c4c(F)c(F)c(F)c(F)c4F)c4nc(c(-c5c(F)c(F)c(F)c(F)c5F)c5ccc2[nH]5)C=C4)C=C3)cc1
REMARK SMILES IDX 26 1 25 2 1 3 2 4 3 6 4 7 5 8 6 9 23 10 7 11 8 12 22 13
REMARK SMILES IDX 24 14 9 15 10 16 11 17 21 18 12 19 13 20 14 21 15 22 20 23
REMARK SMILES IDX 16 24 18 25 17 26 19 27 27 28 28 29 29 30 30 31 31 32 32 34
REMARK SMILES IDX 33 35 34 36 95 37 35 38 94 39 36 40 37 41 38 42 88 43 39 44
REMARK SMILES IDX 93 45 87 46 89 47 40 48 92 49 86 50 85 51 41 53 73 54 53 55
REMARK SMILES IDX 72 56 54 57 57 58 71 59 90 60 55 61 56 62 70 64 91 65 58 66
REMARK SMILES IDX 42 67 43 68 51 69 44 70 45 71 49 72 52 73 46 74 47 75 50 76
REMARK SMILES IDX 48 77 74 78 75 79 83 80 76 81 77 82 81 83 84 84 78 85 79 86
REMARK SMILES IDX 82 87 80 88 59 89 60 90 68 91 61 92 62 93 66 94 69 95 63 96
REMARK SMILES IDX 64 97 67 98 65 99
REMARK H PARENT 25 5 30 33 89 52 57 63
REMARK Flexibility Score: inf
ROOT
ATOM      1  C   UNL A   1      33.404  29.623  26.456  1.00  0.00     0.116 C 
ENDROOT
BRANCH   1   2
ATOM      2  N   UNL A   1      33.570  29.476  25.020  1.00  0.00    -0.356 N 
ATOM      3  O   UNL A   1      33.851  27.195  25.172  1.00  0.00    -0.275 OA
ATOM      4  C   UNL A   1      33.812  28.214  24.489  1.00  0.00     0.221 C 
ATOM      5  H   UNL A   1      33.513  30.262  24.431  1.00  0.00     0.163 HD
BRANCH   4   6
ATOM      6  C   UNL A   1      34.060  28.172  22.993  1.00  0.00     0.122 C 
BRANCH   6   7
ATOM      7  C   UNL A   1      32.774  28.244  22.162  1.00  0.00     0.137 C 
BRANCH   7   8
ATOM      8  N   UNL A   1      31.658  27.466  22.726  1.00  0.00    -0.292 N 
ATOM      9  C   UNL A   1      31.666  26.098  22.549  1.00  0.00     0.266 C 
ATOM     10  C   UNL A   1      30.531  27.983  23.325  1.00  0.00     0.148 C 
ATOM     11  O   UNL A   1      32.435  25.485  21.820  1.00  0.00    -0.268 OA
ATOM     12  C   UNL A   1      30.564  25.454  23.319  1.00  0.00     0.084 C 
ATOM     13  S   UNL A   1      29.415  26.670  23.739  1.00  0.00    -0.054 SA
ATOM     14  S   UNL A   1      30.196  29.581  23.666  1.00  0.00    -0.052 S 
ATOM     15  C   UNL A   1      30.522  24.181  23.756  1.00  0.00     0.068 C 
BRANCH  15  16
ATOM     16  C   UNL A   1      31.707  23.381  23.827  1.00  0.00     0.128 A 
ATOM     17  C   UNL A   1      31.969  22.261  23.051  1.00  0.00     0.051 A 
ATOM     18  O   UNL A   1      32.860  23.631  24.565  1.00  0.00    -0.457 OA
ATOM     19  C   UNL A   1      33.251  21.797  23.312  1.00  0.00     0.051 A 
ATOM     20  C   UNL A   1      33.762  22.651  24.249  1.00  0.00     0.134 A 
BRANCH  20  21
ATOM     21  C   UNL A   1      35.026  22.516  24.940  1.00  0.00     0.019 A 
ATOM     22  C   UNL A   1      35.724  23.677  25.315  1.00  0.00     0.012 A 
ATOM     23  C   UNL A   1      35.709  21.300  24.861  1.00  0.00     0.032 A 
ATOM     24  C   UNL A   1      37.097  23.635  25.560  1.00  0.00     0.002 A 
ATOM     25  C   UNL A   1      37.082  21.267  25.093  1.00  0.00     0.041 A 
ATOM     26  C   UNL A   1      37.780  22.428  25.430  1.00  0.00     0.020 A 
ATOM     27  Cl  UNL A   1      37.944  19.795  24.866  1.00  0.00    -0.084 Cl
ENDBRANCH  20  21
ENDBRANCH  15  16
ENDBRANCH   7   8
ENDBRANCH   6   7
ENDBRANCH   4   6
ENDBRANCH   1   2
BRANCH   1  28
ATOM     28  C   UNL A   1      32.103  30.255  27.007  1.00  0.00     0.023 C 
BRANCH  28  29
ATOM     29  C   UNL A   1      31.811  31.767  26.950  1.00  0.00     0.023 C 
BRANCH  29  30
ATOM     30  C   UNL A   1      32.856  32.843  27.317  1.00  0.00     0.116 C 
BRANCH  30  31
ATOM     31  N   UNL A   1      32.386  34.163  27.697  1.00  0.00    -0.352 N 
ATOM     32  C   UNL A   1      32.957  35.045  28.600  1.00  0.00     0.251 C 
ATOM     33  H   UNL A   1      31.559  34.469  27.260  1.00  0.00     0.163 HD
ATOM     34  O   UNL A   1      32.433  36.133  28.820  1.00  0.00    -0.269 OA
BRANCH  32  35
ATOM     35  C   UNL A   1      34.164  34.656  29.375  1.00  0.00     0.039 A 
ATOM     36  C   UNL A   1      34.004  34.222  30.691  1.00  0.00     0.014 A 
ATOM     37  C   UNL A   1      35.442  34.700  28.817  1.00  0.00     0.014 A 
ATOM     38  C   UNL A   1      35.101  33.715  31.400  1.00  0.00     0.010 A 
ATOM     39  C   UNL A   1      36.531  34.148  29.504  1.00  0.00     0.010 A 
ATOM     40  C   UNL A   1      36.364  33.607  30.789  1.00  0.00    -0.014 A 
BRANCH  40  41
ATOM     41  C   UNL A   1      37.454  32.828  31.447  1.00  0.00     0.031 A 
ATOM     42  C   UNL A   1      38.084  31.626  30.797  1.00  0.00     0.074 A 
ATOM     43  C   UNL A   1      37.857  33.192  32.684  1.00  0.00     0.049 A 
ATOM     44  N   UNL A   1      39.051  30.858  31.241  1.00  0.00    -0.248 NA
ATOM     45  C   UNL A   1      37.552  31.222  29.490  1.00  0.00     0.031 C 
ATOM     46  C   UNL A   1      37.295  34.301  33.458  1.00  0.00     0.029 A 
ATOM     47  N   UNL A   1      38.829  32.677  33.509  1.00  0.00    -0.354 N 
ATOM     48  C   UNL A   1      39.244  29.884  30.269  1.00  0.00     0.074 A 
ATOM     49  C   UNL A   1      38.257  30.127  29.236  1.00  0.00     0.031 C 
ATOM     50  C   UNL A   1      37.954  34.408  34.621  1.00  0.00     0.029 A 
ATOM     51  C   UNL A   1      38.956  33.351  34.701  1.00  0.00     0.049 A 
ATOM     52  H   UNL A   1      39.382  31.899  33.268  1.00  0.00     0.167 HD
ATOM     53  C   UNL A   1      40.170  28.893  30.231  1.00  0.00     0.037 A 
ATOM     54  C   UNL A   1      39.781  33.143  35.748  1.00  0.00     0.037 A 
ATOM     55  C   UNL A   1      41.156  28.652  31.257  1.00  0.00     0.049 A 
ATOM     56  C   UNL A   1      40.783  32.021  35.688  1.00  0.00     0.074 A 
ATOM     57  C   UNL A   1      42.169  27.706  31.275  1.00  0.00     0.029 A 
ATOM     58  N   UNL A   1      41.247  29.351  32.452  1.00  0.00    -0.354 N 
ATOM     59  N   UNL A   1      41.010  31.165  34.723  1.00  0.00    -0.248 NA
ATOM     60  C   UNL A   1      41.649  31.843  36.862  1.00  0.00     0.031 C 
ATOM     61  C   UNL A   1      42.830  27.792  32.504  1.00  0.00     0.029 A 
ATOM     62  C   UNL A   1      42.278  28.836  33.226  1.00  0.00     0.049 A 
ATOM     63  H   UNL A   1      40.666  30.102  32.712  1.00  0.00     0.167 HD
ATOM     64  C   UNL A   1      42.062  30.370  35.157  1.00  0.00     0.074 A 
ATOM     65  C   UNL A   1      42.442  30.857  36.466  1.00  0.00     0.031 C 
ATOM     66  C   UNL A   1      42.657  29.328  34.526  1.00  0.00     0.037 A 
BRANCH  53  67
ATOM     67  C   UNL A   1      40.168  27.979  29.036  1.00  0.00     0.064 A 
ATOM     68  C   UNL A   1      40.887  28.289  27.871  1.00  0.00     0.173 A 
ATOM     69  C   UNL A   1      39.491  26.750  29.077  1.00  0.00     0.173 A 
ATOM     70  F   UNL A   1      41.553  29.451  27.778  1.00  0.00    -0.203 F 
ATOM     71  C   UNL A   1      40.900  27.421  26.782  1.00  0.00     0.198 A 
ATOM     72  C   UNL A   1      39.534  25.868  27.998  1.00  0.00     0.198 A 
ATOM     73  F   UNL A   1      38.801  26.394  30.170  1.00  0.00    -0.203 F 
ATOM     74  F   UNL A   1      41.555  27.763  25.663  1.00  0.00    -0.200 F 
ATOM     75  C   UNL A   1      40.231  26.209  26.849  1.00  0.00     0.200 A 
ATOM     76  F   UNL A   1      38.904  24.688  28.073  1.00  0.00    -0.200 F 
ATOM     77  F   UNL A   1      40.254  25.370  25.804  1.00  0.00    -0.200 F 
ENDBRANCH  53  67
BRANCH  54  78
ATOM     78  C   UNL A   1      39.709  34.029  36.942  1.00  0.00     0.064 A 
ATOM     79  C   UNL A   1      38.912  33.692  38.047  1.00  0.00     0.173 A 
ATOM     80  C   UNL A   1      40.413  35.241  36.995  1.00  0.00     0.173 A 
ATOM     81  F   UNL A   1      38.203  32.554  38.037  1.00  0.00    -0.203 F 
ATOM     82  C   UNL A   1      38.802  34.544  39.143  1.00  0.00     0.198 A 
ATOM     83  C   UNL A   1      40.329  36.077  38.108  1.00  0.00     0.198 A 
ATOM     84  F   UNL A   1      41.193  35.611  35.969  1.00  0.00    -0.203 F 
ATOM     85  F   UNL A   1      37.989  34.224  40.159  1.00  0.00    -0.200 F 
ATOM     86  C   UNL A   1      39.514  35.734  39.175  1.00  0.00     0.200 A 
ATOM     87  F   UNL A   1      41.034  37.216  38.141  1.00  0.00    -0.200 F 
ATOM     88  F   UNL A   1      39.410  36.552  40.231  1.00  0.00    -0.200 F 
ENDBRANCH  54  78
BRANCH  66  89
ATOM     89  C   UNL A   1      43.816  28.666  35.222  1.00  0.00     0.064 A 
ATOM     90  C   UNL A   1      43.630  27.615  36.132  1.00  0.00     0.173 A 
ATOM     91  C   UNL A   1      45.132  29.068  34.947  1.00  0.00     0.173 A 
ATOM     92  F   UNL A   1      42.392  27.200  36.443  1.00  0.00    -0.203 F 
ATOM     93  C   UNL A   1      44.716  27.012  36.762  1.00  0.00     0.198 A 
ATOM     94  C   UNL A   1      46.217  28.440  35.552  1.00  0.00     0.198 A 
ATOM     95  F   UNL A   1      45.368  30.066  34.081  1.00  0.00    -0.203 F 
ATOM     96  F   UNL A   1      44.510  26.045  37.669  1.00  0.00    -0.200 F 
ATOM     97  C   UNL A   1      46.008  27.418  36.466  1.00  0.00     0.200 A 
ATOM     98  F   UNL A   1      47.465  28.824  35.251  1.00  0.00    -0.200 F 
ATOM     99  F   UNL A   1      47.052  26.830  37.066  1.00  0.00    -0.200 F 
ENDBRANCH  66  89
ENDBRANCH  40  41
ENDBRANCH  32  35
ENDBRANCH  30  31
ENDBRANCH  29  30
ENDBRANCH  28  29
ENDBRANCH   1  28
TORSDOF 15
ENDMDL
MODEL 2
REMARK VINA RESULT:     -12.4      1.105      7.273
REMARK SMILES O=C(CCN1C(=O)/C(=C\c2ccc(-c3cccc(Cl)c3)o2)SC1=S)NCCCCNC(=O)c1ccc(-c2c3nc(c(-c4c(F)c(F)c(F)c(F)c4F)c4ccc([nH]4)c(-c4c(F)c(F)c(F)c(F)c4F)c4nc(c(-c5c(F)c(F)c(F)c(F)c5F)c5ccc2[nH]5)C=C4)C=C3)cc1
REMARK SMILES IDX 26 1 25 2 1 3 2 4 3 6 4 7 5 8 6 9 23 10 7 11 8 12 22 13
REMARK SMILES IDX 24 14 9 15 10 16 11 17 21 18 12 19 13 20 14 21 15 22 20 23
REMARK SMILES IDX 16 24 18 25 17 26 19 27 27 28 28 29 29 30 30 31 31 32 32 34
REMARK SMILES IDX 33 35 34 36 95 37 35 38 94 39 36 40 37 41 38 42 88 43 39 44
REMARK SMILES IDX 93 45 87 46 89 47 40 48 92 49 86 50 85 51 41 53 73 54 53 55
REMARK SMILES IDX 72 56 54 57 57 58 71 59 90 60 55 61 56 62 70 64 91 65 58 66
REMARK SMILES IDX 42 67 43 68 51 69 44 70 45 71 49 72 52 73 46 74 47 75 50 76
REMARK SMILES IDX 48 77 74 78 75 79 83 80 76 81 77 82 81 83 84 84 78 85 79 86
REMARK SMILES IDX 82 87 80 88 59 89 60 90 68 91 61 92 62 93 66 94 69 95 63 96
REMARK SMILES IDX 64 97 67 98 65 99
REMARK H PARENT 25 5 30 33 89 52 57 63
REMARK Flexibility Score: inf
ROOT
ATOM      1  C   UNL A   1      33.164  29.292  26.291  1.00  0.00     0.116 C 
ENDROOT
BRANCH   1   2
ATOM      2  N   UNL A   1      33.270  29.301  24.842  1.00  0.00    -0.356 N 
ATOM      3  O   UNL A   1      34.052  27.137  24.771  1.00  0.00    -0.275 OA
ATOM      4  C   UNL A   1      33.749  28.173  24.187  1.00  0.00     0.221 C 
ATOM      5  H   UNL A   1      33.005  30.100  24.331  1.00  0.00     0.163 HD
BRANCH   4   6
ATOM      6  C   UNL A   1      33.908  28.308  22.685  1.00  0.00     0.122 C 
BRANCH   6   7
ATOM      7  C   UNL A   1      32.963  27.399  21.890  1.00  0.00     0.137 C 
BRANCH   7   8
ATOM      8  N   UNL A   1      31.751  27.009  22.631  1.00  0.00    -0.292 N 
ATOM      9  C   UNL A   1      31.655  25.710  23.081  1.00  0.00     0.266 C 
ATOM     10  C   UNL A   1      30.635  27.792  22.826  1.00  0.00     0.148 C 
ATOM     11  O   UNL A   1      32.416  24.800  22.777  1.00  0.00    -0.268 OA
ATOM     12  C   UNL A   1      30.455  25.531  23.946  1.00  0.00     0.084 C 
ATOM     13  S   UNL A   1      29.388  26.857  23.670  1.00  0.00    -0.054 SA
ATOM     14  S   UNL A   1      30.414  29.386  22.389  1.00  0.00    -0.052 S 
ATOM     15  C   UNL A   1      30.278  24.594  24.897  1.00  0.00     0.068 C 
BRANCH  15  16
ATOM     16  C   UNL A   1      31.385  23.857  25.429  1.00  0.00     0.128 A 
ATOM     17  C   UNL A   1      32.188  24.265  26.485  1.00  0.00     0.051 A 
ATOM     18  O   UNL A   1      31.783  22.565  25.103  1.00  0.00    -0.457 OA
ATOM     19  C   UNL A   1      33.094  23.262  26.801  1.00  0.00     0.051 A 
ATOM     20  C   UNL A   1      32.825  22.243  25.930  1.00  0.00     0.134 A 
BRANCH  20  21
ATOM     21  C   UNL A   1      33.583  21.021  25.773  1.00  0.00     0.019 A 
ATOM     22  C   UNL A   1      34.970  21.102  25.559  1.00  0.00     0.012 A 
ATOM     23  C   UNL A   1      32.904  19.849  25.433  1.00  0.00     0.032 A 
ATOM     24  C   UNL A   1      35.663  20.046  24.968  1.00  0.00     0.002 A 
ATOM     25  C   UNL A   1      33.599  18.802  24.831  1.00  0.00     0.041 A 
ATOM     26  C   UNL A   1      34.970  18.899  24.587  1.00  0.00     0.020 A 
ATOM     27  Cl  UNL A   1      32.738  17.412  24.294  1.00  0.00    -0.084 Cl
ENDBRANCH  20  21
ENDBRANCH  15  16
ENDBRANCH   7   8
ENDBRANCH   6   7
ENDBRANCH   4   6
ENDBRANCH   1   2
BRANCH   1  28
ATOM     28  C   UNL A   1      32.043  30.113  26.974  1.00  0.00     0.023 C 
BRANCH  28  29
ATOM     29  C   UNL A   1      31.873  31.632  26.778  1.00  0.00     0.023 C 
BRANCH  29  30
ATOM     30  C   UNL A   1      32.893  32.669  27.294  1.00  0.00     0.116 C 
BRANCH  30  31
ATOM     31  N   UNL A   1      32.413  33.990  27.657  1.00  0.00    -0.352 N 
ATOM     32  C   UNL A   1      32.980  34.891  28.545  1.00  0.00     0.251 C 
ATOM     33  H   UNL A   1      31.582  34.283  27.218  1.00  0.00     0.163 HD
ATOM     34  O   UNL A   1      32.447  35.977  28.751  1.00  0.00    -0.269 OA
BRANCH  32  35
ATOM     35  C   UNL A   1      34.192  34.523  29.320  1.00  0.00     0.039 A 
ATOM     36  C   UNL A   1      34.034  33.986  30.598  1.00  0.00     0.014 A 
ATOM     37  C   UNL A   1      35.477  34.688  28.799  1.00  0.00     0.014 A 
ATOM     38  C   UNL A   1      35.146  33.499  31.296  1.00  0.00     0.010 A 
ATOM     39  C   UNL A   1      36.585  34.156  29.472  1.00  0.00     0.010 A 
ATOM     40  C   UNL A   1      36.426  33.515  30.711  1.00  0.00    -0.014 A 
BRANCH  40  41
ATOM     41  C   UNL A   1      37.550  32.760  31.340  1.00  0.00     0.031 A 
ATOM     42  C   UNL A   1      38.088  33.112  32.700  1.00  0.00     0.074 A 
ATOM     43  C   UNL A   1      38.128  31.756  30.645  1.00  0.00     0.049 A 
ATOM     44  N   UNL A   1      39.052  32.538  33.381  1.00  0.00    -0.248 NA
ATOM     45  C   UNL A   1      37.482  34.265  33.378  1.00  0.00     0.031 C 
ATOM     46  C   UNL A   1      37.748  31.343  29.292  1.00  0.00     0.029 A 
ATOM     47  N   UNL A   1      39.152  30.899  30.971  1.00  0.00    -0.354 N 
ATOM     48  C   UNL A   1      39.165  33.256  34.565  1.00  0.00     0.074 A 
ATOM     49  C   UNL A   1      38.208  34.341  34.486  1.00  0.00     0.031 C 
ATOM     50  C   UNL A   1      38.494  30.294  28.923  1.00  0.00     0.029 A 
ATOM     51  C   UNL A   1      39.440  29.981  29.989  1.00  0.00     0.049 A 
ATOM     52  H   UNL A   1      39.633  30.938  31.830  1.00  0.00     0.167 HD
ATOM     53  C   UNL A   1      39.976  33.022  35.628  1.00  0.00     0.037 A 
ATOM     54  C   UNL A   1      40.364  29.000  29.942  1.00  0.00     0.037 A 
ATOM     55  C   UNL A   1      40.927  31.940  35.711  1.00  0.00     0.049 A 
ATOM     56  C   UNL A   1      41.267  28.778  31.127  1.00  0.00     0.074 A 
ATOM     57  C   UNL A   1      41.750  31.593  36.771  1.00  0.00     0.029 A 
ATOM     58  N   UNL A   1      41.195  31.037  34.691  1.00  0.00    -0.354 N 
ATOM     59  N   UNL A   1      41.299  29.411  32.273  1.00  0.00    -0.248 NA
ATOM     60  C   UNL A   1      42.256  27.697  31.013  1.00  0.00     0.031 C 
ATOM     61  C   UNL A   1      42.557  30.524  36.371  1.00  0.00     0.029 A 
ATOM     62  C   UNL A   1      42.192  30.156  35.087  1.00  0.00     0.049 A 
ATOM     63  H   UNL A   1      40.744  31.024  33.816  1.00  0.00     0.167 HD
ATOM     64  C   UNL A   1      42.285  28.788  33.026  1.00  0.00     0.074 A 
ATOM     65  C   UNL A   1      42.815  27.714  32.214  1.00  0.00     0.031 C 
ATOM     66  C   UNL A   1      42.712  29.083  34.278  1.00  0.00     0.037 A 
BRANCH  53  67
ATOM     67  C   UNL A   1      39.878  33.956  36.803  1.00  0.00     0.064 A 
ATOM     68  C   UNL A   1      40.578  35.172  36.836  1.00  0.00     0.173 A 
ATOM     69  C   UNL A   1      39.029  33.663  37.881  1.00  0.00     0.173 A 
ATOM     70  F   UNL A   1      41.405  35.504  35.832  1.00  0.00    -0.203 F 
ATOM     71  C   UNL A   1      40.457  36.042  37.918  1.00  0.00     0.198 A 
ATOM     72  C   UNL A   1      38.883  34.551  38.945  1.00  0.00     0.198 A 
ATOM     73  F   UNL A   1      38.323  32.523  37.895  1.00  0.00    -0.203 F 
ATOM     74  F   UNL A   1      41.173  37.175  37.947  1.00  0.00    -0.200 F 
ATOM     75  C   UNL A   1      39.605  35.735  38.967  1.00  0.00     0.200 A 
ATOM     76  F   UNL A   1      38.043  34.261  39.948  1.00  0.00    -0.200 F 
ATOM     77  F   UNL A   1      39.481  36.578  40.001  1.00  0.00    -0.200 F 
ENDBRANCH  53  67
BRANCH  54  78
ATOM     78  C   UNL A   1      40.476  28.136  28.735  1.00  0.00     0.064 A 
ATOM     79  C   UNL A   1      41.241  28.533  27.628  1.00  0.00     0.173 A 
ATOM     80  C   UNL A   1      39.799  26.910  28.651  1.00  0.00     0.173 A 
ATOM     81  F   UNL A   1      41.890  29.707  27.651  1.00  0.00    -0.203 F 
ATOM     82  C   UNL A   1      41.304  27.751  26.477  1.00  0.00     0.198 A 
ATOM     83  C   UNL A   1      39.892  26.112  27.511  1.00  0.00     0.198 A 
ATOM     84  F   UNL A   1      39.057  26.479  29.681  1.00  0.00    -0.203 F 
ATOM     85  F   UNL A   1      41.996  28.182  25.414  1.00  0.00    -0.200 F 
ATOM     86  C   UNL A   1      40.633  26.539  26.422  1.00  0.00     0.200 A 
ATOM     87  F   UNL A   1      39.257  24.932  27.470  1.00  0.00    -0.200 F 
ATOM     88  F   UNL A   1      40.696  25.785  25.315  1.00  0.00    -0.200 F 
ENDBRANCH  54  78
BRANCH  66  89
ATOM     89  C   UNL A   1      43.780  28.205  34.872  1.00  0.00     0.064 A 
ATOM     90  C   UNL A   1      45.143  28.519  34.761  1.00  0.00     0.173 A 
ATOM     91  C   UNL A   1      43.432  27.050  35.590  1.00  0.00     0.173 A 
ATOM     92  F   UNL A   1      45.534  29.603  34.073  1.00  0.00    -0.203 F 
ATOM     93  C   UNL A   1      46.117  27.696  35.322  1.00  0.00     0.198 A 
ATOM     94  C   UNL A   1      44.406  26.248  36.178  1.00  0.00     0.198 A 
ATOM     95  F   UNL A   1      42.143  26.704  35.730  1.00  0.00    -0.203 F 
ATOM     96  F   UNL A   1      47.415  27.988  35.157  1.00  0.00    -0.200 F 
ATOM     97  C   UNL A   1      45.748  26.567  36.037  1.00  0.00     0.200 A 
ATOM     98  F   UNL A   1      44.045  25.167  36.883  1.00  0.00    -0.200 F 
ATOM     99  F   UNL A   1      46.686  25.780  36.584  1.00  0.00    -0.200 F 
ENDBRANCH  66  89
ENDBRANCH  40  41
ENDBRANCH  32  35
ENDBRANCH  30  31
ENDBRANCH  29  30
ENDBRANCH  28  29
ENDBRANCH   1  28
TORSDOF 15
ENDMDL
MODEL 3
REMARK VINA RESULT:     -12.1      1.600      7.334
REMARK SMILES O=C(CCN1C(=O)/C(=C\c2ccc(-c3cccc(Cl)c3)o2)SC1=S)NCCCCNC(=O)c1ccc(-c2c3nc(c(-c4c(F)c(F)c(F)c(F)c4F)c4ccc([nH]4)c(-c4c(F)c(F)c(F)c(F)c4F)c4nc(c(-c5c(F)c(F)c(F)c(F)c5F)c5ccc2[nH]5)C=C4)C=C3)cc1
REMARK SMILES IDX 26 1 25 2 1 3 2 4 3 6 4 7 5 8 6 9 23 10 7 11 8 12 22 13
REMARK SMILES IDX 24 14 9 15 10 16 11 17 21 18 12 19 13 20 14 21 15 22 20 23
REMARK SMILES IDX 16 24 18 25 17 26 19 27 27 28 28 29 29 30 30 31 31 32 32 34
REMARK SMILES IDX 33 35 34 36 95 37 35 38 94 39 36 40 37 41 38 42 88 43 39 44
REMARK SMILES IDX 93 45 87 46 89 47 40 48 92 49 86 50 85 51 41 53 73 54 53 55
REMARK SMILES IDX 72 56 54 57 57 58 71 59 90 60 55 61 56 62 70 64 91 65 58 66
REMARK SMILES IDX 42 67 43 68 51 69 44 70 45 71 49 72 52 73 46 74 47 75 50 76
REMARK SMILES IDX 48 77 74 78 75 79 83 80 76 81 77 82 81 83 84 84 78 85 79 86
REMARK SMILES IDX 82 87 80 88 59 89 60 90 68 91 61 92 62 93 66 94 69 95 63 96
REMARK SMILES IDX 64 97 67 98 65 99
REMARK H PARENT 25 5 30 33 89 52 57 63
REMARK Flexibility Score: inf
ROOT
ATOM      1  C   UNL A   1      34.919  31.561  28.060  1.00  0.00     0.116 C 
ENDROOT
BRANCH   1   2
ATOM      2  N   UNL A   1      33.731  31.125  27.346  1.00  0.00    -0.356 N 
ATOM      3  O   UNL A   1      34.213  28.897  27.673  1.00  0.00    -0.275 OA
ATOM      4  C   UNL A   1      33.489  29.764  27.193  1.00  0.00     0.221 C 
ATOM      5  H   UNL A   1      33.105  31.787  26.973  1.00  0.00     0.163 HD
BRANCH   4   6
ATOM      6  C   UNL A   1      32.274  29.407  26.358  1.00  0.00     0.122 C 
BRANCH   6   7
ATOM      7  C   UNL A   1      32.499  29.584  24.852  1.00  0.00     0.137 C 
BRANCH   7   8
ATOM      8  N   UNL A   1      31.973  28.476  24.038  1.00  0.00    -0.292 N 
ATOM      9  C   UNL A   1      32.743  27.338  23.915  1.00  0.00     0.266 C 
ATOM     10  C   UNL A   1      30.822  28.502  23.282  1.00  0.00     0.148 C 
ATOM     11  O   UNL A   1      33.903  27.228  24.288  1.00  0.00    -0.268 OA
ATOM     12  C   UNL A   1      31.995  26.262  23.204  1.00  0.00     0.084 C 
ATOM     13  S   UNL A   1      30.661  26.983  22.384  1.00  0.00    -0.054 SA
ATOM     14  S   UNL A   1      29.690  29.722  23.185  1.00  0.00    -0.052 S 
ATOM     15  C   UNL A   1      32.211  24.936  23.295  1.00  0.00     0.068 C 
BRANCH  15  16
ATOM     16  C   UNL A   1      32.976  24.378  24.369  1.00  0.00     0.128 A 
ATOM     17  C   UNL A   1      32.493  24.102  25.640  1.00  0.00     0.051 A 
ATOM     18  O   UNL A   1      34.277  23.887  24.322  1.00  0.00    -0.457 OA
ATOM     19  C   UNL A   1      33.478  23.474  26.390  1.00  0.00     0.051 A 
ATOM     20  C   UNL A   1      34.556  23.368  25.558  1.00  0.00     0.134 A 
BRANCH  20  21
ATOM     21  C   UNL A   1      35.878  22.898  25.913  1.00  0.00     0.019 A 
ATOM     22  C   UNL A   1      36.879  23.838  26.207  1.00  0.00     0.012 A 
ATOM     23  C   UNL A   1      36.241  21.594  25.570  1.00  0.00     0.032 A 
ATOM     24  C   UNL A   1      38.228  23.496  26.112  1.00  0.00     0.002 A 
ATOM     25  C   UNL A   1      37.590  21.261  25.464  1.00  0.00     0.041 A 
ATOM     26  C   UNL A   1      38.583  22.208  25.722  1.00  0.00     0.020 A 
ATOM     27  Cl  UNL A   1      38.035  19.693  24.913  1.00  0.00    -0.084 Cl
ENDBRANCH  20  21
ENDBRANCH  15  16
ENDBRANCH   7   8
ENDBRANCH   6   7
ENDBRANCH   4   6
ENDBRANCH   1   2
BRANCH   1  28
ATOM     28  C   UNL A   1      34.861  32.855  28.907  1.00  0.00     0.023 C 
BRANCH  28  29
ATOM     29  C   UNL A   1      33.873  34.004  28.624  1.00  0.00     0.023 C 
BRANCH  29  30
ATOM     30  C   UNL A   1      33.818  35.296  29.467  1.00  0.00     0.116 C 
BRANCH  30  31
ATOM     31  N   UNL A   1      32.729  35.459  30.413  1.00  0.00    -0.352 N 
ATOM     32  C   UNL A   1      32.752  35.258  31.784  1.00  0.00     0.251 C 
ATOM     33  H   UNL A   1      31.868  35.747  30.035  1.00  0.00     0.163 HD
ATOM     34  O   UNL A   1      31.739  35.434  32.454  1.00  0.00    -0.269 OA
BRANCH  32  35
ATOM     35  C   UNL A   1      33.978  34.748  32.452  1.00  0.00     0.039 A 
ATOM     36  C   UNL A   1      33.940  33.488  33.050  1.00  0.00     0.014 A 
ATOM     37  C   UNL A   1      35.161  35.487  32.482  1.00  0.00     0.014 A 
ATOM     38  C   UNL A   1      35.114  32.920  33.562  1.00  0.00     0.010 A 
ATOM     39  C   UNL A   1      36.347  34.903  32.947  1.00  0.00     0.010 A 
ATOM     40  C   UNL A   1      36.345  33.593  33.452  1.00  0.00    -0.014 A 
BRANCH  40  41
ATOM     41  C   UNL A   1      37.622  32.879  33.752  1.00  0.00     0.031 A 
ATOM     42  C   UNL A   1      38.426  33.165  34.991  1.00  0.00     0.074 A 
ATOM     43  C   UNL A   1      38.088  31.979  32.860  1.00  0.00     0.049 A 
ATOM     44  N   UNL A   1      39.548  32.615  35.393  1.00  0.00    -0.248 NA
ATOM     45  C   UNL A   1      37.920  34.212  35.886  1.00  0.00     0.031 C 
ATOM     46  C   UNL A   1      37.442  31.644  31.588  1.00  0.00     0.029 A 
ATOM     47  N   UNL A   1      39.206  31.178  32.878  1.00  0.00    -0.354 N 
ATOM     48  C   UNL A   1      39.878  33.246  36.586  1.00  0.00     0.074 A 
ATOM     49  C   UNL A   1      38.867  34.258  36.814  1.00  0.00     0.031 C 
ATOM     50  C   UNL A   1      38.148  30.685  30.972  1.00  0.00     0.029 A 
ATOM     51  C   UNL A   1      39.322  30.364  31.776  1.00  0.00     0.049 A 
ATOM     52  H   UNL A   1      39.862  31.188  33.613  1.00  0.00     0.167 HD
ATOM     53  C   UNL A   1      40.916  32.992  37.423  1.00  0.00     0.037 A 
ATOM     54  C   UNL A   1      40.267  29.462  31.442  1.00  0.00     0.037 A 
ATOM     55  C   UNL A   1      41.923  31.982  37.199  1.00  0.00     0.049 A 
ATOM     56  C   UNL A   1      41.420  29.219  32.379  1.00  0.00     0.074 A 
ATOM     57  C   UNL A   1      42.977  31.618  38.020  1.00  0.00     0.029 A 
ATOM     58  N   UNL A   1      42.009  31.184  36.067  1.00  0.00    -0.354 N 
ATOM     59  N   UNL A   1      41.669  29.762  33.544  1.00  0.00    -0.248 NA
ATOM     60  C   UNL A   1      42.420  28.228  31.955  1.00  0.00     0.031 C 
ATOM     61  C   UNL A   1      43.736  30.647  37.360  1.00  0.00     0.029 A 
ATOM     62  C   UNL A   1      43.118  30.353  36.157  1.00  0.00     0.049 A 
ATOM     63  H   UNL A   1      41.378  31.204  35.313  1.00  0.00     0.167 HD
ATOM     64  C   UNL A   1      42.831  29.159  34.007  1.00  0.00     0.074 A 
ATOM     65  C   UNL A   1      43.229  28.194  33.005  1.00  0.00     0.031 C 
ATOM     66  C   UNL A   1      43.507  29.388  35.159  1.00  0.00     0.037 A 
BRANCH  53  67
ATOM     67  C   UNL A   1      41.027  33.823  38.672  1.00  0.00     0.064 A 
ATOM     68  C   UNL A   1      40.355  33.472  39.852  1.00  0.00     0.173 A 
ATOM     69  C   UNL A   1      41.863  34.950  38.709  1.00  0.00     0.173 A 
ATOM     70  F   UNL A   1      39.542  32.403  39.874  1.00  0.00    -0.203 F 
ATOM     71  C   UNL A   1      40.488  34.234  41.011  1.00  0.00     0.198 A 
ATOM     72  C   UNL A   1      42.022  35.691  39.879  1.00  0.00     0.198 A 
ATOM     73  F   UNL A   1      42.543  35.325  37.615  1.00  0.00    -0.203 F 
ATOM     74  F   UNL A   1      39.797  33.903  42.111  1.00  0.00    -0.200 F 
ATOM     75  C   UNL A   1      41.327  35.338  41.025  1.00  0.00     0.200 A 
ATOM     76  F   UNL A   1      42.849  36.745  39.896  1.00  0.00    -0.200 F 
ATOM     77  F   UNL A   1      41.463  36.064  42.143  1.00  0.00    -0.200 F 
ENDBRANCH  53  67
BRANCH  54  78
ATOM     78  C   UNL A   1      40.158  28.705  30.165  1.00  0.00     0.064 A 
ATOM     79  C   UNL A   1      39.492  27.472  30.108  1.00  0.00     0.173 A 
ATOM     80  C   UNL A   1      40.739  29.184  28.981  1.00  0.00     0.173 A 
ATOM     81  F   UNL A   1      38.938  26.960  31.218  1.00  0.00    -0.203 F 
ATOM     82  C   UNL A   1      39.434  26.737  28.927  1.00  0.00     0.198 A 
ATOM     83  C   UNL A   1      40.650  28.464  27.791  1.00  0.00     0.198 A 
ATOM     84  F   UNL A   1      41.384  30.360  28.976  1.00  0.00    -0.203 F 
ATOM     85  F   UNL A   1      38.841  25.535  28.916  1.00  0.00    -0.200 F 
ATOM     86  C   UNL A   1      40.009  27.236  27.768  1.00  0.00     0.200 A 
ATOM     87  F   UNL A   1      41.191  28.959  26.669  1.00  0.00    -0.200 F 
ATOM     88  F   UNL A   1      39.951  26.529  26.630  1.00  0.00    -0.200 F 
ENDBRANCH  54  78
BRANCH  66  89
ATOM     89  C   UNL A   1      44.728  28.550  35.426  1.00  0.00     0.064 A 
ATOM     90  C   UNL A   1      44.651  27.321  36.097  1.00  0.00     0.173 A 
ATOM     91  C   UNL A   1      45.989  28.970  34.973  1.00  0.00     0.173 A 
ATOM     92  F   UNL A   1      43.473  26.879  36.565  1.00  0.00    -0.203 F 
ATOM     93  C   UNL A   1      45.793  26.558  36.331  1.00  0.00     0.198 A 
ATOM     94  C   UNL A   1      47.123  28.188  35.178  1.00  0.00     0.198 A 
ATOM     95  F   UNL A   1      46.120  30.135  34.322  1.00  0.00    -0.203 F 
ATOM     96  F   UNL A   1      45.702  25.413  37.022  1.00  0.00    -0.200 F 
ATOM     97  C   UNL A   1      47.025  26.987  35.863  1.00  0.00     0.200 A 
ATOM     98  F   UNL A   1      48.310  28.599  34.710  1.00  0.00    -0.200 F 
ATOM     99  F   UNL A   1      48.122  26.248  36.080  1.00  0.00    -0.200 F 
ENDBRANCH  66  89
ENDBRANCH  40  41
ENDBRANCH  32  35
ENDBRANCH  30  31
ENDBRANCH  29  30
ENDBRANCH  28  29
ENDBRANCH   1  28
TORSDOF 15
ENDMDL
