MODEL 1
REMARK VINA RESULT:     -13.9      0.000      0.000
REMARK SMILES C[N@@H+]1CC[C@H]2CN(C(=O)c3csc(-c4ccncc4)n3)C[C@@]2(C(=O)NCCCCNC(=O)c2ccc(-c3c4nc(c(-c5c(F)c(F)c(F)c(F)c5F)c5ccc([nH]5)c(-c5c(F)c(F)c(F)c(F)c5F)c5nc(c(-c6c(F)c(F)c(F)c(F)c6F)c6ccc3[nH]6)C=C5)C=C4)cc2)C1
REMARK SMILES IDX 27 1 26 2 25 3 23 4 24 5 22 7 1 8 2 9 3 10 96 11 4 13 5 14
REMARK SMILES IDX 21 15 6 16 7 17 8 18 9 19 10 20 11 21 20 22 12 23 13 24
REMARK SMILES IDX 14 25 15 26 19 27 16 28 18 29 17 30 28 31 29 32 30 33 31 34
REMARK SMILES IDX 32 36 33 37 34 38 95 39 35 40 94 41 36 42 37 43 38 44 88 45
REMARK SMILES IDX 39 46 93 47 87 48 89 49 40 50 92 51 86 52 85 53 41 55 73 56
REMARK SMILES IDX 53 57 72 58 54 59 57 60 71 61 90 62 55 63 56 64 70 66 91 67
REMARK SMILES IDX 58 68 42 69 43 70 51 71 44 72 45 73 49 74 52 75 46 76 47 77
REMARK SMILES IDX 50 78 48 79 74 80 75 81 83 82 76 83 77 84 81 85 84 86 78 87
REMARK SMILES IDX 79 88 82 89 80 90 59 91 60 92 68 93 61 94 62 95 66 96 69 97
REMARK SMILES IDX 63 98 64 99 67 100 65 101
REMARK H PARENT 25 6 2 12 30 35 89 54 57 65
REMARK Flexibility Score: inf
ROOT
ATOM      1  C   UNL A   1      31.993  30.052  27.003  1.00  0.00     0.023 C 
ENDROOT
BRANCH   1   2
ATOM      2  C   UNL A   1      31.735  29.171  25.775  1.00  0.00     0.116 C 
BRANCH   2   3
ATOM      3  N   UNL A   1      32.807  28.264  25.323  1.00  0.00    -0.355 N 
ATOM      4  C   UNL A   1      32.900  27.232  24.402  1.00  0.00     0.234 C 
ATOM      5  O   UNL A   1      34.031  26.984  23.972  1.00  0.00    -0.274 OA
ATOM      6  H   UNL A   1      33.659  28.430  25.786  1.00  0.00     0.163 HD
BRANCH   4   7
ATOM      7  C   UNL A   1      31.703  26.314  24.069  1.00  0.00     0.120 C 
ATOM      8  C   UNL A   1      30.934  29.123  22.085  1.00  0.00     0.332 C 
ATOM      9  N   UNL A   1      30.364  27.808  22.377  1.00  0.00    -0.336 N 
ATOM     10  C   UNL A   1      29.314  27.960  23.382  1.00  0.00     0.262 C 
ATOM     11  C   UNL A   1      31.345  26.711  22.601  1.00  0.00     0.281 C 
ATOM     12  H   UNL A   1      29.925  27.453  21.528  1.00  0.00     0.347 HD
ATOM     13  C   UNL A   1      29.124  26.696  24.173  1.00  0.00     0.068 C 
ATOM     14  C   UNL A   1      30.402  26.389  24.957  1.00  0.00     0.037 C 
ATOM     15  C   UNL A   1      32.189  24.884  24.374  1.00  0.00     0.143 C 
ATOM     16  C   UNL A   1      30.184  25.015  25.595  1.00  0.00     0.125 C 
ATOM     17  N   UNL A   1      31.464  24.405  25.531  1.00  0.00    -0.336 N 
BRANCH  17  18
ATOM     18  C   UNL A   1      31.860  23.463  26.468  1.00  0.00     0.273 C 
ATOM     19  O   UNL A   1      31.444  23.490  27.626  1.00  0.00    -0.267 OA
BRANCH  18  20
ATOM     20  C   UNL A   1      32.840  22.451  26.045  1.00  0.00     0.139 A 
ATOM     21  C   UNL A   1      34.205  22.664  26.042  1.00  0.00     0.101 A 
ATOM     22  N   UNL A   1      32.451  21.223  25.489  1.00  0.00    -0.231 NA
ATOM     23  S   UNL A   1      35.020  21.316  25.370  1.00  0.00    -0.122 S 
ATOM     24  C   UNL A   1      33.505  20.565  25.048  1.00  0.00     0.124 A 
BRANCH  24  25
ATOM     25  C   UNL A   1      33.464  19.319  24.278  1.00  0.00     0.013 A 
ATOM     26  C   UNL A   1      32.523  19.163  23.256  1.00  0.00     0.031 A 
ATOM     27  C   UNL A   1      34.357  18.275  24.531  1.00  0.00     0.031 A 
ATOM     28  C   UNL A   1      32.528  17.986  22.525  1.00  0.00     0.111 A 
ATOM     29  C   UNL A   1      34.277  17.133  23.750  1.00  0.00     0.111 A 
ATOM     30  N   UNL A   1      33.384  16.968  22.752  1.00  0.00    -0.265 NA
ENDBRANCH  24  25
ENDBRANCH  18  20
ENDBRANCH  17  18
ENDBRANCH   4   7
ENDBRANCH   2   3
ENDBRANCH   1   2
BRANCH   1  31
ATOM     31  C   UNL A   1      31.681  31.542  26.827  1.00  0.00     0.023 C 
BRANCH  31  32
ATOM     32  C   UNL A   1      32.838  32.502  27.089  1.00  0.00     0.116 C 
BRANCH  32  33
ATOM     33  N   UNL A   1      32.433  33.827  27.533  1.00  0.00    -0.352 N 
ATOM     34  C   UNL A   1      33.022  34.634  28.477  1.00  0.00     0.251 C 
ATOM     35  H   UNL A   1      31.629  34.195  27.100  1.00  0.00     0.163 HD
ATOM     36  O   UNL A   1      32.528  35.725  28.751  1.00  0.00    -0.269 OA
BRANCH  34  37
ATOM     37  C   UNL A   1      34.221  34.161  29.202  1.00  0.00     0.039 A 
ATOM     38  C   UNL A   1      34.043  33.330  30.310  1.00  0.00     0.014 A 
ATOM     39  C   UNL A   1      35.508  34.493  28.772  1.00  0.00     0.014 A 
ATOM     40  C   UNL A   1      35.156  32.774  30.940  1.00  0.00     0.010 A 
ATOM     41  C   UNL A   1      36.613  33.871  29.348  1.00  0.00     0.010 A 
ATOM     42  C   UNL A   1      36.449  33.004  30.436  1.00  0.00    -0.014 A 
BRANCH  42  43
ATOM     43  C   UNL A   1      37.621  32.315  31.034  1.00  0.00     0.031 A 
ATOM     44  C   UNL A   1      38.094  32.664  32.416  1.00  0.00     0.074 A 
ATOM     45  C   UNL A   1      38.276  31.388  30.308  1.00  0.00     0.049 A 
ATOM     46  N   UNL A   1      39.064  32.130  33.116  1.00  0.00    -0.248 NA
ATOM     47  C   UNL A   1      37.408  33.774  33.095  1.00  0.00     0.031 C 
ATOM     48  C   UNL A   1      37.958  31.020  28.927  1.00  0.00     0.029 A 
ATOM     49  N   UNL A   1      39.337  30.581  30.631  1.00  0.00    -0.354 N 
ATOM     50  C   UNL A   1      39.102  32.837  34.311  1.00  0.00     0.074 A 
ATOM     51  C   UNL A   1      38.105  33.880  34.217  1.00  0.00     0.031 C 
ATOM     52  C   UNL A   1      38.774  30.028  28.538  1.00  0.00     0.029 A 
ATOM     53  C   UNL A   1      39.691  29.711  29.628  1.00  0.00     0.049 A 
ATOM     54  H   UNL A   1      39.799  30.620  31.499  1.00  0.00     0.167 HD
ATOM     55  C   UNL A   1      39.878  32.615  35.400  1.00  0.00     0.037 A 
ATOM     56  C   UNL A   1      40.641  28.759  29.596  1.00  0.00     0.037 A 
ATOM     57  C   UNL A   1      40.863  31.569  35.490  1.00  0.00     0.049 A 
ATOM     58  C   UNL A   1      41.478  28.524  30.825  1.00  0.00     0.074 A 
ATOM     59  C   UNL A   1      41.662  31.224  36.567  1.00  0.00     0.029 A 
ATOM     60  N   UNL A   1      41.189  30.700  34.458  1.00  0.00    -0.354 N 
ATOM     61  N   UNL A   1      41.441  29.137  31.983  1.00  0.00    -0.248 NA
ATOM     62  C   UNL A   1      42.478  27.451  30.744  1.00  0.00     0.031 C 
ATOM     63  C   UNL A   1      42.509  30.183  36.170  1.00  0.00     0.029 A 
ATOM     64  C   UNL A   1      42.195  29.837  34.865  1.00  0.00     0.049 A 
ATOM     65  H   UNL A   1      40.769  30.698  33.568  1.00  0.00     0.167 HD
ATOM     66  C   UNL A   1      42.393  28.511  32.776  1.00  0.00     0.074 A 
ATOM     67  C   UNL A   1      42.968  27.450  31.975  1.00  0.00     0.031 C 
ATOM     68  C   UNL A   1      42.764  28.792  34.050  1.00  0.00     0.037 A 
BRANCH  55  69
ATOM     69  C   UNL A   1      39.687  33.521  36.584  1.00  0.00     0.064 A 
ATOM     70  C   UNL A   1      40.339  34.762  36.674  1.00  0.00     0.173 A 
ATOM     71  C   UNL A   1      38.817  33.164  37.625  1.00  0.00     0.173 A 
ATOM     72  F   UNL A   1      41.191  35.148  35.714  1.00  0.00    -0.203 F 
ATOM     73  C   UNL A   1      40.150  35.595  37.774  1.00  0.00     0.198 A 
ATOM     74  C   UNL A   1      38.604  34.013  38.708  1.00  0.00     0.198 A 
ATOM     75  F   UNL A   1      38.164  31.992  37.589  1.00  0.00    -0.203 F 
ATOM     76  F   UNL A   1      40.824  36.749  37.862  1.00  0.00    -0.200 F 
ATOM     77  C   UNL A   1      39.277  35.224  38.786  1.00  0.00     0.200 A 
ATOM     78  F   UNL A   1      37.750  33.660  39.677  1.00  0.00    -0.200 F 
ATOM     79  F   UNL A   1      39.089  36.030  39.839  1.00  0.00    -0.200 F 
ENDBRANCH  55  69
BRANCH  56  80
ATOM     80  C   UNL A   1      40.824  27.928  28.377  1.00  0.00     0.064 A 
ATOM     81  C   UNL A   1      40.179  26.689  28.243  1.00  0.00     0.173 A 
ATOM     82  C   UNL A   1      41.651  28.349  27.325  1.00  0.00     0.173 A 
ATOM     83  F   UNL A   1      39.392  26.234  29.228  1.00  0.00    -0.203 F 
ATOM     84  C   UNL A   1      40.377  25.892  27.117  1.00  0.00     0.198 A 
ATOM     85  C   UNL A   1      41.821  27.566  26.185  1.00  0.00     0.198 A 
ATOM     86  F   UNL A   1      42.283  29.529  27.398  1.00  0.00    -0.203 F 
ATOM     87  F   UNL A   1      39.790  24.690  27.040  1.00  0.00    -0.200 F 
ATOM     88  C   UNL A   1      41.192  26.333  26.087  1.00  0.00     0.200 A 
ATOM     89  F   UNL A   1      42.596  28.004  25.184  1.00  0.00    -0.200 F 
ATOM     90  F   UNL A   1      41.378  25.569  25.002  1.00  0.00    -0.200 F 
ENDBRANCH  56  80
BRANCH  68  91
ATOM     91  C   UNL A   1      43.825  27.917  34.657  1.00  0.00     0.064 A 
ATOM     92  C   UNL A   1      45.184  28.266  34.610  1.00  0.00     0.173 A 
ATOM     93  C   UNL A   1      43.480  26.711  35.286  1.00  0.00     0.173 A 
ATOM     94  F   UNL A   1      45.570  29.401  34.010  1.00  0.00    -0.203 F 
ATOM     95  C   UNL A   1      46.160  27.416  35.125  1.00  0.00     0.198 A 
ATOM     96  C   UNL A   1      44.455  25.883  35.833  1.00  0.00     0.198 A 
ATOM     97  F   UNL A   1      42.195  26.334  35.367  1.00  0.00    -0.203 F 
ATOM     98  F   UNL A   1      47.456  27.735  35.000  1.00  0.00    -0.200 F 
ATOM     99  C   UNL A   1      45.794  26.228  35.739  1.00  0.00     0.200 A 
ATOM    100  F   UNL A   1      44.099  24.742  36.440  1.00  0.00    -0.200 F 
ATOM    101  F   UNL A   1      46.735  25.408  36.228  1.00  0.00    -0.200 F 
ENDBRANCH  68  91
ENDBRANCH  42  43
ENDBRANCH  34  37
ENDBRANCH  32  33
ENDBRANCH  31  32
ENDBRANCH   1  31
TORSDOF 14
ENDMDL
MODEL 2
REMARK VINA RESULT:     -13.9      2.248      5.040
REMARK SMILES C[N@@H+]1CC[C@H]2CN(C(=O)c3csc(-c4ccncc4)n3)C[C@@]2(C(=O)NCCCCNC(=O)c2ccc(-c3c4nc(c(-c5c(F)c(F)c(F)c(F)c5F)c5ccc([nH]5)c(-c5c(F)c(F)c(F)c(F)c5F)c5nc(c(-c6c(F)c(F)c(F)c(F)c6F)c6ccc3[nH]6)C=C5)C=C4)cc2)C1
REMARK SMILES IDX 27 1 26 2 25 3 23 4 24 5 22 7 1 8 2 9 3 10 96 11 4 13 5 14
REMARK SMILES IDX 21 15 6 16 7 17 8 18 9 19 10 20 11 21 20 22 12 23 13 24
REMARK SMILES IDX 14 25 15 26 19 27 16 28 18 29 17 30 28 31 29 32 30 33 31 34
REMARK SMILES IDX 32 36 33 37 34 38 95 39 35 40 94 41 36 42 37 43 38 44 88 45
REMARK SMILES IDX 39 46 93 47 87 48 89 49 40 50 92 51 86 52 85 53 41 55 73 56
REMARK SMILES IDX 53 57 72 58 54 59 57 60 71 61 90 62 55 63 56 64 70 66 91 67
REMARK SMILES IDX 58 68 42 69 43 70 51 71 44 72 45 73 49 74 52 75 46 76 47 77
REMARK SMILES IDX 50 78 48 79 74 80 75 81 83 82 76 83 77 84 81 85 84 86 78 87
REMARK SMILES IDX 79 88 82 89 80 90 59 91 60 92 68 93 61 94 62 95 66 96 69 97
REMARK SMILES IDX 63 98 64 99 67 100 65 101
REMARK H PARENT 25 6 2 12 30 35 89 54 57 65
REMARK Flexibility Score: inf
ROOT
ATOM      1  C   UNL A   1      32.093  28.034  27.287  1.00  0.00     0.023 C 
ENDROOT
BRANCH   1   2
ATOM      2  C   UNL A   1      31.673  27.109  26.139  1.00  0.00     0.116 C 
BRANCH   2   3
ATOM      3  N   UNL A   1      31.030  25.824  26.472  1.00  0.00    -0.355 N 
ATOM      4  C   UNL A   1      31.384  24.488  26.362  1.00  0.00     0.234 C 
ATOM      5  O   UNL A   1      30.805  23.705  27.121  1.00  0.00    -0.274 OA
ATOM      6  H   UNL A   1      30.136  25.943  26.865  1.00  0.00     0.163 HD
BRANCH   4   7
ATOM      7  C   UNL A   1      32.303  23.969  25.233  1.00  0.00     0.120 C 
ATOM      8  C   UNL A   1      33.683  22.296  28.011  1.00  0.00     0.332 C 
ATOM      9  N   UNL A   1      33.916  22.389  26.570  1.00  0.00    -0.336 N 
ATOM     10  C   UNL A   1      35.003  23.335  26.326  1.00  0.00     0.262 C 
ATOM     11  C   UNL A   1      32.701  22.540  25.725  1.00  0.00     0.281 C 
ATOM     12  H   UNL A   1      34.225  21.476  26.236  1.00  0.00     0.347 HD
ATOM     13  C   UNL A   1      34.897  23.952  24.959  1.00  0.00     0.068 C 
ATOM     14  C   UNL A   1      33.610  24.774  24.870  1.00  0.00     0.037 C 
ATOM     15  C   UNL A   1      31.485  24.128  23.936  1.00  0.00     0.143 C 
ATOM     16  C   UNL A   1      33.499  25.225  23.412  1.00  0.00     0.125 C 
ATOM     17  N   UNL A   1      32.105  25.169  23.145  1.00  0.00    -0.336 N 
BRANCH  17  18
ATOM     18  C   UNL A   1      31.517  26.008  22.211  1.00  0.00     0.273 C 
ATOM     19  O   UNL A   1      31.890  26.030  21.039  1.00  0.00    -0.267 OA
BRANCH  18  20
ATOM     20  C   UNL A   1      30.458  26.914  22.679  1.00  0.00     0.139 A 
ATOM     21  C   UNL A   1      29.329  26.486  23.352  1.00  0.00     0.101 A 
ATOM     22  N   UNL A   1      30.453  28.282  22.366  1.00  0.00    -0.231 NA
ATOM     23  S   UNL A   1      28.262  27.797  23.624  1.00  0.00    -0.122 S 
ATOM     24  C   UNL A   1      29.326  28.839  22.762  1.00  0.00     0.124 A 
BRANCH  24  25
ATOM     25  C   UNL A   1      28.913  30.214  22.469  1.00  0.00     0.013 A 
ATOM     26  C   UNL A   1      28.443  30.544  21.194  1.00  0.00     0.031 A 
ATOM     27  C   UNL A   1      28.965  31.215  23.443  1.00  0.00     0.031 A 
ATOM     28  C   UNL A   1      28.032  31.845  20.955  1.00  0.00     0.111 A 
ATOM     29  C   UNL A   1      28.539  32.489  23.104  1.00  0.00     0.111 A 
ATOM     30  N   UNL A   1      28.071  32.824  21.883  1.00  0.00    -0.265 NA
ENDBRANCH  24  25
ENDBRANCH  18  20
ENDBRANCH  17  18
ENDBRANCH   4   7
ENDBRANCH   2   3
ENDBRANCH   1   2
BRANCH   1  31
ATOM     31  C   UNL A   1      31.700  29.507  27.129  1.00  0.00     0.023 C 
BRANCH  31  32
ATOM     32  C   UNL A   1      32.749  30.412  26.488  1.00  0.00     0.116 C 
BRANCH  32  33
ATOM     33  N   UNL A   1      32.646  31.815  26.866  1.00  0.00    -0.352 N 
ATOM     34  C   UNL A   1      33.539  32.580  27.576  1.00  0.00     0.251 C 
ATOM     35  H   UNL A   1      31.827  32.276  26.574  1.00  0.00     0.163 HD
ATOM     36  O   UNL A   1      33.279  33.753  27.831  1.00  0.00    -0.269 OA
BRANCH  34  37
ATOM     37  C   UNL A   1      34.789  31.972  28.080  1.00  0.00     0.039 A 
ATOM     38  C   UNL A   1      35.936  32.768  28.145  1.00  0.00     0.014 A 
ATOM     39  C   UNL A   1      34.827  30.649  28.526  1.00  0.00     0.014 A 
ATOM     40  C   UNL A   1      37.096  32.258  28.726  1.00  0.00     0.010 A 
ATOM     41  C   UNL A   1      35.958  30.170  29.181  1.00  0.00     0.010 A 
ATOM     42  C   UNL A   1      37.103  30.969  29.290  1.00  0.00    -0.014 A 
BRANCH  42  43
ATOM     43  C   UNL A   1      38.301  30.474  30.014  1.00  0.00     0.031 A 
ATOM     44  C   UNL A   1      38.566  30.887  31.434  1.00  0.00     0.074 A 
ATOM     45  C   UNL A   1      39.169  29.668  29.371  1.00  0.00     0.049 A 
ATOM     46  N   UNL A   1      39.530  30.512  32.237  1.00  0.00    -0.248 NA
ATOM     47  C   UNL A   1      37.643  31.869  32.025  1.00  0.00     0.031 C 
ATOM     48  C   UNL A   1      39.061  29.260  27.969  1.00  0.00     0.029 A 
ATOM     49  N   UNL A   1      40.306  29.039  29.813  1.00  0.00    -0.354 N 
ATOM     50  C   UNL A   1      39.329  31.209  33.421  1.00  0.00     0.074 A 
ATOM     51  C   UNL A   1      38.193  32.079  33.212  1.00  0.00     0.031 C 
ATOM     52  C   UNL A   1      40.061  28.415  27.679  1.00  0.00     0.029 A 
ATOM     53  C   UNL A   1      40.898  28.244  28.862  1.00  0.00     0.049 A 
ATOM     54  H   UNL A   1      40.663  29.147  30.724  1.00  0.00     0.167 HD
ATOM     55  C   UNL A   1      40.011  31.108  34.588  1.00  0.00     0.037 A 
ATOM     56  C   UNL A   1      41.986  27.456  28.940  1.00  0.00     0.037 A 
ATOM     57  C   UNL A   1      41.136  30.233  34.793  1.00  0.00     0.049 A 
ATOM     58  C   UNL A   1      42.716  27.351  30.252  1.00  0.00     0.074 A 
ATOM     59  C   UNL A   1      41.864  30.015  35.951  1.00  0.00     0.029 A 
ATOM     60  N   UNL A   1      41.704  29.434  33.810  1.00  0.00    -0.354 N 
ATOM     61  N   UNL A   1      42.461  27.944  31.393  1.00  0.00    -0.248 NA
ATOM     62  C   UNL A   1      43.877  26.454  30.288  1.00  0.00     0.031 C 
ATOM     63  C   UNL A   1      42.903  29.126  35.656  1.00  0.00     0.029 A 
ATOM     64  C   UNL A   1      42.787  28.741  34.329  1.00  0.00     0.049 A 
ATOM     65  H   UNL A   1      41.385  29.369  32.881  1.00  0.00     0.167 HD
ATOM     66  C   UNL A   1      43.412  27.476  32.288  1.00  0.00     0.074 A 
ATOM     67  C   UNL A   1      44.230  26.525  31.563  1.00  0.00     0.031 C 
ATOM     68  C   UNL A   1      43.598  27.805  33.591  1.00  0.00     0.037 A 
BRANCH  55  69
ATOM     69  C   UNL A   1      39.555  31.966  35.735  1.00  0.00     0.064 A 
ATOM     70  C   UNL A   1      38.539  31.546  36.610  1.00  0.00     0.173 A 
ATOM     71  C   UNL A   1      40.162  33.206  35.986  1.00  0.00     0.173 A 
ATOM     72  F   UNL A   1      37.916  30.376  36.409  1.00  0.00    -0.203 F 
ATOM     73  C   UNL A   1      38.129  32.348  37.672  1.00  0.00     0.198 A 
ATOM     74  C   UNL A   1      39.772  33.990  37.069  1.00  0.00     0.198 A 
ATOM     75  F   UNL A   1      41.141  33.655  35.185  1.00  0.00    -0.203 F 
ATOM     76  F   UNL A   1      37.122  31.949  38.460  1.00  0.00    -0.200 F 
ATOM     77  C   UNL A   1      38.751  33.565  37.906  1.00  0.00     0.200 A 
ATOM     78  F   UNL A   1      40.383  35.159  37.302  1.00  0.00    -0.200 F 
ATOM     79  F   UNL A   1      38.362  34.332  38.933  1.00  0.00    -0.200 F 
ENDBRANCH  55  69
BRANCH  56  80
ATOM     80  C   UNL A   1      42.426  26.672  27.756  1.00  0.00     0.064 A 
ATOM     81  C   UNL A   1      41.892  25.402  27.491  1.00  0.00     0.173 A 
ATOM     82  C   UNL A   1      43.393  27.170  26.870  1.00  0.00     0.173 A 
ATOM     83  F   UNL A   1      40.978  24.874  28.318  1.00  0.00    -0.203 F 
ATOM     84  C   UNL A   1      42.329  24.649  26.403  1.00  0.00     0.198 A 
ATOM     85  C   UNL A   1      43.804  26.430  25.763  1.00  0.00     0.198 A 
ATOM     86  F   UNL A   1      43.929  28.382  27.072  1.00  0.00    -0.203 F 
ATOM     87  F   UNL A   1      41.840  23.417  26.204  1.00  0.00    -0.200 F 
ATOM     88  C   UNL A   1      43.279  25.166  25.536  1.00  0.00     0.200 A 
ATOM     89  F   UNL A   1      44.710  26.940  24.919  1.00  0.00    -0.200 F 
ATOM     90  F   UNL A   1      43.696  24.445  24.487  1.00  0.00    -0.200 F 
ENDBRANCH  56  80
BRANCH  68  91
ATOM     91  C   UNL A   1      44.716  27.109  34.314  1.00  0.00     0.064 A 
ATOM     92  C   UNL A   1      46.008  27.655  34.377  1.00  0.00     0.173 A 
ATOM     93  C   UNL A   1      44.495  25.876  34.947  1.00  0.00     0.173 A 
ATOM     94  F   UNL A   1      46.276  28.825  33.779  1.00  0.00    -0.203 F 
ATOM     95  C   UNL A   1      47.047  26.969  35.001  1.00  0.00     0.198 A 
ATOM     96  C   UNL A   1      45.527  25.211  35.603  1.00  0.00     0.198 A 
ATOM     97  F   UNL A   1      43.278  25.313  34.926  1.00  0.00    -0.203 F 
ATOM     98  F   UNL A   1      48.287  27.475  34.981  1.00  0.00    -0.200 F 
ATOM     99  C   UNL A   1      46.804  25.750  35.616  1.00  0.00     0.200 A 
ATOM    100  F   UNL A   1      45.288  24.040  36.211  1.00  0.00    -0.200 F 
ATOM    101  F   UNL A   1      47.806  25.088  36.211  1.00  0.00    -0.200 F 
ENDBRANCH  68  91
ENDBRANCH  42  43
ENDBRANCH  34  37
ENDBRANCH  32  33
ENDBRANCH  31  32
ENDBRANCH   1  31
TORSDOF 14
ENDMDL
MODEL 3
REMARK VINA RESULT:     -13.8      3.860      8.423
REMARK SMILES C[N@@H+]1CC[C@H]2CN(C(=O)c3csc(-c4ccncc4)n3)C[C@@]2(C(=O)NCCCCNC(=O)c2ccc(-c3c4nc(c(-c5c(F)c(F)c(F)c(F)c5F)c5ccc([nH]5)c(-c5c(F)c(F)c(F)c(F)c5F)c5nc(c(-c6c(F)c(F)c(F)c(F)c6F)c6ccc3[nH]6)C=C5)C=C4)cc2)C1
REMARK SMILES IDX 27 1 26 2 25 3 23 4 24 5 22 7 1 8 2 9 3 10 96 11 4 13 5 14
REMARK SMILES IDX 21 15 6 16 7 17 8 18 9 19 10 20 11 21 20 22 12 23 13 24
REMARK SMILES IDX 14 25 15 26 19 27 16 28 18 29 17 30 28 31 29 32 30 33 31 34
REMARK SMILES IDX 32 36 33 37 34 38 95 39 35 40 94 41 36 42 37 43 38 44 88 45
REMARK SMILES IDX 39 46 93 47 87 48 89 49 40 50 92 51 86 52 85 53 41 55 73 56
REMARK SMILES IDX 53 57 72 58 54 59 57 60 71 61 90 62 55 63 56 64 70 66 91 67
REMARK SMILES IDX 58 68 42 69 43 70 51 71 44 72 45 73 49 74 52 75 46 76 47 77
REMARK SMILES IDX 50 78 48 79 74 80 75 81 83 82 76 83 77 84 81 85 84 86 78 87
REMARK SMILES IDX 79 88 82 89 80 90 59 91 60 92 68 93 61 94 62 95 66 96 69 97
REMARK SMILES IDX 63 98 64 99 67 100 65 101
REMARK H PARENT 25 6 2 12 30 35 89 54 57 65
REMARK Flexibility Score: inf
ROOT
ATOM      1  C   UNL A   1      35.136  22.904  23.317  1.00  0.00     0.023 C 
ENDROOT
BRANCH   1   2
ATOM      2  C   UNL A   1      34.185  23.988  23.836  1.00  0.00     0.116 C 
BRANCH   2   3
ATOM      3  N   UNL A   1      33.108  24.462  22.946  1.00  0.00    -0.355 N 
ATOM      4  C   UNL A   1      32.237  25.541  22.943  1.00  0.00     0.234 C 
ATOM      5  O   UNL A   1      31.771  25.862  21.845  1.00  0.00    -0.274 OA
ATOM      6  H   UNL A   1      32.977  23.872  22.170  1.00  0.00     0.163 HD
BRANCH   4   7
ATOM      7  C   UNL A   1      31.722  26.188  24.247  1.00  0.00     0.120 C 
ATOM      8  C   UNL A   1      32.856  29.039  22.515  1.00  0.00     0.332 C 
ATOM      9  N   UNL A   1      32.229  28.723  23.798  1.00  0.00    -0.336 N 
ATOM     10  C   UNL A   1      33.262  28.673  24.831  1.00  0.00     0.262 C 
ATOM     11  C   UNL A   1      31.250  27.602  23.782  1.00  0.00     0.281 C 
ATOM     12  H   UNL A   1      31.592  29.483  24.039  1.00  0.00     0.347 HD
ATOM     13  C   UNL A   1      32.854  27.785  25.972  1.00  0.00     0.068 C 
ATOM     14  C   UNL A   1      32.705  26.347  25.470  1.00  0.00     0.037 C 
ATOM     15  C   UNL A   1      30.695  25.191  24.819  1.00  0.00     0.143 C 
ATOM     16  C   UNL A   1      32.133  25.549  26.644  1.00  0.00     0.125 C 
ATOM     17  N   UNL A   1      31.251  24.622  26.027  1.00  0.00    -0.336 N 
BRANCH  17  18
ATOM     18  C   UNL A   1      30.991  23.387  26.598  1.00  0.00     0.273 C 
ATOM     19  O   UNL A   1      30.007  23.200  27.312  1.00  0.00    -0.267 OA
BRANCH  18  20
ATOM     20  C   UNL A   1      31.963  22.308  26.363  1.00  0.00     0.139 A 
ATOM     21  C   UNL A   1      33.239  22.300  26.896  1.00  0.00     0.101 A 
ATOM     22  N   UNL A   1      31.710  21.258  25.468  1.00  0.00    -0.231 NA
ATOM     23  S   UNL A   1      34.125  20.960  26.306  1.00  0.00    -0.122 S 
ATOM     24  C   UNL A   1      32.790  20.516  25.314  1.00  0.00     0.124 A 
BRANCH  24  25
ATOM     25  C   UNL A   1      32.937  19.426  24.347  1.00  0.00     0.013 A 
ATOM     26  C   UNL A   1      33.837  18.386  24.601  1.00  0.00     0.031 A 
ATOM     27  C   UNL A   1      32.188  19.389  23.168  1.00  0.00     0.031 A 
ATOM     28  C   UNL A   1      33.933  17.354  23.683  1.00  0.00     0.111 A 
ATOM     29  C   UNL A   1      32.362  18.318  22.308  1.00  0.00     0.111 A 
ATOM     30  N   UNL A   1      33.216  17.299  22.541  1.00  0.00    -0.265 NA
ENDBRANCH  24  25
ENDBRANCH  18  20
ENDBRANCH  17  18
ENDBRANCH   4   7
ENDBRANCH   2   3
ENDBRANCH   1   2
BRANCH   1  31
ATOM     31  C   UNL A   1      36.632  23.201  23.479  1.00  0.00     0.023 C 
BRANCH  31  32
ATOM     32  C   UNL A   1      37.109  23.466  24.904  1.00  0.00     0.116 C 
BRANCH  32  33
ATOM     33  N   UNL A   1      38.088  22.509  25.399  1.00  0.00    -0.352 N 
ATOM     34  C   UNL A   1      39.140  22.724  26.256  1.00  0.00     0.251 C 
ATOM     35  H   UNL A   1      37.983  21.585  25.076  1.00  0.00     0.163 HD
ATOM     36  O   UNL A   1      39.892  21.798  26.553  1.00  0.00    -0.269 OA
BRANCH  34  37
ATOM     37  C   UNL A   1      39.397  24.083  26.778  1.00  0.00     0.039 A 
ATOM     38  C   UNL A   1      38.994  24.382  28.081  1.00  0.00     0.014 A 
ATOM     39  C   UNL A   1      40.067  25.041  26.013  1.00  0.00     0.014 A 
ATOM     40  C   UNL A   1      39.329  25.616  28.640  1.00  0.00     0.010 A 
ATOM     41  C   UNL A   1      40.475  26.236  26.600  1.00  0.00     0.010 A 
ATOM     42  C   UNL A   1      40.111  26.535  27.919  1.00  0.00    -0.014 A 
BRANCH  42  43
ATOM     43  C   UNL A   1      40.568  27.795  28.559  1.00  0.00     0.031 A 
ATOM     44  C   UNL A   1      42.012  27.990  28.925  1.00  0.00     0.074 A 
ATOM     45  C   UNL A   1      39.664  28.755  28.835  1.00  0.00     0.049 A 
ATOM     46  N   UNL A   1      42.598  29.043  29.439  1.00  0.00    -0.248 NA
ATOM     47  C   UNL A   1      42.914  26.849  28.709  1.00  0.00     0.031 C 
ATOM     48  C   UNL A   1      38.223  28.649  28.599  1.00  0.00     0.029 A 
ATOM     49  N   UNL A   1      39.822  30.010  29.367  1.00  0.00    -0.354 N 
ATOM     50  C   UNL A   1      43.931  28.690  29.607  1.00  0.00     0.074 A 
ATOM     51  C   UNL A   1      44.055  27.307  29.203  1.00  0.00     0.031 C 
ATOM     52  C   UNL A   1      37.635  29.807  28.939  1.00  0.00     0.029 A 
ATOM     53  C   UNL A   1      38.651  30.725  29.445  1.00  0.00     0.049 A 
ATOM     54  H   UNL A   1      40.691  30.365  29.662  1.00  0.00     0.167 HD
ATOM     55  C   UNL A   1      44.962  29.460  30.030  1.00  0.00     0.037 A 
ATOM     56  C   UNL A   1      38.424  31.982  29.866  1.00  0.00     0.037 A 
ATOM     57  C   UNL A   1      44.833  30.839  30.422  1.00  0.00     0.049 A 
ATOM     58  C   UNL A   1      39.591  32.820  30.316  1.00  0.00     0.074 A 
ATOM     59  C   UNL A   1      45.824  31.724  30.814  1.00  0.00     0.029 A 
ATOM     60  N   UNL A   1      43.633  31.534  30.481  1.00  0.00    -0.354 N 
ATOM     61  N   UNL A   1      40.862  32.506  30.382  1.00  0.00    -0.248 NA
ATOM     62  C   UNL A   1      39.289  34.195  30.736  1.00  0.00     0.031 C 
ATOM     63  C   UNL A   1      45.217  32.936  31.160  1.00  0.00     0.029 A 
ATOM     64  C   UNL A   1      43.856  32.829  30.925  1.00  0.00     0.049 A 
ATOM     65  H   UNL A   1      42.754  31.162  30.242  1.00  0.00     0.167 HD
ATOM     66  C   UNL A   1      41.515  33.647  30.826  1.00  0.00     0.074 A 
ATOM     67  C   UNL A   1      40.501  34.670  30.983  1.00  0.00     0.031 C 
ATOM     68  C   UNL A   1      42.833  33.832  31.087  1.00  0.00     0.037 A 
BRANCH  55  69
ATOM     69  C   UNL A   1      46.324  28.826  30.085  1.00  0.00     0.064 A 
ATOM     70  C   UNL A   1      47.191  28.845  28.981  1.00  0.00     0.173 A 
ATOM     71  C   UNL A   1      46.784  28.222  31.266  1.00  0.00     0.173 A 
ATOM     72  F   UNL A   1      46.798  29.398  27.823  1.00  0.00    -0.203 F 
ATOM     73  C   UNL A   1      48.453  28.259  29.046  1.00  0.00     0.198 A 
ATOM     74  C   UNL A   1      48.059  27.666  31.339  1.00  0.00     0.198 A 
ATOM     75  F   UNL A   1      45.999  28.178  32.353  1.00  0.00    -0.203 F 
ATOM     76  F   UNL A   1      49.240  28.244  27.963  1.00  0.00    -0.200 F 
ATOM     77  C   UNL A   1      48.889  27.677  30.228  1.00  0.00     0.200 A 
ATOM     78  F   UNL A   1      48.484  27.116  32.484  1.00  0.00    -0.200 F 
ATOM     79  F   UNL A   1      50.106  27.121  30.293  1.00  0.00    -0.200 F 
ENDBRANCH  55  69
BRANCH  56  80
ATOM     80  C   UNL A   1      37.047  32.541  29.842  1.00  0.00     0.064 A 
ATOM     81  C   UNL A   1      36.574  33.252  28.729  1.00  0.00     0.173 A 
ATOM     82  C   UNL A   1      36.177  32.382  30.931  1.00  0.00     0.173 A 
ATOM     83  F   UNL A   1      37.373  33.446  27.670  1.00  0.00    -0.203 F 
ATOM     84  C   UNL A   1      35.296  33.808  28.718  1.00  0.00     0.198 A 
ATOM     85  C   UNL A   1      34.887  32.909  30.905  1.00  0.00     0.198 A 
ATOM     86  F   UNL A   1      36.575  31.703  32.016  1.00  0.00    -0.203 F 
ATOM     87  F   UNL A   1      34.890  34.527  27.663  1.00  0.00    -0.200 F 
ATOM     88  C   UNL A   1      34.452  33.631  29.803  1.00  0.00     0.200 A 
ATOM     89  F   UNL A   1      34.068  32.721  31.948  1.00  0.00    -0.200 F 
ATOM     90  F   UNL A   1      33.221  34.160  29.791  1.00  0.00    -0.200 F 
ENDBRANCH  56  80
BRANCH  68  91
ATOM     91  C   UNL A   1      43.249  35.202  31.545  1.00  0.00     0.064 A 
ATOM     92  C   UNL A   1      43.218  35.568  32.900  1.00  0.00     0.173 A 
ATOM     93  C   UNL A   1      43.675  36.164  30.616  1.00  0.00     0.173 A 
ATOM     94  F   UNL A   1      42.807  34.690  33.827  1.00  0.00    -0.203 F 
ATOM     95  C   UNL A   1      43.550  36.859  33.302  1.00  0.00     0.198 A 
ATOM     96  C   UNL A   1      44.043  37.442  31.026  1.00  0.00     0.198 A 
ATOM     97  F   UNL A   1      43.733  35.865  29.310  1.00  0.00    -0.203 F 
ATOM     98  F   UNL A   1      43.439  37.206  34.591  1.00  0.00    -0.200 F 
ATOM     99  C   UNL A   1      43.966  37.793  32.365  1.00  0.00     0.200 A 
ATOM    100  F   UNL A   1      44.459  38.340  30.122  1.00  0.00    -0.200 F 
ATOM    101  F   UNL A   1      44.279  39.038  32.752  1.00  0.00    -0.200 F 
ENDBRANCH  68  91
ENDBRANCH  42  43
ENDBRANCH  34  37
ENDBRANCH  32  33
ENDBRANCH  31  32
ENDBRANCH   1  31
TORSDOF 14
ENDMDL
