MODEL 1
REMARK VINA RESULT:     -11.1      0.000      0.000
REMARK SMILES CC[C@H]1CC[C@](O)([C@H](F)C(=O)NCCCCNC(=O)c2ccc(-c3c4nc(c(-c5c(F)c(F)c(F)c(F)c5F)c5ccc([nH]5)c(-c5c(F)c(F)c(F)c(F)c5F)c5nc(c(-c6c(F)c(F)c(F)c(F)c6F)c6ccc3[nH]6)C=C5)C=C4)cc2)CC1
REMARK SMILES IDX 14 1 13 2 12 3 10 4 11 5 8 7 9 8 6 9 3 10 4 11 84 12 5 13
REMARK SMILES IDX 83 14 2 15 1 16 7 17 15 19 16 20 17 21 18 22 19 24 20 25
REMARK SMILES IDX 21 26 82 27 22 28 81 29 23 30 24 31 25 32 75 33 26 34 80 35
REMARK SMILES IDX 74 36 76 37 27 38 79 39 73 40 72 41 28 43 60 44 40 45 59 46
REMARK SMILES IDX 41 47 44 48 58 49 77 50 42 51 43 52 57 54 78 55 45 56 29 57
REMARK SMILES IDX 30 58 38 59 31 60 32 61 36 62 39 63 33 64 34 65 37 66 35 67
REMARK SMILES IDX 61 68 62 69 70 70 63 71 64 72 68 73 71 74 65 75 66 76 69 77
REMARK SMILES IDX 67 78 46 79 47 80 55 81 48 82 49 83 53 84 56 85 50 86 51 87
REMARK SMILES IDX 54 88 52 89
REMARK H PARENT 12 6 7 18 17 23 76 42 44 53
REMARK Flexibility Score: inf
ROOT
ATOM      1  C   UNL A   1      41.891  19.351  26.374  1.00  0.00     0.023 C 
ENDROOT
BRANCH   1   2
ATOM      2  C   UNL A   1      43.357  18.947  26.303  1.00  0.00     0.116 C 
BRANCH   2   3
ATOM      3  N   UNL A   1      43.782  18.680  24.945  1.00  0.00    -0.353 N 
ATOM      4  C   UNL A   1      44.658  19.396  24.191  1.00  0.00     0.257 C 
ATOM      5  O   UNL A   1      44.916  18.974  23.059  1.00  0.00    -0.272 OA
ATOM      6  H   UNL A   1      43.388  17.886  24.517  1.00  0.00     0.163 HD
BRANCH   4   7
ATOM      7  C   UNL A   1      45.343  20.640  24.742  1.00  0.00     0.286 C 
ATOM      8  F   UNL A   1      46.710  20.553  24.683  1.00  0.00    -0.234 F 
BRANCH   7   9
ATOM      9  C   UNL A   1      44.877  22.000  24.133  1.00  0.00     0.105 C 
ATOM     10  C   UNL A   1      45.087  24.216  26.176  1.00  0.00    -0.011 C 
ATOM     11  C   UNL A   1      46.328  23.545  25.568  1.00  0.00     0.006 C 
ATOM     12  C   UNL A   1      43.919  23.216  26.191  1.00  0.00     0.006 C 
ATOM     13  C   UNL A   1      46.062  22.993  24.165  1.00  0.00     0.039 C 
ATOM     14  C   UNL A   1      43.642  22.631  24.810  1.00  0.00     0.039 C 
BRANCH  10  15
ATOM     15  C   UNL A   1      44.671  25.528  25.477  1.00  0.00    -0.000 C 
ATOM     16  C   UNL A   1      45.774  26.571  25.392  1.00  0.00     0.004 C 
ENDBRANCH  10  15
BRANCH   9  17
ATOM     17  O   UNL A   1      44.521  21.816  22.747  1.00  0.00    -0.386 OA
ATOM     18  H   UNL A   1      45.219  22.182  22.182  1.00  0.00     0.211 HD
ENDBRANCH   9  17
ENDBRANCH   7   9
ENDBRANCH   4   7
ENDBRANCH   2   3
ENDBRANCH   1   2
BRANCH   1  19
ATOM     19  C   UNL A   1      41.495  20.128  27.627  1.00  0.00     0.023 C 
BRANCH  19  20
ATOM     20  C   UNL A   1      41.003  21.547  27.375  1.00  0.00     0.116 C 
BRANCH  20  21
ATOM     21  N   UNL A   1      39.829  21.588  26.517  1.00  0.00    -0.352 N 
ATOM     22  C   UNL A   1      38.973  22.630  26.259  1.00  0.00     0.251 C 
ATOM     23  H   UNL A   1      39.617  20.746  26.054  1.00  0.00     0.163 HD
ATOM     24  O   UNL A   1      37.927  22.436  25.643  1.00  0.00    -0.269 OA
BRANCH  22  25
ATOM     25  C   UNL A   1      39.297  23.986  26.746  1.00  0.00     0.039 A 
ATOM     26  C   UNL A   1      38.870  24.366  28.020  1.00  0.00     0.014 A 
ATOM     27  C   UNL A   1      40.029  24.875  25.956  1.00  0.00     0.014 A 
ATOM     28  C   UNL A   1      39.240  25.613  28.528  1.00  0.00     0.010 A 
ATOM     29  C   UNL A   1      40.471  26.079  26.495  1.00  0.00     0.010 A 
ATOM     30  C   UNL A   1      40.078  26.463  27.787  1.00  0.00    -0.014 A 
BRANCH  30  31
ATOM     31  C   UNL A   1      40.546  27.757  28.348  1.00  0.00     0.031 A 
ATOM     32  C   UNL A   1      42.005  27.966  28.653  1.00  0.00     0.074 A 
ATOM     33  C   UNL A   1      39.652  28.727  28.625  1.00  0.00     0.049 A 
ATOM     34  N   UNL A   1      42.598  29.004  29.186  1.00  0.00    -0.248 NA
ATOM     35  C   UNL A   1      42.915  26.852  28.342  1.00  0.00     0.031 C 
ATOM     36  C   UNL A   1      38.205  28.628  28.420  1.00  0.00     0.029 A 
ATOM     37  N   UNL A   1      39.826  29.986  29.144  1.00  0.00    -0.354 N 
ATOM     38  C   UNL A   1      43.942  28.667  29.276  1.00  0.00     0.074 A 
ATOM     39  C   UNL A   1      44.070  27.306  28.804  1.00  0.00     0.031 C 
ATOM     40  C   UNL A   1      37.629  29.785  28.783  1.00  0.00     0.029 A 
ATOM     41  C   UNL A   1      38.655  30.692  29.284  1.00  0.00     0.049 A 
ATOM     42  H   UNL A   1      40.707  30.348  29.393  1.00  0.00     0.167 HD
ATOM     43  C   UNL A   1      44.980  29.434  29.685  1.00  0.00     0.037 A 
ATOM     44  C   UNL A   1      38.436  31.929  29.771  1.00  0.00     0.037 A 
ATOM     45  C   UNL A   1      44.854  30.795  30.135  1.00  0.00     0.049 A 
ATOM     46  C   UNL A   1      39.610  32.750  30.241  1.00  0.00     0.074 A 
ATOM     47  C   UNL A   1      45.851  31.668  30.531  1.00  0.00     0.029 A 
ATOM     48  N   UNL A   1      43.653  31.479  30.251  1.00  0.00    -0.354 N 
ATOM     49  N   UNL A   1      40.884  32.444  30.253  1.00  0.00    -0.248 NA
ATOM     50  C   UNL A   1      39.312  34.094  30.757  1.00  0.00     0.031 C 
ATOM     51  C   UNL A   1      45.252  32.865  30.933  1.00  0.00     0.029 A 
ATOM     52  C   UNL A   1      43.885  32.758  30.731  1.00  0.00     0.049 A 
ATOM     53  H   UNL A   1      42.768  31.111  30.026  1.00  0.00     0.167 HD
ATOM     54  C   UNL A   1      41.541  33.565  30.741  1.00  0.00     0.074 A 
ATOM     55  C   UNL A   1      40.527  34.565  30.997  1.00  0.00     0.031 C 
ATOM     56  C   UNL A   1      42.866  33.751  30.961  1.00  0.00     0.037 A 
BRANCH  43  57
ATOM     57  C   UNL A   1      46.354  28.827  29.651  1.00  0.00     0.064 A 
ATOM     58  C   UNL A   1      47.142  28.860  28.490  1.00  0.00     0.173 A 
ATOM     59  C   UNL A   1      46.914  28.262  30.807  1.00  0.00     0.173 A 
ATOM     60  F   UNL A   1      46.649  29.378  27.355  1.00  0.00    -0.203 F 
ATOM     61  C   UNL A   1      48.430  28.333  28.482  1.00  0.00     0.198 A 
ATOM     62  C   UNL A   1      48.214  27.764  30.804  1.00  0.00     0.198 A 
ATOM     63  F   UNL A   1      46.206  28.209  31.946  1.00  0.00    -0.203 F 
ATOM     64  F   UNL A   1      49.147  28.339  27.351  1.00  0.00    -0.200 F 
ATOM     65  C   UNL A   1      48.968  27.794  29.641  1.00  0.00     0.200 A 
ATOM     66  F   UNL A   1      48.739  27.259  31.929  1.00  0.00    -0.200 F 
ATOM     67  F   UNL A   1      50.215  27.303  29.636  1.00  0.00    -0.200 F 
ENDBRANCH  43  57
BRANCH  44  68
ATOM     68  C   UNL A   1      37.055  32.481  29.831  1.00  0.00     0.064 A 
ATOM     69  C   UNL A   1      36.525  33.222  28.765  1.00  0.00     0.173 A 
ATOM     70  C   UNL A   1      36.254  32.318  30.971  1.00  0.00     0.173 A 
ATOM     71  F   UNL A   1      37.259  33.423  27.660  1.00  0.00    -0.203 F 
ATOM     72  C   UNL A   1      35.264  33.809  28.851  1.00  0.00     0.198 A 
ATOM     73  C   UNL A   1      34.979  32.876  31.042  1.00  0.00     0.198 A 
ATOM     74  F   UNL A   1      36.709  31.614  32.018  1.00  0.00    -0.203 F 
ATOM     75  F   UNL A   1      34.812  34.567  27.843  1.00  0.00    -0.200 F 
ATOM     76  C   UNL A   1      34.491  33.632  29.987  1.00  0.00     0.200 A 
ATOM     77  F   UNL A   1      34.228  32.691  32.136  1.00  0.00    -0.200 F 
ATOM     78  F   UNL A   1      33.281  34.204  30.072  1.00  0.00    -0.200 F 
ENDBRANCH  44  68
BRANCH  56  79
ATOM     79  C   UNL A   1      43.303  35.099  31.456  1.00  0.00     0.064 A 
ATOM     80  C   UNL A   1      43.703  36.116  30.577  1.00  0.00     0.173 A 
ATOM     81  C   UNL A   1      43.283  35.388  32.830  1.00  0.00     0.173 A 
ATOM     82  F   UNL A   1      43.753  35.886  29.256  1.00  0.00    -0.203 F 
ATOM     83  C   UNL A   1      44.096  37.363  31.057  1.00  0.00     0.198 A 
ATOM     84  C   UNL A   1      43.642  36.646  33.303  1.00  0.00     0.198 A 
ATOM     85  F   UNL A   1      42.900  34.453  33.712  1.00  0.00    -0.203 F 
ATOM     86  F   UNL A   1      44.525  38.303  30.203  1.00  0.00    -0.200 F 
ATOM     87  C   UNL A   1      44.057  37.630  32.418  1.00  0.00     0.200 A 
ATOM     88  F   UNL A   1      43.587  36.907  34.616  1.00  0.00    -0.200 F 
ATOM     89  F   UNL A   1      44.426  38.833  32.877  1.00  0.00    -0.200 F 
ENDBRANCH  56  79
ENDBRANCH  30  31
ENDBRANCH  22  25
ENDBRANCH  20  21
ENDBRANCH  19  20
ENDBRANCH   1  19
TORSDOF 14
ENDMDL
MODEL 2
REMARK VINA RESULT:     -10.8      0.477      1.702
REMARK SMILES CC[C@H]1CC[C@](O)([C@H](F)C(=O)NCCCCNC(=O)c2ccc(-c3c4nc(c(-c5c(F)c(F)c(F)c(F)c5F)c5ccc([nH]5)c(-c5c(F)c(F)c(F)c(F)c5F)c5nc(c(-c6c(F)c(F)c(F)c(F)c6F)c6ccc3[nH]6)C=C5)C=C4)cc2)CC1
REMARK SMILES IDX 14 1 13 2 12 3 10 4 11 5 8 7 9 8 6 9 3 10 4 11 84 12 5 13
REMARK SMILES IDX 83 14 2 15 1 16 7 17 15 19 16 20 17 21 18 22 19 24 20 25
REMARK SMILES IDX 21 26 82 27 22 28 81 29 23 30 24 31 25 32 75 33 26 34 80 35
REMARK SMILES IDX 74 36 76 37 27 38 79 39 73 40 72 41 28 43 60 44 40 45 59 46
REMARK SMILES IDX 41 47 44 48 58 49 77 50 42 51 43 52 57 54 78 55 45 56 29 57
REMARK SMILES IDX 30 58 38 59 31 60 32 61 36 62 39 63 33 64 34 65 37 66 35 67
REMARK SMILES IDX 61 68 62 69 70 70 63 71 64 72 68 73 71 74 65 75 66 76 69 77
REMARK SMILES IDX 67 78 46 79 47 80 55 81 48 82 49 83 53 84 56 85 50 86 51 87
REMARK SMILES IDX 54 88 52 89
REMARK H PARENT 12 6 7 18 17 23 76 42 44 53
REMARK Flexibility Score: inf
ROOT
ATOM      1  C   UNL A   1      41.745  19.224  26.421  1.00  0.00     0.023 C 
ENDROOT
BRANCH   1   2
ATOM      2  C   UNL A   1      43.265  19.235  26.337  1.00  0.00     0.116 C 
BRANCH   2   3
ATOM      3  N   UNL A   1      43.740  18.827  25.032  1.00  0.00    -0.353 N 
ATOM      4  C   UNL A   1      44.682  19.432  24.261  1.00  0.00     0.257 C 
ATOM      5  O   UNL A   1      44.974  18.897  23.187  1.00  0.00    -0.272 OA
ATOM      6  H   UNL A   1      43.329  18.014  24.657  1.00  0.00     0.163 HD
BRANCH   4   7
ATOM      7  C   UNL A   1      45.399  20.692  24.733  1.00  0.00     0.286 C 
ATOM      8  F   UNL A   1      46.761  20.597  24.602  1.00  0.00    -0.234 F 
BRANCH   7   9
ATOM      9  C   UNL A   1      44.903  22.032  24.104  1.00  0.00     0.105 C 
ATOM     10  C   UNL A   1      45.112  24.291  26.101  1.00  0.00    -0.011 C 
ATOM     11  C   UNL A   1      46.353  23.626  25.486  1.00  0.00     0.006 C 
ATOM     12  C   UNL A   1      43.959  23.274  26.154  1.00  0.00     0.006 C 
ATOM     13  C   UNL A   1      46.073  23.043  24.099  1.00  0.00     0.039 C 
ATOM     14  C   UNL A   1      43.669  22.657  24.790  1.00  0.00     0.039 C 
BRANCH  10  15
ATOM     15  C   UNL A   1      44.664  25.582  25.384  1.00  0.00    -0.000 C 
ATOM     16  C   UNL A   1      45.680  26.713  25.435  1.00  0.00     0.004 C 
ENDBRANCH  10  15
BRANCH   9  17
ATOM     17  O   UNL A   1      44.528  21.815  22.729  1.00  0.00    -0.386 OA
ATOM     18  H   UNL A   1      43.939  22.529  22.437  1.00  0.00     0.211 HD
ENDBRANCH   9  17
ENDBRANCH   7   9
ENDBRANCH   4   7
ENDBRANCH   2   3
ENDBRANCH   1   2
BRANCH   1  19
ATOM     19  C   UNL A   1      41.152  20.106  27.517  1.00  0.00     0.023 C 
BRANCH  19  20
ATOM     20  C   UNL A   1      40.872  21.544  27.105  1.00  0.00     0.116 C 
BRANCH  20  21
ATOM     21  N   UNL A   1      39.671  21.670  26.294  1.00  0.00    -0.352 N 
ATOM     22  C   UNL A   1      38.841  22.750  26.125  1.00  0.00     0.251 C 
ATOM     23  H   UNL A   1      39.417  20.863  25.791  1.00  0.00     0.163 HD
ATOM     24  O   UNL A   1      37.769  22.623  25.538  1.00  0.00    -0.269 OA
BRANCH  22  25
ATOM     25  C   UNL A   1      39.223  24.065  26.677  1.00  0.00     0.039 A 
ATOM     26  C   UNL A   1      38.859  24.381  27.988  1.00  0.00     0.014 A 
ATOM     27  C   UNL A   1      39.950  24.980  25.911  1.00  0.00     0.014 A 
ATOM     28  C   UNL A   1      39.285  25.584  28.552  1.00  0.00     0.010 A 
ATOM     29  C   UNL A   1      40.448  26.137  26.501  1.00  0.00     0.010 A 
ATOM     30  C   UNL A   1      40.118  26.454  27.828  1.00  0.00    -0.014 A 
BRANCH  30  31
ATOM     31  C   UNL A   1      40.646  27.699  28.443  1.00  0.00     0.031 A 
ATOM     32  C   UNL A   1      42.112  27.824  28.760  1.00  0.00     0.074 A 
ATOM     33  C   UNL A   1      39.799  28.699  28.759  1.00  0.00     0.049 A 
ATOM     34  N   UNL A   1      42.753  28.809  29.337  1.00  0.00    -0.248 NA
ATOM     35  C   UNL A   1      42.969  26.681  28.403  1.00  0.00     0.031 C 
ATOM     36  C   UNL A   1      38.350  28.679  28.547  1.00  0.00     0.029 A 
ATOM     37  N   UNL A   1      40.032  29.925  29.331  1.00  0.00    -0.354 N 
ATOM     38  C   UNL A   1      44.079  28.403  29.415  1.00  0.00     0.074 A 
ATOM     39  C   UNL A   1      44.142  27.059  28.887  1.00  0.00     0.031 C 
ATOM     40  C   UNL A   1      37.829  29.846  28.958  1.00  0.00     0.029 A 
ATOM     41  C   UNL A   1      38.896  30.681  29.499  1.00  0.00     0.049 A 
ATOM     42  H   UNL A   1      40.929  30.233  29.597  1.00  0.00     0.167 HD
ATOM     43  C   UNL A   1      45.151  29.101  29.858  1.00  0.00     0.037 A 
ATOM     44  C   UNL A   1      38.735  31.905  30.037  1.00  0.00     0.037 A 
ATOM     45  C   UNL A   1      45.089  30.446  30.364  1.00  0.00     0.049 A 
ATOM     46  C   UNL A   1      39.945  32.648  30.543  1.00  0.00     0.074 A 
ATOM     47  C   UNL A   1      46.126  31.253  30.798  1.00  0.00     0.029 A 
ATOM     48  N   UNL A   1      43.923  31.183  30.507  1.00  0.00    -0.354 N 
ATOM     49  N   UNL A   1      41.204  32.280  30.544  1.00  0.00    -0.248 NA
ATOM     50  C   UNL A   1      39.712  33.981  31.114  1.00  0.00     0.031 C 
ATOM     51  C   UNL A   1      45.584  32.459  31.249  1.00  0.00     0.029 A 
ATOM     52  C   UNL A   1      44.214  32.428  31.040  1.00  0.00     0.049 A 
ATOM     53  H   UNL A   1      43.022  30.868  30.265  1.00  0.00     0.167 HD
ATOM     54  C   UNL A   1      41.912  33.346  31.080  1.00  0.00     0.074 A 
ATOM     55  C   UNL A   1      40.947  34.383  31.376  1.00  0.00     0.031 C 
ATOM     56  C   UNL A   1      43.244  33.458  31.310  1.00  0.00     0.037 A 
BRANCH  43  57
ATOM     57  C   UNL A   1      46.494  28.430  29.801  1.00  0.00     0.064 A 
ATOM     58  C   UNL A   1      46.980  27.670  30.875  1.00  0.00     0.173 A 
ATOM     59  C   UNL A   1      47.275  28.494  28.636  1.00  0.00     0.173 A 
ATOM     60  F   UNL A   1      46.278  27.587  32.016  1.00  0.00    -0.203 F 
ATOM     61  C   UNL A   1      48.207  27.016  30.795  1.00  0.00     0.198 A 
ATOM     62  C   UNL A   1      48.486  27.813  28.548  1.00  0.00     0.198 A 
ATOM     63  F   UNL A   1      46.855  29.202  27.577  1.00  0.00    -0.203 F 
ATOM     64  F   UNL A   1      48.669  26.331  31.850  1.00  0.00    -0.200 F 
ATOM     65  C   UNL A   1      48.954  27.080  29.629  1.00  0.00     0.200 A 
ATOM     66  F   UNL A   1      49.200  27.862  27.415  1.00  0.00    -0.200 F 
ATOM     67  F   UNL A   1      50.126  26.437  29.547  1.00  0.00    -0.200 F 
ENDBRANCH  43  57
BRANCH  44  68
ATOM     68  C   UNL A   1      37.383  32.521  30.118  1.00  0.00     0.064 A 
ATOM     69  C   UNL A   1      36.522  32.237  31.188  1.00  0.00     0.173 A 
ATOM     70  C   UNL A   1      36.906  33.370  29.108  1.00  0.00     0.173 A 
ATOM     71  F   UNL A   1      36.923  31.415  32.169  1.00  0.00    -0.203 F 
ATOM     72  C   UNL A   1      35.225  32.747  31.226  1.00  0.00     0.198 A 
ATOM     73  C   UNL A   1      35.622  33.908  29.165  1.00  0.00     0.198 A 
ATOM     74  F   UNL A   1      37.689  33.680  28.064  1.00  0.00    -0.203 F 
ATOM     75  F   UNL A   1      34.403  32.403  32.226  1.00  0.00    -0.200 F 
ATOM     76  C   UNL A   1      34.778  33.584  30.217  1.00  0.00     0.200 A 
ATOM     77  F   UNL A   1      35.198  34.729  28.195  1.00  0.00    -0.200 F 
ATOM     78  F   UNL A   1      33.529  34.068  30.250  1.00  0.00    -0.200 F 
ENDBRANCH  44  68
BRANCH  56  79
ATOM     79  C   UNL A   1      43.744  34.762  31.862  1.00  0.00     0.064 A 
ATOM     80  C   UNL A   1      44.070  35.842  31.029  1.00  0.00     0.173 A 
ATOM     81  C   UNL A   1      43.860  34.943  33.249  1.00  0.00     0.173 A 
ATOM     82  F   UNL A   1      43.989  35.715  29.696  1.00  0.00    -0.203 F 
ATOM     83  C   UNL A   1      44.523  37.046  31.562  1.00  0.00     0.198 A 
ATOM     84  C   UNL A   1      44.279  36.159  33.780  1.00  0.00     0.198 A 
ATOM     85  F   UNL A   1      43.553  33.945  34.090  1.00  0.00    -0.203 F 
ATOM     86  F   UNL A   1      44.879  38.046  30.745  1.00  0.00    -0.200 F 
ATOM     87  C   UNL A   1      44.619  37.206  32.937  1.00  0.00     0.200 A 
ATOM     88  F   UNL A   1      44.355  36.318  35.108  1.00  0.00    -0.200 F 
ATOM     89  F   UNL A   1      45.046  38.368  33.449  1.00  0.00    -0.200 F 
ENDBRANCH  56  79
ENDBRANCH  30  31
ENDBRANCH  22  25
ENDBRANCH  20  21
ENDBRANCH  19  20
ENDBRANCH   1  19
TORSDOF 14
ENDMDL
MODEL 3
REMARK VINA RESULT:     -10.8      5.719     10.324
REMARK SMILES CC[C@H]1CC[C@](O)([C@H](F)C(=O)NCCCCNC(=O)c2ccc(-c3c4nc(c(-c5c(F)c(F)c(F)c(F)c5F)c5ccc([nH]5)c(-c5c(F)c(F)c(F)c(F)c5F)c5nc(c(-c6c(F)c(F)c(F)c(F)c6F)c6ccc3[nH]6)C=C5)C=C4)cc2)CC1
REMARK SMILES IDX 14 1 13 2 12 3 10 4 11 5 8 7 9 8 6 9 3 10 4 11 84 12 5 13
REMARK SMILES IDX 83 14 2 15 1 16 7 17 15 19 16 20 17 21 18 22 19 24 20 25
REMARK SMILES IDX 21 26 82 27 22 28 81 29 23 30 24 31 25 32 75 33 26 34 80 35
REMARK SMILES IDX 74 36 76 37 27 38 79 39 73 40 72 41 28 43 60 44 40 45 59 46
REMARK SMILES IDX 41 47 44 48 58 49 77 50 42 51 43 52 57 54 78 55 45 56 29 57
REMARK SMILES IDX 30 58 38 59 31 60 32 61 36 62 39 63 33 64 34 65 37 66 35 67
REMARK SMILES IDX 61 68 62 69 70 70 63 71 64 72 68 73 71 74 65 75 66 76 69 77
REMARK SMILES IDX 67 78 46 79 47 80 55 81 48 82 49 83 53 84 56 85 50 86 51 87
REMARK SMILES IDX 54 88 52 89
REMARK H PARENT 12 6 7 18 17 23 76 42 44 53
REMARK Flexibility Score: inf
ROOT
ATOM      1  C   UNL A   1      31.476  30.587  26.642  1.00  0.00     0.023 C 
ENDROOT
BRANCH   1   2
ATOM      2  C   UNL A   1      31.969  29.969  25.340  1.00  0.00     0.116 C 
BRANCH   2   3
ATOM      3  N   UNL A   1      31.014  30.134  24.265  1.00  0.00    -0.353 N 
ATOM      4  C   UNL A   1      30.372  29.162  23.565  1.00  0.00     0.257 C 
ATOM      5  O   UNL A   1      29.558  29.517  22.705  1.00  0.00    -0.272 OA
ATOM      6  H   UNL A   1      30.804  31.062  24.011  1.00  0.00     0.163 HD
BRANCH   4   7
ATOM      7  C   UNL A   1      30.601  27.686  23.868  1.00  0.00     0.286 C 
ATOM      8  F   UNL A   1      29.426  26.999  24.038  1.00  0.00    -0.234 F 
BRANCH   7   9
ATOM      9  C   UNL A   1      31.517  26.919  22.863  1.00  0.00     0.105 C 
ATOM     10  C   UNL A   1      33.476  25.152  24.335  1.00  0.00    -0.011 C 
ATOM     11  C   UNL A   1      31.970  24.853  24.305  1.00  0.00     0.006 C 
ATOM     12  C   UNL A   1      33.701  26.667  24.204  1.00  0.00     0.006 C 
ATOM     13  C   UNL A   1      31.294  25.400  23.044  1.00  0.00     0.039 C 
ATOM     14  C   UNL A   1      33.022  27.248  22.968  1.00  0.00     0.039 C 
BRANCH  10  15
ATOM     15  C   UNL A   1      34.295  24.387  23.273  1.00  0.00    -0.000 C 
ATOM     16  C   UNL A   1      34.162  22.874  23.348  1.00  0.00     0.004 C 
ENDBRANCH  10  15
BRANCH   9  17
ATOM     17  O   UNL A   1      31.132  27.242  21.510  1.00  0.00    -0.386 OA
ATOM     18  H   UNL A   1      30.184  27.075  21.395  1.00  0.00     0.211 HD
ENDBRANCH   9  17
ENDBRANCH   7   9
ENDBRANCH   4   7
ENDBRANCH   2   3
ENDBRANCH   1   2
BRANCH   1  19
ATOM     19  C   UNL A   1      31.432  32.113  26.654  1.00  0.00     0.023 C 
BRANCH  19  20
ATOM     20  C   UNL A   1      32.640  32.787  27.292  1.00  0.00     0.116 C 
BRANCH  20  21
ATOM     21  N   UNL A   1      32.400  34.189  27.601  1.00  0.00    -0.352 N 
ATOM     22  C   UNL A   1      32.981  34.982  28.558  1.00  0.00     0.251 C 
ATOM     23  H   UNL A   1      31.723  34.633  27.041  1.00  0.00     0.163 HD
ATOM     24  O   UNL A   1      32.529  36.100  28.794  1.00  0.00    -0.269 OA
BRANCH  22  25
ATOM     25  C   UNL A   1      34.137  34.480  29.328  1.00  0.00     0.039 A 
ATOM     26  C   UNL A   1      33.913  33.872  30.565  1.00  0.00     0.014 A 
ATOM     27  C   UNL A   1      35.436  34.597  28.827  1.00  0.00     0.014 A 
ATOM     28  C   UNL A   1      34.986  33.318  31.265  1.00  0.00     0.010 A 
ATOM     29  C   UNL A   1      36.490  33.968  29.482  1.00  0.00     0.010 A 
ATOM     30  C   UNL A   1      36.276  33.324  30.711  1.00  0.00    -0.014 A 
BRANCH  30  31
ATOM     31  C   UNL A   1      37.413  32.666  31.408  1.00  0.00     0.031 A 
ATOM     32  C   UNL A   1      38.133  31.515  30.759  1.00  0.00     0.074 A 
ATOM     33  C   UNL A   1      37.765  33.075  32.642  1.00  0.00     0.049 A 
ATOM     34  N   UNL A   1      39.115  30.785  31.225  1.00  0.00    -0.248 NA
ATOM     35  C   UNL A   1      37.675  31.114  29.419  1.00  0.00     0.031 C 
ATOM     36  C   UNL A   1      37.113  34.147  33.398  1.00  0.00     0.029 A 
ATOM     37  N   UNL A   1      38.756  32.634  33.485  1.00  0.00    -0.354 N 
ATOM     38  C   UNL A   1      39.386  29.843  30.242  1.00  0.00     0.074 A 
ATOM     39  C   UNL A   1      38.426  30.049  29.181  1.00  0.00     0.031 C 
ATOM     40  C   UNL A   1      37.738  34.297  34.577  1.00  0.00     0.029 A 
ATOM     41  C   UNL A   1      38.806  33.309  34.680  1.00  0.00     0.049 A 
ATOM     42  H   UNL A   1      39.373  31.902  33.253  1.00  0.00     0.167 HD
ATOM     43  C   UNL A   1      40.367  28.910  30.213  1.00  0.00     0.037 A 
ATOM     44  C   UNL A   1      39.616  33.142  35.743  1.00  0.00     0.037 A 
ATOM     45  C   UNL A   1      41.334  28.719  31.261  1.00  0.00     0.049 A 
ATOM     46  C   UNL A   1      40.684  32.080  35.690  1.00  0.00     0.074 A 
ATOM     47  C   UNL A   1      42.392  27.829  31.306  1.00  0.00     0.029 A 
ATOM     48  N   UNL A   1      41.360  29.431  32.451  1.00  0.00    -0.354 N 
ATOM     49  N   UNL A   1      40.974  31.243  34.724  1.00  0.00    -0.248 NA
ATOM     50  C   UNL A   1      41.543  31.945  36.876  1.00  0.00     0.031 C 
ATOM     51  C   UNL A   1      43.028  27.967  32.542  1.00  0.00     0.029 A 
ATOM     52  C   UNL A   1      42.404  28.985  33.245  1.00  0.00     0.049 A 
ATOM     53  H   UNL A   1      40.729  30.146  32.695  1.00  0.00     0.167 HD
ATOM     54  C   UNL A   1      42.067  30.511  35.168  1.00  0.00     0.074 A 
ATOM     55  C   UNL A   1      42.400  31.015  36.483  1.00  0.00     0.031 C 
ATOM     56  C   UNL A   1      42.736  29.510  34.544  1.00  0.00     0.037 A 
BRANCH  43  57
ATOM     57  C   UNL A   1      40.459  28.030  28.999  1.00  0.00     0.064 A 
ATOM     58  C   UNL A   1      39.751  26.820  28.915  1.00  0.00     0.173 A 
ATOM     59  C   UNL A   1      41.211  28.428  27.883  1.00  0.00     0.173 A 
ATOM     60  F   UNL A   1      39.027  26.388  29.960  1.00  0.00    -0.203 F 
ATOM     61  C   UNL A   1      39.809  26.033  27.768  1.00  0.00     0.198 A 
ATOM     62  C   UNL A   1      41.240  27.654  26.726  1.00  0.00     0.198 A 
ATOM     63  F   UNL A   1      41.902  29.577  27.908  1.00  0.00    -0.203 F 
ATOM     64  F   UNL A   1      39.158  24.863  27.729  1.00  0.00    -0.200 F 
ATOM     65  C   UNL A   1      40.545  26.455  26.672  1.00  0.00     0.200 A 
ATOM     66  F   UNL A   1      41.939  28.070  25.661  1.00  0.00    -0.200 F 
ATOM     67  F   UNL A   1      40.586  25.705  25.563  1.00  0.00    -0.200 F 
ENDBRANCH  43  57
BRANCH  44  68
ATOM     68  C   UNL A   1      39.467  34.004  36.948  1.00  0.00     0.064 A 
ATOM     69  C   UNL A   1      40.090  35.258  37.021  1.00  0.00     0.173 A 
ATOM     70  C   UNL A   1      38.736  33.575  38.065  1.00  0.00     0.173 A 
ATOM     71  F   UNL A   1      40.817  35.706  35.986  1.00  0.00    -0.203 F 
ATOM     72  C   UNL A   1      40.020  36.032  38.178  1.00  0.00     0.198 A 
ATOM     73  C   UNL A   1      38.637  34.365  39.209  1.00  0.00     0.198 A 
ATOM     74  F   UNL A   1      38.116  32.386  38.047  1.00  0.00    -0.203 F 
ATOM     75  F   UNL A   1      40.681  37.195  38.243  1.00  0.00    -0.200 F 
ATOM     76  C   UNL A   1      39.291  35.587  39.269  1.00  0.00     0.200 A 
ATOM     77  F   UNL A   1      37.919  33.938  40.256  1.00  0.00    -0.200 F 
ATOM     78  F   UNL A   1      39.230  36.328  40.384  1.00  0.00    -0.200 F 
ENDBRANCH  44  68
BRANCH  56  79
ATOM     79  C   UNL A   1      43.924  28.926  35.252  1.00  0.00     0.064 A 
ATOM     80  C   UNL A   1      43.798  27.859  36.153  1.00  0.00     0.173 A 
ATOM     81  C   UNL A   1      45.213  29.417  34.992  1.00  0.00     0.173 A 
ATOM     82  F   UNL A   1      42.586  27.363  36.447  1.00  0.00    -0.203 F 
ATOM     83  C   UNL A   1      44.914  27.326  36.792  1.00  0.00     0.198 A 
ATOM     84  C   UNL A   1      46.330  28.858  35.604  1.00  0.00     0.198 A 
ATOM     85  F   UNL A   1      45.390  30.431  34.131  1.00  0.00    -0.203 F 
ATOM     86  F   UNL A   1      44.765  26.342  37.690  1.00  0.00    -0.200 F 
ATOM     87  C   UNL A   1      46.180  27.820  36.510  1.00  0.00     0.200 A 
ATOM     88  F   UNL A   1      47.553  29.326  35.318  1.00  0.00    -0.200 F 
ATOM     89  F   UNL A   1      47.254  27.299  37.118  1.00  0.00    -0.200 F 
ENDBRANCH  56  79
ENDBRANCH  30  31
ENDBRANCH  22  25
ENDBRANCH  20  21
ENDBRANCH  19  20
ENDBRANCH   1  19
TORSDOF 14
ENDMDL
