MODEL 1
REMARK VINA RESULT:     -12.2      0.000      0.000
REMARK SMILES [NH3+][C@H]1CCCC[C@@H]1C(=O)N1CC(C(=O)NCCCCNC(=O)c2ccc(-c3c4nc(c(-c5c(F)c(F)c(F)c(F)c5F)c5ccc([nH]5)c(-c5c(F)c(F)c(F)c(F)c5F)c5nc(c(-c6c(F)c(F)c(F)c(F)c6F)c6ccc3[nH]6)C=C5)C=C4)cc2)C1
REMARK SMILES IDX 17 1 16 2 15 3 13 4 14 5 12 7 8 8 9 9 10 10 11 11 86 12 7 13
REMARK SMILES IDX 2 14 3 15 4 16 6 17 5 18 1 19 18 23 19 24 20 25 21 26 22 28
REMARK SMILES IDX 23 29 24 30 85 31 25 32 84 33 26 34 27 35 28 36 78 37 29 38
REMARK SMILES IDX 83 39 77 40 79 41 30 42 82 43 76 44 75 45 31 47 63 48 43 49
REMARK SMILES IDX 62 50 44 51 47 52 61 53 80 54 45 55 46 56 60 58 81 59 48 60
REMARK SMILES IDX 32 61 33 62 41 63 34 64 35 65 39 66 42 67 36 68 37 69 40 70
REMARK SMILES IDX 38 71 64 72 65 73 73 74 66 75 67 76 71 77 74 78 68 79 69 80
REMARK SMILES IDX 72 81 70 82 49 83 50 84 58 85 51 86 52 87 56 88 59 89 53 90
REMARK SMILES IDX 54 91 57 92 55 93
REMARK H PARENT 15 6 1 20 1 21 1 22 20 27 79 46 47 57
REMARK Flexibility Score: inf
ROOT
ATOM      1  C   UNL A   1      31.474  30.914  26.116  1.00  0.00     0.023 C 
ENDROOT
BRANCH   1   2
ATOM      2  C   UNL A   1      31.764  29.824  27.145  1.00  0.00     0.116 C 
BRANCH   2   3
ATOM      3  N   UNL A   1      33.185  29.677  27.387  1.00  0.00    -0.356 N 
ATOM      4  C   UNL A   1      34.124  28.870  26.791  1.00  0.00     0.226 C 
ATOM      5  O   UNL A   1      35.269  28.960  27.259  1.00  0.00    -0.275 OA
ATOM      6  H   UNL A   1      33.539  30.256  28.100  1.00  0.00     0.163 HD
BRANCH   4   7
ATOM      7  C   UNL A   1      33.803  27.936  25.619  1.00  0.00     0.117 C 
ATOM      8  C   UNL A   1      31.729  27.323  23.097  1.00  0.00     0.231 C 
ATOM      9  O   UNL A   1      32.271  26.361  22.555  1.00  0.00    -0.274 OA
ATOM     10  N   UNL A   1      32.240  27.933  24.223  1.00  0.00    -0.341 N 
ATOM     11  C   UNL A   1      33.593  28.513  24.227  1.00  0.00     0.134 C 
ATOM     12  C   UNL A   1      32.458  27.233  25.497  1.00  0.00     0.134 C 
BRANCH   8  13
ATOM     13  C   UNL A   1      30.362  27.843  22.652  1.00  0.00     0.136 C 
ATOM     14  C   UNL A   1      30.265  29.387  22.588  1.00  0.00     0.193 C 
ATOM     15  C   UNL A   1      28.833  29.864  22.311  1.00  0.00     0.066 C 
ATOM     16  C   UNL A   1      27.848  29.277  23.317  1.00  0.00     0.006 C 
ATOM     17  C   UNL A   1      29.308  27.248  23.600  1.00  0.00     0.020 C 
ATOM     18  C   UNL A   1      27.901  27.756  23.304  1.00  0.00     0.001 C 
BRANCH  14  19
ATOM     19  N   UNL A   1      31.162  29.950  21.572  1.00  0.00    -0.354 N 
ATOM     20  H   UNL A   1      30.613  30.449  20.872  1.00  0.00     0.344 HD
ATOM     21  H   UNL A   1      31.682  29.197  21.122  1.00  0.00     0.344 HD
ATOM     22  H   UNL A   1      31.815  30.596  22.014  1.00  0.00     0.344 HD
ENDBRANCH  14  19
ENDBRANCH   8  13
ENDBRANCH   4   7
ENDBRANCH   2   3
ENDBRANCH   1   2
BRANCH   1  23
ATOM     23  C   UNL A   1      31.322  32.318  26.704  1.00  0.00     0.023 C 
BRANCH  23  24
ATOM     24  C   UNL A   1      32.626  33.004  27.093  1.00  0.00     0.116 C 
BRANCH  24  25
ATOM     25  N   UNL A   1      32.424  34.324  27.670  1.00  0.00    -0.352 N 
ATOM     26  C   UNL A   1      33.073  34.915  28.725  1.00  0.00     0.251 C 
ATOM     27  H   UNL A   1      31.722  34.868  27.246  1.00  0.00     0.163 HD
ATOM     28  O   UNL A   1      32.675  35.992  29.167  1.00  0.00    -0.269 OA
BRANCH  26  29
ATOM     29  C   UNL A   1      34.236  34.248  29.348  1.00  0.00     0.039 A 
ATOM     30  C   UNL A   1      34.015  33.293  30.344  1.00  0.00     0.014 A 
ATOM     31  C   UNL A   1      35.541  34.567  28.961  1.00  0.00     0.014 A 
ATOM     32  C   UNL A   1      35.100  32.623  30.916  1.00  0.00     0.010 A 
ATOM     33  C   UNL A   1      36.612  33.840  29.470  1.00  0.00     0.010 A 
ATOM     34  C   UNL A   1      36.407  32.874  30.467  1.00  0.00    -0.014 A 
BRANCH  34  35
ATOM     35  C   UNL A   1      37.573  32.170  31.058  1.00  0.00     0.031 A 
ATOM     36  C   UNL A   1      38.057  32.548  32.433  1.00  0.00     0.074 A 
ATOM     37  C   UNL A   1      38.226  31.230  30.348  1.00  0.00     0.049 A 
ATOM     38  N   UNL A   1      39.088  32.097  33.104  1.00  0.00    -0.248 NA
ATOM     39  C   UNL A   1      37.300  33.596  33.136  1.00  0.00     0.031 C 
ATOM     40  C   UNL A   1      37.884  30.806  28.990  1.00  0.00     0.029 A 
ATOM     41  N   UNL A   1      39.322  30.467  30.669  1.00  0.00    -0.354 N 
ATOM     42  C   UNL A   1      39.107  32.815  34.293  1.00  0.00     0.074 A 
ATOM     43  C   UNL A   1      38.030  33.776  34.225  1.00  0.00     0.031 C 
ATOM     44  C   UNL A   1      38.734  29.839  28.606  1.00  0.00     0.029 A 
ATOM     45  C   UNL A   1      39.703  29.603  29.671  1.00  0.00     0.049 A 
ATOM     46  H   UNL A   1      39.790  30.533  31.533  1.00  0.00     0.167 HD
ATOM     47  C   UNL A   1      39.930  32.666  35.359  1.00  0.00     0.037 A 
ATOM     48  C   UNL A   1      40.721  28.722  29.624  1.00  0.00     0.037 A 
ATOM     49  C   UNL A   1      40.986  31.692  35.434  1.00  0.00     0.049 A 
ATOM     50  C   UNL A   1      41.627  28.582  30.819  1.00  0.00     0.074 A 
ATOM     51  C   UNL A   1      41.845  31.429  36.485  1.00  0.00     0.029 A 
ATOM     52  N   UNL A   1      41.329  30.820  34.410  1.00  0.00    -0.354 N 
ATOM     53  N   UNL A   1      41.595  29.220  31.964  1.00  0.00    -0.248 NA
ATOM     54  C   UNL A   1      42.705  27.589  30.717  1.00  0.00     0.031 C 
ATOM     55  C   UNL A   1      42.740  30.433  36.080  1.00  0.00     0.029 A 
ATOM     56  C   UNL A   1      42.398  30.030  34.800  1.00  0.00     0.049 A 
ATOM     57  H   UNL A   1      40.878  30.771  33.536  1.00  0.00     0.167 HD
ATOM     58  C   UNL A   1      42.617  28.678  32.732  1.00  0.00     0.074 A 
ATOM     59  C   UNL A   1      43.245  27.652  31.926  1.00  0.00     0.031 C 
ATOM     60  C   UNL A   1      42.999  28.999  33.993  1.00  0.00     0.037 A 
BRANCH  47  61
ATOM     61  C   UNL A   1      39.714  33.579  36.534  1.00  0.00     0.064 A 
ATOM     62  C   UNL A   1      38.873  33.223  37.600  1.00  0.00     0.173 A 
ATOM     63  C   UNL A   1      40.376  34.814  36.607  1.00  0.00     0.173 A 
ATOM     64  F   UNL A   1      38.206  32.059  37.575  1.00  0.00    -0.203 F 
ATOM     65  C   UNL A   1      38.672  34.084  38.676  1.00  0.00     0.198 A 
ATOM     66  C   UNL A   1      40.202  35.657  37.703  1.00  0.00     0.198 A 
ATOM     67  F   UNL A   1      41.196  35.203  35.621  1.00  0.00    -0.203 F 
ATOM     68  F   UNL A   1      37.817  33.748  39.650  1.00  0.00    -0.200 F 
ATOM     69  C   UNL A   1      39.343  35.297  38.730  1.00  0.00     0.200 A 
ATOM     70  F   UNL A   1      40.862  36.822  37.760  1.00  0.00    -0.200 F 
ATOM     71  F   UNL A   1      39.155  36.122  39.769  1.00  0.00    -0.200 F 
ENDBRANCH  47  61
BRANCH  48  72
ATOM     72  C   UNL A   1      40.919  27.875  28.417  1.00  0.00     0.064 A 
ATOM     73  C   UNL A   1      41.711  28.318  27.350  1.00  0.00     0.173 A 
ATOM     74  C   UNL A   1      40.308  26.618  28.297  1.00  0.00     0.173 A 
ATOM     75  F   UNL A   1      42.300  29.522  27.407  1.00  0.00    -0.203 F 
ATOM     76  C   UNL A   1      41.865  27.550  26.197  1.00  0.00     0.198 A 
ATOM     77  C   UNL A   1      40.488  25.836  27.157  1.00  0.00     0.198 A 
ATOM     78  F   UNL A   1      39.545  26.143  29.292  1.00  0.00    -0.203 F 
ATOM     79  F   UNL A   1      42.584  28.023  25.170  1.00  0.00    -0.200 F 
ATOM     80  C   UNL A   1      41.256  26.308  26.104  1.00  0.00     0.200 A 
ATOM     81  F   UNL A   1      39.912  24.629  27.078  1.00  0.00    -0.200 F 
ATOM     82  F   UNL A   1      41.404  25.568  24.996  1.00  0.00    -0.200 F 
ENDBRANCH  48  72
BRANCH  60  83
ATOM     83  C   UNL A   1      44.108  28.191  34.606  1.00  0.00     0.064 A 
ATOM     84  C   UNL A   1      45.449  28.597  34.540  1.00  0.00     0.173 A 
ATOM     85  C   UNL A   1      43.815  27.007  35.303  1.00  0.00     0.173 A 
ATOM     86  F   UNL A   1      45.785  29.713  33.876  1.00  0.00    -0.203 F 
ATOM     87  C   UNL A   1      46.458  27.831  35.121  1.00  0.00     0.198 A 
ATOM     88  C   UNL A   1      44.822  26.264  35.912  1.00  0.00     0.198 A 
ATOM     89  F   UNL A   1      42.548  26.578  35.405  1.00  0.00    -0.203 F 
ATOM     90  F   UNL A   1      47.737  28.209  34.996  1.00  0.00    -0.200 F 
ATOM     91  C   UNL A   1      46.143  26.672  35.812  1.00  0.00     0.200 A 
ATOM     92  F   UNL A   1      44.512  25.153  36.594  1.00  0.00    -0.200 F 
ATOM     93  F   UNL A   1      47.115  25.940  36.376  1.00  0.00    -0.200 F 
ENDBRANCH  60  83
ENDBRANCH  34  35
ENDBRANCH  26  29
ENDBRANCH  24  25
ENDBRANCH  23  24
ENDBRANCH   1  23
TORSDOF 13
ENDMDL
MODEL 2
REMARK VINA RESULT:     -12.2      1.984      3.479
REMARK SMILES [NH3+][C@H]1CCCC[C@@H]1C(=O)N1CC(C(=O)NCCCCNC(=O)c2ccc(-c3c4nc(c(-c5c(F)c(F)c(F)c(F)c5F)c5ccc([nH]5)c(-c5c(F)c(F)c(F)c(F)c5F)c5nc(c(-c6c(F)c(F)c(F)c(F)c6F)c6ccc3[nH]6)C=C5)C=C4)cc2)C1
REMARK SMILES IDX 17 1 16 2 15 3 13 4 14 5 12 7 8 8 9 9 10 10 11 11 86 12 7 13
REMARK SMILES IDX 2 14 3 15 4 16 6 17 5 18 1 19 18 23 19 24 20 25 21 26 22 28
REMARK SMILES IDX 23 29 24 30 85 31 25 32 84 33 26 34 27 35 28 36 78 37 29 38
REMARK SMILES IDX 83 39 77 40 79 41 30 42 82 43 76 44 75 45 31 47 63 48 43 49
REMARK SMILES IDX 62 50 44 51 47 52 61 53 80 54 45 55 46 56 60 58 81 59 48 60
REMARK SMILES IDX 32 61 33 62 41 63 34 64 35 65 39 66 42 67 36 68 37 69 40 70
REMARK SMILES IDX 38 71 64 72 65 73 73 74 66 75 67 76 71 77 74 78 68 79 69 80
REMARK SMILES IDX 72 81 70 82 49 83 50 84 58 85 51 86 52 87 56 88 59 89 53 90
REMARK SMILES IDX 54 91 57 92 55 93
REMARK H PARENT 15 6 1 20 1 21 1 22 20 27 79 46 47 57
REMARK Flexibility Score: inf
ROOT
ATOM      1  C   UNL A   1      31.403  30.692  25.761  1.00  0.00     0.023 C 
ENDROOT
BRANCH   1   2
ATOM      2  C   UNL A   1      32.739  29.977  25.949  1.00  0.00     0.116 C 
BRANCH   2   3
ATOM      3  N   UNL A   1      33.313  29.569  24.684  1.00  0.00    -0.356 N 
ATOM      4  C   UNL A   1      33.453  28.326  24.114  1.00  0.00     0.226 C 
ATOM      5  O   UNL A   1      34.029  28.312  23.015  1.00  0.00    -0.275 OA
ATOM      6  H   UNL A   1      33.663  30.309  24.137  1.00  0.00     0.163 HD
BRANCH   4   7
ATOM      7  C   UNL A   1      32.924  27.043  24.764  1.00  0.00     0.117 C 
ATOM      8  C   UNL A   1      33.504  23.821  25.330  1.00  0.00     0.231 C 
ATOM      9  O   UNL A   1      32.556  23.519  26.053  1.00  0.00    -0.274 OA
ATOM     10  N   UNL A   1      33.684  25.091  24.825  1.00  0.00    -0.341 N 
ATOM     11  C   UNL A   1      33.811  26.255  25.717  1.00  0.00     0.134 C 
ATOM     12  C   UNL A   1      32.705  25.768  23.962  1.00  0.00     0.134 C 
BRANCH   8  13
ATOM     13  C   UNL A   1      34.497  22.780  24.812  1.00  0.00     0.136 C 
ATOM     14  C   UNL A   1      35.142  21.916  25.923  1.00  0.00     0.193 C 
ATOM     15  C   UNL A   1      36.256  21.012  25.376  1.00  0.00     0.066 C 
ATOM     16  C   UNL A   1      37.298  21.818  24.609  1.00  0.00     0.006 C 
ATOM     17  C   UNL A   1      35.557  23.522  23.983  1.00  0.00     0.020 C 
ATOM     18  C   UNL A   1      36.653  22.594  23.470  1.00  0.00     0.001 C 
BRANCH  14  19
ATOM     19  N   UNL A   1      34.150  21.086  26.617  1.00  0.00    -0.354 N 
ATOM     20  H   UNL A   1      34.072  20.184  26.147  1.00  0.00     0.344 HD
ATOM     21  H   UNL A   1      33.245  21.556  26.605  1.00  0.00     0.344 HD
ATOM     22  H   UNL A   1      34.444  20.941  27.582  1.00  0.00     0.344 HD
ENDBRANCH  14  19
ENDBRANCH   8  13
ENDBRANCH   4   7
ENDBRANCH   2   3
ENDBRANCH   1   2
BRANCH   1  23
ATOM     23  C   UNL A   1      31.286  32.025  26.502  1.00  0.00     0.023 C 
BRANCH  23  24
ATOM     24  C   UNL A   1      32.551  32.484  27.217  1.00  0.00     0.116 C 
BRANCH  24  25
ATOM     25  N   UNL A   1      32.521  33.894  27.575  1.00  0.00    -0.352 N 
ATOM     26  C   UNL A   1      33.305  34.574  28.473  1.00  0.00     0.251 C 
ATOM     27  H   UNL A   1      31.844  34.435  27.109  1.00  0.00     0.163 HD
ATOM     28  O   UNL A   1      33.048  35.744  28.750  1.00  0.00    -0.269 OA
BRANCH  26  29
ATOM     29  C   UNL A   1      34.444  33.896  29.127  1.00  0.00     0.039 A 
ATOM     30  C   UNL A   1      34.187  32.903  30.076  1.00  0.00     0.014 A 
ATOM     31  C   UNL A   1      35.763  34.239  28.815  1.00  0.00     0.014 A 
ATOM     32  C   UNL A   1      35.250  32.223  30.675  1.00  0.00     0.010 A 
ATOM     33  C   UNL A   1      36.816  33.504  29.348  1.00  0.00     0.010 A 
ATOM     34  C   UNL A   1      36.574  32.501  30.299  1.00  0.00    -0.014 A 
BRANCH  34  35
ATOM     35  C   UNL A   1      37.718  31.787  30.919  1.00  0.00     0.031 A 
ATOM     36  C   UNL A   1      38.151  32.140  32.318  1.00  0.00     0.074 A 
ATOM     37  C   UNL A   1      38.398  30.860  30.217  1.00  0.00     0.049 A 
ATOM     38  N   UNL A   1      39.156  31.677  33.018  1.00  0.00    -0.248 NA
ATOM     39  C   UNL A   1      37.367  33.175  33.011  1.00  0.00     0.031 C 
ATOM     40  C   UNL A   1      38.106  30.460  28.840  1.00  0.00     0.029 A 
ATOM     41  N   UNL A   1      39.482  30.091  30.564  1.00  0.00    -0.354 N 
ATOM     42  C   UNL A   1      39.131  32.373  34.219  1.00  0.00     0.074 A 
ATOM     43  C   UNL A   1      38.057  33.335  34.130  1.00  0.00     0.031 C 
ATOM     44  C   UNL A   1      38.971  29.501  28.469  1.00  0.00     0.029 A 
ATOM     45  C   UNL A   1      39.900  29.245  29.565  1.00  0.00     0.049 A 
ATOM     46  H   UNL A   1      39.918  30.141  31.445  1.00  0.00     0.167 HD
ATOM     47  C   UNL A   1      39.914  32.204  35.313  1.00  0.00     0.037 A 
ATOM     48  C   UNL A   1      40.919  28.365  29.540  1.00  0.00     0.037 A 
ATOM     49  C   UNL A   1      40.968  31.230  35.409  1.00  0.00     0.049 A 
ATOM     50  C   UNL A   1      41.781  28.204  30.765  1.00  0.00     0.074 A 
ATOM     51  C   UNL A   1      41.788  30.947  36.486  1.00  0.00     0.029 A 
ATOM     52  N   UNL A   1      41.349  30.377  34.382  1.00  0.00    -0.354 N 
ATOM     53  N   UNL A   1      41.706  28.821  31.919  1.00  0.00    -0.248 NA
ATOM     54  C   UNL A   1      42.863  27.214  30.685  1.00  0.00     0.031 C 
ATOM     55  C   UNL A   1      42.698  29.959  36.096  1.00  0.00     0.029 A 
ATOM     56  C   UNL A   1      42.404  29.579  34.797  1.00  0.00     0.049 A 
ATOM     57  H   UNL A   1      40.931  30.343  33.491  1.00  0.00     0.167 HD
ATOM     58  C   UNL A   1      42.700  28.265  32.715  1.00  0.00     0.074 A 
ATOM     59  C   UNL A   1      43.358  27.255  31.913  1.00  0.00     0.031 C 
ATOM     60  C   UNL A   1      43.035  28.563  33.994  1.00  0.00     0.037 A 
BRANCH  47  61
ATOM     61  C   UNL A   1      39.655  33.096  36.495  1.00  0.00     0.064 A 
ATOM     62  C   UNL A   1      40.324  34.320  36.655  1.00  0.00     0.173 A 
ATOM     63  C   UNL A   1      38.709  32.736  37.466  1.00  0.00     0.173 A 
ATOM     64  F   UNL A   1      41.248  34.708  35.762  1.00  0.00    -0.203 F 
ATOM     65  C   UNL A   1      40.083  35.131  37.762  1.00  0.00     0.198 A 
ATOM     66  C   UNL A   1      38.444  33.567  38.552  1.00  0.00     0.198 A 
ATOM     67  F   UNL A   1      38.036  31.581  37.361  1.00  0.00    -0.203 F 
ATOM     68  F   UNL A   1      40.779  36.265  37.923  1.00  0.00    -0.200 F 
ATOM     69  C   UNL A   1      39.138  34.758  38.705  1.00  0.00     0.200 A 
ATOM     70  F   UNL A   1      37.520  33.211  39.455  1.00  0.00    -0.200 F 
ATOM     71  F   UNL A   1      38.903  35.542  39.766  1.00  0.00    -0.200 F 
ENDBRANCH  47  61
BRANCH  48  72
ATOM     72  C   UNL A   1      41.162  27.541  28.326  1.00  0.00     0.064 A 
ATOM     73  C   UNL A   1      40.548  26.291  28.171  1.00  0.00     0.173 A 
ATOM     74  C   UNL A   1      42.024  27.974  27.307  1.00  0.00     0.173 A 
ATOM     75  F   UNL A   1      39.731  25.823  29.126  1.00  0.00    -0.203 F 
ATOM     76  C   UNL A   1      40.805  25.493  27.057  1.00  0.00     0.198 A 
ATOM     77  C   UNL A   1      42.257  27.189  26.179  1.00  0.00     0.198 A 
ATOM     78  F   UNL A   1      42.633  29.165  27.403  1.00  0.00    -0.203 F 
ATOM     79  F   UNL A   1      40.246  24.279  26.962  1.00  0.00    -0.200 F 
ATOM     80  C   UNL A   1      41.656  25.945  26.060  1.00  0.00     0.200 A 
ATOM     81  F   UNL A   1      43.067  27.637  25.210  1.00  0.00    -0.200 F 
ATOM     82  F   UNL A   1      41.904  25.179  24.989  1.00  0.00    -0.200 F 
ENDBRANCH  48  72
BRANCH  60  83
ATOM     83  C   UNL A   1      44.121  27.745  34.633  1.00  0.00     0.064 A 
ATOM     84  C   UNL A   1      45.462  28.157  34.632  1.00  0.00     0.173 A 
ATOM     85  C   UNL A   1      43.805  26.543  35.288  1.00  0.00     0.173 A 
ATOM     86  F   UNL A   1      45.820  29.290  34.010  1.00  0.00    -0.203 F 
ATOM     87  C   UNL A   1      46.449  27.381  35.235  1.00  0.00     0.198 A 
ATOM     88  C   UNL A   1      44.789  25.789  35.920  1.00  0.00     0.198 A 
ATOM     89  F   UNL A   1      42.537  26.107  35.327  1.00  0.00    -0.203 F 
ATOM     90  F   UNL A   1      47.731  27.766  35.173  1.00  0.00    -0.200 F 
ATOM     91  C   UNL A   1      46.111  26.203  35.885  1.00  0.00     0.200 A 
ATOM     92  F   UNL A   1      44.456  24.661  36.562  1.00  0.00    -0.200 F 
ATOM     93  F   UNL A   1      47.063  25.462  36.470  1.00  0.00    -0.200 F 
ENDBRANCH  60  83
ENDBRANCH  34  35
ENDBRANCH  26  29
ENDBRANCH  24  25
ENDBRANCH  23  24
ENDBRANCH   1  23
TORSDOF 13
ENDMDL
MODEL 3
REMARK VINA RESULT:     -12.2      0.779      7.391
REMARK SMILES [NH3+][C@H]1CCCC[C@@H]1C(=O)N1CC(C(=O)NCCCCNC(=O)c2ccc(-c3c4nc(c(-c5c(F)c(F)c(F)c(F)c5F)c5ccc([nH]5)c(-c5c(F)c(F)c(F)c(F)c5F)c5nc(c(-c6c(F)c(F)c(F)c(F)c6F)c6ccc3[nH]6)C=C5)C=C4)cc2)C1
REMARK SMILES IDX 17 1 16 2 15 3 13 4 14 5 12 7 8 8 9 9 10 10 11 11 86 12 7 13
REMARK SMILES IDX 2 14 3 15 4 16 6 17 5 18 1 19 18 23 19 24 20 25 21 26 22 28
REMARK SMILES IDX 23 29 24 30 85 31 25 32 84 33 26 34 27 35 28 36 78 37 29 38
REMARK SMILES IDX 83 39 77 40 79 41 30 42 82 43 76 44 75 45 31 47 63 48 43 49
REMARK SMILES IDX 62 50 44 51 47 52 61 53 80 54 45 55 46 56 60 58 81 59 48 60
REMARK SMILES IDX 32 61 33 62 41 63 34 64 35 65 39 66 42 67 36 68 37 69 40 70
REMARK SMILES IDX 38 71 64 72 65 73 73 74 66 75 67 76 71 77 74 78 68 79 69 80
REMARK SMILES IDX 72 81 70 82 49 83 50 84 58 85 51 86 52 87 56 88 59 89 53 90
REMARK SMILES IDX 54 91 57 92 55 93
REMARK H PARENT 15 6 1 20 1 21 1 22 20 27 79 46 47 57
REMARK Flexibility Score: inf
ROOT
ATOM      1  C   UNL A   1      31.491  30.955  25.983  1.00  0.00     0.023 C 
ENDROOT
BRANCH   1   2
ATOM      2  C   UNL A   1      31.707  29.903  27.069  1.00  0.00     0.116 C 
BRANCH   2   3
ATOM      3  N   UNL A   1      33.101  29.525  27.180  1.00  0.00    -0.356 N 
ATOM      4  C   UNL A   1      33.823  28.539  26.550  1.00  0.00     0.226 C 
ATOM      5  O   UNL A   1      35.010  28.452  26.898  1.00  0.00    -0.275 OA
ATOM      6  H   UNL A   1      33.622  30.067  27.815  1.00  0.00     0.163 HD
BRANCH   4   7
ATOM      7  C   UNL A   1      33.226  27.619  25.479  1.00  0.00     0.117 C 
ATOM      8  C   UNL A   1      30.961  27.340  23.064  1.00  0.00     0.231 C 
ATOM      9  O   UNL A   1      31.217  26.227  22.608  1.00  0.00    -0.274 OA
ATOM     10  N   UNL A   1      31.657  27.895  24.117  1.00  0.00    -0.341 N 
ATOM     11  C   UNL A   1      33.113  28.105  24.042  1.00  0.00     0.134 C 
ATOM     12  C   UNL A   1      31.743  27.279  25.449  1.00  0.00     0.134 C 
BRANCH   8  13
ATOM     13  C   UNL A   1      29.755  28.155  22.595  1.00  0.00     0.136 C 
ATOM     14  C   UNL A   1      29.991  29.685  22.589  1.00  0.00     0.193 C 
ATOM     15  C   UNL A   1      28.705  30.464  22.283  1.00  0.00     0.066 C 
ATOM     16  C   UNL A   1      27.578  30.070  23.231  1.00  0.00     0.006 C 
ATOM     17  C   UNL A   1      28.561  27.768  23.481  1.00  0.00     0.020 C 
ATOM     18  C   UNL A   1      27.307  28.573  23.159  1.00  0.00     0.001 C 
BRANCH  14  19
ATOM     19  N   UNL A   1      31.028  30.075  21.626  1.00  0.00    -0.354 N 
ATOM     20  H   UNL A   1      30.771  30.960  21.189  1.00  0.00     0.344 HD
ATOM     21  H   UNL A   1      31.116  29.355  20.910  1.00  0.00     0.344 HD
ATOM     22  H   UNL A   1      31.919  30.183  22.111  1.00  0.00     0.344 HD
ENDBRANCH  14  19
ENDBRANCH   8  13
ENDBRANCH   4   7
ENDBRANCH   2   3
ENDBRANCH   1   2
BRANCH   1  23
ATOM     23  C   UNL A   1      31.302  32.380  26.508  1.00  0.00     0.023 C 
BRANCH  23  24
ATOM     24  C   UNL A   1      32.514  32.978  27.212  1.00  0.00     0.116 C 
BRANCH  24  25
ATOM     25  N   UNL A   1      32.305  34.356  27.630  1.00  0.00    -0.352 N 
ATOM     26  C   UNL A   1      32.931  35.061  28.628  1.00  0.00     0.251 C 
ATOM     27  H   UNL A   1      31.619  34.851  27.129  1.00  0.00     0.163 HD
ATOM     28  O   UNL A   1      32.528  36.182  28.934  1.00  0.00    -0.269 OA
BRANCH  26  29
ATOM     29  C   UNL A   1      34.073  34.465  29.354  1.00  0.00     0.039 A 
ATOM     30  C   UNL A   1      33.858  33.917  30.621  1.00  0.00     0.014 A 
ATOM     31  C   UNL A   1      35.353  34.453  28.794  1.00  0.00     0.014 A 
ATOM     32  C   UNL A   1      34.917  33.314  31.304  1.00  0.00     0.010 A 
ATOM     33  C   UNL A   1      36.385  33.778  29.437  1.00  0.00     0.010 A 
ATOM     34  C   UNL A   1      36.185  33.218  30.709  1.00  0.00    -0.014 A 
BRANCH  34  35
ATOM     35  C   UNL A   1      37.322  32.577  31.415  1.00  0.00     0.031 A 
ATOM     36  C   UNL A   1      38.055  31.430  30.770  1.00  0.00     0.074 A 
ATOM     37  C   UNL A   1      37.668  32.988  32.651  1.00  0.00     0.049 A 
ATOM     38  N   UNL A   1      39.034  30.700  31.241  1.00  0.00    -0.248 NA
ATOM     39  C   UNL A   1      37.604  31.031  29.427  1.00  0.00     0.031 C 
ATOM     40  C   UNL A   1      37.010  34.057  33.402  1.00  0.00     0.029 A 
ATOM     41  N   UNL A   1      38.656  32.547  33.497  1.00  0.00    -0.354 N 
ATOM     42  C   UNL A   1      39.303  29.753  30.261  1.00  0.00     0.074 A 
ATOM     43  C   UNL A   1      38.342  29.955  29.201  1.00  0.00     0.031 C 
ATOM     44  C   UNL A   1      37.630  34.208  34.584  1.00  0.00     0.029 A 
ATOM     45  C   UNL A   1      38.702  33.224  34.691  1.00  0.00     0.049 A 
ATOM     46  H   UNL A   1      39.274  31.815  33.268  1.00  0.00     0.167 HD
ATOM     47  C   UNL A   1      40.282  28.816  30.234  1.00  0.00     0.037 A 
ATOM     48  C   UNL A   1      39.517  33.064  35.752  1.00  0.00     0.037 A 
ATOM     49  C   UNL A   1      41.252  28.632  31.280  1.00  0.00     0.049 A 
ATOM     50  C   UNL A   1      40.591  32.009  35.700  1.00  0.00     0.074 A 
ATOM     51  C   UNL A   1      42.312  27.745  31.329  1.00  0.00     0.029 A 
ATOM     52  N   UNL A   1      41.278  29.351  32.467  1.00  0.00    -0.354 N 
ATOM     53  N   UNL A   1      40.878  31.163  34.741  1.00  0.00    -0.248 NA
ATOM     54  C   UNL A   1      41.464  31.897  36.877  1.00  0.00     0.031 C 
ATOM     55  C   UNL A   1      42.949  27.890  32.565  1.00  0.00     0.029 A 
ATOM     56  C   UNL A   1      42.326  28.914  33.261  1.00  0.00     0.049 A 
ATOM     57  H   UNL A   1      40.645  30.065  32.708  1.00  0.00     0.167 HD
ATOM     58  C   UNL A   1      41.986  30.449  35.179  1.00  0.00     0.074 A 
ATOM     59  C   UNL A   1      42.325  30.969  36.487  1.00  0.00     0.031 C 
ATOM     60  C   UNL A   1      42.664  29.455  34.553  1.00  0.00     0.037 A 
BRANCH  47  61
ATOM     61  C   UNL A   1      40.351  27.921  29.028  1.00  0.00     0.064 A 
ATOM     62  C   UNL A   1      39.643  26.710  28.967  1.00  0.00     0.173 A 
ATOM     63  C   UNL A   1      41.114  28.289  27.910  1.00  0.00     0.173 A 
ATOM     64  F   UNL A   1      38.907  26.304  30.014  1.00  0.00    -0.203 F 
ATOM     65  C   UNL A   1      39.726  25.884  27.849  1.00  0.00     0.198 A 
ATOM     66  C   UNL A   1      41.165  27.478  26.778  1.00  0.00     0.198 A 
ATOM     67  F   UNL A   1      41.806  29.437  27.910  1.00  0.00    -0.203 F 
ATOM     68  F   UNL A   1      39.089  24.705  27.841  1.00  0.00    -0.200 F 
ATOM     69  C   UNL A   1      40.480  26.272  26.753  1.00  0.00     0.200 A 
ATOM     70  F   UNL A   1      41.883  27.861  25.714  1.00  0.00    -0.200 F 
ATOM     71  F   UNL A   1      40.554  25.480  25.675  1.00  0.00    -0.200 F 
ENDBRANCH  47  61
BRANCH  48  72
ATOM     72  C   UNL A   1      39.375  33.946  36.941  1.00  0.00     0.064 A 
ATOM     73  C   UNL A   1      39.984  35.207  36.978  1.00  0.00     0.173 A 
ATOM     74  C   UNL A   1      38.645  33.542  38.069  1.00  0.00     0.173 A 
ATOM     75  F   UNL A   1      40.710  35.632  35.933  1.00  0.00    -0.203 F 
ATOM     76  C   UNL A   1      39.892  36.020  38.106  1.00  0.00     0.198 A 
ATOM     77  C   UNL A   1      38.527  34.369  39.184  1.00  0.00     0.198 A 
ATOM     78  F   UNL A   1      38.037  32.347  38.084  1.00  0.00    -0.203 F 
ATOM     79  F   UNL A   1      40.531  37.198  38.134  1.00  0.00    -0.200 F 
ATOM     80  C   UNL A   1      39.160  35.602  39.207  1.00  0.00     0.200 A 
ATOM     81  F   UNL A   1      37.805  33.968  40.239  1.00  0.00    -0.200 F 
ATOM     82  F   UNL A   1      39.071  36.384  40.291  1.00  0.00    -0.200 F 
ENDBRANCH  48  72
BRANCH  60  83
ATOM     83  C   UNL A   1      43.879  28.905  35.244  1.00  0.00     0.064 A 
ATOM     84  C   UNL A   1      45.161  29.431  35.027  1.00  0.00     0.173 A 
ATOM     85  C   UNL A   1      43.749  27.855  36.168  1.00  0.00     0.173 A 
ATOM     86  F   UNL A   1      45.343  30.426  34.146  1.00  0.00    -0.203 F 
ATOM     87  C   UNL A   1      46.271  28.905  35.684  1.00  0.00     0.198 A 
ATOM     88  C   UNL A   1      44.856  27.357  36.849  1.00  0.00     0.198 A 
ATOM     89  F   UNL A   1      42.544  27.321  36.421  1.00  0.00    -0.203 F 
ATOM     90  F   UNL A   1      47.493  29.385  35.418  1.00  0.00    -0.200 F 
ATOM     91  C   UNL A   1      46.116  27.875  36.599  1.00  0.00     0.200 A 
ATOM     92  F   UNL A   1      44.700  26.373  37.745  1.00  0.00    -0.200 F 
ATOM     93  F   UNL A   1      47.185  27.375  37.235  1.00  0.00    -0.200 F 
ENDBRANCH  60  83
ENDBRANCH  34  35
ENDBRANCH  26  29
ENDBRANCH  24  25
ENDBRANCH  23  24
ENDBRANCH   1  23
TORSDOF 13
ENDMDL
