MODEL 1
REMARK VINA RESULT:     -12.2      0.000      0.000
REMARK SMILES CC[NH2+][C@]1(C(=O)NCCCCNC(=O)c2ccc(-c3c4nc(c(-c5c(F)c(F)c(F)c(F)c5F)c5ccc([nH]5)c(-c5c(F)c(F)c(F)c(F)c5F)c5nc(c(-c6c(F)c(F)c(F)c(F)c6F)c6ccc3[nH]6)C=C5)C=C4)cc2)CCC[C@H]1CCSc1n[nH]c(=O)n1C
REMARK SMILES IDX 8 1 7 2 5 3 6 4 4 6 78 7 81 8 79 9 80 10 3 11 2 14 1 15
REMARK SMILES IDX 82 16 83 17 84 18 85 19 86 20 90 21 87 22 88 23 91 24 89 26
REMARK SMILES IDX 9 27 10 28 11 29 12 30 13 31 14 33 15 34 16 35 77 36 17 37
REMARK SMILES IDX 76 38 18 39 19 40 20 41 70 42 21 43 75 44 69 45 71 46 22 47
REMARK SMILES IDX 74 48 68 49 67 50 23 52 55 53 35 54 54 55 36 56 39 57 53 58
REMARK SMILES IDX 72 59 37 60 38 61 52 63 73 64 40 65 24 66 25 67 33 68 26 69
REMARK SMILES IDX 27 70 31 71 34 72 28 73 29 74 32 75 30 76 56 77 57 78 65 79
REMARK SMILES IDX 58 80 59 81 63 82 66 83 60 84 61 85 64 86 62 87 41 88 42 89
REMARK SMILES IDX 50 90 43 91 44 92 48 93 51 94 45 95 46 96 49 97 47 98
REMARK H PARENT 7 5 3 12 3 13 87 25 12 32 71 51 39 62
REMARK Flexibility Score: inf
ROOT
ATOM      1  C   UNL A   1      32.987  29.830  26.198  1.00  0.00     0.116 C 
ENDROOT
BRANCH   1   2
ATOM      2  N   UNL A   1      33.417  29.248  24.953  1.00  0.00    -0.351 N 
ATOM      3  C   UNL A   1      33.292  28.025  24.394  1.00  0.00     0.281 C 
ATOM      4  O   UNL A   1      34.003  27.897  23.386  1.00  0.00    -0.268 OA
ATOM      5  H   UNL A   1      33.911  29.882  24.384  1.00  0.00     0.163 HD
BRANCH   3   6
ATOM      6  C   UNL A   1      32.314  26.880  24.852  1.00  0.00     0.178 C 
ATOM      7  C   UNL A   1      31.364  27.159  26.034  1.00  0.00     0.079 C 
ATOM      8  C   UNL A   1      31.285  26.464  23.732  1.00  0.00     0.061 C 
ATOM      9  C   UNL A   1      30.294  26.082  25.969  1.00  0.00     0.008 C 
ATOM     10  C   UNL A   1      29.983  26.047  24.482  1.00  0.00     0.011 C 
BRANCH   6  11
ATOM     11  N   UNL A   1      33.098  25.669  25.310  1.00  0.00    -0.334 N 
ATOM     12  H   UNL A   1      34.063  25.962  25.460  1.00  0.00     0.347 HD
ATOM     13  H   UNL A   1      32.622  25.338  26.149  1.00  0.00     0.347 HD
BRANCH  11  14
ATOM     14  C   UNL A   1      33.115  24.526  24.395  1.00  0.00     0.257 C 
ATOM     15  C   UNL A   1      34.415  24.485  23.602  1.00  0.00     0.071 C 
ENDBRANCH  11  14
ENDBRANCH   6  11
BRANCH   8  16
ATOM     16  C   UNL A   1      30.921  27.511  22.649  1.00  0.00     0.022 C 
BRANCH  16  17
ATOM     17  C   UNL A   1      29.610  28.296  22.825  1.00  0.00     0.079 C 
BRANCH  17  18
ATOM     18  S   UNL A   1      29.729  30.038  23.340  1.00  0.00    -0.086 SA
BRANCH  18  19
ATOM     19  C   UNL A   1      28.854  30.862  22.108  1.00  0.00     0.191 A 
ATOM     20  N   UNL A   1      28.339  30.233  21.089  1.00  0.00    -0.146 NA
ATOM     21  N   UNL A   1      28.613  32.193  22.137  1.00  0.00    -0.273 N 
ATOM     22  N   UNL A   1      27.735  31.222  20.368  1.00  0.00    -0.226 N 
ATOM     23  C   UNL A   1      27.878  32.447  21.006  1.00  0.00     0.343 A 
ATOM     24  C   UNL A   1      28.955  33.227  23.085  1.00  0.00     0.157 C 
ATOM     25  H   UNL A   1      27.265  31.086  19.514  1.00  0.00     0.195 HD
ATOM     26  O   UNL A   1      27.439  33.512  20.618  1.00  0.00    -0.246 OA
ENDBRANCH  18  19
ENDBRANCH  17  18
ENDBRANCH  16  17
ENDBRANCH   8  16
ENDBRANCH   3   6
ENDBRANCH   1   2
BRANCH   1  27
ATOM     27  C   UNL A   1      31.740  30.684  25.998  1.00  0.00     0.023 C 
BRANCH  27  28
ATOM     28  C   UNL A   1      31.579  31.776  27.060  1.00  0.00     0.023 C 
BRANCH  28  29
ATOM     29  C   UNL A   1      32.810  32.654  27.256  1.00  0.00     0.116 C 
BRANCH  29  30
ATOM     30  N   UNL A   1      32.484  34.026  27.629  1.00  0.00    -0.352 N 
ATOM     31  C   UNL A   1      33.087  34.820  28.568  1.00  0.00     0.251 C 
ATOM     32  H   UNL A   1      31.732  34.435  27.142  1.00  0.00     0.163 HD
ATOM     33  O   UNL A   1      32.642  35.928  28.838  1.00  0.00    -0.269 OA
BRANCH  31  34
ATOM     34  C   UNL A   1      34.261  34.290  29.277  1.00  0.00     0.039 A 
ATOM     35  C   UNL A   1      34.058  33.444  30.366  1.00  0.00     0.014 A 
ATOM     36  C   UNL A   1      35.548  34.569  28.810  1.00  0.00     0.014 A 
ATOM     37  C   UNL A   1      35.155  32.830  30.960  1.00  0.00     0.010 A 
ATOM     38  C   UNL A   1      36.630  33.886  29.345  1.00  0.00     0.010 A 
ATOM     39  C   UNL A   1      36.444  33.020  30.432  1.00  0.00    -0.014 A 
BRANCH  39  40
ATOM     40  C   UNL A   1      37.610  32.324  31.024  1.00  0.00     0.031 A 
ATOM     41  C   UNL A   1      38.090  32.700  32.396  1.00  0.00     0.074 A 
ATOM     42  C   UNL A   1      38.254  31.383  30.307  1.00  0.00     0.049 A 
ATOM     43  N   UNL A   1      39.090  32.213  33.086  1.00  0.00    -0.248 NA
ATOM     44  C   UNL A   1      37.370  33.791  33.075  1.00  0.00     0.031 C 
ATOM     45  C   UNL A   1      37.914  30.983  28.940  1.00  0.00     0.029 A 
ATOM     46  N   UNL A   1      39.326  30.591  30.629  1.00  0.00    -0.354 N 
ATOM     47  C   UNL A   1      39.120  32.940  34.267  1.00  0.00     0.074 A 
ATOM     48  C   UNL A   1      38.089  33.949  34.175  1.00  0.00     0.031 C 
ATOM     49  C   UNL A   1      38.736  29.992  28.555  1.00  0.00     0.029 A 
ATOM     50  C   UNL A   1      39.680  29.715  29.632  1.00  0.00     0.049 A 
ATOM     51  H   UNL A   1      39.796  30.647  31.492  1.00  0.00     0.167 HD
ATOM     52  C   UNL A   1      39.915  32.758  35.348  1.00  0.00     0.037 A 
ATOM     53  C   UNL A   1      40.656  28.789  29.599  1.00  0.00     0.037 A 
ATOM     54  C   UNL A   1      40.926  31.738  35.437  1.00  0.00     0.049 A 
ATOM     55  C   UNL A   1      41.527  28.609  30.813  1.00  0.00     0.074 A 
ATOM     56  C   UNL A   1      41.750  31.431  36.504  1.00  0.00     0.029 A 
ATOM     57  N   UNL A   1      41.251  30.859  34.413  1.00  0.00    -0.354 N 
ATOM     58  N   UNL A   1      41.495  29.245  31.959  1.00  0.00    -0.248 NA
ATOM     59  C   UNL A   1      42.563  27.571  30.734  1.00  0.00     0.031 C 
ATOM     60  C   UNL A   1      42.612  30.403  36.107  1.00  0.00     0.029 A 
ATOM     61  C   UNL A   1      42.281  30.025  34.816  1.00  0.00     0.049 A 
ATOM     62  H   UNL A   1      40.813  30.832  33.531  1.00  0.00     0.167 HD
ATOM     63  C   UNL A   1      42.482  28.667  32.746  1.00  0.00     0.074 A 
ATOM     64  C   UNL A   1      43.080  27.614  31.952  1.00  0.00     0.031 C 
ATOM     65  C   UNL A   1      42.860  28.979  34.011  1.00  0.00     0.037 A 
BRANCH  52  66
ATOM     66  C   UNL A   1      39.719  33.681  36.516  1.00  0.00     0.064 A 
ATOM     67  C   UNL A   1      40.341  34.938  36.577  1.00  0.00     0.173 A 
ATOM     68  C   UNL A   1      38.877  33.316  37.578  1.00  0.00     0.173 A 
ATOM     69  F   UNL A   1      41.168  35.331  35.596  1.00  0.00    -0.203 F 
ATOM     70  C   UNL A   1      40.155  35.780  37.671  1.00  0.00     0.198 A 
ATOM     71  C   UNL A   1      38.666  34.176  38.654  1.00  0.00     0.198 A 
ATOM     72  F   UNL A   1      38.255  32.129  37.572  1.00  0.00    -0.203 F 
ATOM     73  F   UNL A   1      40.807  36.949  37.733  1.00  0.00    -0.200 F 
ATOM     74  C   UNL A   1      39.313  35.402  38.704  1.00  0.00     0.200 A 
ATOM     75  F   UNL A   1      37.840  33.815  39.646  1.00  0.00    -0.200 F 
ATOM     76  F   UNL A   1      39.128  36.216  39.753  1.00  0.00    -0.200 F 
ENDBRANCH  52  66
BRANCH  53  77
ATOM     77  C   UNL A   1      40.839  27.941  28.391  1.00  0.00     0.064 A 
ATOM     78  C   UNL A   1      41.628  28.375  27.317  1.00  0.00     0.173 A 
ATOM     79  C   UNL A   1      40.223  26.686  28.280  1.00  0.00     0.173 A 
ATOM     80  F   UNL A   1      42.226  29.575  27.368  1.00  0.00    -0.203 F 
ATOM     81  C   UNL A   1      41.773  27.599  26.169  1.00  0.00     0.198 A 
ATOM     82  C   UNL A   1      40.393  25.897  27.145  1.00  0.00     0.198 A 
ATOM     83  F   UNL A   1      39.463  26.220  29.283  1.00  0.00    -0.203 F 
ATOM     84  F   UNL A   1      42.490  28.064  25.136  1.00  0.00    -0.200 F 
ATOM     85  C   UNL A   1      41.160  26.359  26.085  1.00  0.00     0.200 A 
ATOM     86  F   UNL A   1      39.813  24.691  27.076  1.00  0.00    -0.200 F 
ATOM     87  F   UNL A   1      41.300  25.612  24.982  1.00  0.00    -0.200 F 
ENDBRANCH  53  77
BRANCH  65  88
ATOM     88  C   UNL A   1      43.947  28.144  34.625  1.00  0.00     0.064 A 
ATOM     89  C   UNL A   1      43.665  26.961  35.325  1.00  0.00     0.173 A 
ATOM     90  C   UNL A   1      45.292  28.519  34.487  1.00  0.00     0.173 A 
ATOM     91  F   UNL A   1      42.395  26.564  35.496  1.00  0.00    -0.203 F 
ATOM     92  C   UNL A   1      44.686  26.207  35.897  1.00  0.00     0.198 A 
ATOM     93  C   UNL A   1      46.313  27.744  35.027  1.00  0.00     0.198 A 
ATOM     94  F   UNL A   1      45.618  29.636  33.818  1.00  0.00    -0.203 F 
ATOM     95  F   UNL A   1      44.388  25.116  36.614  1.00  0.00    -0.200 F 
ATOM     96  C   UNL A   1      46.009  26.595  35.741  1.00  0.00     0.200 A 
ATOM     97  F   UNL A   1      47.592  28.110  34.860  1.00  0.00    -0.200 F 
ATOM     98  F   UNL A   1      46.991  25.866  36.288  1.00  0.00    -0.200 F 
ENDBRANCH  65  88
ENDBRANCH  39  40
ENDBRANCH  31  34
ENDBRANCH  29  30
ENDBRANCH  28  29
ENDBRANCH  27  28
ENDBRANCH   1  27
TORSDOF 17
ENDMDL
MODEL 2
REMARK VINA RESULT:     -12.2      1.924      3.110
REMARK SMILES CC[NH2+][C@]1(C(=O)NCCCCNC(=O)c2ccc(-c3c4nc(c(-c5c(F)c(F)c(F)c(F)c5F)c5ccc([nH]5)c(-c5c(F)c(F)c(F)c(F)c5F)c5nc(c(-c6c(F)c(F)c(F)c(F)c6F)c6ccc3[nH]6)C=C5)C=C4)cc2)CCC[C@H]1CCSc1n[nH]c(=O)n1C
REMARK SMILES IDX 8 1 7 2 5 3 6 4 4 6 78 7 81 8 79 9 80 10 3 11 2 14 1 15
REMARK SMILES IDX 82 16 83 17 84 18 85 19 86 20 90 21 87 22 88 23 91 24 89 26
REMARK SMILES IDX 9 27 10 28 11 29 12 30 13 31 14 33 15 34 16 35 77 36 17 37
REMARK SMILES IDX 76 38 18 39 19 40 20 41 70 42 21 43 75 44 69 45 71 46 22 47
REMARK SMILES IDX 74 48 68 49 67 50 23 52 55 53 35 54 54 55 36 56 39 57 53 58
REMARK SMILES IDX 72 59 37 60 38 61 52 63 73 64 40 65 24 66 25 67 33 68 26 69
REMARK SMILES IDX 27 70 31 71 34 72 28 73 29 74 32 75 30 76 56 77 57 78 65 79
REMARK SMILES IDX 58 80 59 81 63 82 66 83 60 84 61 85 64 86 62 87 41 88 42 89
REMARK SMILES IDX 50 90 43 91 44 92 48 93 51 94 45 95 46 96 49 97 47 98
REMARK H PARENT 7 5 3 12 3 13 87 25 12 32 71 51 39 62
REMARK Flexibility Score: inf
ROOT
ATOM      1  C   UNL A   1      32.181  26.529  26.393  1.00  0.00     0.116 C 
ENDROOT
BRANCH   1   2
ATOM      2  N   UNL A   1      31.417  25.409  26.879  1.00  0.00    -0.351 N 
ATOM      3  C   UNL A   1      31.273  24.127  26.481  1.00  0.00     0.281 C 
ATOM      4  O   UNL A   1      30.342  23.557  27.072  1.00  0.00    -0.268 OA
ATOM      5  H   UNL A   1      30.883  25.627  27.677  1.00  0.00     0.163 HD
BRANCH   3   6
ATOM      6  C   UNL A   1      32.192  23.350  25.468  1.00  0.00     0.178 C 
ATOM      7  C   UNL A   1      31.990  21.829  25.317  1.00  0.00     0.079 C 
ATOM      8  C   UNL A   1      32.005  23.827  23.977  1.00  0.00     0.061 C 
ATOM      9  C   UNL A   1      32.683  21.446  24.020  1.00  0.00     0.008 C 
ATOM     10  C   UNL A   1      32.240  22.564  23.093  1.00  0.00     0.011 C 
BRANCH   6  11
ATOM     11  N   UNL A   1      33.645  23.473  25.873  1.00  0.00    -0.334 N 
ATOM     12  H   UNL A   1      33.672  23.803  26.837  1.00  0.00     0.347 HD
ATOM     13  H   UNL A   1      34.046  22.545  25.734  1.00  0.00     0.347 HD
BRANCH  11  14
ATOM     14  C   UNL A   1      34.466  24.378  25.067  1.00  0.00     0.257 C 
ATOM     15  C   UNL A   1      35.711  23.667  24.551  1.00  0.00     0.071 C 
ENDBRANCH  11  14
ENDBRANCH   6  11
BRANCH   8  16
ATOM     16  C   UNL A   1      30.653  24.468  23.578  1.00  0.00     0.022 C 
BRANCH  16  17
ATOM     17  C   UNL A   1      30.667  25.933  23.107  1.00  0.00     0.079 C 
BRANCH  17  18
ATOM     18  S   UNL A   1      29.261  26.989  23.581  1.00  0.00    -0.086 SA
BRANCH  18  19
ATOM     19  C   UNL A   1      29.584  28.455  22.740  1.00  0.00     0.191 A 
ATOM     20  N   UNL A   1      30.738  28.692  22.183  1.00  0.00    -0.146 NA
ATOM     21  N   UNL A   1      28.658  29.427  22.569  1.00  0.00    -0.273 N 
ATOM     22  N   UNL A   1      30.581  29.928  21.626  1.00  0.00    -0.226 N 
ATOM     23  C   UNL A   1      29.293  30.400  21.838  1.00  0.00     0.343 A 
ATOM     24  C   UNL A   1      27.277  29.542  22.974  1.00  0.00     0.157 C 
ATOM     25  H   UNL A   1      31.285  30.417  21.142  1.00  0.00     0.195 HD
ATOM     26  O   UNL A   1      28.847  31.463  21.453  1.00  0.00    -0.246 OA
ENDBRANCH  18  19
ENDBRANCH  17  18
ENDBRANCH  16  17
ENDBRANCH   8  16
ENDBRANCH   3   6
ENDBRANCH   1   2
BRANCH   1  27
ATOM     27  C   UNL A   1      31.317  27.782  26.304  1.00  0.00     0.023 C 
BRANCH  27  28
ATOM     28  C   UNL A   1      31.857  28.950  27.135  1.00  0.00     0.023 C 
BRANCH  28  29
ATOM     29  C   UNL A   1      32.854  29.840  26.401  1.00  0.00     0.116 C 
BRANCH  29  30
ATOM     30  N   UNL A   1      32.668  31.260  26.677  1.00  0.00    -0.352 N 
ATOM     31  C   UNL A   1      33.469  32.099  27.406  1.00  0.00     0.251 C 
ATOM     32  H   UNL A   1      31.861  31.669  26.288  1.00  0.00     0.163 HD
ATOM     33  O   UNL A   1      33.134  33.255  27.629  1.00  0.00    -0.269 OA
BRANCH  31  34
ATOM     34  C   UNL A   1      34.725  31.562  27.951  1.00  0.00     0.039 A 
ATOM     35  C   UNL A   1      35.805  32.428  28.115  1.00  0.00     0.014 A 
ATOM     36  C   UNL A   1      34.797  30.231  28.368  1.00  0.00     0.014 A 
ATOM     37  C   UNL A   1      36.951  31.966  28.753  1.00  0.00     0.010 A 
ATOM     38  C   UNL A   1      35.904  29.800  29.083  1.00  0.00     0.010 A 
ATOM     39  C   UNL A   1      36.995  30.660  29.271  1.00  0.00    -0.014 A 
BRANCH  39  40
ATOM     40  C   UNL A   1      38.191  30.180  30.002  1.00  0.00     0.031 A 
ATOM     41  C   UNL A   1      38.447  30.643  31.407  1.00  0.00     0.074 A 
ATOM     42  C   UNL A   1      39.059  29.357  29.382  1.00  0.00     0.049 A 
ATOM     43  N   UNL A   1      39.434  30.340  32.211  1.00  0.00    -0.248 NA
ATOM     44  C   UNL A   1      37.483  31.600  31.976  1.00  0.00     0.031 C 
ATOM     45  C   UNL A   1      38.944  28.893  27.998  1.00  0.00     0.029 A 
ATOM     46  N   UNL A   1      40.208  28.764  29.837  1.00  0.00    -0.354 N 
ATOM     47  C   UNL A   1      39.212  31.071  33.369  1.00  0.00     0.074 A 
ATOM     48  C   UNL A   1      38.040  31.887  33.141  1.00  0.00     0.031 C 
ATOM     49  C   UNL A   1      39.958  28.055  27.729  1.00  0.00     0.029 A 
ATOM     50  C   UNL A   1      40.812  27.953  28.907  1.00  0.00     0.049 A 
ATOM     51  H   UNL A   1      40.565  28.905  30.743  1.00  0.00     0.167 HD
ATOM     52  C   UNL A   1      39.903  31.037  34.532  1.00  0.00     0.037 A 
ATOM     53  C   UNL A   1      41.929  27.208  29.002  1.00  0.00     0.037 A 
ATOM     54  C   UNL A   1      41.056  30.206  34.756  1.00  0.00     0.049 A 
ATOM     55  C   UNL A   1      42.681  27.189  30.306  1.00  0.00     0.074 A 
ATOM     56  C   UNL A   1      41.800  30.053  35.912  1.00  0.00     0.029 A 
ATOM     57  N   UNL A   1      41.635  29.387  33.795  1.00  0.00    -0.354 N 
ATOM     58  N   UNL A   1      42.416  27.820  31.425  1.00  0.00    -0.248 NA
ATOM     59  C   UNL A   1      43.879  26.344  30.365  1.00  0.00     0.031 C 
ATOM     60  C   UNL A   1      42.861  29.185  35.636  1.00  0.00     0.029 A 
ATOM     61  C   UNL A   1      42.742  28.746  34.327  1.00  0.00     0.049 A 
ATOM     62  H   UNL A   1      41.308  29.279  32.873  1.00  0.00     0.167 HD
ATOM     63  C   UNL A   1      43.395  27.426  32.327  1.00  0.00     0.074 A 
ATOM     64  C   UNL A   1      44.246  26.485  31.629  1.00  0.00     0.031 C 
ATOM     65  C   UNL A   1      43.575  27.808  33.616  1.00  0.00     0.037 A 
BRANCH  52  66
ATOM     66  C   UNL A   1      39.427  31.922  35.649  1.00  0.00     0.064 A 
ATOM     67  C   UNL A   1      38.470  31.485  36.579  1.00  0.00     0.173 A 
ATOM     68  C   UNL A   1      39.950  33.214  35.807  1.00  0.00     0.173 A 
ATOM     69  F   UNL A   1      37.925  30.264  36.466  1.00  0.00    -0.203 F 
ATOM     70  C   UNL A   1      38.032  32.319  37.604  1.00  0.00     0.198 A 
ATOM     71  C   UNL A   1      39.536  34.032  36.855  1.00  0.00     0.198 A 
ATOM     72  F   UNL A   1      40.868  33.682  34.949  1.00  0.00    -0.203 F 
ATOM     73  F   UNL A   1      37.076  31.901  38.444  1.00  0.00    -0.200 F 
ATOM     74  C   UNL A   1      38.571  33.589  37.746  1.00  0.00     0.200 A 
ATOM     75  F   UNL A   1      40.067  35.255  36.999  1.00  0.00    -0.200 F 
ATOM     76  F   UNL A   1      38.154  34.389  38.738  1.00  0.00    -0.200 F 
ENDBRANCH  52  66
BRANCH  53  77
ATOM     77  C   UNL A   1      42.384  26.394  27.844  1.00  0.00     0.064 A 
ATOM     78  C   UNL A   1      43.362  26.876  26.962  1.00  0.00     0.173 A 
ATOM     79  C   UNL A   1      41.846  25.125  27.587  1.00  0.00     0.173 A 
ATOM     80  F   UNL A   1      43.895  28.091  27.155  1.00  0.00    -0.203 F 
ATOM     81  C   UNL A   1      43.765  26.132  25.855  1.00  0.00     0.198 A 
ATOM     82  C   UNL A   1      42.272  24.368  26.498  1.00  0.00     0.198 A 
ATOM     83  F   UNL A   1      40.913  24.613  28.404  1.00  0.00    -0.203 F 
ATOM     84  F   UNL A   1      44.662  26.641  25.000  1.00  0.00    -0.200 F 
ATOM     85  C   UNL A   1      43.224  24.877  25.626  1.00  0.00     0.200 A 
ATOM     86  F   UNL A   1      41.759  23.147  26.291  1.00  0.00    -0.200 F 
ATOM     87  F   UNL A   1      43.612  24.160  24.563  1.00  0.00    -0.200 F 
ENDBRANCH  53  77
BRANCH  65  88
ATOM     88  C   UNL A   1      44.714  27.177  34.364  1.00  0.00     0.064 A 
ATOM     89  C   UNL A   1      45.983  27.771  34.418  1.00  0.00     0.173 A 
ATOM     90  C   UNL A   1      44.523  25.973  35.060  1.00  0.00     0.173 A 
ATOM     91  F   UNL A   1      46.222  28.916  33.760  1.00  0.00    -0.203 F 
ATOM     92  C   UNL A   1      47.029  27.164  35.108  1.00  0.00     0.198 A 
ATOM     93  C   UNL A   1      45.560  25.388  35.779  1.00  0.00     0.198 A 
ATOM     94  F   UNL A   1      43.326  25.368  35.051  1.00  0.00    -0.203 F 
ATOM     95  F   UNL A   1      48.249  27.717  35.092  1.00  0.00    -0.200 F 
ATOM     96  C   UNL A   1      46.815  25.977  35.793  1.00  0.00     0.200 A 
ATOM     97  F   UNL A   1      45.347  24.251  36.457  1.00  0.00    -0.200 F 
ATOM     98  F   UNL A   1      47.821  25.396  36.461  1.00  0.00    -0.200 F 
ENDBRANCH  65  88
ENDBRANCH  39  40
ENDBRANCH  31  34
ENDBRANCH  29  30
ENDBRANCH  28  29
ENDBRANCH  27  28
ENDBRANCH   1  27
TORSDOF 17
ENDMDL
MODEL 3
REMARK VINA RESULT:     -12.2      0.657      7.438
REMARK SMILES CC[NH2+][C@]1(C(=O)NCCCCNC(=O)c2ccc(-c3c4nc(c(-c5c(F)c(F)c(F)c(F)c5F)c5ccc([nH]5)c(-c5c(F)c(F)c(F)c(F)c5F)c5nc(c(-c6c(F)c(F)c(F)c(F)c6F)c6ccc3[nH]6)C=C5)C=C4)cc2)CCC[C@H]1CCSc1n[nH]c(=O)n1C
REMARK SMILES IDX 8 1 7 2 5 3 6 4 4 6 78 7 81 8 79 9 80 10 3 11 2 14 1 15
REMARK SMILES IDX 82 16 83 17 84 18 85 19 86 20 90 21 87 22 88 23 91 24 89 26
REMARK SMILES IDX 9 27 10 28 11 29 12 30 13 31 14 33 15 34 16 35 77 36 17 37
REMARK SMILES IDX 76 38 18 39 19 40 20 41 70 42 21 43 75 44 69 45 71 46 22 47
REMARK SMILES IDX 74 48 68 49 67 50 23 52 55 53 35 54 54 55 36 56 39 57 53 58
REMARK SMILES IDX 72 59 37 60 38 61 52 63 73 64 40 65 24 66 25 67 33 68 26 69
REMARK SMILES IDX 27 70 31 71 34 72 28 73 29 74 32 75 30 76 56 77 57 78 65 79
REMARK SMILES IDX 58 80 59 81 63 82 66 83 60 84 61 85 64 86 62 87 41 88 42 89
REMARK SMILES IDX 50 90 43 91 44 92 48 93 51 94 45 95 46 96 49 97 47 98
REMARK H PARENT 7 5 3 12 3 13 87 25 12 32 71 51 39 62
REMARK Flexibility Score: inf
ROOT
ATOM      1  C   UNL A   1      33.001  29.916  26.251  1.00  0.00     0.116 C 
ENDROOT
BRANCH   1   2
ATOM      2  N   UNL A   1      33.410  29.361  24.986  1.00  0.00    -0.351 N 
ATOM      3  C   UNL A   1      33.287  28.146  24.409  1.00  0.00     0.281 C 
ATOM      4  O   UNL A   1      33.975  28.045  23.382  1.00  0.00    -0.268 OA
ATOM      5  H   UNL A   1      33.882  30.011  24.417  1.00  0.00     0.163 HD
BRANCH   3   6
ATOM      6  C   UNL A   1      32.334  26.980  24.869  1.00  0.00     0.178 C 
ATOM      7  C   UNL A   1      31.375  27.243  26.047  1.00  0.00     0.079 C 
ATOM      8  C   UNL A   1      31.319  26.536  23.748  1.00  0.00     0.061 C 
ATOM      9  C   UNL A   1      30.331  26.141  25.984  1.00  0.00     0.008 C 
ATOM     10  C   UNL A   1      30.025  26.092  24.497  1.00  0.00     0.011 C 
BRANCH   6  11
ATOM     11  N   UNL A   1      33.145  25.791  25.335  1.00  0.00    -0.334 N 
ATOM     12  H   UNL A   1      34.106  26.104  25.473  1.00  0.00     0.347 HD
ATOM     13  H   UNL A   1      32.684  25.461  26.183  1.00  0.00     0.347 HD
BRANCH  11  14
ATOM     14  C   UNL A   1      33.176  24.637  24.434  1.00  0.00     0.257 C 
ATOM     15  C   UNL A   1      34.529  24.521  23.745  1.00  0.00     0.071 C 
ENDBRANCH  11  14
ENDBRANCH   6  11
BRANCH   8  16
ATOM     16  C   UNL A   1      30.933  27.569  22.659  1.00  0.00     0.022 C 
BRANCH  16  17
ATOM     17  C   UNL A   1      29.600  28.318  22.825  1.00  0.00     0.079 C 
BRANCH  17  18
ATOM     18  S   UNL A   1      29.666  30.054  23.369  1.00  0.00    -0.086 SA
BRANCH  18  19
ATOM     19  C   UNL A   1      28.814  30.879  22.122  1.00  0.00     0.191 A 
ATOM     20  N   UNL A   1      28.298  30.248  21.104  1.00  0.00    -0.146 NA
ATOM     21  N   UNL A   1      28.592  32.214  22.137  1.00  0.00    -0.273 N 
ATOM     22  N   UNL A   1      27.716  31.239  20.369  1.00  0.00    -0.226 N 
ATOM     23  C   UNL A   1      27.870  32.468  20.997  1.00  0.00     0.343 A 
ATOM     24  C   UNL A   1      28.941  33.251  23.078  1.00  0.00     0.157 C 
ATOM     25  H   UNL A   1      27.251  31.102  19.512  1.00  0.00     0.195 HD
ATOM     26  O   UNL A   1      27.451  33.536  20.595  1.00  0.00    -0.246 OA
ENDBRANCH  18  19
ENDBRANCH  17  18
ENDBRANCH  16  17
ENDBRANCH   8  16
ENDBRANCH   3   6
ENDBRANCH   1   2
BRANCH   1  27
ATOM     27  C   UNL A   1      31.809  30.850  26.077  1.00  0.00     0.023 C 
BRANCH  27  28
ATOM     28  C   UNL A   1      31.696  31.899  27.187  1.00  0.00     0.023 C 
BRANCH  28  29
ATOM     29  C   UNL A   1      32.888  32.844  27.287  1.00  0.00     0.116 C 
BRANCH  29  30
ATOM     30  N   UNL A   1      32.511  34.210  27.633  1.00  0.00    -0.352 N 
ATOM     31  C   UNL A   1      33.032  35.016  28.610  1.00  0.00     0.251 C 
ATOM     32  H   UNL A   1      31.788  34.604  27.093  1.00  0.00     0.163 HD
ATOM     33  O   UNL A   1      32.548  36.116  28.845  1.00  0.00    -0.269 OA
BRANCH  31  34
ATOM     34  C   UNL A   1      34.163  34.509  29.401  1.00  0.00     0.039 A 
ATOM     35  C   UNL A   1      33.895  33.816  30.581  1.00  0.00     0.014 A 
ATOM     36  C   UNL A   1      35.470  34.653  28.930  1.00  0.00     0.014 A 
ATOM     37  C   UNL A   1      34.945  33.215  31.266  1.00  0.00     0.010 A 
ATOM     38  C   UNL A   1      36.501  33.979  29.565  1.00  0.00     0.010 A 
ATOM     39  C   UNL A   1      36.250  33.264  30.746  1.00  0.00    -0.014 A 
BRANCH  39  40
ATOM     40  C   UNL A   1      37.364  32.579  31.441  1.00  0.00     0.031 A 
ATOM     41  C   UNL A   1      38.074  31.437  30.774  1.00  0.00     0.074 A 
ATOM     42  C   UNL A   1      37.706  32.967  32.685  1.00  0.00     0.049 A 
ATOM     43  N   UNL A   1      39.069  30.710  31.215  1.00  0.00    -0.248 NA
ATOM     44  C   UNL A   1      37.583  31.036  29.444  1.00  0.00     0.031 C 
ATOM     45  C   UNL A   1      37.044  34.022  33.454  1.00  0.00     0.029 A 
ATOM     46  N   UNL A   1      38.697  32.519  33.520  1.00  0.00    -0.354 N 
ATOM     47  C   UNL A   1      39.313  29.768  30.226  1.00  0.00     0.074 A 
ATOM     48  C   UNL A   1      38.320  29.965  29.194  1.00  0.00     0.031 C 
ATOM     49  C   UNL A   1      37.672  34.168  34.632  1.00  0.00     0.029 A 
ATOM     50  C   UNL A   1      38.755  33.194  34.714  1.00  0.00     0.049 A 
ATOM     51  H   UNL A   1      39.308  31.784  33.285  1.00  0.00     0.167 HD
ATOM     52  C   UNL A   1      40.300  28.844  30.168  1.00  0.00     0.037 A 
ATOM     53  C   UNL A   1      39.595  33.043  35.755  1.00  0.00     0.037 A 
ATOM     54  C   UNL A   1      41.295  28.669  31.192  1.00  0.00     0.049 A 
ATOM     55  C   UNL A   1      40.683  32.007  35.666  1.00  0.00     0.074 A 
ATOM     56  C   UNL A   1      42.372  27.800  31.210  1.00  0.00     0.029 A 
ATOM     57  N   UNL A   1      41.332  29.378  32.384  1.00  0.00    -0.354 N 
ATOM     58  N   UNL A   1      40.958  31.176  34.690  1.00  0.00    -0.248 NA
ATOM     59  C   UNL A   1      41.586  31.897  36.819  1.00  0.00     0.031 C 
ATOM     60  C   UNL A   1      43.027  27.944  32.437  1.00  0.00     0.029 A 
ATOM     61  C   UNL A   1      42.399  28.948  33.157  1.00  0.00     0.049 A 
ATOM     62  H   UNL A   1      40.694  30.082  32.643  1.00  0.00     0.167 HD
ATOM     63  C   UNL A   1      42.080  30.466  35.096  1.00  0.00     0.074 A 
ATOM     64  C   UNL A   1      42.446  30.982  36.400  1.00  0.00     0.031 C 
ATOM     65  C   UNL A   1      42.749  29.478  34.451  1.00  0.00     0.037 A 
BRANCH  52  66
ATOM     66  C   UNL A   1      40.350  27.957  28.956  1.00  0.00     0.064 A 
ATOM     67  C   UNL A   1      39.663  26.733  28.909  1.00  0.00     0.173 A 
ATOM     68  C   UNL A   1      41.072  28.346  27.818  1.00  0.00     0.173 A 
ATOM     69  F   UNL A   1      38.969  26.306  29.974  1.00  0.00    -0.203 F 
ATOM     70  C   UNL A   1      39.725  25.918  27.781  1.00  0.00     0.198 A 
ATOM     71  C   UNL A   1      41.103  27.544  26.679  1.00  0.00     0.198 A 
ATOM     72  F   UNL A   1      41.745  29.506  27.807  1.00  0.00    -0.203 F 
ATOM     73  F   UNL A   1      39.109  24.728  27.782  1.00  0.00    -0.200 F 
ATOM     74  C   UNL A   1      40.438  26.328  26.666  1.00  0.00     0.200 A 
ATOM     75  F   UNL A   1      41.781  27.948  25.596  1.00  0.00    -0.200 F 
ATOM     76  F   UNL A   1      40.490  25.547  25.577  1.00  0.00    -0.200 F 
ENDBRANCH  52  66
BRANCH  53  77
ATOM     77  C   UNL A   1      39.463  33.914  36.953  1.00  0.00     0.064 A 
ATOM     78  C   UNL A   1      38.761  33.480  38.087  1.00  0.00     0.173 A 
ATOM     79  C   UNL A   1      40.023  35.199  36.987  1.00  0.00     0.173 A 
ATOM     80  F   UNL A   1      38.193  32.266  38.098  1.00  0.00    -0.203 F 
ATOM     81  C   UNL A   1      38.604  34.307  39.198  1.00  0.00     0.198 A 
ATOM     82  C   UNL A   1      39.892  36.013  38.110  1.00  0.00     0.198 A 
ATOM     83  F   UNL A   1      40.711  35.660  35.932  1.00  0.00    -0.203 F 
ATOM     84  F   UNL A   1      37.883  33.886  40.246  1.00  0.00    -0.200 F 
ATOM     85  C   UNL A   1      39.174  35.571  39.211  1.00  0.00     0.200 A 
ATOM     86  F   UNL A   1      40.460  37.226  38.125  1.00  0.00    -0.200 F 
ATOM     87  F   UNL A   1      39.024  36.365  40.279  1.00  0.00    -0.200 F 
ENDBRANCH  53  77
BRANCH  65  88
ATOM     88  C   UNL A   1      43.965  28.918  35.131  1.00  0.00     0.064 A 
ATOM     89  C   UNL A   1      45.242  29.461  34.927  1.00  0.00     0.173 A 
ATOM     90  C   UNL A   1      43.846  27.839  36.020  1.00  0.00     0.173 A 
ATOM     91  F   UNL A   1      45.413  30.485  34.077  1.00  0.00    -0.203 F 
ATOM     92  C   UNL A   1      46.359  28.920  35.558  1.00  0.00     0.198 A 
ATOM     93  C   UNL A   1      44.958  27.324  36.678  1.00  0.00     0.198 A 
ATOM     94  F   UNL A   1      42.646  27.288  36.260  1.00  0.00    -0.203 F 
ATOM     95  F   UNL A   1      47.577  29.415  35.299  1.00  0.00    -0.200 F 
ATOM     96  C   UNL A   1      46.215  27.857  36.438  1.00  0.00     0.200 A 
ATOM     97  F   UNL A   1      44.815  26.310  37.543  1.00  0.00    -0.200 F 
ATOM     98  F   UNL A   1      47.291  27.341  37.048  1.00  0.00    -0.200 F 
ENDBRANCH  65  88
ENDBRANCH  39  40
ENDBRANCH  31  34
ENDBRANCH  29  30
ENDBRANCH  28  29
ENDBRANCH  27  28
ENDBRANCH   1  27
TORSDOF 17
ENDMDL
