MODEL 1
REMARK VINA RESULT:     -12.9      0.000      0.000
REMARK SMILES CC1(C)CCC[C@@H]1Nc1nc2c(cc1C(=O)NCCCCNC(=O)c1ccc(-c3c4nc(c(-c5c(F)c(F)c(F)c(F)c5F)c5ccc([nH]5)c(-c5c(F)c(F)c(F)c(F)c5F)c5nc(c(-c6c(F)c(F)c(F)c(F)c6F)c6ccc3[nH]6)C=C5)C=C4)cc1)CCC2
REMARK SMILES IDX 19 1 18 2 17 3 15 4 16 5 14 7 9 8 10 9 11 10 13 11 12 12
REMARK SMILES IDX 90 13 88 14 89 15 8 16 7 18 1 19 2 20 3 21 4 22 5 23 6 24
REMARK SMILES IDX 20 25 21 26 22 27 23 28 24 30 25 31 26 32 87 33 27 34 86 35
REMARK SMILES IDX 28 36 29 37 30 38 80 39 31 40 85 41 79 42 81 43 32 44 84 45
REMARK SMILES IDX 78 46 77 47 33 49 65 50 45 51 64 52 46 53 49 54 63 55 82 56
REMARK SMILES IDX 47 57 48 58 62 60 83 61 50 62 34 63 35 64 43 65 36 66 37 67
REMARK SMILES IDX 41 68 44 69 38 70 39 71 42 72 40 73 66 74 67 75 75 76 68 77
REMARK SMILES IDX 69 78 73 79 76 80 70 81 71 82 74 83 72 84 51 85 52 86 60 87
REMARK SMILES IDX 53 88 54 89 58 90 61 91 55 92 56 93 59 94 57 95
REMARK H PARENT 17 6 8 17 22 29 81 48 49 59
REMARK Flexibility Score: inf
ROOT
ATOM      1  C   UNL A   1      31.893  29.935  26.688  1.00  0.00     0.023 C 
ENDROOT
BRANCH   1   2
ATOM      2  C   UNL A   1      33.232  29.317  26.301  1.00  0.00     0.116 C 
BRANCH   2   3
ATOM      3  N   UNL A   1      33.682  29.474  24.944  1.00  0.00    -0.352 N 
ATOM      4  C   UNL A   1      33.177  28.918  23.784  1.00  0.00     0.255 C 
ATOM      5  O   UNL A   1      33.564  29.433  22.729  1.00  0.00    -0.269 OA
ATOM      6  H   UNL A   1      34.462  30.063  24.825  1.00  0.00     0.163 HD
BRANCH   4   7
ATOM      7  C   UNL A   1      32.339  27.679  23.685  1.00  0.00     0.082 A 
ATOM      8  C   UNL A   1      30.991  27.504  23.324  1.00  0.00     0.139 A 
ATOM      9  N   UNL A   1      30.386  26.281  23.337  1.00  0.00    -0.235 NA
ATOM     10  C   UNL A   1      31.128  25.211  23.623  1.00  0.00     0.046 A 
ATOM     11  C   UNL A   1      33.082  26.499  23.971  1.00  0.00     0.023 A 
ATOM     12  C   UNL A   1      32.467  25.261  23.927  1.00  0.00    -0.025 A 
ATOM     13  C   UNL A   1      30.620  23.803  23.549  1.00  0.00     0.057 C 
ATOM     14  C   UNL A   1      33.025  23.887  24.086  1.00  0.00     0.038 C 
ATOM     15  C   UNL A   1      31.742  23.058  24.283  1.00  0.00     0.011 C 
BRANCH   8  16
ATOM     16  N   UNL A   1      30.048  28.373  22.889  1.00  0.00    -0.366 N 
ATOM     17  H   UNL A   1      29.736  28.217  21.968  1.00  0.00     0.162 HD
BRANCH  16  18
ATOM     18  C   UNL A   1      29.434  29.480  23.551  1.00  0.00     0.086 C 
ATOM     19  C   UNL A   1      27.065  28.577  23.055  1.00  0.00     0.013 C 
ATOM     20  C   UNL A   1      28.029  29.763  22.948  1.00  0.00    -0.015 C 
ATOM     21  C   UNL A   1      28.009  30.151  21.450  1.00  0.00     0.013 C 
ATOM     22  C   UNL A   1      27.687  31.002  23.789  1.00  0.00     0.008 C 
ATOM     23  C   UNL A   1      28.998  31.823  23.780  1.00  0.00     0.003 C 
ATOM     24  C   UNL A   1      30.130  30.828  23.447  1.00  0.00     0.025 C 
ENDBRANCH  16  18
ENDBRANCH   8  16
ENDBRANCH   4   7
ENDBRANCH   2   3
ENDBRANCH   1   2
BRANCH   1  25
ATOM     25  C   UNL A   1      31.770  31.471  26.742  1.00  0.00     0.023 C 
BRANCH  25  26
ATOM     26  C   UNL A   1      32.850  32.310  27.436  1.00  0.00     0.116 C 
BRANCH  26  27
ATOM     27  N   UNL A   1      32.507  33.712  27.629  1.00  0.00    -0.352 N 
ATOM     28  C   UNL A   1      33.016  34.688  28.453  1.00  0.00     0.251 C 
ATOM     29  H   UNL A   1      31.769  34.022  27.056  1.00  0.00     0.163 HD
ATOM     30  O   UNL A   1      32.535  35.805  28.485  1.00  0.00    -0.269 OA
BRANCH  28  31
ATOM     31  C   UNL A   1      34.156  34.351  29.307  1.00  0.00     0.039 A 
ATOM     32  C   UNL A   1      33.922  33.768  30.554  1.00  0.00     0.014 A 
ATOM     33  C   UNL A   1      35.446  34.559  28.823  1.00  0.00     0.014 A 
ATOM     34  C   UNL A   1      35.004  33.277  31.277  1.00  0.00     0.010 A 
ATOM     35  C   UNL A   1      36.512  34.009  29.510  1.00  0.00     0.010 A 
ATOM     36  C   UNL A   1      36.292  33.351  30.728  1.00  0.00    -0.014 A 
BRANCH  36  37
ATOM     37  C   UNL A   1      37.447  32.720  31.393  1.00  0.00     0.031 A 
ATOM     38  C   UNL A   1      38.123  31.561  30.734  1.00  0.00     0.074 A 
ATOM     39  C   UNL A   1      37.780  33.119  32.633  1.00  0.00     0.049 A 
ATOM     40  N   UNL A   1      39.067  30.786  31.193  1.00  0.00    -0.248 NA
ATOM     41  C   UNL A   1      37.638  31.198  29.391  1.00  0.00     0.031 C 
ATOM     42  C   UNL A   1      37.121  34.194  33.379  1.00  0.00     0.029 A 
ATOM     43  N   UNL A   1      38.736  32.654  33.494  1.00  0.00    -0.354 N 
ATOM     44  C   UNL A   1      39.278  29.835  30.205  1.00  0.00     0.074 A 
ATOM     45  C   UNL A   1      38.325  30.092  29.148  1.00  0.00     0.031 C 
ATOM     46  C   UNL A   1      37.706  34.317  34.581  1.00  0.00     0.029 A 
ATOM     47  C   UNL A   1      38.759  33.314  34.697  1.00  0.00     0.049 A 
ATOM     48  H   UNL A   1      39.350  31.916  33.272  1.00  0.00     0.167 HD
ATOM     49  C   UNL A   1      40.208  28.854  30.179  1.00  0.00     0.037 A 
ATOM     50  C   UNL A   1      39.549  33.125  35.770  1.00  0.00     0.037 A 
ATOM     51  C   UNL A   1      41.160  28.637  31.232  1.00  0.00     0.049 A 
ATOM     52  C   UNL A   1      40.596  32.050  35.706  1.00  0.00     0.074 A 
ATOM     53  C   UNL A   1      42.195  27.724  31.289  1.00  0.00     0.029 A 
ATOM     54  N   UNL A   1      41.188  29.354  32.423  1.00  0.00    -0.354 N 
ATOM     55  N   UNL A   1      40.845  31.200  34.737  1.00  0.00    -0.248 NA
ATOM     56  C   UNL A   1      41.475  31.908  36.872  1.00  0.00     0.031 C 
ATOM     57  C   UNL A   1      42.830  27.866  32.528  1.00  0.00     0.029 A 
ATOM     58  C   UNL A   1      42.213  28.893  33.227  1.00  0.00     0.049 A 
ATOM     59  H   UNL A   1      40.569  30.082  32.657  1.00  0.00     0.167 HD
ATOM     60  C   UNL A   1      41.916  30.432  35.166  1.00  0.00     0.074 A 
ATOM     61  C   UNL A   1      42.279  30.928  36.481  1.00  0.00     0.031 C 
ATOM     62  C   UNL A   1      42.542  29.409  34.535  1.00  0.00     0.037 A 
BRANCH  49  63
ATOM     63  C   UNL A   1      40.233  27.964  28.971  1.00  0.00     0.064 A 
ATOM     64  C   UNL A   1      39.542  26.742  28.948  1.00  0.00     0.173 A 
ATOM     65  C   UNL A   1      40.961  28.328  27.830  1.00  0.00     0.173 A 
ATOM     66  F   UNL A   1      38.846  26.339  30.022  1.00  0.00    -0.203 F 
ATOM     67  C   UNL A   1      39.607  25.902  27.839  1.00  0.00     0.198 A 
ATOM     68  C   UNL A   1      40.999  27.499  26.711  1.00  0.00     0.198 A 
ATOM     69  F   UNL A   1      41.640  29.483  27.799  1.00  0.00    -0.203 F 
ATOM     70  F   UNL A   1      38.988  24.714  27.865  1.00  0.00    -0.200 F 
ATOM     71  C   UNL A   1      40.331  26.283  26.720  1.00  0.00     0.200 A 
ATOM     72  F   UNL A   1      41.694  27.870  25.626  1.00  0.00    -0.200 F 
ATOM     73  F   UNL A   1      40.395  25.473  25.656  1.00  0.00    -0.200 F 
ENDBRANCH  49  63
BRANCH  50  74
ATOM     74  C   UNL A   1      39.408  34.019  36.945  1.00  0.00     0.064 A 
ATOM     75  C   UNL A   1      38.677  33.607  38.068  1.00  0.00     0.173 A 
ATOM     76  C   UNL A   1      40.054  35.262  37.007  1.00  0.00     0.173 A 
ATOM     77  F   UNL A   1      38.033  32.430  38.051  1.00  0.00    -0.203 F 
ATOM     78  C   UNL A   1      38.599  34.404  39.208  1.00  0.00     0.198 A 
ATOM     79  C   UNL A   1      39.991  36.050  38.155  1.00  0.00     0.198 A 
ATOM     80  F   UNL A   1      40.777  35.695  35.963  1.00  0.00    -0.203 F 
ATOM     81  F   UNL A   1      37.884  33.990  40.264  1.00  0.00    -0.200 F 
ATOM     82  C   UNL A   1      39.262  35.620  39.254  1.00  0.00     0.200 A 
ATOM     83  F   UNL A   1      40.648  37.216  38.202  1.00  0.00    -0.200 F 
ATOM     84  F   UNL A   1      39.204  36.376  40.359  1.00  0.00    -0.200 F 
ENDBRANCH  50  74
BRANCH  62  85
ATOM     85  C   UNL A   1      43.682  28.757  35.253  1.00  0.00     0.064 A 
ATOM     86  C   UNL A   1      44.994  29.231  35.115  1.00  0.00     0.173 A 
ATOM     87  C   UNL A   1      43.448  27.707  36.153  1.00  0.00     0.173 A 
ATOM     88  F   UNL A   1      45.265  30.225  34.255  1.00  0.00    -0.203 F 
ATOM     89  C   UNL A   1      46.035  28.671  35.849  1.00  0.00     0.198 A 
ATOM     90  C   UNL A   1      44.487  27.167  36.904  1.00  0.00     0.198 A 
ATOM     91  F   UNL A   1      42.207  27.226  36.322  1.00  0.00    -0.203 F 
ATOM     92  F   UNL A   1      47.286  29.123  35.685  1.00  0.00    -0.200 F 
ATOM     93  C   UNL A   1      45.778  27.648  36.750  1.00  0.00     0.200 A 
ATOM     94  F   UNL A   1      44.236  26.187  37.783  1.00  0.00    -0.200 F 
ATOM     95  F   UNL A   1      46.779  27.123  37.470  1.00  0.00    -0.200 F 
ENDBRANCH  62  85
ENDBRANCH  36  37
ENDBRANCH  28  31
ENDBRANCH  26  27
ENDBRANCH  25  26
ENDBRANCH   1  25
TORSDOF 13
ENDMDL
MODEL 2
REMARK VINA RESULT:     -12.9      0.604      7.321
REMARK SMILES CC1(C)CCC[C@@H]1Nc1nc2c(cc1C(=O)NCCCCNC(=O)c1ccc(-c3c4nc(c(-c5c(F)c(F)c(F)c(F)c5F)c5ccc([nH]5)c(-c5c(F)c(F)c(F)c(F)c5F)c5nc(c(-c6c(F)c(F)c(F)c(F)c6F)c6ccc3[nH]6)C=C5)C=C4)cc1)CCC2
REMARK SMILES IDX 19 1 18 2 17 3 15 4 16 5 14 7 9 8 10 9 11 10 13 11 12 12
REMARK SMILES IDX 90 13 88 14 89 15 8 16 7 18 1 19 2 20 3 21 4 22 5 23 6 24
REMARK SMILES IDX 20 25 21 26 22 27 23 28 24 30 25 31 26 32 87 33 27 34 86 35
REMARK SMILES IDX 28 36 29 37 30 38 80 39 31 40 85 41 79 42 81 43 32 44 84 45
REMARK SMILES IDX 78 46 77 47 33 49 65 50 45 51 64 52 46 53 49 54 63 55 82 56
REMARK SMILES IDX 47 57 48 58 62 60 83 61 50 62 34 63 35 64 43 65 36 66 37 67
REMARK SMILES IDX 41 68 44 69 38 70 39 71 42 72 40 73 66 74 67 75 75 76 68 77
REMARK SMILES IDX 69 78 73 79 76 80 70 81 71 82 74 83 72 84 51 85 52 86 60 87
REMARK SMILES IDX 53 88 54 89 58 90 61 91 55 92 56 93 59 94 57 95
REMARK H PARENT 17 6 8 17 22 29 81 48 49 59
REMARK Flexibility Score: inf
ROOT
ATOM      1  C   UNL A   1      31.683  30.300  26.507  1.00  0.00     0.023 C 
ENDROOT
BRANCH   1   2
ATOM      2  C   UNL A   1      33.022  29.617  26.256  1.00  0.00     0.116 C 
BRANCH   2   3
ATOM      3  N   UNL A   1      33.561  29.656  24.923  1.00  0.00    -0.352 N 
ATOM      4  C   UNL A   1      33.129  29.003  23.784  1.00  0.00     0.255 C 
ATOM      5  O   UNL A   1      33.588  29.424  22.717  1.00  0.00    -0.269 OA
ATOM      6  H   UNL A   1      34.351  30.232  24.805  1.00  0.00     0.163 HD
BRANCH   4   7
ATOM      7  C   UNL A   1      32.292  27.759  23.738  1.00  0.00     0.082 A 
ATOM      8  C   UNL A   1      30.946  27.568  23.380  1.00  0.00     0.139 A 
ATOM      9  N   UNL A   1      30.341  26.347  23.446  1.00  0.00    -0.235 NA
ATOM     10  C   UNL A   1      31.082  25.290  23.781  1.00  0.00     0.046 A 
ATOM     11  C   UNL A   1      33.035  26.594  24.077  1.00  0.00     0.023 A 
ATOM     12  C   UNL A   1      32.420  25.355  24.086  1.00  0.00    -0.025 A 
ATOM     13  C   UNL A   1      30.575  23.880  23.767  1.00  0.00     0.057 C 
ATOM     14  C   UNL A   1      32.979  23.990  24.307  1.00  0.00     0.038 C 
ATOM     15  C   UNL A   1      31.695  23.169  24.535  1.00  0.00     0.011 C 
BRANCH   8  16
ATOM     16  N   UNL A   1      30.004  28.417  22.905  1.00  0.00    -0.366 N 
ATOM     17  H   UNL A   1      29.700  28.226  21.988  1.00  0.00     0.162 HD
BRANCH  16  18
ATOM     18  C   UNL A   1      29.380  29.546  23.519  1.00  0.00     0.086 C 
ATOM     19  C   UNL A   1      27.019  28.592  23.085  1.00  0.00     0.013 C 
ATOM     20  C   UNL A   1      27.967  29.783  22.915  1.00  0.00    -0.015 C 
ATOM     21  C   UNL A   1      27.932  30.101  21.401  1.00  0.00     0.013 C 
ATOM     22  C   UNL A   1      27.616  31.056  23.700  1.00  0.00     0.008 C 
ATOM     23  C   UNL A   1      28.916  31.891  23.643  1.00  0.00     0.003 C 
ATOM     24  C   UNL A   1      30.058  30.896  23.348  1.00  0.00     0.025 C 
ENDBRANCH  16  18
ENDBRANCH   8  16
ENDBRANCH   4   7
ENDBRANCH   2   3
ENDBRANCH   1   2
BRANCH   1  25
ATOM     25  C   UNL A   1      31.644  31.836  26.637  1.00  0.00     0.023 C 
BRANCH  25  26
ATOM     26  C   UNL A   1      32.818  32.590  27.272  1.00  0.00     0.116 C 
BRANCH  26  27
ATOM     27  N   UNL A   1      32.533  33.968  27.645  1.00  0.00    -0.352 N 
ATOM     28  C   UNL A   1      33.083  34.810  28.583  1.00  0.00     0.251 C 
ATOM     29  H   UNL A   1      31.805  34.378  27.124  1.00  0.00     0.163 HD
ATOM     30  O   UNL A   1      32.647  35.932  28.761  1.00  0.00    -0.269 OA
BRANCH  28  31
ATOM     31  C   UNL A   1      34.212  34.322  29.377  1.00  0.00     0.039 A 
ATOM     32  C   UNL A   1      33.963  33.695  30.599  1.00  0.00     0.014 A 
ATOM     33  C   UNL A   1      35.501  34.437  28.858  1.00  0.00     0.014 A 
ATOM     34  C   UNL A   1      35.015  33.066  31.256  1.00  0.00     0.010 A 
ATOM     35  C   UNL A   1      36.530  33.753  29.477  1.00  0.00     0.010 A 
ATOM     36  C   UNL A   1      36.287  33.051  30.667  1.00  0.00    -0.014 A 
BRANCH  36  37
ATOM     37  C   UNL A   1      37.397  32.280  31.256  1.00  0.00     0.031 A 
ATOM     38  C   UNL A   1      37.901  32.651  32.613  1.00  0.00     0.074 A 
ATOM     39  C   UNL A   1      38.011  31.349  30.505  1.00  0.00     0.049 A 
ATOM     40  N   UNL A   1      38.937  32.193  33.263  1.00  0.00    -0.248 NA
ATOM     41  C   UNL A   1      37.164  33.715  33.317  1.00  0.00     0.031 C 
ATOM     42  C   UNL A   1      37.627  30.978  29.140  1.00  0.00     0.029 A 
ATOM     43  N   UNL A   1      39.098  30.562  30.771  1.00  0.00    -0.354 N 
ATOM     44  C   UNL A   1      38.986  32.923  34.441  1.00  0.00     0.074 A 
ATOM     45  C   UNL A   1      37.914  33.893  34.393  1.00  0.00     0.031 C 
ATOM     46  C   UNL A   1      38.458  30.022  28.695  1.00  0.00     0.029 A 
ATOM     47  C   UNL A   1      39.444  29.735  29.732  1.00  0.00     0.049 A 
ATOM     48  H   UNL A   1      39.587  30.587  31.626  1.00  0.00     0.167 HD
ATOM     49  C   UNL A   1      39.838  32.770  35.480  1.00  0.00     0.037 A 
ATOM     50  C   UNL A   1      40.448  28.844  29.636  1.00  0.00     0.037 A 
ATOM     51  C   UNL A   1      40.877  31.779  35.512  1.00  0.00     0.049 A 
ATOM     52  C   UNL A   1      41.362  28.669  30.815  1.00  0.00     0.074 A 
ATOM     53  C   UNL A   1      41.755  31.479  36.535  1.00  0.00     0.029 A 
ATOM     54  N   UNL A   1      41.175  30.922  34.459  1.00  0.00    -0.354 N 
ATOM     55  N   UNL A   1      41.359  29.307  31.961  1.00  0.00    -0.248 NA
ATOM     56  C   UNL A   1      42.412  27.650  30.696  1.00  0.00     0.031 C 
ATOM     57  C   UNL A   1      42.607  30.462  36.091  1.00  0.00     0.029 A 
ATOM     58  C   UNL A   1      42.234  30.103  34.803  1.00  0.00     0.049 A 
ATOM     59  H   UNL A   1      40.702  30.901  33.597  1.00  0.00     0.167 HD
ATOM     60  C   UNL A   1      42.392  28.762  32.707  1.00  0.00     0.074 A 
ATOM     61  C   UNL A   1      42.993  27.727  31.886  1.00  0.00     0.031 C 
ATOM     62  C   UNL A   1      42.809  29.086  33.955  1.00  0.00     0.037 A 
BRANCH  49  63
ATOM     63  C   UNL A   1      39.661  33.687  36.654  1.00  0.00     0.064 A 
ATOM     64  C   UNL A   1      38.852  33.332  37.745  1.00  0.00     0.173 A 
ATOM     65  C   UNL A   1      40.297  34.936  36.688  1.00  0.00     0.173 A 
ATOM     66  F   UNL A   1      38.206  32.157  37.753  1.00  0.00    -0.203 F 
ATOM     67  C   UNL A   1      38.658  34.209  38.810  1.00  0.00     0.198 A 
ATOM     68  C   UNL A   1      40.125  35.798  37.768  1.00  0.00     0.198 A 
ATOM     69  F   UNL A   1      41.080  35.325  35.671  1.00  0.00    -0.203 F 
ATOM     70  F   UNL A   1      37.833  33.872  39.810  1.00  0.00    -0.200 F 
ATOM     71  C   UNL A   1      39.298  35.438  38.823  1.00  0.00     0.200 A 
ATOM     72  F   UNL A   1      40.750  36.984  37.784  1.00  0.00    -0.200 F 
ATOM     73  F   UNL A   1      39.109  36.282  39.846  1.00  0.00    -0.200 F 
ENDBRANCH  49  63
BRANCH  50  74
ATOM     74  C   UNL A   1      40.579  28.023  28.408  1.00  0.00     0.064 A 
ATOM     75  C   UNL A   1      41.360  28.470  27.333  1.00  0.00     0.173 A 
ATOM     76  C   UNL A   1      39.995  26.752  28.306  1.00  0.00     0.173 A 
ATOM     77  F   UNL A   1      41.929  29.684  27.381  1.00  0.00    -0.203 F 
ATOM     78  C   UNL A   1      41.553  27.677  26.204  1.00  0.00     0.198 A 
ATOM     79  C   UNL A   1      40.204  25.951  27.184  1.00  0.00     0.198 A 
ATOM     80  F   UNL A   1      39.248  26.274  29.313  1.00  0.00    -0.203 F 
ATOM     81  F   UNL A   1      42.296  28.134  25.187  1.00  0.00    -0.200 F 
ATOM     82  C   UNL A   1      40.983  26.415  26.134  1.00  0.00     0.200 A 
ATOM     83  F   UNL A   1      39.666  24.726  27.127  1.00  0.00    -0.200 F 
ATOM     84  F   UNL A   1      41.187  25.644  25.057  1.00  0.00    -0.200 F 
ENDBRANCH  50  74
BRANCH  62  85
ATOM     85  C   UNL A   1      43.967  28.317  34.511  1.00  0.00     0.064 A 
ATOM     86  C   UNL A   1      45.274  28.819  34.441  1.00  0.00     0.173 A 
ATOM     87  C   UNL A   1      43.757  27.109  35.193  1.00  0.00     0.173 A 
ATOM     88  F   UNL A   1      45.522  29.964  33.786  1.00  0.00    -0.203 F 
ATOM     89  C   UNL A   1      46.332  28.136  35.032  1.00  0.00     0.198 A 
ATOM     90  C   UNL A   1      44.814  26.442  35.804  1.00  0.00     0.198 A 
ATOM     91  F   UNL A   1      42.522  26.595  35.290  1.00  0.00    -0.203 F 
ATOM     92  F   UNL A   1      47.578  28.621  34.934  1.00  0.00    -0.200 F 
ATOM     93  C   UNL A   1      46.099  26.955  35.721  1.00  0.00     0.200 A 
ATOM     94  F   UNL A   1      44.586  25.308  36.481  1.00  0.00    -0.200 F 
ATOM     95  F   UNL A   1      47.117  26.309  36.305  1.00  0.00    -0.200 F 
ENDBRANCH  62  85
ENDBRANCH  36  37
ENDBRANCH  28  31
ENDBRANCH  26  27
ENDBRANCH  25  26
ENDBRANCH   1  25
TORSDOF 13
ENDMDL
MODEL 3
REMARK VINA RESULT:     -12.7      6.029     11.180
REMARK SMILES CC1(C)CCC[C@@H]1Nc1nc2c(cc1C(=O)NCCCCNC(=O)c1ccc(-c3c4nc(c(-c5c(F)c(F)c(F)c(F)c5F)c5ccc([nH]5)c(-c5c(F)c(F)c(F)c(F)c5F)c5nc(c(-c6c(F)c(F)c(F)c(F)c6F)c6ccc3[nH]6)C=C5)C=C4)cc1)CCC2
REMARK SMILES IDX 19 1 18 2 17 3 15 4 16 5 14 7 9 8 10 9 11 10 13 11 12 12
REMARK SMILES IDX 90 13 88 14 89 15 8 16 7 18 1 19 2 20 3 21 4 22 5 23 6 24
REMARK SMILES IDX 20 25 21 26 22 27 23 28 24 30 25 31 26 32 87 33 27 34 86 35
REMARK SMILES IDX 28 36 29 37 30 38 80 39 31 40 85 41 79 42 81 43 32 44 84 45
REMARK SMILES IDX 78 46 77 47 33 49 65 50 45 51 64 52 46 53 49 54 63 55 82 56
REMARK SMILES IDX 47 57 48 58 62 60 83 61 50 62 34 63 35 64 43 65 36 66 37 67
REMARK SMILES IDX 41 68 44 69 38 70 39 71 42 72 40 73 66 74 67 75 75 76 68 77
REMARK SMILES IDX 69 78 73 79 76 80 70 81 71 82 74 83 72 84 51 85 52 86 60 87
REMARK SMILES IDX 53 88 54 89 58 90 61 91 55 92 56 93 59 94 57 95
REMARK H PARENT 17 6 8 17 22 29 81 48 49 59
REMARK Flexibility Score: inf
ROOT
ATOM      1  C   UNL A   1      37.042  21.821  24.339  1.00  0.00     0.023 C 
ENDROOT
BRANCH   1   2
ATOM      2  C   UNL A   1      36.588  22.996  25.198  1.00  0.00     0.116 C 
BRANCH   2   3
ATOM      3  N   UNL A   1      35.766  22.717  26.344  1.00  0.00    -0.352 N 
ATOM      4  C   UNL A   1      34.760  21.781  26.494  1.00  0.00     0.255 C 
ATOM      5  O   UNL A   1      34.406  21.554  27.656  1.00  0.00    -0.269 OA
ATOM      6  H   UNL A   1      35.946  23.273  27.137  1.00  0.00     0.163 HD
BRANCH   4   7
ATOM      7  C   UNL A   1      33.970  21.143  25.390  1.00  0.00     0.082 A 
ATOM      8  C   UNL A   1      33.032  21.687  24.495  1.00  0.00     0.139 A 
ATOM      9  N   UNL A   1      32.376  20.923  23.574  1.00  0.00    -0.235 NA
ATOM     10  C   UNL A   1      32.704  19.635  23.471  1.00  0.00     0.046 A 
ATOM     11  C   UNL A   1      34.286  19.765  25.225  1.00  0.00     0.023 A 
ATOM     12  C   UNL A   1      33.651  19.017  24.251  1.00  0.00    -0.025 A 
ATOM     13  C   UNL A   1      32.154  18.718  22.421  1.00  0.00     0.057 C 
ATOM     14  C   UNL A   1      33.860  17.607  23.812  1.00  0.00     0.038 C 
ATOM     15  C   UNL A   1      32.590  17.357  22.976  1.00  0.00     0.011 C 
BRANCH   8  16
ATOM     16  N   UNL A   1      32.595  22.954  24.297  1.00  0.00    -0.366 N 
ATOM     17  H   UNL A   1      31.693  23.139  24.645  1.00  0.00     0.162 HD
BRANCH  16  18
ATOM     18  C   UNL A   1      33.233  24.065  23.666  1.00  0.00     0.086 C 
ATOM     19  C   UNL A   1      33.291  25.403  25.874  1.00  0.00     0.013 C 
ATOM     20  C   UNL A   1      32.875  25.388  24.400  1.00  0.00    -0.015 C 
ATOM     21  C   UNL A   1      31.373  25.761  24.411  1.00  0.00     0.013 C 
ATOM     22  C   UNL A   1      33.622  26.352  23.467  1.00  0.00     0.008 C 
ATOM     23  C   UNL A   1      33.278  25.832  22.051  1.00  0.00     0.003 C 
ATOM     24  C   UNL A   1      32.853  24.358  22.223  1.00  0.00     0.025 C 
ENDBRANCH  16  18
ENDBRANCH   8  16
ENDBRANCH   4   7
ENDBRANCH   2   3
ENDBRANCH   1   2
BRANCH   1  25
ATOM     25  C   UNL A   1      37.771  20.643  25.016  1.00  0.00     0.023 C 
BRANCH  25  26
ATOM     26  C   UNL A   1      39.072  20.881  25.793  1.00  0.00     0.116 C 
BRANCH  26  27
ATOM     27  N   UNL A   1      39.951  19.723  25.886  1.00  0.00    -0.352 N 
ATOM     28  C   UNL A   1      41.298  19.598  26.126  1.00  0.00     0.251 C 
ATOM     29  H   UNL A   1      39.490  18.864  25.753  1.00  0.00     0.163 HD
ATOM     30  O   UNL A   1      41.847  18.512  26.112  1.00  0.00    -0.269 OA
BRANCH  28  31
ATOM     31  C   UNL A   1      42.073  20.811  26.396  1.00  0.00     0.039 A 
ATOM     32  C   UNL A   1      42.509  21.591  25.323  1.00  0.00     0.014 A 
ATOM     33  C   UNL A   1      42.293  21.190  27.719  1.00  0.00     0.014 A 
ATOM     34  C   UNL A   1      43.074  22.835  25.585  1.00  0.00     0.010 A 
ATOM     35  C   UNL A   1      42.791  22.453  27.975  1.00  0.00     0.010 A 
ATOM     36  C   UNL A   1      43.165  23.286  26.910  1.00  0.00    -0.014 A 
BRANCH  36  37
ATOM     37  C   UNL A   1      43.626  24.650  27.226  1.00  0.00     0.031 A 
ATOM     38  C   UNL A   1      42.644  25.647  27.751  1.00  0.00     0.074 A 
ATOM     39  C   UNL A   1      44.887  24.998  26.912  1.00  0.00     0.049 A 
ATOM     40  N   UNL A   1      42.803  26.923  27.975  1.00  0.00    -0.248 NA
ATOM     41  C   UNL A   1      41.284  25.149  28.018  1.00  0.00     0.031 C 
ATOM     42  C   UNL A   1      45.888  24.103  26.325  1.00  0.00     0.029 A 
ATOM     43  N   UNL A   1      45.534  26.199  27.018  1.00  0.00    -0.354 N 
ATOM     44  C   UNL A   1      41.563  27.383  28.393  1.00  0.00     0.074 A 
ATOM     45  C   UNL A   1      40.647  26.265  28.334  1.00  0.00     0.031 C 
ATOM     46  C   UNL A   1      47.030  24.785  26.140  1.00  0.00     0.029 A 
ATOM     47  C   UNL A   1      46.830  26.165  26.569  1.00  0.00     0.049 A 
ATOM     48  H   UNL A   1      45.110  27.011  27.382  1.00  0.00     0.167 HD
ATOM     49  C   UNL A   1      41.234  28.625  28.814  1.00  0.00     0.037 A 
ATOM     50  C   UNL A   1      47.750  27.145  26.515  1.00  0.00     0.037 A 
ATOM     51  C   UNL A   1      42.171  29.711  28.886  1.00  0.00     0.049 A 
ATOM     52  C   UNL A   1      47.371  28.509  27.017  1.00  0.00     0.074 A 
ATOM     53  C   UNL A   1      41.976  30.992  29.362  1.00  0.00     0.029 A 
ATOM     54  N   UNL A   1      43.494  29.633  28.465  1.00  0.00    -0.354 N 
ATOM     55  N   UNL A   1      46.217  28.923  27.485  1.00  0.00    -0.248 NA
ATOM     56  C   UNL A   1      48.416  29.540  26.994  1.00  0.00     0.031 C 
ATOM     57  C   UNL A   1      43.171  31.702  29.200  1.00  0.00     0.029 A 
ATOM     58  C   UNL A   1      44.122  30.850  28.657  1.00  0.00     0.049 A 
ATOM     59  H   UNL A   1      43.920  28.831  28.087  1.00  0.00     0.167 HD
ATOM     60  C   UNL A   1      46.396  30.255  27.825  1.00  0.00     0.074 A 
ATOM     61  C   UNL A   1      47.779  30.576  27.523  1.00  0.00     0.031 C 
ATOM     62  C   UNL A   1      45.501  31.134  28.339  1.00  0.00     0.037 A 
BRANCH  49  63
ATOM     63  C   UNL A   1      39.811  28.854  29.231  1.00  0.00     0.064 A 
ATOM     64  C   UNL A   1      38.843  29.300  28.316  1.00  0.00     0.173 A 
ATOM     65  C   UNL A   1      39.410  28.636  30.556  1.00  0.00     0.173 A 
ATOM     66  F   UNL A   1      39.180  29.541  27.041  1.00  0.00    -0.203 F 
ATOM     67  C   UNL A   1      37.535  29.552  28.722  1.00  0.00     0.198 A 
ATOM     68  C   UNL A   1      38.094  28.861  30.952  1.00  0.00     0.198 A 
ATOM     69  F   UNL A   1      40.295  28.212  31.470  1.00  0.00    -0.203 F 
ATOM     70  F   UNL A   1      36.645  30.034  27.844  1.00  0.00    -0.200 F 
ATOM     71  C   UNL A   1      37.160  29.328  30.037  1.00  0.00     0.200 A 
ATOM     72  F   UNL A   1      37.730  28.637  32.222  1.00  0.00    -0.200 F 
ATOM     73  F   UNL A   1      35.903  29.573  30.427  1.00  0.00    -0.200 F 
ENDBRANCH  49  63
BRANCH  50  74
ATOM     74  C   UNL A   1      49.117  26.836  26.028  1.00  0.00     0.064 A 
ATOM     75  C   UNL A   1      50.055  26.234  26.878  1.00  0.00     0.173 A 
ATOM     76  C   UNL A   1      49.493  27.062  24.697  1.00  0.00     0.173 A 
ATOM     77  F   UNL A   1      49.744  26.007  28.163  1.00  0.00    -0.203 F 
ATOM     78  C   UNL A   1      51.317  25.869  26.414  1.00  0.00     0.198 A 
ATOM     79  C   UNL A   1      50.749  26.680  24.228  1.00  0.00     0.198 A 
ATOM     80  F   UNL A   1      48.626  27.624  23.840  1.00  0.00    -0.203 F 
ATOM     81  F   UNL A   1      52.198  25.304  27.251  1.00  0.00    -0.200 F 
ATOM     82  C   UNL A   1      51.660  26.084  25.088  1.00  0.00     0.200 A 
ATOM     83  F   UNL A   1      51.070  26.872  22.942  1.00  0.00    -0.200 F 
ATOM     84  F   UNL A   1      52.866  25.713  24.637  1.00  0.00    -0.200 F 
ENDBRANCH  50  74
BRANCH  62  85
ATOM     85  C   UNL A   1      45.986  32.524  28.607  1.00  0.00     0.064 A 
ATOM     86  C   UNL A   1      45.860  33.536  27.645  1.00  0.00     0.173 A 
ATOM     87  C   UNL A   1      46.500  32.867  29.866  1.00  0.00     0.173 A 
ATOM     88  F   UNL A   1      45.385  33.249  26.423  1.00  0.00    -0.203 F 
ATOM     89  C   UNL A   1      46.238  34.844  27.933  1.00  0.00     0.198 A 
ATOM     90  C   UNL A   1      46.853  34.180  30.158  1.00  0.00     0.198 A 
ATOM     91  F   UNL A   1      46.632  31.933  30.819  1.00  0.00    -0.203 F 
ATOM     92  F   UNL A   1      46.132  35.792  26.991  1.00  0.00    -0.200 F 
ATOM     93  C   UNL A   1      46.723  35.166  29.192  1.00  0.00     0.200 A 
ATOM     94  F   UNL A   1      47.310  34.494  31.379  1.00  0.00    -0.200 F 
ATOM     95  F   UNL A   1      47.069  36.430  29.472  1.00  0.00    -0.200 F 
ENDBRANCH  62  85
ENDBRANCH  36  37
ENDBRANCH  28  31
ENDBRANCH  26  27
ENDBRANCH  25  26
ENDBRANCH   1  25
TORSDOF 13
ENDMDL
