MODEL 1
REMARK VINA RESULT:     -13.5      0.000      0.000
REMARK SMILES C[C@@H]1Cc2ccccc2N1S(=O)(=O)c1cccc(C(=O)NCCCCNC(=O)c2ccc(-c3c4nc(c(-c5c(F)c(F)c(F)c(F)c5F)c5ccc([nH]5)c(-c5c(F)c(F)c(F)c(F)c5F)c5nc(c(-c6c(F)c(F)c(F)c(F)c6F)c6ccc3[nH]6)C=C5)C=C4)cc2)c1
REMARK SMILES IDX 23 1 22 2 21 3 19 4 20 5 18 7 14 8 15 9 92 10 16 11 17 12
REMARK SMILES IDX 11 13 12 14 13 15 10 16 1 17 2 18 3 19 4 20 9 21 5 22 8 23
REMARK SMILES IDX 6 24 7 25 24 26 25 27 26 28 27 29 28 31 29 32 30 33 91 34
REMARK SMILES IDX 31 35 90 36 32 37 33 38 34 39 84 40 35 41 89 42 83 43 85 44
REMARK SMILES IDX 36 45 88 46 82 47 81 48 37 50 69 51 49 52 68 53 50 54 53 55
REMARK SMILES IDX 67 56 86 57 51 58 52 59 66 61 87 62 54 63 38 64 39 65 47 66
REMARK SMILES IDX 40 67 41 68 45 69 48 70 42 71 43 72 46 73 44 74 70 75 71 76
REMARK SMILES IDX 79 77 72 78 73 79 77 80 80 81 74 82 75 83 78 84 76 85 55 86
REMARK SMILES IDX 56 87 64 88 57 89 58 90 62 91 65 92 59 93 60 94 63 95 61 96
REMARK H PARENT 21 6 26 30 85 49 53 60
REMARK Flexibility Score: inf
ROOT
ATOM      1  C   UNL A   1      32.098  30.122  26.837  1.00  0.00     0.023 C 
ENDROOT
BRANCH   1   2
ATOM      2  C   UNL A   1      33.331  29.629  26.090  1.00  0.00     0.116 C 
BRANCH   2   3
ATOM      3  N   UNL A   1      33.250  29.687  24.642  1.00  0.00    -0.352 N 
ATOM      4  C   UNL A   1      32.721  28.803  23.727  1.00  0.00     0.251 C 
ATOM      5  O   UNL A   1      32.728  29.131  22.541  1.00  0.00    -0.269 OA
ATOM      6  H   UNL A   1      33.641  30.499  24.244  1.00  0.00     0.163 HD
BRANCH   4   7
ATOM      7  C   UNL A   1      32.226  27.445  24.101  1.00  0.00     0.041 A 
ATOM      8  C   UNL A   1      32.295  25.039  23.996  1.00  0.00     0.088 A 
ATOM      9  C   UNL A   1      31.009  24.946  24.533  1.00  0.00     0.022 A 
ATOM     10  C   UNL A   1      32.950  26.270  23.900  1.00  0.00     0.036 A 
ATOM     11  C   UNL A   1      30.326  26.111  24.863  1.00  0.00     0.002 A 
ATOM     12  C   UNL A   1      30.919  27.354  24.614  1.00  0.00     0.014 A 
BRANCH   8  13
ATOM     13  S   UNL A   1      33.056  23.594  23.303  1.00  0.00     0.264 S 
ATOM     14  O   UNL A   1      34.172  24.035  22.495  1.00  0.00    -0.201 OA
ATOM     15  O   UNL A   1      31.995  22.795  22.713  1.00  0.00    -0.201 OA
BRANCH  13  16
ATOM     16  N   UNL A   1      33.676  22.683  24.644  1.00  0.00    -0.263 N 
ATOM     17  C   UNL A   1      32.266  20.766  25.391  1.00  0.00     0.032 C 
ATOM     18  C   UNL A   1      33.387  21.192  24.454  1.00  0.00     0.101 C 
ATOM     19  C   UNL A   1      34.705  20.432  24.727  1.00  0.00     0.063 C 
ATOM     20  C   UNL A   1      35.690  21.526  24.960  1.00  0.00    -0.021 A 
ATOM     21  C   UNL A   1      35.079  22.772  24.956  1.00  0.00     0.055 A 
ATOM     22  C   UNL A   1      37.045  21.383  25.235  1.00  0.00     0.006 A 
ATOM     23  C   UNL A   1      35.788  23.883  25.381  1.00  0.00     0.027 A 
ATOM     24  C   UNL A   1      37.786  22.520  25.556  1.00  0.00     0.000 A 
ATOM     25  C   UNL A   1      37.155  23.763  25.651  1.00  0.00     0.002 A 
ENDBRANCH  13  16
ENDBRANCH   8  13
ENDBRANCH   4   7
ENDBRANCH   2   3
ENDBRANCH   1   2
BRANCH   1  26
ATOM     26  C   UNL A   1      31.814  31.617  26.791  1.00  0.00     0.023 C 
BRANCH  26  27
ATOM     27  C   UNL A   1      32.913  32.524  27.328  1.00  0.00     0.116 C 
BRANCH  27  28
ATOM     28  N   UNL A   1      32.472  33.877  27.639  1.00  0.00    -0.352 N 
ATOM     29  C   UNL A   1      32.981  34.801  28.526  1.00  0.00     0.251 C 
ATOM     30  H   UNL A   1      31.683  34.180  27.135  1.00  0.00     0.163 HD
ATOM     31  O   UNL A   1      32.413  35.876  28.691  1.00  0.00    -0.269 OA
BRANCH  29  32
ATOM     32  C   UNL A   1      34.177  34.472  29.332  1.00  0.00     0.039 A 
ATOM     33  C   UNL A   1      35.458  34.695  28.834  1.00  0.00     0.014 A 
ATOM     34  C   UNL A   1      34.005  33.864  30.579  1.00  0.00     0.014 A 
ATOM     35  C   UNL A   1      36.547  34.094  29.456  1.00  0.00     0.010 A 
ATOM     36  C   UNL A   1      35.114  33.353  31.259  1.00  0.00     0.010 A 
ATOM     37  C   UNL A   1      36.384  33.393  30.662  1.00  0.00    -0.014 A 
BRANCH  37  38
ATOM     38  C   UNL A   1      37.539  32.660  31.250  1.00  0.00     0.031 A 
ATOM     39  C   UNL A   1      38.022  32.985  32.640  1.00  0.00     0.074 A 
ATOM     40  C   UNL A   1      38.108  31.652  30.562  1.00  0.00     0.049 A 
ATOM     41  N   UNL A   1      39.024  32.469  33.310  1.00  0.00    -0.248 NA
ATOM     42  C   UNL A   1      37.289  34.026  33.378  1.00  0.00     0.031 C 
ATOM     43  C   UNL A   1      37.709  31.217  29.222  1.00  0.00     0.029 A 
ATOM     44  N   UNL A   1      39.121  30.793  30.903  1.00  0.00    -0.354 N 
ATOM     45  C   UNL A   1      39.055  33.137  34.528  1.00  0.00     0.074 A 
ATOM     46  C   UNL A   1      37.990  34.115  34.500  1.00  0.00     0.031 C 
ATOM     47  C   UNL A   1      38.430  30.140  28.878  1.00  0.00     0.029 A 
ATOM     48  C   UNL A   1      39.390  29.853  29.939  1.00  0.00     0.049 A 
ATOM     49  H   UNL A   1      39.608  30.846  31.756  1.00  0.00     0.167 HD
ATOM     50  C   UNL A   1      39.887  32.944  35.579  1.00  0.00     0.037 A 
ATOM     51  C   UNL A   1      40.319  28.881  29.903  1.00  0.00     0.037 A 
ATOM     52  C   UNL A   1      40.926  31.945  35.620  1.00  0.00     0.049 A 
ATOM     53  C   UNL A   1      41.263  28.722  31.059  1.00  0.00     0.074 A 
ATOM     54  C   UNL A   1      41.810  31.664  36.648  1.00  0.00     0.029 A 
ATOM     55  N   UNL A   1      41.212  31.059  34.593  1.00  0.00    -0.354 N 
ATOM     56  N   UNL A   1      41.298  29.379  32.193  1.00  0.00    -0.248 NA
ATOM     57  C   UNL A   1      42.308  27.698  30.923  1.00  0.00     0.031 C 
ATOM     58  C   UNL A   1      42.657  30.634  36.226  1.00  0.00     0.029 A 
ATOM     59  C   UNL A   1      42.272  30.243  34.954  1.00  0.00     0.049 A 
ATOM     60  H   UNL A   1      40.732  31.016  33.734  1.00  0.00     0.167 HD
ATOM     61  C   UNL A   1      42.363  28.847  32.907  1.00  0.00     0.074 A 
ATOM     62  C   UNL A   1      42.930  27.794  32.091  1.00  0.00     0.031 C 
ATOM     63  C   UNL A   1      42.831  29.206  34.127  1.00  0.00     0.037 A 
BRANCH  50  64
ATOM     64  C   UNL A   1      39.724  33.832  36.778  1.00  0.00     0.064 A 
ATOM     65  C   UNL A   1      40.331  35.094  36.848  1.00  0.00     0.173 A 
ATOM     66  C   UNL A   1      38.894  33.444  37.841  1.00  0.00     0.173 A 
ATOM     67  F   UNL A   1      41.144  35.507  35.864  1.00  0.00    -0.203 F 
ATOM     68  C   UNL A   1      40.123  35.929  37.943  1.00  0.00     0.198 A 
ATOM     69  C   UNL A   1      38.667  34.292  38.923  1.00  0.00     0.198 A 
ATOM     70  F   UNL A   1      38.283  32.248  37.822  1.00  0.00    -0.203 F 
ATOM     71  F   UNL A   1      40.739  37.118  38.002  1.00  0.00    -0.200 F 
ATOM     72  C   UNL A   1      39.286  35.532  38.974  1.00  0.00     0.200 A 
ATOM     73  F   UNL A   1      37.848  33.911  39.912  1.00  0.00    -0.200 F 
ATOM     74  F   UNL A   1      39.075  36.344  40.020  1.00  0.00    -0.200 F 
ENDBRANCH  50  64
BRANCH  51  75
ATOM     75  C   UNL A   1      40.401  27.991  28.716  1.00  0.00     0.064 A 
ATOM     76  C   UNL A   1      41.134  28.369  27.583  1.00  0.00     0.173 A 
ATOM     77  C   UNL A   1      39.774  26.736  28.702  1.00  0.00     0.173 A 
ATOM     78  F   UNL A   1      41.732  29.568  27.542  1.00  0.00    -0.203 F 
ATOM     79  C   UNL A   1      41.235  27.525  26.480  1.00  0.00     0.198 A 
ATOM     80  C   UNL A   1      39.900  25.881  27.610  1.00  0.00     0.198 A 
ATOM     81  F   UNL A   1      39.061  26.330  29.763  1.00  0.00    -0.203 F 
ATOM     82  F   UNL A   1      41.918  27.920  25.398  1.00  0.00    -0.200 F 
ATOM     83  C   UNL A   1      40.626  26.278  26.499  1.00  0.00     0.200 A 
ATOM     84  F   UNL A   1      39.324  24.672  27.639  1.00  0.00    -0.200 F 
ATOM     85  F   UNL A   1      40.739  25.460  25.443  1.00  0.00    -0.200 F 
ENDBRANCH  51  75
BRANCH  63  86
ATOM     86  C   UNL A   1      44.018  28.455  34.655  1.00  0.00     0.064 A 
ATOM     87  C   UNL A   1      45.323  28.936  34.477  1.00  0.00     0.173 A 
ATOM     88  C   UNL A   1      43.846  27.269  35.384  1.00  0.00     0.173 A 
ATOM     89  F   UNL A   1      45.538  30.059  33.773  1.00  0.00    -0.203 F 
ATOM     90  C   UNL A   1      46.415  28.246  34.993  1.00  0.00     0.198 A 
ATOM     91  C   UNL A   1      44.939  26.596  35.922  1.00  0.00     0.198 A 
ATOM     92  F   UNL A   1      42.617  26.772  35.586  1.00  0.00    -0.203 F 
ATOM     93  F   UNL A   1      47.657  28.702  34.777  1.00  0.00    -0.200 F 
ATOM     94  C   UNL A   1      46.222  27.082  35.722  1.00  0.00     0.200 A 
ATOM     95  F   UNL A   1      44.750  25.477  36.636  1.00  0.00    -0.200 F 
ATOM     96  F   UNL A   1      47.275  26.423  36.226  1.00  0.00    -0.200 F 
ENDBRANCH  63  86
ENDBRANCH  37  38
ENDBRANCH  29  32
ENDBRANCH  27  28
ENDBRANCH  26  27
ENDBRANCH   1  26
TORSDOF 13
ENDMDL
MODEL 2
REMARK VINA RESULT:     -13.5      1.705      7.565
REMARK SMILES C[C@@H]1Cc2ccccc2N1S(=O)(=O)c1cccc(C(=O)NCCCCNC(=O)c2ccc(-c3c4nc(c(-c5c(F)c(F)c(F)c(F)c5F)c5ccc([nH]5)c(-c5c(F)c(F)c(F)c(F)c5F)c5nc(c(-c6c(F)c(F)c(F)c(F)c6F)c6ccc3[nH]6)C=C5)C=C4)cc2)c1
REMARK SMILES IDX 23 1 22 2 21 3 19 4 20 5 18 7 14 8 15 9 92 10 16 11 17 12
REMARK SMILES IDX 11 13 12 14 13 15 10 16 1 17 2 18 3 19 4 20 9 21 5 22 8 23
REMARK SMILES IDX 6 24 7 25 24 26 25 27 26 28 27 29 28 31 29 32 30 33 91 34
REMARK SMILES IDX 31 35 90 36 32 37 33 38 34 39 84 40 35 41 89 42 83 43 85 44
REMARK SMILES IDX 36 45 88 46 82 47 81 48 37 50 69 51 49 52 68 53 50 54 53 55
REMARK SMILES IDX 67 56 86 57 51 58 52 59 66 61 87 62 54 63 38 64 39 65 47 66
REMARK SMILES IDX 40 67 41 68 45 69 48 70 42 71 43 72 46 73 44 74 70 75 71 76
REMARK SMILES IDX 79 77 72 78 73 79 77 80 80 81 74 82 75 83 78 84 76 85 55 86
REMARK SMILES IDX 56 87 64 88 57 89 58 90 62 91 65 92 59 93 60 94 63 95 61 96
REMARK H PARENT 21 6 26 30 85 49 53 60
REMARK Flexibility Score: inf
ROOT
ATOM      1  C   UNL A   1      31.043  29.769  24.343  1.00  0.00     0.023 C 
ENDROOT
BRANCH   1   2
ATOM      2  C   UNL A   1      30.818  28.952  23.076  1.00  0.00     0.116 C 
BRANCH   2   3
ATOM      3  N   UNL A   1      29.721  28.003  23.130  1.00  0.00    -0.352 N 
ATOM      4  C   UNL A   1      29.598  26.794  23.779  1.00  0.00     0.251 C 
ATOM      5  O   UNL A   1      28.518  26.210  23.707  1.00  0.00    -0.269 OA
ATOM      6  H   UNL A   1      28.926  28.270  22.612  1.00  0.00     0.163 HD
BRANCH   4   7
ATOM      7  C   UNL A   1      30.736  26.131  24.483  1.00  0.00     0.041 A 
ATOM      8  C   UNL A   1      32.570  24.574  24.589  1.00  0.00     0.088 A 
ATOM      9  C   UNL A   1      32.601  24.653  25.984  1.00  0.00     0.022 A 
ATOM     10  C   UNL A   1      31.733  25.402  23.837  1.00  0.00     0.036 A 
ATOM     11  C   UNL A   1      31.695  25.482  26.635  1.00  0.00     0.002 A 
ATOM     12  C   UNL A   1      30.745  26.189  25.890  1.00  0.00     0.014 A 
BRANCH   8  13
ATOM     13  S   UNL A   1      33.511  23.313  23.768  1.00  0.00     0.264 S 
ATOM     14  O   UNL A   1      34.533  23.973  22.986  1.00  0.00    -0.201 OA
ATOM     15  O   UNL A   1      32.559  22.421  23.127  1.00  0.00    -0.201 OA
BRANCH  13  16
ATOM     16  N   UNL A   1      34.286  22.395  25.020  1.00  0.00    -0.263 N 
ATOM     17  C   UNL A   1      33.208  20.218  25.587  1.00  0.00     0.032 C 
ATOM     18  C   UNL A   1      34.234  20.900  24.694  1.00  0.00     0.101 C 
ATOM     19  C   UNL A   1      35.659  20.337  24.896  1.00  0.00     0.063 C 
ATOM     20  C   UNL A   1      36.462  21.548  25.230  1.00  0.00    -0.021 A 
ATOM     21  C   UNL A   1      35.661  22.676  25.339  1.00  0.00     0.055 A 
ATOM     22  C   UNL A   1      37.826  21.598  25.491  1.00  0.00     0.006 A 
ATOM     23  C   UNL A   1      36.192  23.843  25.865  1.00  0.00     0.027 A 
ATOM     24  C   UNL A   1      38.382  22.804  25.915  1.00  0.00     0.000 A 
ATOM     25  C   UNL A   1      37.564  23.918  26.124  1.00  0.00     0.002 A 
ENDBRANCH  13  16
ENDBRANCH   8  13
ENDBRANCH   4   7
ENDBRANCH   2   3
ENDBRANCH   1   2
BRANCH   1  26
ATOM     26  C   UNL A   1      32.263  29.418  25.183  1.00  0.00     0.023 C 
BRANCH  26  27
ATOM     27  C   UNL A   1      32.204  29.819  26.650  1.00  0.00     0.116 C 
BRANCH  27  28
ATOM     28  N   UNL A   1      32.176  31.258  26.875  1.00  0.00    -0.352 N 
ATOM     29  C   UNL A   1      33.140  32.102  27.383  1.00  0.00     0.251 C 
ATOM     30  H   UNL A   1      31.333  31.699  26.624  1.00  0.00     0.163 HD
ATOM     31  O   UNL A   1      32.890  33.290  27.559  1.00  0.00    -0.269 OA
BRANCH  29  32
ATOM     32  C   UNL A   1      34.458  31.563  27.783  1.00  0.00     0.039 A 
ATOM     33  C   UNL A   1      34.631  30.203  28.028  1.00  0.00     0.014 A 
ATOM     34  C   UNL A   1      35.519  32.452  27.983  1.00  0.00     0.014 A 
ATOM     35  C   UNL A   1      35.767  29.769  28.702  1.00  0.00     0.010 A 
ATOM     36  C   UNL A   1      36.705  31.994  28.564  1.00  0.00     0.010 A 
ATOM     37  C   UNL A   1      36.806  30.666  29.002  1.00  0.00    -0.014 A 
BRANCH  37  38
ATOM     38  C   UNL A   1      37.960  30.207  29.824  1.00  0.00     0.031 A 
ATOM     39  C   UNL A   1      39.006  29.298  29.233  1.00  0.00     0.074 A 
ATOM     40  C   UNL A   1      38.105  30.667  31.082  1.00  0.00     0.049 A 
ATOM     41  N   UNL A   1      40.069  28.779  29.800  1.00  0.00    -0.248 NA
ATOM     42  C   UNL A   1      38.842  28.917  27.821  1.00  0.00     0.031 C 
ATOM     43  C   UNL A   1      37.181  31.579  31.756  1.00  0.00     0.029 A 
ATOM     44  N   UNL A   1      39.098  30.455  32.004  1.00  0.00    -0.354 N 
ATOM     45  C   UNL A   1      40.678  27.997  28.828  1.00  0.00     0.074 A 
ATOM     46  C   UNL A   1      39.858  28.084  27.640  1.00  0.00     0.031 C 
ATOM     47  C   UNL A   1      37.676  31.892  32.963  1.00  0.00     0.029 A 
ATOM     48  C   UNL A   1      38.913  31.148  33.176  1.00  0.00     0.049 A 
ATOM     49  H   UNL A   1      39.867  29.863  31.843  1.00  0.00     0.167 HD
ATOM     50  C   UNL A   1      41.825  27.281  28.913  1.00  0.00     0.037 A 
ATOM     51  C   UNL A   1      39.646  31.167  34.304  1.00  0.00     0.037 A 
ATOM     52  C   UNL A   1      42.661  27.222  30.085  1.00  0.00     0.049 A 
ATOM     53  C   UNL A   1      40.885  30.324  34.390  1.00  0.00     0.074 A 
ATOM     54  C   UNL A   1      43.850  26.535  30.262  1.00  0.00     0.029 A 
ATOM     55  N   UNL A   1      42.400  27.883  31.276  1.00  0.00    -0.354 N 
ATOM     56  N   UNL A   1      41.435  29.568  33.471  1.00  0.00    -0.248 NA
ATOM     57  C   UNL A   1      41.595  30.324  35.676  1.00  0.00     0.031 C 
ATOM     58  C   UNL A   1      44.289  26.750  31.573  1.00  0.00     0.029 A 
ATOM     59  C   UNL A   1      43.397  27.605  32.199  1.00  0.00     0.049 A 
ATOM     60  H   UNL A   1      41.623  28.464  31.441  1.00  0.00     0.167 HD
ATOM     61  C   UNL A   1      42.557  29.005  34.065  1.00  0.00     0.074 A 
ATOM     62  C   UNL A   1      42.625  29.529  35.413  1.00  0.00     0.031 C 
ATOM     63  C   UNL A   1      43.445  28.126  33.540  1.00  0.00     0.037 A 
BRANCH  50  64
ATOM     64  C   UNL A   1      42.252  26.490  27.710  1.00  0.00     0.064 A 
ATOM     65  C   UNL A   1      43.215  26.974  26.814  1.00  0.00     0.173 A 
ATOM     66  C   UNL A   1      41.741  25.201  27.491  1.00  0.00     0.173 A 
ATOM     67  F   UNL A   1      43.726  28.205  26.972  1.00  0.00    -0.203 F 
ATOM     68  C   UNL A   1      43.642  26.204  25.735  1.00  0.00     0.198 A 
ATOM     69  C   UNL A   1      42.188  24.423  26.425  1.00  0.00     0.198 A 
ATOM     70  F   UNL A   1      40.822  24.687  28.323  1.00  0.00    -0.203 F 
ATOM     71  F   UNL A   1      44.540  26.700  24.873  1.00  0.00    -0.200 F 
ATOM     72  C   UNL A   1      43.136  24.927  25.547  1.00  0.00     0.200 A 
ATOM     73  F   UNL A   1      41.707  23.184  26.253  1.00  0.00    -0.200 F 
ATOM     74  F   UNL A   1      43.558  24.181  24.516  1.00  0.00    -0.200 F 
ENDBRANCH  50  64
BRANCH  51  75
ATOM     75  C   UNL A   1      39.211  32.013  35.444  1.00  0.00     0.064 A 
ATOM     76  C   UNL A   1      38.413  31.484  36.468  1.00  0.00     0.173 A 
ATOM     77  C   UNL A   1      39.607  33.355  35.549  1.00  0.00     0.173 A 
ATOM     78  F   UNL A   1      37.992  30.214  36.399  1.00  0.00    -0.203 F 
ATOM     79  C   UNL A   1      38.027  32.268  37.553  1.00  0.00     0.198 A 
ATOM     80  C   UNL A   1      39.244  34.128  36.649  1.00  0.00     0.198 A 
ATOM     81  F   UNL A   1      40.371  33.906  34.595  1.00  0.00    -0.203 F 
ATOM     82  F   UNL A   1      37.240  31.748  38.504  1.00  0.00    -0.200 F 
ATOM     83  C   UNL A   1      38.450  33.586  37.647  1.00  0.00     0.200 A 
ATOM     84  F   UNL A   1      39.670  35.395  36.744  1.00  0.00    -0.200 F 
ATOM     85  F   UNL A   1      38.091  34.333  38.700  1.00  0.00    -0.200 F 
ENDBRANCH  51  75
BRANCH  63  86
ATOM     86  C   UNL A   1      44.568  27.675  34.425  1.00  0.00     0.064 A 
ATOM     87  C   UNL A   1      44.461  26.512  35.202  1.00  0.00     0.173 A 
ATOM     88  C   UNL A   1      45.778  28.383  34.463  1.00  0.00     0.173 A 
ATOM     89  F   UNL A   1      43.318  25.809  35.210  1.00  0.00    -0.203 F 
ATOM     90  C   UNL A   1      45.518  26.086  36.000  1.00  0.00     0.198 A 
ATOM     91  C   UNL A   1      46.843  27.939  35.241  1.00  0.00     0.198 A 
ATOM     92  F   UNL A   1      45.931  29.498  33.732  1.00  0.00    -0.203 F 
ATOM     93  F   UNL A   1      45.381  24.994  36.765  1.00  0.00    -0.200 F 
ATOM     94  C   UNL A   1      46.710  26.794  36.013  1.00  0.00     0.200 A 
ATOM     95  F   UNL A   1      47.999  28.618  35.243  1.00  0.00    -0.200 F 
ATOM     96  F   UNL A   1      47.731  26.378  36.775  1.00  0.00    -0.200 F 
ENDBRANCH  63  86
ENDBRANCH  37  38
ENDBRANCH  29  32
ENDBRANCH  27  28
ENDBRANCH  26  27
ENDBRANCH   1  26
TORSDOF 13
ENDMDL
MODEL 3
REMARK VINA RESULT:     -13.5      0.518      7.198
REMARK SMILES C[C@@H]1Cc2ccccc2N1S(=O)(=O)c1cccc(C(=O)NCCCCNC(=O)c2ccc(-c3c4nc(c(-c5c(F)c(F)c(F)c(F)c5F)c5ccc([nH]5)c(-c5c(F)c(F)c(F)c(F)c5F)c5nc(c(-c6c(F)c(F)c(F)c(F)c6F)c6ccc3[nH]6)C=C5)C=C4)cc2)c1
REMARK SMILES IDX 23 1 22 2 21 3 19 4 20 5 18 7 14 8 15 9 92 10 16 11 17 12
REMARK SMILES IDX 11 13 12 14 13 15 10 16 1 17 2 18 3 19 4 20 9 21 5 22 8 23
REMARK SMILES IDX 6 24 7 25 24 26 25 27 26 28 27 29 28 31 29 32 30 33 91 34
REMARK SMILES IDX 31 35 90 36 32 37 33 38 34 39 84 40 35 41 89 42 83 43 85 44
REMARK SMILES IDX 36 45 88 46 82 47 81 48 37 50 69 51 49 52 68 53 50 54 53 55
REMARK SMILES IDX 67 56 86 57 51 58 52 59 66 61 87 62 54 63 38 64 39 65 47 66
REMARK SMILES IDX 40 67 41 68 45 69 48 70 42 71 43 72 46 73 44 74 70 75 71 76
REMARK SMILES IDX 79 77 72 78 73 79 77 80 80 81 74 82 75 83 78 84 76 85 55 86
REMARK SMILES IDX 56 87 64 88 57 89 58 90 62 91 65 92 59 93 60 94 63 95 61 96
REMARK H PARENT 21 6 26 30 85 49 53 60
REMARK Flexibility Score: inf
ROOT
ATOM      1  C   UNL A   1      32.093  30.151  26.865  1.00  0.00     0.023 C 
ENDROOT
BRANCH   1   2
ATOM      2  C   UNL A   1      33.325  29.633  26.135  1.00  0.00     0.116 C 
BRANCH   2   3
ATOM      3  N   UNL A   1      33.269  29.702  24.686  1.00  0.00    -0.352 N 
ATOM      4  C   UNL A   1      32.753  28.827  23.755  1.00  0.00     0.251 C 
ATOM      5  O   UNL A   1      32.782  29.164  22.572  1.00  0.00    -0.269 OA
ATOM      6  H   UNL A   1      33.671  30.515  24.301  1.00  0.00     0.163 HD
BRANCH   4   7
ATOM      7  C   UNL A   1      32.247  27.468  24.111  1.00  0.00     0.041 A 
ATOM      8  C   UNL A   1      32.312  25.063  23.994  1.00  0.00     0.088 A 
ATOM      9  C   UNL A   1      31.013  24.970  24.502  1.00  0.00     0.022 A 
ATOM     10  C   UNL A   1      32.971  26.293  23.920  1.00  0.00     0.036 A 
ATOM     11  C   UNL A   1      30.326  26.135  24.823  1.00  0.00     0.002 A 
ATOM     12  C   UNL A   1      30.927  27.378  24.594  1.00  0.00     0.014 A 
BRANCH   8  13
ATOM     13  S   UNL A   1      33.085  23.619  23.310  1.00  0.00     0.264 S 
ATOM     14  O   UNL A   1      34.204  24.064  22.509  1.00  0.00    -0.201 OA
ATOM     15  O   UNL A   1      32.031  22.814  22.716  1.00  0.00    -0.201 OA
BRANCH  13  16
ATOM     16  N   UNL A   1      33.699  22.716  24.658  1.00  0.00    -0.263 N 
ATOM     17  C   UNL A   1      32.305  20.781  25.387  1.00  0.00     0.032 C 
ATOM     18  C   UNL A   1      33.432  21.222  24.464  1.00  0.00     0.101 C 
ATOM     19  C   UNL A   1      34.756  20.478  24.751  1.00  0.00     0.063 C 
ATOM     20  C   UNL A   1      35.724  21.583  24.997  1.00  0.00    -0.021 A 
ATOM     21  C   UNL A   1      35.098  22.822  24.986  1.00  0.00     0.055 A 
ATOM     22  C   UNL A   1      37.077  21.457  25.288  1.00  0.00     0.006 A 
ATOM     23  C   UNL A   1      35.788  23.941  25.420  1.00  0.00     0.027 A 
ATOM     24  C   UNL A   1      37.800  22.603  25.618  1.00  0.00     0.000 A 
ATOM     25  C   UNL A   1      37.153  23.839  25.707  1.00  0.00     0.002 A 
ENDBRANCH  13  16
ENDBRANCH   8  13
ENDBRANCH   4   7
ENDBRANCH   2   3
ENDBRANCH   1   2
BRANCH   1  26
ATOM     26  C   UNL A   1      31.840  31.651  26.815  1.00  0.00     0.023 C 
BRANCH  26  27
ATOM     27  C   UNL A   1      32.915  32.533  27.436  1.00  0.00     0.116 C 
BRANCH  27  28
ATOM     28  N   UNL A   1      32.498  33.909  27.670  1.00  0.00    -0.352 N 
ATOM     29  C   UNL A   1      33.001  34.861  28.529  1.00  0.00     0.251 C 
ATOM     30  H   UNL A   1      31.733  34.207  27.126  1.00  0.00     0.163 HD
ATOM     31  O   UNL A   1      32.455  35.956  28.627  1.00  0.00    -0.269 OA
BRANCH  29  32
ATOM     32  C   UNL A   1      34.162  34.543  29.389  1.00  0.00     0.039 A 
ATOM     33  C   UNL A   1      35.462  34.620  28.894  1.00  0.00     0.014 A 
ATOM     34  C   UNL A   1      33.934  34.089  30.692  1.00  0.00     0.014 A 
ATOM     35  C   UNL A   1      36.498  34.018  29.598  1.00  0.00     0.010 A 
ATOM     36  C   UNL A   1      34.997  33.582  31.445  1.00  0.00     0.010 A 
ATOM     37  C   UNL A   1      36.273  33.468  30.871  1.00  0.00    -0.014 A 
BRANCH  37  38
ATOM     38  C   UNL A   1      37.367  32.728  31.558  1.00  0.00     0.031 A 
ATOM     39  C   UNL A   1      38.051  31.570  30.876  1.00  0.00     0.074 A 
ATOM     40  C   UNL A   1      37.794  33.142  32.765  1.00  0.00     0.049 A 
ATOM     41  N   UNL A   1      39.009  30.795  31.324  1.00  0.00    -0.248 NA
ATOM     42  C   UNL A   1      37.605  31.237  29.514  1.00  0.00     0.031 C 
ATOM     43  C   UNL A   1      37.238  34.270  33.514  1.00  0.00     0.029 A 
ATOM     44  N   UNL A   1      38.812  32.682  33.562  1.00  0.00    -0.354 N 
ATOM     45  C   UNL A   1      39.257  29.873  30.315  1.00  0.00     0.074 A 
ATOM     46  C   UNL A   1      38.335  30.164  29.239  1.00  0.00     0.031 C 
ATOM     47  C   UNL A   1      37.955  34.449  34.633  1.00  0.00     0.029 A 
ATOM     48  C   UNL A   1      38.974  33.407  34.717  1.00  0.00     0.049 A 
ATOM     49  H   UNL A   1      39.372  31.908  33.328  1.00  0.00     0.167 HD
ATOM     50  C   UNL A   1      40.179  28.880  30.283  1.00  0.00     0.037 A 
ATOM     51  C   UNL A   1      39.831  33.241  35.740  1.00  0.00     0.037 A 
ATOM     52  C   UNL A   1      41.121  28.611  31.340  1.00  0.00     0.049 A 
ATOM     53  C   UNL A   1      40.809  32.102  35.702  1.00  0.00     0.074 A 
ATOM     54  C   UNL A   1      42.103  27.637  31.392  1.00  0.00     0.029 A 
ATOM     55  N   UNL A   1      41.203  29.326  32.526  1.00  0.00    -0.354 N 
ATOM     56  N   UNL A   1      41.014  31.221  34.754  1.00  0.00    -0.248 NA
ATOM     57  C   UNL A   1      41.660  31.923  36.885  1.00  0.00     0.031 C 
ATOM     58  C   UNL A   1      42.754  27.737  32.626  1.00  0.00     0.029 A 
ATOM     59  C   UNL A   1      42.208  28.802  33.324  1.00  0.00     0.049 A 
ATOM     60  H   UNL A   1      40.633  30.093  32.764  1.00  0.00     0.167 HD
ATOM     61  C   UNL A   1      42.020  30.387  35.222  1.00  0.00     0.074 A 
ATOM     62  C   UNL A   1      42.403  30.884  36.527  1.00  0.00     0.031 C 
ATOM     63  C   UNL A   1      42.570  29.302  34.625  1.00  0.00     0.037 A 
BRANCH  50  64
ATOM     64  C   UNL A   1      40.219  27.996  29.071  1.00  0.00     0.064 A 
ATOM     65  C   UNL A   1      40.964  28.339  27.933  1.00  0.00     0.173 A 
ATOM     66  C   UNL A   1      39.560  26.757  29.073  1.00  0.00     0.173 A 
ATOM     67  F   UNL A   1      41.603  29.518  27.876  1.00  0.00    -0.203 F 
ATOM     68  C   UNL A   1      41.038  27.481  26.839  1.00  0.00     0.198 A 
ATOM     69  C   UNL A   1      39.656  25.890  27.987  1.00  0.00     0.198 A 
ATOM     70  F   UNL A   1      38.838  26.377  30.139  1.00  0.00    -0.203 F 
ATOM     71  F   UNL A   1      41.730  27.844  25.750  1.00  0.00    -0.200 F 
ATOM     72  C   UNL A   1      40.392  26.255  26.870  1.00  0.00     0.200 A 
ATOM     73  F   UNL A   1      39.041  24.700  28.024  1.00  0.00    -0.200 F 
ATOM     74  F   UNL A   1      40.475  25.424  25.821  1.00  0.00    -0.200 F 
ENDBRANCH  50  64
BRANCH  51  75
ATOM     75  C   UNL A   1      39.789  34.179  36.890  1.00  0.00     0.064 A 
ATOM     76  C   UNL A   1      38.967  33.924  37.996  1.00  0.00     0.173 A 
ATOM     77  C   UNL A   1      40.589  35.332  36.921  1.00  0.00     0.173 A 
ATOM     78  F   UNL A   1      38.168  32.848  38.002  1.00  0.00    -0.203 F 
ATOM     79  C   UNL A   1      38.946  34.789  39.088  1.00  0.00     0.198 A 
ATOM     80  C   UNL A   1      40.588  36.179  38.026  1.00  0.00     0.198 A 
ATOM     81  F   UNL A   1      41.393  35.618  35.886  1.00  0.00    -0.203 F 
ATOM     82  F   UNL A   1      38.130  34.538  40.121  1.00  0.00    -0.200 F 
ATOM     83  C   UNL A   1      39.763  35.909  39.106  1.00  0.00     0.200 A 
ATOM     84  F   UNL A   1      41.392  37.251  38.045  1.00  0.00    -0.200 F 
ATOM     85  F   UNL A   1      39.754  36.730  40.166  1.00  0.00    -0.200 F 
ENDBRANCH  51  75
BRANCH  63  86
ATOM     86  C   UNL A   1      43.646  28.576  35.378  1.00  0.00     0.064 A 
ATOM     87  C   UNL A   1      45.001  28.888  35.193  1.00  0.00     0.173 A 
ATOM     88  C   UNL A   1      43.318  27.594  36.324  1.00  0.00     0.173 A 
ATOM     89  F   UNL A   1      45.364  29.810  34.288  1.00  0.00    -0.203 F 
ATOM     90  C   UNL A   1      45.990  28.229  35.916  1.00  0.00     0.198 A 
ATOM     91  C   UNL A   1      44.309  26.956  37.064  1.00  0.00     0.198 A 
ATOM     92  F   UNL A   1      42.036  27.266  36.541  1.00  0.00    -0.203 F 
ATOM     93  F   UNL A   1      47.281  28.513  35.695  1.00  0.00    -0.200 F 
ATOM     94  C   UNL A   1      45.644  27.270  36.856  1.00  0.00     0.200 A 
ATOM     95  F   UNL A   1      43.972  26.038  37.981  1.00  0.00    -0.200 F 
ATOM     96  F   UNL A   1      46.597  26.641  37.557  1.00  0.00    -0.200 F 
ENDBRANCH  63  86
ENDBRANCH  37  38
ENDBRANCH  29  32
ENDBRANCH  27  28
ENDBRANCH  26  27
ENDBRANCH   1  26
TORSDOF 13
ENDMDL
