MODEL 1
REMARK VINA RESULT:     -12.1      0.000      0.000
REMARK SMILES O=C(NCc1ccsc1)NC[C@H]1CC[C@@H](C(=O)NCCCCNC(=O)c2ccc(-c3c4nc(c(-c5c(F)c(F)c(F)c(F)c5F)c5ccc([nH]5)c(-c5c(F)c(F)c(F)c(F)c5F)c5nc(c(-c6c(F)c(F)c(F)c(F)c6F)c6ccc3[nH]6)C=C5)C=C4)cc2)CC1
REMARK SMILES IDX 19 1 18 2 16 3 17 4 15 6 12 7 13 8 90 9 14 10 89 11 11 12
REMARK SMILES IDX 10 13 1 14 2 15 3 16 4 19 5 20 6 21 9 22 7 23 8 24 20 25
REMARK SMILES IDX 21 26 22 27 23 28 24 29 25 31 26 32 27 33 88 34 28 35 87 36
REMARK SMILES IDX 29 37 30 38 31 39 81 40 32 41 86 42 80 43 82 44 33 45 85 46
REMARK SMILES IDX 79 47 78 48 34 50 66 51 46 52 65 53 47 54 50 55 64 56 83 57
REMARK SMILES IDX 48 58 49 59 63 61 84 62 51 63 35 64 36 65 44 66 37 67 38 68
REMARK SMILES IDX 42 69 45 70 39 71 40 72 43 73 41 74 67 75 68 76 76 77 69 78
REMARK SMILES IDX 70 79 74 80 77 81 71 82 72 83 75 84 73 85 52 86 53 87 61 88
REMARK SMILES IDX 54 89 55 90 59 91 62 92 56 93 57 94 60 95 58 96
REMARK H PARENT 18 5 3 17 10 18 23 30 82 49 50 60
REMARK Flexibility Score: inf
ROOT
ATOM      1  C   UNL A   1      31.696  29.280  24.822  1.00  0.00     0.116 C 
ENDROOT
BRANCH   1   2
ATOM      2  N   UNL A   1      31.082  29.680  23.580  1.00  0.00    -0.356 N 
ATOM      3  C   UNL A   1      30.424  28.982  22.623  1.00  0.00     0.223 C 
ATOM      4  O   UNL A   1      29.917  29.660  21.721  1.00  0.00    -0.275 OA
ATOM      5  H   UNL A   1      31.156  30.643  23.390  1.00  0.00     0.163 HD
BRANCH   3   6
ATOM      6  C   UNL A   1      30.256  27.454  22.595  1.00  0.00     0.078 C 
ATOM      7  C   UNL A   1      31.285  25.533  24.694  1.00  0.00     0.008 C 
ATOM      8  C   UNL A   1      29.999  26.352  24.914  1.00  0.00     0.006 C 
ATOM      9  C   UNL A   1      32.202  26.047  23.572  1.00  0.00     0.006 C 
ATOM     10  C   UNL A   1      29.327  26.864  23.652  1.00  0.00     0.014 C 
ATOM     11  C   UNL A   1      31.511  26.625  22.345  1.00  0.00     0.014 C 
BRANCH   7  12
ATOM     12  C   UNL A   1      32.035  25.469  26.043  1.00  0.00     0.121 C 
BRANCH  12  13
ATOM     13  N   UNL A   1      32.537  24.156  26.377  1.00  0.00    -0.338 N 
ATOM     14  O   UNL A   1      30.644  23.425  27.420  1.00  0.00    -0.249 OA
ATOM     15  C   UNL A   1      31.764  23.204  26.966  1.00  0.00     0.315 C 
ATOM     16  N   UNL A   1      32.279  21.953  27.022  1.00  0.00    -0.334 N 
ATOM     17  H   UNL A   1      31.770  21.317  27.577  1.00  0.00     0.165 HD
ATOM     18  H   UNL A   1      33.476  23.941  26.170  1.00  0.00     0.165 HD
BRANCH  16  19
ATOM     19  C   UNL A   1      33.459  21.408  26.393  1.00  0.00     0.154 C 
BRANCH  19  20
ATOM     20  C   UNL A   1      33.048  20.428  25.343  1.00  0.00    -0.018 A 
ATOM     21  C   UNL A   1      32.613  20.791  24.024  1.00  0.00     0.017 A 
ATOM     22  C   UNL A   1      33.043  19.051  25.492  1.00  0.00     0.070 A 
ATOM     23  C   UNL A   1      32.304  19.699  23.243  1.00  0.00     0.065 A 
ATOM     24  S   UNL A   1      32.532  18.229  24.082  1.00  0.00    -0.152 S 
ENDBRANCH  19  20
ENDBRANCH  16  19
ENDBRANCH  12  13
ENDBRANCH   7  12
ENDBRANCH   3   6
ENDBRANCH   1   2
BRANCH   1  25
ATOM     25  C   UNL A   1      33.218  29.373  24.798  1.00  0.00     0.023 C 
BRANCH  25  26
ATOM     26  C   UNL A   1      33.930  28.529  25.848  1.00  0.00     0.023 C 
BRANCH  26  27
ATOM     27  C   UNL A   1      33.522  28.793  27.296  1.00  0.00     0.116 C 
BRANCH  27  28
ATOM     28  N   UNL A   1      33.566  30.186  27.719  1.00  0.00    -0.352 N 
ATOM     29  C   UNL A   1      34.663  30.878  28.196  1.00  0.00     0.251 C 
ATOM     30  H   UNL A   1      32.723  30.690  27.659  1.00  0.00     0.163 HD
ATOM     31  O   UNL A   1      34.595  32.056  28.515  1.00  0.00    -0.269 OA
BRANCH  29  32
ATOM     32  C   UNL A   1      35.927  30.133  28.390  1.00  0.00     0.039 A 
ATOM     33  C   UNL A   1      36.890  30.188  27.379  1.00  0.00     0.014 A 
ATOM     34  C   UNL A   1      36.208  29.509  29.606  1.00  0.00     0.014 A 
ATOM     35  C   UNL A   1      38.177  29.711  27.629  1.00  0.00     0.010 A 
ATOM     36  C   UNL A   1      37.511  29.101  29.879  1.00  0.00     0.010 A 
ATOM     37  C   UNL A   1      38.513  29.220  28.902  1.00  0.00    -0.014 A 
BRANCH  37  38
ATOM     38  C   UNL A   1      39.914  28.868  29.247  1.00  0.00     0.031 A 
ATOM     39  C   UNL A   1      40.761  29.827  30.032  1.00  0.00     0.074 A 
ATOM     40  C   UNL A   1      40.450  27.725  28.774  1.00  0.00     0.049 A 
ATOM     41  N   UNL A   1      42.031  29.749  30.338  1.00  0.00    -0.248 NA
ATOM     42  C   UNL A   1      40.101  31.054  30.505  1.00  0.00     0.031 C 
ATOM     43  C   UNL A   1      39.753  26.739  27.946  1.00  0.00     0.029 A 
ATOM     44  N   UNL A   1      41.715  27.206  28.911  1.00  0.00    -0.354 N 
ATOM     45  C   UNL A   1      42.328  30.926  31.012  1.00  0.00     0.074 A 
ATOM     46  C   UNL A   1      41.117  31.718  31.036  1.00  0.00     0.031 C 
ATOM     47  C   UNL A   1      40.590  25.726  27.668  1.00  0.00     0.029 A 
ATOM     48  C   UNL A   1      41.891  26.006  28.269  1.00  0.00     0.049 A 
ATOM     49  H   UNL A   1      42.428  27.654  29.421  1.00  0.00     0.167 HD
ATOM     50  C   UNL A   1      43.499  31.303  31.578  1.00  0.00     0.037 A 
ATOM     51  C   UNL A   1      42.979  25.219  28.173  1.00  0.00     0.037 A 
ATOM     52  C   UNL A   1      44.689  30.496  31.598  1.00  0.00     0.049 A 
ATOM     53  C   UNL A   1      44.255  25.640  28.851  1.00  0.00     0.074 A 
ATOM     54  C   UNL A   1      45.901  30.760  32.210  1.00  0.00     0.029 A 
ATOM     55  N   UNL A   1      44.812  29.259  30.982  1.00  0.00    -0.354 N 
ATOM     56  N   UNL A   1      44.504  26.726  29.540  1.00  0.00    -0.248 NA
ATOM     57  C   UNL A   1      45.398  24.722  28.741  1.00  0.00     0.031 C 
ATOM     58  C   UNL A   1      46.768  29.694  31.944  1.00  0.00     0.029 A 
ATOM     59  C   UNL A   1      46.083  28.751  31.193  1.00  0.00     0.049 A 
ATOM     60  H   UNL A   1      44.101  28.809  30.470  1.00  0.00     0.167 HD
ATOM     61  C   UNL A   1      45.820  26.612  29.966  1.00  0.00     0.074 A 
ATOM     62  C   UNL A   1      46.314  25.346  29.469  1.00  0.00     0.031 C 
ATOM     63  C   UNL A   1      46.553  27.482  30.703  1.00  0.00     0.037 A 
BRANCH  50  64
ATOM     64  C   UNL A   1      43.543  32.649  32.237  1.00  0.00     0.064 A 
ATOM     65  C   UNL A   1      43.249  32.807  33.599  1.00  0.00     0.173 A 
ATOM     66  C   UNL A   1      43.907  33.788  31.505  1.00  0.00     0.173 A 
ATOM     67  F   UNL A   1      42.881  31.750  34.337  1.00  0.00    -0.203 F 
ATOM     68  C   UNL A   1      43.290  34.062  34.199  1.00  0.00     0.198 A 
ATOM     69  C   UNL A   1      43.974  35.039  32.113  1.00  0.00     0.198 A 
ATOM     70  F   UNL A   1      44.202  33.689  30.200  1.00  0.00    -0.203 F 
ATOM     71  F   UNL A   1      42.958  34.198  35.489  1.00  0.00    -0.200 F 
ATOM     72  C   UNL A   1      43.658  35.175  33.457  1.00  0.00     0.200 A 
ATOM     73  F   UNL A   1      44.337  36.112  31.399  1.00  0.00    -0.200 F 
ATOM     74  F   UNL A   1      43.700  36.383  34.036  1.00  0.00    -0.200 F 
ENDBRANCH  50  64
BRANCH  51  75
ATOM     75  C   UNL A   1      42.905  23.933  27.434  1.00  0.00     0.064 A 
ATOM     76  C   UNL A   1      43.241  23.869  26.074  1.00  0.00     0.173 A 
ATOM     77  C   UNL A   1      42.491  22.751  28.062  1.00  0.00     0.173 A 
ATOM     78  F   UNL A   1      43.620  24.980  25.427  1.00  0.00    -0.203 F 
ATOM     79  C   UNL A   1      43.149  22.673  25.366  1.00  0.00     0.198 A 
ATOM     80  C   UNL A   1      42.420  21.550  27.358  1.00  0.00     0.198 A 
ATOM     81  F   UNL A   1      42.162  22.761  29.363  1.00  0.00    -0.203 F 
ATOM     82  F   UNL A   1      43.436  22.649  24.057  1.00  0.00    -0.200 F 
ATOM     83  C   UNL A   1      42.743  21.514  26.009  1.00  0.00     0.200 A 
ATOM     84  F   UNL A   1      42.037  20.429  27.985  1.00  0.00    -0.200 F 
ATOM     85  F   UNL A   1      42.653  20.364  25.327  1.00  0.00    -0.200 F 
ENDBRANCH  51  75
BRANCH  63  86
ATOM     86  C   UNL A   1      47.955  27.079  31.045  1.00  0.00     0.064 A 
ATOM     87  C   UNL A   1      48.235  26.287  32.167  1.00  0.00     0.173 A 
ATOM     88  C   UNL A   1      49.023  27.451  30.215  1.00  0.00     0.173 A 
ATOM     89  F   UNL A   1      47.248  25.920  32.998  1.00  0.00    -0.203 F 
ATOM     90  C   UNL A   1      49.539  25.894  32.455  1.00  0.00     0.198 A 
ATOM     91  C   UNL A   1      50.322  27.038  30.495  1.00  0.00     0.198 A 
ATOM     92  F   UNL A   1      48.802  28.206  29.128  1.00  0.00    -0.203 F 
ATOM     93  F   UNL A   1      49.790  25.166  33.553  1.00  0.00    -0.200 F 
ATOM     94  C   UNL A   1      50.580  26.264  31.616  1.00  0.00     0.200 A 
ATOM     95  F   UNL A   1      51.324  27.389  29.679  1.00  0.00    -0.200 F 
ATOM     96  F   UNL A   1      51.833  25.879  31.892  1.00  0.00    -0.200 F 
ENDBRANCH  63  86
ENDBRANCH  37  38
ENDBRANCH  29  32
ENDBRANCH  27  28
ENDBRANCH  26  27
ENDBRANCH  25  26
ENDBRANCH   1  25
TORSDOF 15
ENDMDL
MODEL 2
REMARK VINA RESULT:     -12.1      3.660      8.200
REMARK SMILES O=C(NCc1ccsc1)NC[C@H]1CC[C@@H](C(=O)NCCCCNC(=O)c2ccc(-c3c4nc(c(-c5c(F)c(F)c(F)c(F)c5F)c5ccc([nH]5)c(-c5c(F)c(F)c(F)c(F)c5F)c5nc(c(-c6c(F)c(F)c(F)c(F)c6F)c6ccc3[nH]6)C=C5)C=C4)cc2)CC1
REMARK SMILES IDX 19 1 18 2 16 3 17 4 15 6 12 7 13 8 90 9 14 10 89 11 11 12
REMARK SMILES IDX 10 13 1 14 2 15 3 16 4 19 5 20 6 21 9 22 7 23 8 24 20 25
REMARK SMILES IDX 21 26 22 27 23 28 24 29 25 31 26 32 27 33 88 34 28 35 87 36
REMARK SMILES IDX 29 37 30 38 31 39 81 40 32 41 86 42 80 43 82 44 33 45 85 46
REMARK SMILES IDX 79 47 78 48 34 50 66 51 46 52 65 53 47 54 50 55 64 56 83 57
REMARK SMILES IDX 48 58 49 59 63 61 84 62 51 63 35 64 36 65 44 66 37 67 38 68
REMARK SMILES IDX 42 69 45 70 39 71 40 72 43 73 41 74 67 75 68 76 76 77 69 78
REMARK SMILES IDX 70 79 74 80 77 81 71 82 72 83 75 84 73 85 52 86 53 87 61 88
REMARK SMILES IDX 54 89 55 90 59 91 62 92 56 93 57 94 60 95 58 96
REMARK H PARENT 18 5 3 17 10 18 23 30 82 49 50 60
REMARK Flexibility Score: inf
ROOT
ATOM      1  C   UNL A   1      33.973  23.028  23.309  1.00  0.00     0.116 C 
ENDROOT
BRANCH   1   2
ATOM      2  N   UNL A   1      33.785  23.879  22.160  1.00  0.00    -0.356 N 
ATOM      3  C   UNL A   1      33.155  25.069  22.000  1.00  0.00     0.223 C 
ATOM      4  O   UNL A   1      33.279  25.593  20.886  1.00  0.00    -0.275 OA
ATOM      5  H   UNL A   1      34.191  23.530  21.335  1.00  0.00     0.163 HD
BRANCH   3   6
ATOM      6  C   UNL A   1      32.339  25.794  23.082  1.00  0.00     0.078 C 
ATOM      7  C   UNL A   1      31.901  24.810  25.909  1.00  0.00     0.008 C 
ATOM      8  C   UNL A   1      33.219  25.486  25.488  1.00  0.00     0.006 C 
ATOM      9  C   UNL A   1      31.026  24.305  24.750  1.00  0.00     0.006 C 
ATOM     10  C   UNL A   1      33.137  26.363  24.252  1.00  0.00     0.014 C 
ATOM     11  C   UNL A   1      31.014  25.160  23.491  1.00  0.00     0.014 C 
BRANCH   7  12
ATOM     12  C   UNL A   1      32.252  23.664  26.883  1.00  0.00     0.121 C 
BRANCH  12  13
ATOM     13  N   UNL A   1      32.547  22.407  26.234  1.00  0.00    -0.338 N 
ATOM     14  O   UNL A   1      34.021  21.656  27.805  1.00  0.00    -0.249 OA
ATOM     15  C   UNL A   1      33.348  21.462  26.797  1.00  0.00     0.315 C 
ATOM     16  N   UNL A   1      33.365  20.247  26.198  1.00  0.00    -0.334 N 
ATOM     17  H   UNL A   1      34.054  19.627  26.532  1.00  0.00     0.165 HD
ATOM     18  H   UNL A   1      32.153  22.227  25.349  1.00  0.00     0.165 HD
BRANCH  16  19
ATOM     19  C   UNL A   1      32.526  19.721  25.146  1.00  0.00     0.154 C 
BRANCH  19  20
ATOM     20  C   UNL A   1      32.956  18.326  24.827  1.00  0.00    -0.018 A 
ATOM     21  C   UNL A   1      33.500  17.917  23.563  1.00  0.00     0.017 A 
ATOM     22  C   UNL A   1      32.904  17.253  25.700  1.00  0.00     0.070 A 
ATOM     23  C   UNL A   1      33.831  16.580  23.530  1.00  0.00     0.065 A 
ATOM     24  S   UNL A   1      33.494  15.803  25.013  1.00  0.00    -0.152 S 
ENDBRANCH  19  20
ENDBRANCH  16  19
ENDBRANCH  12  13
ENDBRANCH   7  12
ENDBRANCH   3   6
ENDBRANCH   1   2
BRANCH   1  25
ATOM     25  C   UNL A   1      35.347  23.182  23.953  1.00  0.00     0.023 C 
BRANCH  25  26
ATOM     26  C   UNL A   1      36.059  21.872  24.269  1.00  0.00     0.023 C 
BRANCH  26  27
ATOM     27  C   UNL A   1      36.916  21.875  25.533  1.00  0.00     0.116 C 
BRANCH  27  28
ATOM     28  N   UNL A   1      38.026  20.931  25.544  1.00  0.00    -0.352 N 
ATOM     29  C   UNL A   1      39.278  21.125  26.094  1.00  0.00     0.251 C 
ATOM     30  H   UNL A   1      37.867  20.062  25.111  1.00  0.00     0.163 HD
ATOM     31  O   UNL A   1      40.140  20.259  26.059  1.00  0.00    -0.269 OA
BRANCH  29  32
ATOM     32  C   UNL A   1      39.589  22.452  26.671  1.00  0.00     0.039 A 
ATOM     33  C   UNL A   1      40.605  22.537  27.626  1.00  0.00     0.014 A 
ATOM     34  C   UNL A   1      38.982  23.606  26.174  1.00  0.00     0.014 A 
ATOM     35  C   UNL A   1      41.090  23.790  28.004  1.00  0.00     0.010 A 
ATOM     36  C   UNL A   1      39.515  24.851  26.496  1.00  0.00     0.010 A 
ATOM     37  C   UNL A   1      40.590  24.953  27.395  1.00  0.00    -0.014 A 
BRANCH  37  38
ATOM     38  C   UNL A   1      41.204  26.281  27.650  1.00  0.00     0.031 A 
ATOM     39  C   UNL A   1      42.611  26.559  27.206  1.00  0.00     0.074 A 
ATOM     40  C   UNL A   1      40.527  27.203  28.362  1.00  0.00     0.049 A 
ATOM     41  N   UNL A   1      43.356  27.611  27.429  1.00  0.00    -0.248 NA
ATOM     42  C   UNL A   1      43.282  25.498  26.440  1.00  0.00     0.031 C 
ATOM     43  C   UNL A   1      39.178  27.034  28.907  1.00  0.00     0.029 A 
ATOM     44  N   UNL A   1      40.889  28.466  28.765  1.00  0.00    -0.354 N 
ATOM     45  C   UNL A   1      44.589  27.327  26.858  1.00  0.00     0.074 A 
ATOM     46  C   UNL A   1      44.505  25.989  26.313  1.00  0.00     0.031 C 
ATOM     47  C   UNL A   1      38.818  28.156  29.551  1.00  0.00     0.029 A 
ATOM     48  C   UNL A   1      39.921  29.111  29.495  1.00  0.00     0.049 A 
ATOM     49  H   UNL A   1      41.760  28.870  28.551  1.00  0.00     0.167 HD
ATOM     50  C   UNL A   1      45.684  28.118  26.776  1.00  0.00     0.037 A 
ATOM     51  C   UNL A   1      39.922  30.334  30.057  1.00  0.00     0.037 A 
ATOM     52  C   UNL A   1      45.753  29.466  27.274  1.00  0.00     0.049 A 
ATOM     53  C   UNL A   1      41.137  31.211  29.911  1.00  0.00     0.074 A 
ATOM     54  C   UNL A   1      46.794  30.372  27.173  1.00  0.00     0.029 A 
ATOM     55  N   UNL A   1      44.731  30.104  27.960  1.00  0.00    -0.354 N 
ATOM     56  N   UNL A   1      42.273  30.954  29.313  1.00  0.00    -0.248 NA
ATOM     57  C   UNL A   1      41.064  32.549  30.515  1.00  0.00     0.031 C 
ATOM     58  C   UNL A   1      46.412  31.552  27.821  1.00  0.00     0.029 A 
ATOM     59  C   UNL A   1      45.120  31.390  28.296  1.00  0.00     0.049 A 
ATOM     60  H   UNL A   1      43.859  29.703  28.177  1.00  0.00     0.167 HD
ATOM     61  C   UNL A   1      43.041  32.102  29.446  1.00  0.00     0.074 A 
ATOM     62  C   UNL A   1      42.237  33.063  30.171  1.00  0.00     0.031 C 
ATOM     63  C   UNL A   1      44.302  32.338  29.006  1.00  0.00     0.037 A 
BRANCH  50  64
ATOM     64  C   UNL A   1      46.899  27.545  26.109  1.00  0.00     0.064 A 
ATOM     65  C   UNL A   1      47.906  26.906  26.848  1.00  0.00     0.173 A 
ATOM     66  C   UNL A   1      47.046  27.613  24.717  1.00  0.00     0.173 A 
ATOM     67  F   UNL A   1      47.817  26.830  28.184  1.00  0.00    -0.203 F 
ATOM     68  C   UNL A   1      49.030  26.380  26.219  1.00  0.00     0.198 A 
ATOM     69  C   UNL A   1      48.159  27.062  24.087  1.00  0.00     0.198 A 
ATOM     70  F   UNL A   1      46.109  28.209  23.965  1.00  0.00    -0.203 F 
ATOM     71  F   UNL A   1      50.002  25.818  26.949  1.00  0.00    -0.200 F 
ATOM     72  C   UNL A   1      49.153  26.454  24.840  1.00  0.00     0.200 A 
ATOM     73  F   UNL A   1      48.274  27.126  22.754  1.00  0.00    -0.200 F 
ATOM     74  F   UNL A   1      50.235  25.945  24.235  1.00  0.00    -0.200 F 
ENDBRANCH  50  64
BRANCH  51  75
ATOM     75  C   UNL A   1      38.722  30.822  30.782  1.00  0.00     0.064 A 
ATOM     76  C   UNL A   1      38.628  30.699  32.176  1.00  0.00     0.173 A 
ATOM     77  C   UNL A   1      37.644  31.407  30.103  1.00  0.00     0.173 A 
ATOM     78  F   UNL A   1      39.625  30.123  32.863  1.00  0.00    -0.203 F 
ATOM     79  C   UNL A   1      37.495  31.128  32.862  1.00  0.00     0.198 A 
ATOM     80  C   UNL A   1      36.519  31.857  30.793  1.00  0.00     0.198 A 
ATOM     81  F   UNL A   1      37.688  31.550  28.771  1.00  0.00    -0.203 F 
ATOM     82  F   UNL A   1      37.415  30.960  34.189  1.00  0.00    -0.200 F 
ATOM     83  C   UNL A   1      36.443  31.710  32.171  1.00  0.00     0.200 A 
ATOM     84  F   UNL A   1      35.509  32.428  30.124  1.00  0.00    -0.200 F 
ATOM     85  F   UNL A   1      35.352  32.122  32.831  1.00  0.00    -0.200 F 
ENDBRANCH  51  75
BRANCH  63  86
ATOM     86  C   UNL A   1      44.876  33.697  29.267  1.00  0.00     0.064 A 
ATOM     87  C   UNL A   1      45.626  33.965  30.421  1.00  0.00     0.173 A 
ATOM     88  C   UNL A   1      44.711  34.728  28.330  1.00  0.00     0.173 A 
ATOM     89  F   UNL A   1      45.797  33.014  31.351  1.00  0.00    -0.203 F 
ATOM     90  C   UNL A   1      46.179  35.225  30.634  1.00  0.00     0.198 A 
ATOM     91  C   UNL A   1      45.283  35.979  28.538  1.00  0.00     0.198 A 
ATOM     92  F   UNL A   1      44.003  34.517  27.211  1.00  0.00    -0.203 F 
ATOM     93  F   UNL A   1      46.864  35.471  31.761  1.00  0.00    -0.200 F 
ATOM     94  C   UNL A   1      46.013  36.228  29.691  1.00  0.00     0.200 A 
ATOM     95  F   UNL A   1      45.130  36.945  27.622  1.00  0.00    -0.200 F 
ATOM     96  F   UNL A   1      46.552  37.437  29.896  1.00  0.00    -0.200 F 
ENDBRANCH  63  86
ENDBRANCH  37  38
ENDBRANCH  29  32
ENDBRANCH  27  28
ENDBRANCH  26  27
ENDBRANCH  25  26
ENDBRANCH   1  25
TORSDOF 15
ENDMDL
MODEL 3
REMARK VINA RESULT:     -12.0      4.533      7.162
REMARK SMILES O=C(NCc1ccsc1)NC[C@H]1CC[C@@H](C(=O)NCCCCNC(=O)c2ccc(-c3c4nc(c(-c5c(F)c(F)c(F)c(F)c5F)c5ccc([nH]5)c(-c5c(F)c(F)c(F)c(F)c5F)c5nc(c(-c6c(F)c(F)c(F)c(F)c6F)c6ccc3[nH]6)C=C5)C=C4)cc2)CC1
REMARK SMILES IDX 19 1 18 2 16 3 17 4 15 6 12 7 13 8 90 9 14 10 89 11 11 12
REMARK SMILES IDX 10 13 1 14 2 15 3 16 4 19 5 20 6 21 9 22 7 23 8 24 20 25
REMARK SMILES IDX 21 26 22 27 23 28 24 29 25 31 26 32 27 33 88 34 28 35 87 36
REMARK SMILES IDX 29 37 30 38 31 39 81 40 32 41 86 42 80 43 82 44 33 45 85 46
REMARK SMILES IDX 79 47 78 48 34 50 66 51 46 52 65 53 47 54 50 55 64 56 83 57
REMARK SMILES IDX 48 58 49 59 63 61 84 62 51 63 35 64 36 65 44 66 37 67 38 68
REMARK SMILES IDX 42 69 45 70 39 71 40 72 43 73 41 74 67 75 68 76 76 77 69 78
REMARK SMILES IDX 70 79 74 80 77 81 71 82 72 83 75 84 73 85 52 86 53 87 61 88
REMARK SMILES IDX 54 89 55 90 59 91 62 92 56 93 57 94 60 95 58 96
REMARK H PARENT 18 5 3 17 10 18 23 30 82 49 50 60
REMARK Flexibility Score: inf
ROOT
ATOM      1  C   UNL A   1      34.906  31.513  28.440  1.00  0.00     0.116 C 
ENDROOT
BRANCH   1   2
ATOM      2  N   UNL A   1      33.863  31.458  27.446  1.00  0.00    -0.356 N 
ATOM      3  C   UNL A   1      33.108  30.436  26.973  1.00  0.00     0.223 C 
ATOM      4  O   UNL A   1      32.208  30.757  26.186  1.00  0.00    -0.275 OA
ATOM      5  H   UNL A   1      33.660  32.327  27.032  1.00  0.00     0.163 HD
BRANCH   3   6
ATOM      6  C   UNL A   1      33.279  28.956  27.351  1.00  0.00     0.078 C 
ATOM      7  C   UNL A   1      32.198  26.605  25.784  1.00  0.00     0.008 C 
ATOM      8  C   UNL A   1      33.475  27.344  25.346  1.00  0.00     0.006 C 
ATOM      9  C   UNL A   1      31.310  27.369  26.780  1.00  0.00     0.006 C 
ATOM     10  C   UNL A   1      34.180  28.132  26.436  1.00  0.00     0.014 C 
ATOM     11  C   UNL A   1      32.033  28.213  27.820  1.00  0.00     0.014 C 
BRANCH   7  12
ATOM     12  C   UNL A   1      31.411  26.232  24.508  1.00  0.00     0.121 C 
BRANCH  12  13
ATOM     13  N   UNL A   1      30.636  27.318  23.954  1.00  0.00    -0.338 N 
ATOM     14  O   UNL A   1      31.173  26.918  21.773  1.00  0.00    -0.249 OA
ATOM     15  C   UNL A   1      30.511  27.519  22.614  1.00  0.00     0.315 C 
ATOM     16  N   UNL A   1      29.585  28.425  22.221  1.00  0.00    -0.334 N 
ATOM     17  H   UNL A   1      29.611  28.661  21.265  1.00  0.00     0.165 HD
ATOM     18  H   UNL A   1      30.180  27.937  24.570  1.00  0.00     0.165 HD
BRANCH  16  19
ATOM     19  C   UNL A   1      28.564  29.100  22.989  1.00  0.00     0.154 C 
BRANCH  19  20
ATOM     20  C   UNL A   1      28.433  30.506  22.503  1.00  0.00    -0.018 A 
ATOM     21  C   UNL A   1      28.656  31.668  23.318  1.00  0.00     0.017 A 
ATOM     22  C   UNL A   1      28.096  30.879  21.213  1.00  0.00     0.070 A 
ATOM     23  C   UNL A   1      28.484  32.847  22.627  1.00  0.00     0.065 A 
ATOM     24  S   UNL A   1      28.054  32.575  20.997  1.00  0.00    -0.152 S 
ENDBRANCH  19  20
ENDBRANCH  16  19
ENDBRANCH  12  13
ENDBRANCH   7  12
ENDBRANCH   3   6
ENDBRANCH   1   2
BRANCH   1  25
ATOM     25  C   UNL A   1      34.942  32.834  29.201  1.00  0.00     0.023 C 
BRANCH  25  26
ATOM     26  C   UNL A   1      33.789  33.782  28.897  1.00  0.00     0.023 C 
BRANCH  26  27
ATOM     27  C   UNL A   1      33.918  35.188  29.480  1.00  0.00     0.116 C 
BRANCH  27  28
ATOM     28  N   UNL A   1      32.813  35.626  30.321  1.00  0.00    -0.352 N 
ATOM     29  C   UNL A   1      32.759  35.608  31.702  1.00  0.00     0.251 C 
ATOM     30  H   UNL A   1      32.017  35.972  29.856  1.00  0.00     0.163 HD
ATOM     31  O   UNL A   1      31.782  36.011  32.316  1.00  0.00    -0.269 OA
BRANCH  29  32
ATOM     32  C   UNL A   1      33.896  35.009  32.437  1.00  0.00     0.039 A 
ATOM     33  C   UNL A   1      33.751  33.714  32.939  1.00  0.00     0.014 A 
ATOM     34  C   UNL A   1      35.126  35.665  32.504  1.00  0.00     0.014 A 
ATOM     35  C   UNL A   1      34.872  33.032  33.414  1.00  0.00     0.010 A 
ATOM     36  C   UNL A   1      36.255  34.958  32.908  1.00  0.00     0.010 A 
ATOM     37  C   UNL A   1      36.142  33.627  33.344  1.00  0.00    -0.014 A 
BRANCH  37  38
ATOM     38  C   UNL A   1      37.371  32.863  33.679  1.00  0.00     0.031 A 
ATOM     39  C   UNL A   1      38.105  33.140  34.960  1.00  0.00     0.074 A 
ATOM     40  C   UNL A   1      37.876  31.987  32.788  1.00  0.00     0.049 A 
ATOM     41  N   UNL A   1      39.247  32.658  35.379  1.00  0.00    -0.248 NA
ATOM     42  C   UNL A   1      37.490  34.115  35.873  1.00  0.00     0.031 C 
ATOM     43  C   UNL A   1      37.295  31.674  31.481  1.00  0.00     0.029 A 
ATOM     44  N   UNL A   1      39.005  31.206  32.842  1.00  0.00    -0.354 N 
ATOM     45  C   UNL A   1      39.501  33.291  36.588  1.00  0.00     0.074 A 
ATOM     46  C   UNL A   1      38.415  34.221  36.816  1.00  0.00     0.031 C 
ATOM     47  C   UNL A   1      38.057  30.754  30.868  1.00  0.00     0.029 A 
ATOM     48  C   UNL A   1      39.197  30.436  31.722  1.00  0.00     0.049 A 
ATOM     49  H   UNL A   1      39.619  31.200  33.611  1.00  0.00     0.167 HD
ATOM     50  C   UNL A   1      40.535  33.100  37.441  1.00  0.00     0.037 A 
ATOM     51  C   UNL A   1      40.183  29.571  31.416  1.00  0.00     0.037 A 
ATOM     52  C   UNL A   1      41.589  32.143  37.239  1.00  0.00     0.049 A 
ATOM     53  C   UNL A   1      41.296  29.343  32.403  1.00  0.00     0.074 A 
ATOM     54  C   UNL A   1      42.639  31.825  38.081  1.00  0.00     0.029 A 
ATOM     55  N   UNL A   1      41.720  31.341  36.115  1.00  0.00    -0.354 N 
ATOM     56  N   UNL A   1      41.490  29.902  33.571  1.00  0.00    -0.248 NA
ATOM     57  C   UNL A   1      42.323  28.361  32.028  1.00  0.00     0.031 C 
ATOM     58  C   UNL A   1      43.422  30.847  37.456  1.00  0.00     0.029 A 
ATOM     59  C   UNL A   1      42.838  30.534  36.239  1.00  0.00     0.049 A 
ATOM     60  H   UNL A   1      41.108  31.345  35.344  1.00  0.00     0.167 HD
ATOM     61  C   UNL A   1      42.644  29.324  34.082  1.00  0.00     0.074 A 
ATOM     62  C   UNL A   1      43.100  28.361  33.102  1.00  0.00     0.031 C 
ATOM     63  C   UNL A   1      43.269  29.571  35.259  1.00  0.00     0.037 A 
BRANCH  50  64
ATOM     64  C   UNL A   1      40.568  33.941  38.682  1.00  0.00     0.064 A 
ATOM     65  C   UNL A   1      39.893  33.550  39.848  1.00  0.00     0.173 A 
ATOM     66  C   UNL A   1      41.301  35.135  38.714  1.00  0.00     0.173 A 
ATOM     67  F   UNL A   1      39.166  32.423  39.862  1.00  0.00    -0.203 F 
ATOM     68  C   UNL A   1      39.928  34.340  40.993  1.00  0.00     0.198 A 
ATOM     69  C   UNL A   1      41.357  35.910  39.869  1.00  0.00     0.198 A 
ATOM     70  F   UNL A   1      41.967  35.550  37.626  1.00  0.00    -0.203 F 
ATOM     71  F   UNL A   1      39.237  33.973  42.080  1.00  0.00    -0.200 F 
ATOM     72  C   UNL A   1      40.664  35.516  41.004  1.00  0.00     0.200 A 
ATOM     73  F   UNL A   1      42.074  37.042  39.882  1.00  0.00    -0.200 F 
ATOM     74  F   UNL A   1      40.699  36.275  42.109  1.00  0.00    -0.200 F 
ENDBRANCH  50  64
BRANCH  51  75
ATOM     75  C   UNL A   1      40.148  28.826  30.132  1.00  0.00     0.064 A 
ATOM     76  C   UNL A   1      39.516  27.578  30.046  1.00  0.00     0.173 A 
ATOM     77  C   UNL A   1      40.748  29.336  28.973  1.00  0.00     0.173 A 
ATOM     78  F   UNL A   1      38.948  27.040  31.136  1.00  0.00    -0.203 F 
ATOM     79  C   UNL A   1      39.501  26.859  28.853  1.00  0.00     0.198 A 
ATOM     80  C   UNL A   1      40.714  28.627  27.774  1.00  0.00     0.198 A 
ATOM     81  F   UNL A   1      41.363  30.528  29.004  1.00  0.00    -0.203 F 
ATOM     82  F   UNL A   1      38.926  25.649  28.810  1.00  0.00    -0.200 F 
ATOM     83  C   UNL A   1      40.096  27.386  27.717  1.00  0.00     0.200 A 
ATOM     84  F   UNL A   1      41.281  29.142  26.675  1.00  0.00    -0.200 F 
ATOM     85  F   UNL A   1      40.082  26.693  26.570  1.00  0.00    -0.200 F 
ENDBRANCH  51  75
BRANCH  63  86
ATOM     86  C   UNL A   1      44.494  28.764  35.567  1.00  0.00     0.064 A 
ATOM     87  C   UNL A   1      45.773  29.209  35.205  1.00  0.00     0.173 A 
ATOM     88  C   UNL A   1      44.389  27.556  36.272  1.00  0.00     0.173 A 
ATOM     89  F   UNL A   1      45.921  30.351  34.517  1.00  0.00    -0.203 F 
ATOM     90  C   UNL A   1      46.904  28.464  35.526  1.00  0.00     0.198 A 
ATOM     91  C   UNL A   1      45.523  26.825  36.609  1.00  0.00     0.198 A 
ATOM     92  F   UNL A   1      43.185  27.092  36.642  1.00  0.00    -0.203 F 
ATOM     93  F   UNL A   1      48.116  28.890  35.140  1.00  0.00    -0.200 F 
ATOM     94  C   UNL A   1      46.780  27.277  36.232  1.00  0.00     0.200 A 
ATOM     95  F   UNL A   1      45.402  25.683  37.299  1.00  0.00    -0.200 F 
ATOM     96  F   UNL A   1      47.871  26.564  36.545  1.00  0.00    -0.200 F 
ENDBRANCH  63  86
ENDBRANCH  37  38
ENDBRANCH  29  32
ENDBRANCH  27  28
ENDBRANCH  26  27
ENDBRANCH  25  26
ENDBRANCH   1  25
TORSDOF 15
ENDMDL
