MODEL 1
REMARK VINA RESULT:     -10.9      0.000      0.000
REMARK SMILES CCS(=O)(=O)N[C@H]1C=C[C@@H](C(=O)NCCCCNC(=O)c2ccc(-c3c4nc(c(-c5c(F)c(F)c(F)c(F)c5F)c5ccc([nH]5)c(-c5c(F)c(F)c(F)c(F)c5F)c5nc(c(-c6c(F)c(F)c(F)c(F)c6F)c6ccc3[nH]6)C=C5)C=C4)cc2)C1
REMARK SMILES IDX 15 1 14 2 13 3 11 4 12 5 10 7 7 8 8 9 84 10 9 11 6 12 3 14
REMARK SMILES IDX 4 15 5 16 2 17 1 18 16 19 17 20 18 21 19 22 20 24 21 25
REMARK SMILES IDX 22 26 83 27 23 28 82 29 24 30 25 31 26 32 76 33 27 34 81 35
REMARK SMILES IDX 75 36 77 37 28 38 80 39 74 40 73 41 29 43 61 44 41 45 60 46
REMARK SMILES IDX 42 47 45 48 59 49 78 50 43 51 44 52 58 54 79 55 46 56 30 57
REMARK SMILES IDX 31 58 39 59 32 60 33 61 37 62 40 63 34 64 35 65 38 66 36 67
REMARK SMILES IDX 62 68 63 69 71 70 64 71 65 72 69 73 72 74 66 75 67 76 70 77
REMARK SMILES IDX 68 78 47 79 48 80 56 81 49 82 50 83 54 84 57 85 51 86 52 87
REMARK SMILES IDX 55 88 53 89
REMARK H PARENT 13 6 6 13 18 23 77 42 45 53
REMARK Flexibility Score: inf
ROOT
ATOM      1  C   UNL A   1      34.499  34.553  27.946  1.00  0.00     0.023 C 
ENDROOT
BRANCH   1   2
ATOM      2  C   UNL A   1      33.129  34.678  28.603  1.00  0.00     0.116 C 
BRANCH   2   3
ATOM      3  N   UNL A   1      32.804  36.002  29.066  1.00  0.00    -0.356 N 
ATOM      4  C   UNL A   1      32.966  36.549  30.301  1.00  0.00     0.226 C 
ATOM      5  O   UNL A   1      33.003  37.786  30.337  1.00  0.00    -0.274 OA
ATOM      6  H   UNL A   1      32.407  36.598  28.391  1.00  0.00     0.163 HD
BRANCH   4   7
ATOM      7  C   UNL A   1      33.154  35.757  31.610  1.00  0.00     0.103 C 
ATOM      8  C   UNL A   1      34.844  34.855  33.164  1.00  0.00     0.093 C 
ATOM      9  C   UNL A   1      34.213  36.104  33.677  1.00  0.00    -0.011 C 
ATOM     10  C   UNL A   1      34.238  34.673  31.764  1.00  0.00     0.042 C 
ATOM     11  C   UNL A   1      33.331  36.625  32.819  1.00  0.00    -0.016 C 
BRANCH   8  12
ATOM     12  N   UNL A   1      36.282  34.973  33.389  1.00  0.00    -0.208 NA
ATOM     13  H   UNL A   1      36.671  34.997  32.447  1.00  0.00     0.141 HD
BRANCH  12  14
ATOM     14  S   UNL A   1      37.343  34.034  34.225  1.00  0.00     0.211 S 
ATOM     15  O   UNL A   1      36.629  33.237  35.190  1.00  0.00    -0.212 OA
ATOM     16  O   UNL A   1      38.350  34.975  34.679  1.00  0.00    -0.212 OA
BRANCH  14  17
ATOM     17  C   UNL A   1      38.168  32.956  33.041  1.00  0.00     0.150 C 
ATOM     18  C   UNL A   1      37.636  32.920  31.629  1.00  0.00     0.022 C 
ENDBRANCH  14  17
ENDBRANCH  12  14
ENDBRANCH   8  12
ENDBRANCH   4   7
ENDBRANCH   2   3
ENDBRANCH   1   2
BRANCH   1  19
ATOM     19  C   UNL A   1      35.143  33.173  28.054  1.00  0.00     0.023 C 
BRANCH  19  20
ATOM     20  C   UNL A   1      34.409  32.163  28.931  1.00  0.00     0.116 C 
BRANCH  20  21
ATOM     21  N   UNL A   1      34.050  30.920  28.257  1.00  0.00    -0.352 N 
ATOM     22  C   UNL A   1      34.809  29.794  28.029  1.00  0.00     0.251 C 
ATOM     23  H   UNL A   1      33.128  30.880  27.915  1.00  0.00     0.163 HD
ATOM     24  O   UNL A   1      34.332  28.830  27.440  1.00  0.00    -0.269 OA
BRANCH  22  25
ATOM     25  C   UNL A   1      36.230  29.788  28.430  1.00  0.00     0.039 A 
ATOM     26  C   UNL A   1      36.559  29.336  29.710  1.00  0.00     0.014 A 
ATOM     27  C   UNL A   1      37.233  30.110  27.515  1.00  0.00     0.014 A 
ATOM     28  C   UNL A   1      37.895  29.089  30.029  1.00  0.00     0.010 A 
ATOM     29  C   UNL A   1      38.550  29.765  27.799  1.00  0.00     0.010 A 
ATOM     30  C   UNL A   1      38.893  29.235  29.052  1.00  0.00    -0.014 A 
BRANCH  30  31
ATOM     31  C   UNL A   1      40.297  28.816  29.313  1.00  0.00     0.031 A 
ATOM     32  C   UNL A   1      41.230  29.736  30.050  1.00  0.00     0.074 A 
ATOM     33  C   UNL A   1      40.751  27.647  28.816  1.00  0.00     0.049 A 
ATOM     34  N   UNL A   1      42.508  29.595  30.297  1.00  0.00    -0.248 NA
ATOM     35  C   UNL A   1      40.662  30.999  30.549  1.00  0.00     0.031 C 
ATOM     36  C   UNL A   1      39.963  26.693  28.030  1.00  0.00     0.029 A 
ATOM     37  N   UNL A   1      41.993  27.063  28.886  1.00  0.00    -0.354 N 
ATOM     38  C   UNL A   1      42.896  30.754  30.955  1.00  0.00     0.074 A 
ATOM     39  C   UNL A   1      41.735  31.614  31.023  1.00  0.00     0.031 C 
ATOM     40  C   UNL A   1      40.730  25.637  27.715  1.00  0.00     0.029 A 
ATOM     41  C   UNL A   1      42.076  25.854  28.235  1.00  0.00     0.049 A 
ATOM     42  H   UNL A   1      42.753  27.472  29.358  1.00  0.00     0.167 HD
ATOM     43  C   UNL A   1      44.105  31.063  31.479  1.00  0.00     0.037 A 
ATOM     44  C   UNL A   1      43.122  25.021  28.070  1.00  0.00     0.037 A 
ATOM     45  C   UNL A   1      45.245  30.187  31.451  1.00  0.00     0.049 A 
ATOM     46  C   UNL A   1      44.452  25.390  28.674  1.00  0.00     0.074 A 
ATOM     47  C   UNL A   1      46.490  30.375  32.025  1.00  0.00     0.029 A 
ATOM     48  N   UNL A   1      45.279  28.955  30.813  1.00  0.00    -0.354 N 
ATOM     49  N   UNL A   1      44.780  26.451  29.371  1.00  0.00    -0.248 NA
ATOM     50  C   UNL A   1      45.558  24.441  28.475  1.00  0.00     0.031 C 
ATOM     51  C   UNL A   1      47.294  29.282  31.690  1.00  0.00     0.029 A 
ATOM     52  C   UNL A   1      46.532  28.386  30.960  1.00  0.00     0.049 A 
ATOM     53  H   UNL A   1      44.524  28.547  30.329  1.00  0.00     0.167 HD
ATOM     54  C   UNL A   1      46.113  26.279  29.723  1.00  0.00     0.074 A 
ATOM     55  C   UNL A   1      46.528  25.004  29.178  1.00  0.00     0.031 C 
ATOM     56  C   UNL A   1      46.922  27.104  30.432  1.00  0.00     0.037 A 
BRANCH  43  57
ATOM     57  C   UNL A   1      44.263  32.399  32.144  1.00  0.00     0.064 A 
ATOM     58  C   UNL A   1      44.017  32.573  33.514  1.00  0.00     0.173 A 
ATOM     59  C   UNL A   1      44.736  33.501  31.416  1.00  0.00     0.173 A 
ATOM     60  F   UNL A   1      43.551  31.554  34.252  1.00  0.00    -0.203 F 
ATOM     61  C   UNL A   1      44.224  33.806  34.128  1.00  0.00     0.198 A 
ATOM     62  C   UNL A   1      44.971  34.724  32.039  1.00  0.00     0.198 A 
ATOM     63  F   UNL A   1      44.990  33.387  30.104  1.00  0.00    -0.203 F 
ATOM     64  F   UNL A   1      43.948  33.958  35.430  1.00  0.00    -0.200 F 
ATOM     65  C   UNL A   1      44.711  34.876  33.393  1.00  0.00     0.200 A 
ATOM     66  F   UNL A   1      45.456  35.753  31.331  1.00  0.00    -0.200 F 
ATOM     67  F   UNL A   1      44.930  36.056  33.989  1.00  0.00    -0.200 F 
ENDBRANCH  43  57
BRANCH  44  68
ATOM     68  C   UNL A   1      42.967  23.750  27.310  1.00  0.00     0.064 A 
ATOM     69  C   UNL A   1      42.440  22.602  27.920  1.00  0.00     0.173 A 
ATOM     70  C   UNL A   1      43.392  23.638  25.977  1.00  0.00     0.173 A 
ATOM     71  F   UNL A   1      42.039  22.649  29.199  1.00  0.00    -0.203 F 
ATOM     72  C   UNL A   1      42.380  21.385  27.242  1.00  0.00     0.198 A 
ATOM     73  C   UNL A   1      43.300  22.429  25.289  1.00  0.00     0.198 A 
ATOM     74  F   UNL A   1      43.900  24.704  25.342  1.00  0.00    -0.203 F 
ATOM     75  F   UNL A   1      41.939  20.290  27.876  1.00  0.00    -0.200 F 
ATOM     76  C   UNL A   1      42.808  21.300  25.927  1.00  0.00     0.200 A 
ATOM     77  F   UNL A   1      43.701  22.355  24.013  1.00  0.00    -0.200 F 
ATOM     78  F   UNL A   1      42.762  20.128  25.279  1.00  0.00    -0.200 F 
ENDBRANCH  44  68
BRANCH  56  79
ATOM     79  C   UNL A   1      48.321  26.633  30.707  1.00  0.00     0.064 A 
ATOM     80  C   UNL A   1      49.393  26.975  29.872  1.00  0.00     0.173 A 
ATOM     81  C   UNL A   1      48.595  25.866  31.849  1.00  0.00     0.173 A 
ATOM     82  F   UNL A   1      49.181  27.695  28.760  1.00  0.00    -0.203 F 
ATOM     83  C   UNL A   1      50.687  26.542  30.156  1.00  0.00     0.198 A 
ATOM     84  C   UNL A   1      49.893  25.465  32.149  1.00  0.00     0.198 A 
ATOM     85  F   UNL A   1      47.605  25.519  32.687  1.00  0.00    -0.203 F 
ATOM     86  F   UNL A   1      51.688  26.838  29.316  1.00  0.00    -0.200 F 
ATOM     87  C   UNL A   1      50.936  25.796  31.298  1.00  0.00     0.200 A 
ATOM     88  F   UNL A   1      50.135  24.759  33.262  1.00  0.00    -0.200 F 
ATOM     89  F   UNL A   1      52.182  25.390  31.575  1.00  0.00    -0.200 F 
ENDBRANCH  56  79
ENDBRANCH  30  31
ENDBRANCH  22  25
ENDBRANCH  20  21
ENDBRANCH  19  20
ENDBRANCH   1  19
TORSDOF 14
ENDMDL
MODEL 2
REMARK VINA RESULT:     -10.9      5.050      8.090
REMARK SMILES CCS(=O)(=O)N[C@H]1C=C[C@@H](C(=O)NCCCCNC(=O)c2ccc(-c3c4nc(c(-c5c(F)c(F)c(F)c(F)c5F)c5ccc([nH]5)c(-c5c(F)c(F)c(F)c(F)c5F)c5nc(c(-c6c(F)c(F)c(F)c(F)c6F)c6ccc3[nH]6)C=C5)C=C4)cc2)C1
REMARK SMILES IDX 15 1 14 2 13 3 11 4 12 5 10 7 7 8 8 9 84 10 9 11 6 12 3 14
REMARK SMILES IDX 4 15 5 16 2 17 1 18 16 19 17 20 18 21 19 22 20 24 21 25
REMARK SMILES IDX 22 26 83 27 23 28 82 29 24 30 25 31 26 32 76 33 27 34 81 35
REMARK SMILES IDX 75 36 77 37 28 38 80 39 74 40 73 41 29 43 61 44 41 45 60 46
REMARK SMILES IDX 42 47 45 48 59 49 78 50 43 51 44 52 58 54 79 55 46 56 30 57
REMARK SMILES IDX 31 58 39 59 32 60 33 61 37 62 40 63 34 64 35 65 38 66 36 67
REMARK SMILES IDX 62 68 63 69 71 70 64 71 65 72 69 73 72 74 66 75 67 76 70 77
REMARK SMILES IDX 68 78 47 79 48 80 56 81 49 82 50 83 54 84 57 85 51 86 52 87
REMARK SMILES IDX 55 88 53 89
REMARK H PARENT 13 6 6 13 18 23 77 42 45 53
REMARK Flexibility Score: inf
ROOT
ATOM      1  C   UNL A   1      32.118  27.757  27.244  1.00  0.00     0.023 C 
ENDROOT
BRANCH   1   2
ATOM      2  C   UNL A   1      31.671  26.792  26.152  1.00  0.00     0.116 C 
BRANCH   2   3
ATOM      3  N   UNL A   1      31.015  25.605  26.632  1.00  0.00    -0.356 N 
ATOM      4  C   UNL A   1      31.325  24.298  26.414  1.00  0.00     0.226 C 
ATOM      5  O   UNL A   1      30.883  23.497  27.249  1.00  0.00    -0.274 OA
ATOM      6  H   UNL A   1      30.227  25.760  27.201  1.00  0.00     0.163 HD
BRANCH   4   7
ATOM      7  C   UNL A   1      32.207  23.770  25.266  1.00  0.00     0.103 C 
ATOM      8  C   UNL A   1      32.905  21.727  24.072  1.00  0.00     0.093 C 
ATOM      9  C   UNL A   1      31.888  22.507  23.312  1.00  0.00    -0.011 C 
ATOM     10  C   UNL A   1      33.046  22.485  25.401  1.00  0.00     0.042 C 
ATOM     11  C   UNL A   1      31.469  23.590  23.974  1.00  0.00    -0.016 C 
BRANCH   8  12
ATOM     12  N   UNL A   1      32.511  20.323  24.005  1.00  0.00    -0.208 NA
ATOM     13  H   UNL A   1      31.551  20.327  24.350  1.00  0.00     0.141 HD
BRANCH  12  14
ATOM     14  S   UNL A   1      33.160  18.967  24.676  1.00  0.00     0.211 S 
ATOM     15  O   UNL A   1      32.529  18.705  25.945  1.00  0.00    -0.212 OA
ATOM     16  O   UNL A   1      34.588  19.209  24.624  1.00  0.00    -0.212 OA
BRANCH  14  17
ATOM     17  C   UNL A   1      32.846  17.597  23.550  1.00  0.00     0.150 C 
ATOM     18  C   UNL A   1      34.024  16.760  23.111  1.00  0.00     0.022 C 
ENDBRANCH  14  17
ENDBRANCH  12  14
ENDBRANCH   8  12
ENDBRANCH   4   7
ENDBRANCH   2   3
ENDBRANCH   1   2
BRANCH   1  19
ATOM     19  C   UNL A   1      31.702  29.211  27.032  1.00  0.00     0.023 C 
BRANCH  19  20
ATOM     20  C   UNL A   1      32.776  30.134  26.466  1.00  0.00     0.116 C 
BRANCH  20  21
ATOM     21  N   UNL A   1      32.723  31.505  26.960  1.00  0.00    -0.352 N 
ATOM     22  C   UNL A   1      33.683  32.239  27.622  1.00  0.00     0.251 C 
ATOM     23  H   UNL A   1      31.874  31.977  26.796  1.00  0.00     0.163 HD
ATOM     24  O   UNL A   1      33.459  33.395  27.963  1.00  0.00    -0.269 OA
BRANCH  22  25
ATOM     25  C   UNL A   1      34.959  31.592  27.988  1.00  0.00     0.039 A 
ATOM     26  C   UNL A   1      36.082  32.399  28.184  1.00  0.00     0.014 A 
ATOM     27  C   UNL A   1      35.017  30.224  28.253  1.00  0.00     0.014 A 
ATOM     28  C   UNL A   1      37.228  31.853  28.763  1.00  0.00     0.010 A 
ATOM     29  C   UNL A   1      36.119  29.706  28.925  1.00  0.00     0.010 A 
ATOM     30  C   UNL A   1      37.230  30.519  29.203  1.00  0.00    -0.014 A 
BRANCH  30  31
ATOM     31  C   UNL A   1      38.373  29.961  29.975  1.00  0.00     0.031 A 
ATOM     32  C   UNL A   1      38.617  30.416  31.388  1.00  0.00     0.074 A 
ATOM     33  C   UNL A   1      39.234  29.111  29.379  1.00  0.00     0.049 A 
ATOM     34  N   UNL A   1      39.604  30.119  32.194  1.00  0.00    -0.248 NA
ATOM     35  C   UNL A   1      37.639  31.355  31.962  1.00  0.00     0.031 C 
ATOM     36  C   UNL A   1      39.144  28.642  27.994  1.00  0.00     0.029 A 
ATOM     37  N   UNL A   1      40.366  28.498  29.858  1.00  0.00    -0.354 N 
ATOM     38  C   UNL A   1      39.378  30.849  33.353  1.00  0.00     0.074 A 
ATOM     39  C   UNL A   1      38.192  31.645  33.130  1.00  0.00     0.031 C 
ATOM     40  C   UNL A   1      40.158  27.798  27.745  1.00  0.00     0.029 A 
ATOM     41  C   UNL A   1      40.998  27.698  28.934  1.00  0.00     0.049 A 
ATOM     42  H   UNL A   1      40.696  28.620  30.778  1.00  0.00     0.167 HD
ATOM     43  C   UNL A   1      40.082  30.836  34.509  1.00  0.00     0.037 A 
ATOM     44  C   UNL A   1      42.130  26.974  29.033  1.00  0.00     0.037 A 
ATOM     45  C   UNL A   1      41.235  30.009  34.744  1.00  0.00     0.049 A 
ATOM     46  C   UNL A   1      42.885  26.974  30.338  1.00  0.00     0.074 A 
ATOM     47  C   UNL A   1      41.967  29.865  35.909  1.00  0.00     0.029 A 
ATOM     48  N   UNL A   1      41.822  29.185  33.795  1.00  0.00    -0.354 N 
ATOM     49  N   UNL A   1      42.608  27.601  31.455  1.00  0.00    -0.248 NA
ATOM     50  C   UNL A   1      44.107  26.159  30.398  1.00  0.00     0.031 C 
ATOM     51  C   UNL A   1      43.030  28.995  35.650  1.00  0.00     0.029 A 
ATOM     52  C   UNL A   1      42.923  28.550  34.343  1.00  0.00     0.049 A 
ATOM     53  H   UNL A   1      41.503  29.069  32.871  1.00  0.00     0.167 HD
ATOM     54  C   UNL A   1      43.596  27.229  32.357  1.00  0.00     0.074 A 
ATOM     55  C   UNL A   1      44.470  26.307  31.663  1.00  0.00     0.031 C 
ATOM     56  C   UNL A   1      43.768  27.616  33.645  1.00  0.00     0.037 A 
BRANCH  43  57
ATOM     57  C   UNL A   1      39.622  31.732  35.622  1.00  0.00     0.064 A 
ATOM     58  C   UNL A   1      40.127  33.031  35.778  1.00  0.00     0.173 A 
ATOM     59  C   UNL A   1      38.611  31.310  36.499  1.00  0.00     0.173 A 
ATOM     60  F   UNL A   1      41.103  33.478  34.974  1.00  0.00    -0.203 F 
ATOM     61  C   UNL A   1      39.647  33.870  36.781  1.00  0.00     0.198 A 
ATOM     62  C   UNL A   1      38.114  32.162  37.482  1.00  0.00     0.198 A 
ATOM     63  F   UNL A   1      38.092  30.078  36.392  1.00  0.00    -0.203 F 
ATOM     64  F   UNL A   1      40.170  35.095  36.934  1.00  0.00    -0.200 F 
ATOM     65  C   UNL A   1      38.635  33.439  37.624  1.00  0.00     0.200 A 
ATOM     66  F   UNL A   1      37.124  31.749  38.286  1.00  0.00    -0.200 F 
ATOM     67  F   UNL A   1      38.160  34.255  38.576  1.00  0.00    -0.200 F 
ENDBRANCH  43  57
BRANCH  44  68
ATOM     68  C   UNL A   1      42.626  26.178  27.877  1.00  0.00     0.064 A 
ATOM     69  C   UNL A   1      43.552  26.717  26.972  1.00  0.00     0.173 A 
ATOM     70  C   UNL A   1      42.148  24.884  27.620  1.00  0.00     0.173 A 
ATOM     71  F   UNL A   1      44.025  27.958  27.159  1.00  0.00    -0.203 F 
ATOM     72  C   UNL A   1      43.949  26.012  25.836  1.00  0.00     0.198 A 
ATOM     73  C   UNL A   1      42.571  24.166  26.503  1.00  0.00     0.198 A 
ATOM     74  F   UNL A   1      41.265  24.316  28.454  1.00  0.00    -0.203 F 
ATOM     75  F   UNL A   1      44.778  26.584  24.952  1.00  0.00    -0.200 F 
ATOM     76  C   UNL A   1      43.459  24.737  25.604  1.00  0.00     0.200 A 
ATOM     77  F   UNL A   1      42.107  22.928  26.290  1.00  0.00    -0.200 F 
ATOM     78  F   UNL A   1      43.832  24.064  24.507  1.00  0.00    -0.200 F 
ENDBRANCH  44  68
BRANCH  56  79
ATOM     79  C   UNL A   1      44.910  27.006  34.405  1.00  0.00     0.064 A 
ATOM     80  C   UNL A   1      46.189  27.578  34.402  1.00  0.00     0.173 A 
ATOM     81  C   UNL A   1      44.705  25.857  35.184  1.00  0.00     0.173 A 
ATOM     82  F   UNL A   1      46.440  28.669  33.663  1.00  0.00    -0.203 F 
ATOM     83  C   UNL A   1      47.230  27.005  35.129  1.00  0.00     0.198 A 
ATOM     84  C   UNL A   1      45.737  25.307  35.937  1.00  0.00     0.198 A 
ATOM     85  F   UNL A   1      43.496  25.275  35.228  1.00  0.00    -0.203 F 
ATOM     86  F   UNL A   1      48.458  27.539  35.071  1.00  0.00    -0.200 F 
ATOM     87  C   UNL A   1      47.001  25.877  35.902  1.00  0.00     0.200 A 
ATOM     88  F   UNL A   1      45.510  24.227  36.697  1.00  0.00    -0.200 F 
ATOM     89  F   UNL A   1      48.000  25.333  36.609  1.00  0.00    -0.200 F 
ENDBRANCH  56  79
ENDBRANCH  30  31
ENDBRANCH  22  25
ENDBRANCH  20  21
ENDBRANCH  19  20
ENDBRANCH   1  19
TORSDOF 14
ENDMDL
MODEL 3
REMARK VINA RESULT:     -10.8      4.396      7.189
REMARK SMILES CCS(=O)(=O)N[C@H]1C=C[C@@H](C(=O)NCCCCNC(=O)c2ccc(-c3c4nc(c(-c5c(F)c(F)c(F)c(F)c5F)c5ccc([nH]5)c(-c5c(F)c(F)c(F)c(F)c5F)c5nc(c(-c6c(F)c(F)c(F)c(F)c6F)c6ccc3[nH]6)C=C5)C=C4)cc2)C1
REMARK SMILES IDX 15 1 14 2 13 3 11 4 12 5 10 7 7 8 8 9 84 10 9 11 6 12 3 14
REMARK SMILES IDX 4 15 5 16 2 17 1 18 16 19 17 20 18 21 19 22 20 24 21 25
REMARK SMILES IDX 22 26 83 27 23 28 82 29 24 30 25 31 26 32 76 33 27 34 81 35
REMARK SMILES IDX 75 36 77 37 28 38 80 39 74 40 73 41 29 43 61 44 41 45 60 46
REMARK SMILES IDX 42 47 45 48 59 49 78 50 43 51 44 52 58 54 79 55 46 56 30 57
REMARK SMILES IDX 31 58 39 59 32 60 33 61 37 62 40 63 34 64 35 65 38 66 36 67
REMARK SMILES IDX 62 68 63 69 71 70 64 71 65 72 69 73 72 74 66 75 67 76 70 77
REMARK SMILES IDX 68 78 47 79 48 80 56 81 49 82 50 83 54 84 57 85 51 86 52 87
REMARK SMILES IDX 55 88 53 89
REMARK H PARENT 13 6 6 13 18 23 77 42 45 53
REMARK Flexibility Score: inf
ROOT
ATOM      1  C   UNL A   1      32.349  27.928  26.747  1.00  0.00     0.023 C 
ENDROOT
BRANCH   1   2
ATOM      2  C   UNL A   1      31.500  26.768  26.239  1.00  0.00     0.116 C 
BRANCH   2   3
ATOM      3  N   UNL A   1      32.237  25.741  25.552  1.00  0.00    -0.356 N 
ATOM      4  C   UNL A   1      32.661  25.699  24.260  1.00  0.00     0.226 C 
ATOM      5  O   UNL A   1      33.605  24.931  24.031  1.00  0.00    -0.274 OA
ATOM      6  H   UNL A   1      32.468  24.954  26.096  1.00  0.00     0.163 HD
BRANCH   4   7
ATOM      7  C   UNL A   1      32.098  26.555  23.108  1.00  0.00     0.103 C 
ATOM      8  C   UNL A   1      30.376  28.222  22.526  1.00  0.00     0.093 C 
ATOM      9  C   UNL A   1      31.722  28.837  22.704  1.00  0.00    -0.011 C 
ATOM     10  C   UNL A   1      30.585  26.745  22.891  1.00  0.00     0.042 C 
ATOM     11  C   UNL A   1      32.651  27.947  23.067  1.00  0.00    -0.016 C 
BRANCH   8  12
ATOM     12  N   UNL A   1      29.416  29.077  23.220  1.00  0.00    -0.208 NA
ATOM     13  H   UNL A   1      29.021  28.463  23.932  1.00  0.00     0.141 HD
BRANCH  12  14
ATOM     14  S   UNL A   1      28.118  29.932  22.680  1.00  0.00     0.211 S 
ATOM     15  O   UNL A   1      26.902  29.296  23.119  1.00  0.00    -0.212 OA
ATOM     16  O   UNL A   1      28.374  30.084  21.261  1.00  0.00    -0.212 OA
BRANCH  14  17
ATOM     17  C   UNL A   1      28.224  31.587  23.384  1.00  0.00     0.150 C 
ATOM     18  C   UNL A   1      28.691  32.707  22.486  1.00  0.00     0.022 C 
ENDBRANCH  14  17
ENDBRANCH  12  14
ENDBRANCH   8  12
ENDBRANCH   4   7
ENDBRANCH   2   3
ENDBRANCH   1   2
BRANCH   1  19
ATOM     19  C   UNL A   1      31.781  29.317  26.465  1.00  0.00     0.023 C 
BRANCH  19  20
ATOM     20  C   UNL A   1      32.799  30.386  26.079  1.00  0.00     0.116 C 
BRANCH  20  21
ATOM     21  N   UNL A   1      32.648  31.653  26.785  1.00  0.00    -0.352 N 
ATOM     22  C   UNL A   1      33.527  32.300  27.625  1.00  0.00     0.251 C 
ATOM     23  H   UNL A   1      31.791  32.114  26.639  1.00  0.00     0.163 HD
ATOM     24  O   UNL A   1      33.227  33.375  28.133  1.00  0.00    -0.269 OA
BRANCH  22  25
ATOM     25  C   UNL A   1      34.806  31.648  27.973  1.00  0.00     0.039 A 
ATOM     26  C   UNL A   1      35.943  32.446  28.115  1.00  0.00     0.014 A 
ATOM     27  C   UNL A   1      34.856  30.287  28.273  1.00  0.00     0.014 A 
ATOM     28  C   UNL A   1      37.099  31.901  28.677  1.00  0.00     0.010 A 
ATOM     29  C   UNL A   1      35.971  29.774  28.926  1.00  0.00     0.010 A 
ATOM     30  C   UNL A   1      37.098  30.579  29.151  1.00  0.00    -0.014 A 
BRANCH  30  31
ATOM     31  C   UNL A   1      38.256  30.028  29.906  1.00  0.00     0.031 A 
ATOM     32  C   UNL A   1      38.517  30.482  31.315  1.00  0.00     0.074 A 
ATOM     33  C   UNL A   1      39.114  29.186  29.296  1.00  0.00     0.049 A 
ATOM     34  N   UNL A   1      39.518  30.191  32.107  1.00  0.00    -0.248 NA
ATOM     35  C   UNL A   1      37.541  31.413  31.906  1.00  0.00     0.031 C 
ATOM     36  C   UNL A   1      39.007  28.718  27.911  1.00  0.00     0.029 A 
ATOM     37  N   UNL A   1      40.258  28.579  29.757  1.00  0.00    -0.354 N 
ATOM     38  C   UNL A   1      39.304  30.917  33.270  1.00  0.00     0.074 A 
ATOM     39  C   UNL A   1      38.109  31.705  33.066  1.00  0.00     0.031 C 
ATOM     40  C   UNL A   1      40.023  27.881  27.645  1.00  0.00     0.029 A 
ATOM     41  C   UNL A   1      40.881  27.785  28.822  1.00  0.00     0.049 A 
ATOM     42  H   UNL A   1      40.600  28.702  30.672  1.00  0.00     0.167 HD
ATOM     43  C   UNL A   1      40.024  30.907  34.416  1.00  0.00     0.037 A 
ATOM     44  C   UNL A   1      42.019  27.069  28.903  1.00  0.00     0.037 A 
ATOM     45  C   UNL A   1      41.186  30.088  34.632  1.00  0.00     0.049 A 
ATOM     46  C   UNL A   1      42.793  27.072  30.197  1.00  0.00     0.074 A 
ATOM     47  C   UNL A   1      41.937  29.947  35.786  1.00  0.00     0.029 A 
ATOM     48  N   UNL A   1      41.765  29.269  33.673  1.00  0.00    -0.354 N 
ATOM     49  N   UNL A   1      42.529  27.696  31.320  1.00  0.00    -0.248 NA
ATOM     50  C   UNL A   1      44.022  26.265  30.238  1.00  0.00     0.031 C 
ATOM     51  C   UNL A   1      43.002  29.084  35.510  1.00  0.00     0.029 A 
ATOM     52  C   UNL A   1      42.879  28.641  34.204  1.00  0.00     0.049 A 
ATOM     53  H   UNL A   1      41.434  29.153  32.754  1.00  0.00     0.167 HD
ATOM     54  C   UNL A   1      43.532  27.328  32.206  1.00  0.00     0.074 A 
ATOM     55  C   UNL A   1      44.402  26.413  31.497  1.00  0.00     0.031 C 
ATOM     56  C   UNL A   1      43.720  27.714  33.492  1.00  0.00     0.037 A 
BRANCH  43  57
ATOM     57  C   UNL A   1      39.575  31.798  35.537  1.00  0.00     0.064 A 
ATOM     58  C   UNL A   1      40.039  33.116  35.662  1.00  0.00     0.173 A 
ATOM     59  C   UNL A   1      38.613  31.349  36.455  1.00  0.00     0.173 A 
ATOM     60  F   UNL A   1      40.967  33.589  34.818  1.00  0.00    -0.203 F 
ATOM     61  C   UNL A   1      39.568  33.947  36.674  1.00  0.00     0.198 A 
ATOM     62  C   UNL A   1      38.122  32.194  37.448  1.00  0.00     0.198 A 
ATOM     63  F   UNL A   1      38.135  30.099  36.378  1.00  0.00    -0.203 F 
ATOM     64  F   UNL A   1      40.052  35.191  36.797  1.00  0.00    -0.200 F 
ATOM     65  C   UNL A   1      38.603  33.489  37.558  1.00  0.00     0.200 A 
ATOM     66  F   UNL A   1      37.179  31.754  38.292  1.00  0.00    -0.200 F 
ATOM     67  F   UNL A   1      38.135  34.298  38.520  1.00  0.00    -0.200 F 
ENDBRANCH  43  57
BRANCH  44  68
ATOM     68  C   UNL A   1      42.504  26.278  27.738  1.00  0.00     0.064 A 
ATOM     69  C   UNL A   1      42.051  24.971  27.514  1.00  0.00     0.173 A 
ATOM     70  C   UNL A   1      43.469  26.791  26.858  1.00  0.00     0.173 A 
ATOM     71  F   UNL A   1      41.145  24.425  28.339  1.00  0.00    -0.203 F 
ATOM     72  C   UNL A   1      42.571  24.192  26.480  1.00  0.00     0.198 A 
ATOM     73  C   UNL A   1      43.964  26.024  25.804  1.00  0.00     0.198 A 
ATOM     74  F   UNL A   1      43.935  28.037  27.021  1.00  0.00    -0.203 F 
ATOM     75  F   UNL A   1      42.171  22.921  26.336  1.00  0.00    -0.200 F 
ATOM     76  C   UNL A   1      43.525  24.720  25.626  1.00  0.00     0.200 A 
ATOM     77  F   UNL A   1      44.874  26.543  24.970  1.00  0.00    -0.200 F 
ATOM     78  F   UNL A   1      44.034  23.969  24.639  1.00  0.00    -0.200 F 
ENDBRANCH  44  68
BRANCH  56  79
ATOM     79  C   UNL A   1      44.877  27.111  34.234  1.00  0.00     0.064 A 
ATOM     80  C   UNL A   1      46.126  27.744  34.298  1.00  0.00     0.173 A 
ATOM     81  C   UNL A   1      44.717  25.902  34.928  1.00  0.00     0.173 A 
ATOM     82  F   UNL A   1      46.334  28.895  33.641  1.00  0.00    -0.203 F 
ATOM     83  C   UNL A   1      47.180  27.175  35.008  1.00  0.00     0.198 A 
ATOM     84  C   UNL A   1      45.761  25.353  35.665  1.00  0.00     0.198 A 
ATOM     85  F   UNL A   1      43.538  25.259  34.906  1.00  0.00    -0.203 F 
ATOM     86  F   UNL A   1      48.380  27.773  35.014  1.00  0.00    -0.200 F 
ATOM     87  C   UNL A   1      46.995  25.986  35.698  1.00  0.00     0.200 A 
ATOM     88  F   UNL A   1      45.575  24.213  36.345  1.00  0.00    -0.200 F 
ATOM     89  F   UNL A   1      48.007  25.446  36.388  1.00  0.00    -0.200 F 
ENDBRANCH  56  79
ENDBRANCH  30  31
ENDBRANCH  22  25
ENDBRANCH  20  21
ENDBRANCH  19  20
ENDBRANCH   1  19
TORSDOF 14
ENDMDL
