MODEL 1
REMARK VINA RESULT:     -13.0      0.000      0.000
REMARK SMILES CC(C)CSc1cc2c(cc1Cl)C=C(C(=O)NCCCCNC(=O)c1ccc(-c3c4nc(c(-c5c(F)c(F)c(F)c(F)c5F)c5ccc([nH]5)c(-c5c(F)c(F)c(F)c(F)c5F)c5nc(c(-c6c(F)c(F)c(F)c(F)c6F)c6ccc3[nH]6)C=C5)C=C4)cc1)[C@@H](C(F)(F)F)O2
REMARK SMILES IDX 19 1 18 2 17 3 15 4 16 5 14 7 6 8 7 9 11 10 8 11 10 12 12 13
REMARK SMILES IDX 9 14 93 15 13 16 88 17 5 18 4 19 2 20 1 21 3 22 89 23 90 24
REMARK SMILES IDX 91 25 92 26 20 27 21 28 22 29 23 30 24 32 25 33 26 34 87 35
REMARK SMILES IDX 27 36 86 37 28 38 29 39 30 40 80 41 31 42 85 43 79 44 81 45
REMARK SMILES IDX 32 46 84 47 78 48 77 49 33 51 65 52 45 53 64 54 46 55 49 56
REMARK SMILES IDX 63 57 82 58 47 59 48 60 62 62 83 63 50 64 34 65 35 66 43 67
REMARK SMILES IDX 36 68 37 69 41 70 44 71 38 72 39 73 42 74 40 75 66 76 67 77
REMARK SMILES IDX 75 78 68 79 69 80 73 81 76 82 70 83 71 84 74 85 72 86 51 87
REMARK SMILES IDX 52 88 60 89 53 90 54 91 58 92 61 93 55 94 56 95 59 96 57 97
REMARK H PARENT 17 6 22 31 81 50 49 61
REMARK Flexibility Score: inf
ROOT
ATOM      1  C   UNL A   1      32.224  30.196  27.076  1.00  0.00     0.023 C 
ENDROOT
BRANCH   1   2
ATOM      2  C   UNL A   1      33.476  29.698  26.359  1.00  0.00     0.116 C 
BRANCH   2   3
ATOM      3  N   UNL A   1      33.329  29.723  24.914  1.00  0.00    -0.352 N 
ATOM      4  C   UNL A   1      33.015  28.840  23.935  1.00  0.00     0.251 C 
ATOM      5  O   UNL A   1      32.990  29.310  22.792  1.00  0.00    -0.270 OA
ATOM      6  H   UNL A   1      33.505  30.619  24.548  1.00  0.00     0.163 HD
BRANCH   4   7
ATOM      7  C   UNL A   1      32.720  27.390  24.141  1.00  0.00     0.067 C 
ATOM      8  C   UNL A   1      33.240  22.417  24.913  1.00  0.00     0.030 A 
ATOM      9  C   UNL A   1      32.185  23.327  25.009  1.00  0.00     0.063 A 
ATOM     10  C   UNL A   1      34.450  22.869  24.350  1.00  0.00     0.055 A 
ATOM     11  C   UNL A   1      32.367  24.672  24.690  1.00  0.00     0.129 A 
ATOM     12  C   UNL A   1      34.614  24.217  23.989  1.00  0.00     0.033 A 
ATOM     13  Cl  UNL A   1      35.811  21.827  24.105  1.00  0.00    -0.083 Cl
ATOM     14  C   UNL A   1      33.579  25.131  24.193  1.00  0.00     0.019 A 
ATOM     15  O   UNL A   1      31.314  25.485  24.976  1.00  0.00    -0.475 OA
ATOM     16  C   UNL A   1      33.765  26.557  23.969  1.00  0.00     0.025 C 
ATOM     17  C   UNL A   1      31.362  26.852  24.496  1.00  0.00     0.314 C 
BRANCH   8  18
ATOM     18  S   UNL A   1      33.046  20.746  25.537  1.00  0.00    -0.124 SA
BRANCH  18  19
ATOM     19  C   UNL A   1      32.634  19.751  24.046  1.00  0.00     0.078 C 
BRANCH  19  20
ATOM     20  C   UNL A   1      32.423  18.239  24.259  1.00  0.00    -0.007 C 
ATOM     21  C   UNL A   1      33.267  17.342  23.351  1.00  0.00     0.008 C 
ATOM     22  C   UNL A   1      32.754  17.895  25.719  1.00  0.00     0.008 C 
ENDBRANCH  19  20
ENDBRANCH  18  19
ENDBRANCH   8  18
BRANCH  17  23
ATOM     23  C   UNL A   1      30.347  26.981  23.347  1.00  0.00     0.429 C 
ATOM     24  F   UNL A   1      30.958  26.763  22.155  1.00  0.00    -0.167 F 
ATOM     25  F   UNL A   1      29.340  26.081  23.429  1.00  0.00    -0.167 F 
ATOM     26  F   UNL A   1      29.782  28.207  23.295  1.00  0.00    -0.167 F 
ENDBRANCH  17  23
ENDBRANCH   4   7
ENDBRANCH   2   3
ENDBRANCH   1   2
BRANCH   1  27
ATOM     27  C   UNL A   1      31.934  31.684  26.874  1.00  0.00     0.023 C 
BRANCH  27  28
ATOM     28  C   UNL A   1      32.972  32.640  27.459  1.00  0.00     0.116 C 
BRANCH  28  29
ATOM     29  N   UNL A   1      32.479  33.989  27.703  1.00  0.00    -0.352 N 
ATOM     30  C   UNL A   1      32.990  34.929  28.570  1.00  0.00     0.251 C 
ATOM     31  H   UNL A   1      31.686  34.261  27.186  1.00  0.00     0.163 HD
ATOM     32  O   UNL A   1      32.442  36.014  28.724  1.00  0.00    -0.269 OA
BRANCH  30  33
ATOM     33  C   UNL A   1      34.183  34.573  29.360  1.00  0.00     0.039 A 
ATOM     34  C   UNL A   1      35.457  34.741  28.816  1.00  0.00     0.014 A 
ATOM     35  C   UNL A   1      34.011  33.953  30.599  1.00  0.00     0.014 A 
ATOM     36  C   UNL A   1      36.543  34.131  29.428  1.00  0.00     0.010 A 
ATOM     37  C   UNL A   1      35.117  33.401  31.249  1.00  0.00     0.010 A 
ATOM     38  C   UNL A   1      36.379  33.433  30.636  1.00  0.00    -0.014 A 
BRANCH  38  39
ATOM     39  C   UNL A   1      37.533  32.704  31.218  1.00  0.00     0.031 A 
ATOM     40  C   UNL A   1      38.001  33.007  32.616  1.00  0.00     0.074 A 
ATOM     41  C   UNL A   1      38.113  31.718  30.510  1.00  0.00     0.049 A 
ATOM     42  N   UNL A   1      38.990  32.474  33.289  1.00  0.00    -0.248 NA
ATOM     43  C   UNL A   1      37.266  34.045  33.356  1.00  0.00     0.031 C 
ATOM     44  C   UNL A   1      37.723  31.315  29.158  1.00  0.00     0.029 A 
ATOM     45  N   UNL A   1      39.127  30.857  30.839  1.00  0.00    -0.354 N 
ATOM     46  C   UNL A   1      39.009  33.124  34.516  1.00  0.00     0.074 A 
ATOM     47  C   UNL A   1      37.945  34.103  34.494  1.00  0.00     0.031 C 
ATOM     48  C   UNL A   1      38.452  30.249  28.793  1.00  0.00     0.029 A 
ATOM     49  C   UNL A   1      39.398  29.934  29.860  1.00  0.00     0.049 A 
ATOM     50  H   UNL A   1      39.614  30.897  31.693  1.00  0.00     0.167 HD
ATOM     51  C   UNL A   1      39.835  32.914  35.568  1.00  0.00     0.037 A 
ATOM     52  C   UNL A   1      40.313  28.948  29.822  1.00  0.00     0.037 A 
ATOM     53  C   UNL A   1      40.874  31.917  35.601  1.00  0.00     0.049 A 
ATOM     54  C   UNL A   1      41.235  28.758  30.990  1.00  0.00     0.074 A 
ATOM     55  C   UNL A   1      41.759  31.625  36.625  1.00  0.00     0.029 A 
ATOM     56  N   UNL A   1      41.157  31.040  34.565  1.00  0.00    -0.354 N 
ATOM     57  N   UNL A   1      41.265  29.401  32.132  1.00  0.00    -0.248 NA
ATOM     58  C   UNL A   1      42.264  27.717  30.858  1.00  0.00     0.031 C 
ATOM     59  C   UNL A   1      42.597  30.590  36.197  1.00  0.00     0.029 A 
ATOM     60  C   UNL A   1      42.212  30.216  34.920  1.00  0.00     0.049 A 
ATOM     61  H   UNL A   1      40.681  31.010  33.703  1.00  0.00     0.167 HD
ATOM     62  C   UNL A   1      42.310  28.845  32.853  1.00  0.00     0.074 A 
ATOM     63  C   UNL A   1      42.876  27.796  32.031  1.00  0.00     0.031 C 
ATOM     64  C   UNL A   1      42.766  29.183  34.084  1.00  0.00     0.037 A 
BRANCH  51  65
ATOM     65  C   UNL A   1      39.665  33.784  36.778  1.00  0.00     0.064 A 
ATOM     66  C   UNL A   1      40.266  35.048  36.860  1.00  0.00     0.173 A 
ATOM     67  C   UNL A   1      38.837  33.378  37.834  1.00  0.00     0.173 A 
ATOM     68  F   UNL A   1      41.078  35.475  35.883  1.00  0.00    -0.203 F 
ATOM     69  C   UNL A   1      40.050  35.871  37.964  1.00  0.00     0.198 A 
ATOM     70  C   UNL A   1      38.607  34.210  38.925  1.00  0.00     0.198 A 
ATOM     71  F   UNL A   1      38.237  32.178  37.799  1.00  0.00    -0.203 F 
ATOM     72  F   UNL A   1      40.654  37.065  38.035  1.00  0.00    -0.200 F 
ATOM     73  C   UNL A   1      39.214  35.456  38.990  1.00  0.00     0.200 A 
ATOM     74  F   UNL A   1      37.793  33.811  39.912  1.00  0.00    -0.200 F 
ATOM     75  F   UNL A   1      38.997  36.254  40.044  1.00  0.00    -0.200 F 
ENDBRANCH  51  65
BRANCH  52  76
ATOM     76  C   UNL A   1      40.389  28.070  28.628  1.00  0.00     0.064 A 
ATOM     77  C   UNL A   1      41.147  28.444  27.512  1.00  0.00     0.173 A 
ATOM     78  C   UNL A   1      39.743  26.826  28.599  1.00  0.00     0.173 A 
ATOM     79  F   UNL A   1      41.765  29.634  27.489  1.00  0.00    -0.203 F 
ATOM     80  C   UNL A   1      41.256  27.603  26.406  1.00  0.00     0.198 A 
ATOM     81  C   UNL A   1      39.873  25.976  27.504  1.00  0.00     0.198 A 
ATOM     82  F   UNL A   1      39.010  26.425  29.648  1.00  0.00    -0.203 F 
ATOM     83  F   UNL A   1      41.969  27.992  25.340  1.00  0.00    -0.200 F 
ATOM     84  C   UNL A   1      40.627  26.367  26.407  1.00  0.00     0.200 A 
ATOM     85  F   UNL A   1      39.276  24.777  27.514  1.00  0.00    -0.200 F 
ATOM     86  F   UNL A   1      40.746  25.552  25.350  1.00  0.00    -0.200 F 
ENDBRANCH  52  76
BRANCH  64  87
ATOM     87  C   UNL A   1      43.934  28.410  34.615  1.00  0.00     0.064 A 
ATOM     88  C   UNL A   1      43.753  27.202  35.301  1.00  0.00     0.173 A 
ATOM     89  C   UNL A   1      45.245  28.856  34.393  1.00  0.00     0.173 A 
ATOM     90  F   UNL A   1      42.516  26.744  35.548  1.00  0.00    -0.203 F 
ATOM     91  C   UNL A   1      44.846  26.471  35.758  1.00  0.00     0.198 A 
ATOM     92  C   UNL A   1      46.335  28.113  34.834  1.00  0.00     0.198 A 
ATOM     93  F   UNL A   1      45.467  30.005  33.737  1.00  0.00    -0.203 F 
ATOM     94  F   UNL A   1      44.650  25.333  36.439  1.00  0.00    -0.200 F 
ATOM     95  C   UNL A   1      46.135  26.923  35.520  1.00  0.00     0.200 A 
ATOM     96  F   UNL A   1      47.581  28.546  34.596  1.00  0.00    -0.200 F 
ATOM     97  F   UNL A   1      47.186  26.215  35.956  1.00  0.00    -0.200 F 
ENDBRANCH  64  87
ENDBRANCH  38  39
ENDBRANCH  30  33
ENDBRANCH  28  29
ENDBRANCH  27  28
ENDBRANCH   1  27
TORSDOF 15
ENDMDL
MODEL 2
REMARK VINA RESULT:     -12.9      0.460      7.082
REMARK SMILES CC(C)CSc1cc2c(cc1Cl)C=C(C(=O)NCCCCNC(=O)c1ccc(-c3c4nc(c(-c5c(F)c(F)c(F)c(F)c5F)c5ccc([nH]5)c(-c5c(F)c(F)c(F)c(F)c5F)c5nc(c(-c6c(F)c(F)c(F)c(F)c6F)c6ccc3[nH]6)C=C5)C=C4)cc1)[C@@H](C(F)(F)F)O2
REMARK SMILES IDX 19 1 18 2 17 3 15 4 16 5 14 7 6 8 7 9 11 10 8 11 10 12 12 13
REMARK SMILES IDX 9 14 93 15 13 16 88 17 5 18 4 19 2 20 1 21 3 22 89 23 90 24
REMARK SMILES IDX 91 25 92 26 20 27 21 28 22 29 23 30 24 32 25 33 26 34 87 35
REMARK SMILES IDX 27 36 86 37 28 38 29 39 30 40 80 41 31 42 85 43 79 44 81 45
REMARK SMILES IDX 32 46 84 47 78 48 77 49 33 51 65 52 45 53 64 54 46 55 49 56
REMARK SMILES IDX 63 57 82 58 47 59 48 60 62 62 83 63 50 64 34 65 35 66 43 67
REMARK SMILES IDX 36 68 37 69 41 70 44 71 38 72 39 73 42 74 40 75 66 76 67 77
REMARK SMILES IDX 75 78 68 79 69 80 73 81 76 82 70 83 71 84 74 85 72 86 51 87
REMARK SMILES IDX 52 88 60 89 53 90 54 91 58 92 61 93 55 94 56 95 59 96 57 97
REMARK H PARENT 17 6 22 31 81 50 49 61
REMARK Flexibility Score: inf
ROOT
ATOM      1  C   UNL A   1      32.189  30.238  27.028  1.00  0.00     0.023 C 
ENDROOT
BRANCH   1   2
ATOM      2  C   UNL A   1      33.496  29.801  26.373  1.00  0.00     0.116 C 
BRANCH   2   3
ATOM      3  N   UNL A   1      33.379  29.696  24.928  1.00  0.00    -0.352 N 
ATOM      4  C   UNL A   1      33.117  28.722  24.024  1.00  0.00     0.251 C 
ATOM      5  O   UNL A   1      33.100  29.090  22.845  1.00  0.00    -0.270 OA
ATOM      6  H   UNL A   1      33.531  30.564  24.489  1.00  0.00     0.163 HD
BRANCH   4   7
ATOM      7  C   UNL A   1      32.869  27.285  24.350  1.00  0.00     0.067 C 
ATOM      8  C   UNL A   1      33.543  22.364  25.313  1.00  0.00     0.030 A 
ATOM      9  C   UNL A   1      32.503  23.276  25.509  1.00  0.00     0.063 A 
ATOM     10  C   UNL A   1      34.655  22.786  24.558  1.00  0.00     0.055 A 
ATOM     11  C   UNL A   1      32.625  24.601  25.093  1.00  0.00     0.129 A 
ATOM     12  C   UNL A   1      34.752  24.112  24.104  1.00  0.00     0.033 A 
ATOM     13  Cl  UNL A   1      35.978  21.734  24.180  1.00  0.00    -0.083 Cl
ATOM     14  C   UNL A   1      33.749  25.034  24.404  1.00  0.00     0.019 A 
ATOM     15  O   UNL A   1      31.615  25.427  25.481  1.00  0.00    -0.475 OA
ATOM     16  C   UNL A   1      33.886  26.446  24.077  1.00  0.00     0.025 C 
ATOM     17  C   UNL A   1      31.580  26.765  24.925  1.00  0.00     0.314 C 
BRANCH   8  18
ATOM     18  S   UNL A   1      33.456  20.730  26.049  1.00  0.00    -0.124 SA
BRANCH  18  19
ATOM     19  C   UNL A   1      32.981  19.629  24.654  1.00  0.00     0.078 C 
BRANCH  19  20
ATOM     20  C   UNL A   1      33.488  18.174  24.717  1.00  0.00    -0.007 C 
ATOM     21  C   UNL A   1      32.639  17.239  25.579  1.00  0.00     0.008 C 
ATOM     22  C   UNL A   1      33.536  17.607  23.291  1.00  0.00     0.008 C 
ENDBRANCH  19  20
ENDBRANCH  18  19
ENDBRANCH   8  18
BRANCH  17  23
ATOM     23  C   UNL A   1      30.411  26.827  23.927  1.00  0.00     0.429 C 
ATOM     24  F   UNL A   1      30.819  26.418  22.700  1.00  0.00    -0.167 F 
ATOM     25  F   UNL A   1      29.379  26.024  24.274  1.00  0.00    -0.167 F 
ATOM     26  F   UNL A   1      29.915  28.078  23.794  1.00  0.00    -0.167 F 
ENDBRANCH  17  23
ENDBRANCH   4   7
ENDBRANCH   2   3
ENDBRANCH   1   2
BRANCH   1  27
ATOM     27  C   UNL A   1      31.895  31.734  26.908  1.00  0.00     0.023 C 
BRANCH  27  28
ATOM     28  C   UNL A   1      32.924  32.660  27.553  1.00  0.00     0.116 C 
BRANCH  28  29
ATOM     29  N   UNL A   1      32.466  34.030  27.742  1.00  0.00    -0.352 N 
ATOM     30  C   UNL A   1      32.989  34.983  28.588  1.00  0.00     0.251 C 
ATOM     31  H   UNL A   1      31.692  34.307  27.201  1.00  0.00     0.163 HD
ATOM     32  O   UNL A   1      32.471  36.088  28.695  1.00  0.00    -0.269 OA
BRANCH  30  33
ATOM     33  C   UNL A   1      34.157  34.619  29.412  1.00  0.00     0.039 A 
ATOM     34  C   UNL A   1      35.432  34.592  28.845  1.00  0.00     0.014 A 
ATOM     35  C   UNL A   1      33.948  34.185  30.723  1.00  0.00     0.014 A 
ATOM     36  C   UNL A   1      36.465  33.964  29.526  1.00  0.00     0.010 A 
ATOM     37  C   UNL A   1      35.007  33.618  31.434  1.00  0.00     0.010 A 
ATOM     38  C   UNL A   1      36.256  33.448  30.817  1.00  0.00    -0.014 A 
BRANCH  38  39
ATOM     39  C   UNL A   1      37.345  32.693  31.483  1.00  0.00     0.031 A 
ATOM     40  C   UNL A   1      38.069  31.593  30.755  1.00  0.00     0.074 A 
ATOM     41  C   UNL A   1      37.731  33.050  32.722  1.00  0.00     0.049 A 
ATOM     42  N   UNL A   1      39.044  30.827  31.174  1.00  0.00    -0.248 NA
ATOM     43  C   UNL A   1      37.643  31.314  29.374  1.00  0.00     0.031 C 
ATOM     44  C   UNL A   1      37.125  34.122  33.513  1.00  0.00     0.029 A 
ATOM     45  N   UNL A   1      38.740  32.575  33.517  1.00  0.00    -0.354 N 
ATOM     46  C   UNL A   1      39.330  29.965  30.124  1.00  0.00     0.074 A 
ATOM     47  C   UNL A   1      38.417  30.288  29.050  1.00  0.00     0.031 C 
ATOM     48  C   UNL A   1      37.809  34.260  34.659  1.00  0.00     0.029 A 
ATOM     49  C   UNL A   1      38.862  33.249  34.707  1.00  0.00     0.049 A 
ATOM     50  H   UNL A   1      39.322  31.823  33.261  1.00  0.00     0.167 HD
ATOM     51  C   UNL A   1      40.276  28.998  30.061  1.00  0.00     0.037 A 
ATOM     52  C   UNL A   1      39.719  33.067  35.727  1.00  0.00     0.037 A 
ATOM     53  C   UNL A   1      41.205  28.698  31.120  1.00  0.00     0.049 A 
ATOM     54  C   UNL A   1      40.737  31.969  35.643  1.00  0.00     0.074 A 
ATOM     55  C   UNL A   1      42.204  27.740  31.147  1.00  0.00     0.029 A 
ATOM     56  N   UNL A   1      41.256  29.364  32.335  1.00  0.00    -0.354 N 
ATOM     57  N   UNL A   1      40.976  31.139  34.657  1.00  0.00    -0.248 NA
ATOM     58  C   UNL A   1      41.594  31.769  36.820  1.00  0.00     0.031 C 
ATOM     59  C   UNL A   1      42.841  27.806  32.391  1.00  0.00     0.029 A 
ATOM     60  C   UNL A   1      42.261  28.829  33.124  1.00  0.00     0.049 A 
ATOM     61  H   UNL A   1      40.665  30.106  32.599  1.00  0.00     0.167 HD
ATOM     62  C   UNL A   1      42.007  30.319  35.092  1.00  0.00     0.074 A 
ATOM     63  C   UNL A   1      42.366  30.767  36.422  1.00  0.00     0.031 C 
ATOM     64  C   UNL A   1      42.597  29.283  34.448  1.00  0.00     0.037 A 
BRANCH  51  65
ATOM     65  C   UNL A   1      40.356  28.176  28.810  1.00  0.00     0.064 A 
ATOM     66  C   UNL A   1      41.143  28.575  27.720  1.00  0.00     0.173 A 
ATOM     67  C   UNL A   1      39.693  26.942  28.726  1.00  0.00     0.173 A 
ATOM     68  F   UNL A   1      41.784  29.753  27.746  1.00  0.00    -0.203 F 
ATOM     69  C   UNL A   1      41.256  27.772  26.588  1.00  0.00     0.198 A 
ATOM     70  C   UNL A   1      39.825  26.132  27.602  1.00  0.00     0.198 A 
ATOM     71  F   UNL A   1      38.932  26.515  29.745  1.00  0.00    -0.203 F 
ATOM     72  F   UNL A   1      41.993  28.184  25.547  1.00  0.00    -0.200 F 
ATOM     73  C   UNL A   1      40.605  26.548  26.533  1.00  0.00     0.200 A 
ATOM     74  F   UNL A   1      39.202  24.947  27.554  1.00  0.00    -0.200 F 
ATOM     75  F   UNL A   1      40.726  25.771  25.448  1.00  0.00    -0.200 F 
ENDBRANCH  51  65
BRANCH  52  76
ATOM     76  C   UNL A   1      39.642  33.957  36.912  1.00  0.00     0.064 A 
ATOM     77  C   UNL A   1      40.308  35.189  36.927  1.00  0.00     0.173 A 
ATOM     78  C   UNL A   1      38.869  33.612  38.031  1.00  0.00     0.173 A 
ATOM     79  F   UNL A   1      41.073  35.550  35.887  1.00  0.00    -0.203 F 
ATOM     80  C   UNL A   1      40.203  36.046  38.020  1.00  0.00     0.198 A 
ATOM     81  C   UNL A   1      38.746  34.480  39.112  1.00  0.00     0.198 A 
ATOM     82  F   UNL A   1      38.211  32.444  38.058  1.00  0.00    -0.203 F 
ATOM     83  F   UNL A   1      40.866  37.210  38.021  1.00  0.00    -0.200 F 
ATOM     84  C   UNL A   1      39.415  35.695  39.107  1.00  0.00     0.200 A 
ATOM     85  F   UNL A   1      37.973  34.145  40.153  1.00  0.00    -0.200 F 
ATOM     86  F   UNL A   1      39.302  36.528  40.151  1.00  0.00    -0.200 F 
ENDBRANCH  52  76
BRANCH  64  87
ATOM     87  C   UNL A   1      43.689  28.561  35.175  1.00  0.00     0.064 A 
ATOM     88  C   UNL A   1      43.406  27.487  36.029  1.00  0.00     0.173 A 
ATOM     89  C   UNL A   1      45.032  28.912  34.976  1.00  0.00     0.173 A 
ATOM     90  F   UNL A   1      42.134  27.125  36.260  1.00  0.00    -0.203 F 
ATOM     91  C   UNL A   1      44.430  26.797  36.672  1.00  0.00     0.198 A 
ATOM     92  C   UNL A   1      46.055  28.207  35.604  1.00  0.00     0.198 A 
ATOM     93  F   UNL A   1      45.352  29.930  34.163  1.00  0.00    -0.203 F 
ATOM     94  F   UNL A   1      44.136  25.793  37.509  1.00  0.00    -0.200 F 
ATOM     95  C   UNL A   1      45.752  27.153  36.454  1.00  0.00     0.200 A 
ATOM     96  F   UNL A   1      47.333  28.547  35.387  1.00  0.00    -0.200 F 
ATOM     97  F   UNL A   1      46.737  26.483  37.068  1.00  0.00    -0.200 F 
ENDBRANCH  64  87
ENDBRANCH  38  39
ENDBRANCH  30  33
ENDBRANCH  28  29
ENDBRANCH  27  28
ENDBRANCH   1  27
TORSDOF 15
ENDMDL
MODEL 3
REMARK VINA RESULT:     -12.8      0.621      7.346
REMARK SMILES CC(C)CSc1cc2c(cc1Cl)C=C(C(=O)NCCCCNC(=O)c1ccc(-c3c4nc(c(-c5c(F)c(F)c(F)c(F)c5F)c5ccc([nH]5)c(-c5c(F)c(F)c(F)c(F)c5F)c5nc(c(-c6c(F)c(F)c(F)c(F)c6F)c6ccc3[nH]6)C=C5)C=C4)cc1)[C@@H](C(F)(F)F)O2
REMARK SMILES IDX 19 1 18 2 17 3 15 4 16 5 14 7 6 8 7 9 11 10 8 11 10 12 12 13
REMARK SMILES IDX 9 14 93 15 13 16 88 17 5 18 4 19 2 20 1 21 3 22 89 23 90 24
REMARK SMILES IDX 91 25 92 26 20 27 21 28 22 29 23 30 24 32 25 33 26 34 87 35
REMARK SMILES IDX 27 36 86 37 28 38 29 39 30 40 80 41 31 42 85 43 79 44 81 45
REMARK SMILES IDX 32 46 84 47 78 48 77 49 33 51 65 52 45 53 64 54 46 55 49 56
REMARK SMILES IDX 63 57 82 58 47 59 48 60 62 62 83 63 50 64 34 65 35 66 43 67
REMARK SMILES IDX 36 68 37 69 41 70 44 71 38 72 39 73 42 74 40 75 66 76 67 77
REMARK SMILES IDX 75 78 68 79 69 80 73 81 76 82 70 83 71 84 74 85 72 86 51 87
REMARK SMILES IDX 52 88 60 89 53 90 54 91 58 92 61 93 55 94 56 95 59 96 57 97
REMARK H PARENT 17 6 22 31 81 50 49 61
REMARK Flexibility Score: inf
ROOT
ATOM      1  C   UNL A   1      32.288  30.061  26.869  1.00  0.00     0.023 C 
ENDROOT
BRANCH   1   2
ATOM      2  C   UNL A   1      33.548  29.669  26.102  1.00  0.00     0.116 C 
BRANCH   2   3
ATOM      3  N   UNL A   1      33.319  29.595  24.669  1.00  0.00    -0.352 N 
ATOM      4  C   UNL A   1      32.997  28.639  23.766  1.00  0.00     0.251 C 
ATOM      5  O   UNL A   1      32.884  29.033  22.601  1.00  0.00    -0.270 OA
ATOM      6  H   UNL A   1      33.427  30.475  24.240  1.00  0.00     0.163 HD
BRANCH   4   7
ATOM      7  C   UNL A   1      32.791  27.192  24.076  1.00  0.00     0.067 C 
ATOM      8  C   UNL A   1      33.612  22.317  25.151  1.00  0.00     0.030 A 
ATOM      9  C   UNL A   1      32.511  23.174  25.225  1.00  0.00     0.063 A 
ATOM     10  C   UNL A   1      34.776  22.794  24.517  1.00  0.00     0.055 A 
ATOM     11  C   UNL A   1      32.607  24.501  24.812  1.00  0.00     0.129 A 
ATOM     12  C   UNL A   1      34.852  24.122  24.063  1.00  0.00     0.033 A 
ATOM     13  Cl  UNL A   1      36.185  21.813  24.293  1.00  0.00    -0.083 Cl
ATOM     14  C   UNL A   1      33.776  24.991  24.245  1.00  0.00     0.019 A 
ATOM     15  O   UNL A   1      31.520  25.274  25.082  1.00  0.00    -0.475 OA
ATOM     16  C   UNL A   1      33.874  26.407  23.922  1.00  0.00     0.025 C 
ATOM     17  C   UNL A   1      31.476  26.606  24.513  1.00  0.00     0.314 C 
BRANCH   8  18
ATOM     18  S   UNL A   1      33.531  20.683  25.888  1.00  0.00    -0.124 SA
BRANCH  18  19
ATOM     19  C   UNL A   1      32.541  19.695  24.694  1.00  0.00     0.078 C 
BRANCH  19  20
ATOM     20  C   UNL A   1      33.036  18.264  24.401  1.00  0.00    -0.007 C 
ATOM     21  C   UNL A   1      34.557  18.109  24.368  1.00  0.00     0.008 C 
ATOM     22  C   UNL A   1      32.477  17.319  25.475  1.00  0.00     0.008 C 
ENDBRANCH  19  20
ENDBRANCH  18  19
ENDBRANCH   8  18
BRANCH  17  23
ATOM     23  C   UNL A   1      30.420  26.604  23.395  1.00  0.00     0.429 C 
ATOM     24  F   UNL A   1      29.800  27.809  23.332  1.00  0.00    -0.167 F 
ATOM     25  F   UNL A   1      30.949  26.383  22.170  1.00  0.00    -0.167 F 
ATOM     26  F   UNL A   1      29.466  25.666  23.591  1.00  0.00    -0.167 F 
ENDBRANCH  17  23
ENDBRANCH   4   7
ENDBRANCH   2   3
ENDBRANCH   1   2
BRANCH   1  27
ATOM     27  C   UNL A   1      31.953  31.553  26.808  1.00  0.00     0.023 C 
BRANCH  27  28
ATOM     28  C   UNL A   1      32.915  32.472  27.557  1.00  0.00     0.116 C 
BRANCH  28  29
ATOM     29  N   UNL A   1      32.458  33.851  27.678  1.00  0.00    -0.352 N 
ATOM     30  C   UNL A   1      32.965  34.837  28.495  1.00  0.00     0.251 C 
ATOM     31  H   UNL A   1      31.698  34.108  27.108  1.00  0.00     0.163 HD
ATOM     32  O   UNL A   1      32.449  35.947  28.545  1.00  0.00    -0.269 OA
BRANCH  30  33
ATOM     33  C   UNL A   1      34.111  34.504  29.363  1.00  0.00     0.039 A 
ATOM     34  C   UNL A   1      35.408  34.539  28.849  1.00  0.00     0.014 A 
ATOM     35  C   UNL A   1      33.866  34.036  30.655  1.00  0.00     0.014 A 
ATOM     36  C   UNL A   1      36.438  33.940  29.562  1.00  0.00     0.010 A 
ATOM     37  C   UNL A   1      34.917  33.499  31.400  1.00  0.00     0.010 A 
ATOM     38  C   UNL A   1      36.196  33.391  30.833  1.00  0.00    -0.014 A 
BRANCH  38  39
ATOM     39  C   UNL A   1      37.287  32.668  31.532  1.00  0.00     0.031 A 
ATOM     40  C   UNL A   1      38.047  31.573  30.833  1.00  0.00     0.074 A 
ATOM     41  C   UNL A   1      37.640  33.050  32.773  1.00  0.00     0.049 A 
ATOM     42  N   UNL A   1      39.029  30.833  31.283  1.00  0.00    -0.248 NA
ATOM     43  C   UNL A   1      37.655  31.267  29.448  1.00  0.00     0.031 C 
ATOM     44  C   UNL A   1      36.996  34.119  33.537  1.00  0.00     0.029 A 
ATOM     45  N   UNL A   1      38.643  32.606  33.595  1.00  0.00    -0.354 N 
ATOM     46  C   UNL A   1      39.354  29.963  30.251  1.00  0.00     0.074 A 
ATOM     47  C   UNL A   1      38.456  30.252  29.154  1.00  0.00     0.031 C 
ATOM     48  C   UNL A   1      37.654  34.286  34.694  1.00  0.00     0.029 A 
ATOM     49  C   UNL A   1      38.726  33.298  34.777  1.00  0.00     0.049 A 
ATOM     50  H   UNL A   1      39.245  31.863  33.361  1.00  0.00     0.167 HD
ATOM     51  C   UNL A   1      40.320  29.015  30.220  1.00  0.00     0.037 A 
ATOM     52  C   UNL A   1      39.566  33.148  35.817  1.00  0.00     0.037 A 
ATOM     53  C   UNL A   1      41.233  28.748  31.301  1.00  0.00     0.049 A 
ATOM     54  C   UNL A   1      40.608  32.069  35.768  1.00  0.00     0.074 A 
ATOM     55  C   UNL A   1      42.251  27.811  31.362  1.00  0.00     0.029 A 
ATOM     56  N   UNL A   1      41.246  29.431  32.508  1.00  0.00    -0.354 N 
ATOM     57  N   UNL A   1      40.884  31.231  34.799  1.00  0.00    -0.248 NA
ATOM     58  C   UNL A   1      41.444  31.903  36.965  1.00  0.00     0.031 C 
ATOM     59  C   UNL A   1      42.861  27.908  32.617  1.00  0.00     0.029 A 
ATOM     60  C   UNL A   1      42.245  28.927  33.324  1.00  0.00     0.049 A 
ATOM     61  H   UNL A   1      40.635  30.164  32.750  1.00  0.00     0.167 HD
ATOM     62  C   UNL A   1      41.922  30.439  35.265  1.00  0.00     0.074 A 
ATOM     63  C   UNL A   1      42.245  30.912  36.596  1.00  0.00     0.031 C 
ATOM     64  C   UNL A   1      42.545  29.406  34.648  1.00  0.00     0.037 A 
BRANCH  51  65
ATOM     65  C   UNL A   1      40.442  28.178  28.982  1.00  0.00     0.064 A 
ATOM     66  C   UNL A   1      39.724  26.983  28.832  1.00  0.00     0.173 A 
ATOM     67  C   UNL A   1      41.233  28.611  27.907  1.00  0.00     0.173 A 
ATOM     68  F   UNL A   1      38.967  26.519  29.837  1.00  0.00    -0.203 F 
ATOM     69  C   UNL A   1      39.801  26.247  27.651  1.00  0.00     0.198 A 
ATOM     70  C   UNL A   1      41.291  27.884  26.721  1.00  0.00     0.198 A 
ATOM     71  F   UNL A   1      41.935  29.750  28.002  1.00  0.00    -0.203 F 
ATOM     72  F   UNL A   1      39.126  25.094  27.538  1.00  0.00    -0.200 F 
ATOM     73  C   UNL A   1      40.576  26.702  26.594  1.00  0.00     0.200 A 
ATOM     74  F   UNL A   1      42.033  28.330  25.699  1.00  0.00    -0.200 F 
ATOM     75  F   UNL A   1      40.637  26.000  25.455  1.00  0.00    -0.200 F 
ENDBRANCH  51  65
BRANCH  52  76
ATOM     76  C   UNL A   1      39.447  34.051  36.988  1.00  0.00     0.064 A 
ATOM     77  C   UNL A   1      38.712  33.667  38.116  1.00  0.00     0.173 A 
ATOM     78  C   UNL A   1      40.097  35.294  37.016  1.00  0.00     0.173 A 
ATOM     79  F   UNL A   1      38.058  32.497  38.124  1.00  0.00    -0.203 F 
ATOM     80  C   UNL A   1      38.633  34.495  39.234  1.00  0.00     0.198 A 
ATOM     81  C   UNL A   1      40.037  36.108  38.143  1.00  0.00     0.198 A 
ATOM     82  F   UNL A   1      40.815  35.700  35.959  1.00  0.00    -0.203 F 
ATOM     83  F   UNL A   1      37.907  34.116  40.294  1.00  0.00    -0.200 F 
ATOM     84  C   UNL A   1      39.303  35.709  39.250  1.00  0.00     0.200 A 
ATOM     85  F   UNL A   1      40.697  37.274  38.161  1.00  0.00    -0.200 F 
ATOM     86  F   UNL A   1      39.239  36.497  40.332  1.00  0.00    -0.200 F 
ENDBRANCH  52  76
BRANCH  64  87
ATOM     87  C   UNL A   1      43.637  28.717  35.406  1.00  0.00     0.064 A 
ATOM     88  C   UNL A   1      44.975  29.113  35.273  1.00  0.00     0.173 A 
ATOM     89  C   UNL A   1      43.339  27.687  36.310  1.00  0.00     0.173 A 
ATOM     90  F   UNL A   1      45.308  30.085  34.409  1.00  0.00    -0.203 F 
ATOM     91  C   UNL A   1      45.980  28.492  36.009  1.00  0.00     0.198 A 
ATOM     92  C   UNL A   1      44.344  27.082  37.060  1.00  0.00     0.198 A 
ATOM     93  F   UNL A   1      42.072  27.278  36.475  1.00  0.00    -0.203 F 
ATOM     94  F   UNL A   1      47.256  28.865  35.843  1.00  0.00    -0.200 F 
ATOM     95  C   UNL A   1      45.663  27.482  36.905  1.00  0.00     0.200 A 
ATOM     96  F   UNL A   1      44.036  26.112  37.931  1.00  0.00    -0.200 F 
ATOM     97  F   UNL A   1      46.632  26.890  37.618  1.00  0.00    -0.200 F 
ENDBRANCH  64  87
ENDBRANCH  38  39
ENDBRANCH  30  33
ENDBRANCH  28  29
ENDBRANCH  27  28
ENDBRANCH   1  27
TORSDOF 15
ENDMDL
