MODEL 1
REMARK VINA RESULT:     -12.9      0.000      0.000
REMARK SMILES O=C(NCCCCNC(=O)[C@@H]1C[C@@H]2CC[C@H]1N2C(=O)c1ccncc1Cl)c1ccc(-c2c3nc(c(-c4c(F)c(F)c(F)c(F)c4F)c4ccc([nH]4)c(-c4c(F)c(F)c(F)c(F)c4F)c4nc(c(-c5c(F)c(F)c(F)c(F)c5F)c5ccc2[nH]5)C=C4)C=C3)cc1
REMARK SMILES IDX 5 1 4 2 3 3 1 4 2 5 27 7 28 8 89 9 29 10 88 11 30 12 31 13
REMARK SMILES IDX 32 14 82 15 33 16 87 17 81 18 83 19 34 20 86 21 80 22 79 23
REMARK SMILES IDX 35 25 67 26 47 27 66 28 48 29 51 30 65 31 84 32 49 33 50 34
REMARK SMILES IDX 64 36 85 37 52 38 36 39 37 40 45 41 38 42 39 43 43 44 46 45
REMARK SMILES IDX 40 46 41 47 44 48 42 49 68 50 69 51 77 52 70 53 71 54 75 55
REMARK SMILES IDX 78 56 72 57 73 58 76 59 74 60 53 61 54 62 62 63 55 64 56 65
REMARK SMILES IDX 60 66 63 67 57 68 58 69 61 70 59 71 6 72 7 73 8 74 9 75
REMARK SMILES IDX 10 77 11 78 12 79 16 80 13 81 15 82 17 83 14 84 18 85 19 86
REMARK SMILES IDX 20 87 21 88 25 89 22 90 24 91 26 92 23 93
REMARK H PARENT 3 6 83 24 51 35 8 76
REMARK Flexibility Score: inf
ROOT
ATOM      1  C   UNL A   1      31.403  32.726  26.501  1.00  0.00     0.023 C 
ENDROOT
BRANCH   1   2
ATOM      2  C   UNL A   1      32.541  33.169  27.414  1.00  0.00     0.116 C 
BRANCH   2   3
ATOM      3  N   UNL A   1      32.418  34.553  27.845  1.00  0.00    -0.352 N 
ATOM      4  O   UNL A   1      32.742  36.369  29.141  1.00  0.00    -0.269 OA
ATOM      5  C   UNL A   1      33.098  35.242  28.824  1.00  0.00     0.251 C 
ATOM      6  H   UNL A   1      31.742  35.080  27.360  1.00  0.00     0.163 HD
BRANCH   5   7
ATOM      7  C   UNL A   1      34.241  34.608  29.515  1.00  0.00     0.039 A 
ATOM      8  C   UNL A   1      35.522  34.647  28.960  1.00  0.00     0.014 A 
ATOM      9  C   UNL A   1      34.028  33.976  30.744  1.00  0.00     0.014 A 
ATOM     10  C   UNL A   1      36.549  33.915  29.544  1.00  0.00     0.010 A 
ATOM     11  C   UNL A   1      35.087  33.321  31.379  1.00  0.00     0.010 A 
ATOM     12  C   UNL A   1      36.347  33.254  30.765  1.00  0.00    -0.014 A 
BRANCH  12  13
ATOM     13  C   UNL A   1      37.483  32.553  31.414  1.00  0.00     0.031 A 
ATOM     14  C   UNL A   1      38.182  31.412  30.734  1.00  0.00     0.074 A 
ATOM     15  C   UNL A   1      37.882  32.963  32.633  1.00  0.00     0.049 A 
ATOM     16  N   UNL A   1      39.171  30.671  31.171  1.00  0.00    -0.248 NA
ATOM     17  C   UNL A   1      37.705  31.043  29.394  1.00  0.00     0.031 C 
ATOM     18  C   UNL A   1      37.265  34.051  33.395  1.00  0.00     0.029 A 
ATOM     19  N   UNL A   1      38.892  32.518  33.445  1.00  0.00    -0.354 N 
ATOM     20  C   UNL A   1      39.419  29.738  30.174  1.00  0.00     0.074 A 
ATOM     21  C   UNL A   1      38.461  29.989  29.117  1.00  0.00     0.031 C 
ATOM     22  C   UNL A   1      37.923  34.203  34.551  1.00  0.00     0.029 A 
ATOM     23  C   UNL A   1      38.963  33.186  34.642  1.00  0.00     0.049 A 
ATOM     24  H   UNL A   1      39.507  31.791  33.194  1.00  0.00     0.167 HD
ATOM     25  C   UNL A   1      40.362  28.765  30.146  1.00  0.00     0.037 A 
ATOM     26  C   UNL A   1      39.753  32.981  35.712  1.00  0.00     0.037 A 
ATOM     27  C   UNL A   1      41.320  28.535  31.198  1.00  0.00     0.049 A 
ATOM     28  C   UNL A   1      40.777  31.887  35.663  1.00  0.00     0.074 A 
ATOM     29  C   UNL A   1      42.353  27.615  31.239  1.00  0.00     0.029 A 
ATOM     30  N   UNL A   1      41.354  29.226  32.401  1.00  0.00    -0.354 N 
ATOM     31  N   UNL A   1      41.033  31.040  34.696  1.00  0.00    -0.248 NA
ATOM     32  C   UNL A   1      41.621  31.716  36.852  1.00  0.00     0.031 C 
ATOM     33  C   UNL A   1      42.977  27.712  32.488  1.00  0.00     0.029 A 
ATOM     34  C   UNL A   1      42.369  28.731  33.205  1.00  0.00     0.049 A 
ATOM     35  H   UNL A   1      40.747  29.961  32.648  1.00  0.00     0.167 HD
ATOM     36  C   UNL A   1      42.073  30.244  35.151  1.00  0.00     0.074 A 
ATOM     37  C   UNL A   1      42.412  30.721  36.477  1.00  0.00     0.031 C 
ATOM     38  C   UNL A   1      42.689  29.211  34.527  1.00  0.00     0.037 A 
BRANCH  25  39
ATOM     39  C   UNL A   1      40.388  27.853  28.951  1.00  0.00     0.064 A 
ATOM     40  C   UNL A   1      41.161  28.140  27.816  1.00  0.00     0.173 A 
ATOM     41  C   UNL A   1      39.652  26.659  28.956  1.00  0.00     0.173 A 
ATOM     42  F   UNL A   1      41.877  29.273  27.754  1.00  0.00    -0.203 F 
ATOM     43  C   UNL A   1      41.170  27.281  26.718  1.00  0.00     0.198 A 
ATOM     44  C   UNL A   1      39.686  25.788  27.870  1.00  0.00     0.198 A 
ATOM     45  F   UNL A   1      38.902  26.331  30.019  1.00  0.00    -0.203 F 
ATOM     46  F   UNL A   1      41.875  27.601  25.624  1.00  0.00    -0.200 F 
ATOM     47  C   UNL A   1      40.437  26.104  26.748  1.00  0.00     0.200 A 
ATOM     48  F   UNL A   1      38.987  24.645  27.906  1.00  0.00    -0.200 F 
ATOM     49  F   UNL A   1      40.448  25.279  25.692  1.00  0.00    -0.200 F 
ENDBRANCH  25  39
BRANCH  26  50
ATOM     50  C   UNL A   1      39.573  33.832  36.915  1.00  0.00     0.064 A 
ATOM     51  C   UNL A   1      40.152  35.105  36.995  1.00  0.00     0.173 A 
ATOM     52  C   UNL A   1      38.768  33.410  37.984  1.00  0.00     0.173 A 
ATOM     53  F   UNL A   1      40.941  35.546  36.005  1.00  0.00    -0.203 F 
ATOM     54  C   UNL A   1      39.935  35.922  38.102  1.00  0.00     0.198 A 
ATOM     55  C   UNL A   1      38.528  34.238  39.075  1.00  0.00     0.198 A 
ATOM     56  F   UNL A   1      38.184  32.203  37.947  1.00  0.00    -0.203 F 
ATOM     57  F   UNL A   1      40.518  37.126  38.168  1.00  0.00    -0.200 F 
ATOM     58  C   UNL A   1      39.114  35.493  39.136  1.00  0.00     0.200 A 
ATOM     59  F   UNL A   1      37.717  33.828  40.060  1.00  0.00    -0.200 F 
ATOM     60  F   UNL A   1      38.888  36.289  40.190  1.00  0.00    -0.200 F 
ENDBRANCH  26  50
BRANCH  38  61
ATOM     61  C   UNL A   1      43.806  28.535  35.264  1.00  0.00     0.064 A 
ATOM     62  C   UNL A   1      43.573  27.428  36.094  1.00  0.00     0.173 A 
ATOM     63  C   UNL A   1      45.130  28.971  35.104  1.00  0.00     0.173 A 
ATOM     64  F   UNL A   1      42.323  26.985  36.294  1.00  0.00    -0.203 F 
ATOM     65  C   UNL A   1      44.625  26.795  36.752  1.00  0.00     0.198 A 
ATOM     66  C   UNL A   1      46.181  28.318  35.740  1.00  0.00     0.198 A 
ATOM     67  F   UNL A   1      45.404  30.023  34.317  1.00  0.00    -0.203 F 
ATOM     68  F   UNL A   1      44.376  25.765  37.572  1.00  0.00    -0.200 F 
ATOM     69  C   UNL A   1      45.927  27.234  36.567  1.00  0.00     0.200 A 
ATOM     70  F   UNL A   1      47.440  28.737  35.553  1.00  0.00    -0.200 F 
ATOM     71  F   UNL A   1      46.939  26.616  37.192  1.00  0.00    -0.200 F 
ENDBRANCH  38  61
ENDBRANCH  12  13
ENDBRANCH   5   7
ENDBRANCH   2   3
ENDBRANCH   1   2
BRANCH   1  72
ATOM     72  C   UNL A   1      31.400  31.245  26.125  1.00  0.00     0.023 C 
BRANCH  72  73
ATOM     73  C   UNL A   1      32.634  30.454  26.540  1.00  0.00     0.116 C 
BRANCH  73  74
ATOM     74  N   UNL A   1      32.383  29.441  27.544  1.00  0.00    -0.356 N 
ATOM     75  C   UNL A   1      31.820  28.205  27.377  1.00  0.00     0.225 C 
ATOM     76  H   UNL A   1      32.651  29.670  28.463  1.00  0.00     0.163 HD
ATOM     77  O   UNL A   1      31.778  27.453  28.348  1.00  0.00    -0.275 OA
BRANCH  75  78
ATOM     78  C   UNL A   1      31.228  27.839  26.026  1.00  0.00     0.103 C 
ATOM     79  C   UNL A   1      30.677  26.382  25.925  1.00  0.00     0.040 C 
ATOM     80  C   UNL A   1      32.226  27.873  24.852  1.00  0.00     0.098 C 
ATOM     81  C   UNL A   1      31.382  25.835  24.664  1.00  0.00     0.086 C 
ATOM     82  C   UNL A   1      33.439  26.974  25.154  1.00  0.00     0.028 C 
ATOM     83  N   UNL A   1      31.522  27.048  23.892  1.00  0.00    -0.332 N 
ATOM     84  C   UNL A   1      32.851  25.553  25.014  1.00  0.00     0.027 C 
BRANCH  83  85
ATOM     85  C   UNL A   1      30.912  27.315  22.698  1.00  0.00     0.256 C 
ATOM     86  O   UNL A   1      31.123  26.676  21.672  1.00  0.00    -0.269 OA
BRANCH  85  87
ATOM     87  C   UNL A   1      29.862  28.351  22.663  1.00  0.00     0.061 A 
ATOM     88  C   UNL A   1      30.241  29.602  22.162  1.00  0.00     0.035 A 
ATOM     89  C   UNL A   1      28.564  28.153  23.126  1.00  0.00     0.072 A 
ATOM     90  C   UNL A   1      29.283  30.595  22.086  1.00  0.00     0.112 A 
ATOM     91  C   UNL A   1      27.676  29.209  22.989  1.00  0.00     0.132 A 
ATOM     92  Cl  UNL A   1      28.021  26.703  23.876  1.00  0.00    -0.082 Cl
ATOM     93  N   UNL A   1      28.000  30.417  22.465  1.00  0.00    -0.263 NA
ENDBRANCH  85  87
ENDBRANCH  83  85
ENDBRANCH  75  78
ENDBRANCH  73  74
ENDBRANCH  72  73
ENDBRANCH   1  72
TORSDOF 13
ENDMDL
MODEL 2
REMARK VINA RESULT:     -12.8      2.919      8.649
REMARK SMILES O=C(NCCCCNC(=O)[C@@H]1C[C@@H]2CC[C@H]1N2C(=O)c1ccncc1Cl)c1ccc(-c2c3nc(c(-c4c(F)c(F)c(F)c(F)c4F)c4ccc([nH]4)c(-c4c(F)c(F)c(F)c(F)c4F)c4nc(c(-c5c(F)c(F)c(F)c(F)c5F)c5ccc2[nH]5)C=C4)C=C3)cc1
REMARK SMILES IDX 5 1 4 2 3 3 1 4 2 5 27 7 28 8 89 9 29 10 88 11 30 12 31 13
REMARK SMILES IDX 32 14 82 15 33 16 87 17 81 18 83 19 34 20 86 21 80 22 79 23
REMARK SMILES IDX 35 25 67 26 47 27 66 28 48 29 51 30 65 31 84 32 49 33 50 34
REMARK SMILES IDX 64 36 85 37 52 38 36 39 37 40 45 41 38 42 39 43 43 44 46 45
REMARK SMILES IDX 40 46 41 47 44 48 42 49 68 50 69 51 77 52 70 53 71 54 75 55
REMARK SMILES IDX 78 56 72 57 73 58 76 59 74 60 53 61 54 62 62 63 55 64 56 65
REMARK SMILES IDX 60 66 63 67 57 68 58 69 61 70 59 71 6 72 7 73 8 74 9 75
REMARK SMILES IDX 10 77 11 78 12 79 16 80 13 81 15 82 17 83 14 84 18 85 19 86
REMARK SMILES IDX 20 87 21 88 25 89 22 90 24 91 26 92 23 93
REMARK H PARENT 3 6 83 24 51 35 8 76
REMARK Flexibility Score: inf
ROOT
ATOM      1  C   UNL A   1      32.405  28.441  24.572  1.00  0.00     0.023 C 
ENDROOT
BRANCH   1   2
ATOM      2  C   UNL A   1      33.451  29.196  25.384  1.00  0.00     0.116 C 
BRANCH   2   3
ATOM      3  N   UNL A   1      32.964  30.470  25.893  1.00  0.00    -0.352 N 
ATOM      4  O   UNL A   1      32.771  32.209  27.314  1.00  0.00    -0.269 OA
ATOM      5  C   UNL A   1      33.413  31.234  26.946  1.00  0.00     0.251 C 
ATOM      6  H   UNL A   1      32.194  30.844  25.408  1.00  0.00     0.163 HD
BRANCH   5   7
ATOM      7  C   UNL A   1      34.656  30.861  27.655  1.00  0.00     0.039 A 
ATOM      8  C   UNL A   1      34.825  29.574  28.168  1.00  0.00     0.014 A 
ATOM      9  C   UNL A   1      35.671  31.812  27.796  1.00  0.00     0.014 A 
ATOM     10  C   UNL A   1      35.929  29.288  28.964  1.00  0.00     0.010 A 
ATOM     11  C   UNL A   1      36.825  31.492  28.516  1.00  0.00     0.010 A 
ATOM     12  C   UNL A   1      36.947  30.240  29.137  1.00  0.00    -0.014 A 
BRANCH  12  13
ATOM     13  C   UNL A   1      38.157  29.881  29.917  1.00  0.00     0.031 A 
ATOM     14  C   UNL A   1      38.362  30.395  31.313  1.00  0.00     0.074 A 
ATOM     15  C   UNL A   1      39.076  29.079  29.349  1.00  0.00     0.049 A 
ATOM     16  N   UNL A   1      39.374  30.204  32.123  1.00  0.00    -0.248 NA
ATOM     17  C   UNL A   1      37.300  31.243  31.873  1.00  0.00     0.031 C 
ATOM     18  C   UNL A   1      38.990  28.534  27.993  1.00  0.00     0.029 A 
ATOM     19  N   UNL A   1      40.259  28.583  29.832  1.00  0.00    -0.354 N 
ATOM     20  C   UNL A   1      39.084  30.924  33.274  1.00  0.00     0.074 A 
ATOM     21  C   UNL A   1      37.810  31.576  33.051  1.00  0.00     0.031 C 
ATOM     22  C   UNL A   1      40.059  27.762  27.761  1.00  0.00     0.029 A 
ATOM     23  C   UNL A   1      40.937  27.810  28.924  1.00  0.00     0.049 A 
ATOM     24  H   UNL A   1      40.590  28.763  30.743  1.00  0.00     0.167 HD
ATOM     25  C   UNL A   1      39.814  31.025  34.412  1.00  0.00     0.037 A 
ATOM     26  C   UNL A   1      42.149  27.231  29.001  1.00  0.00     0.037 A 
ATOM     27  C   UNL A   1      41.074  30.359  34.628  1.00  0.00     0.049 A 
ATOM     28  C   UNL A   1      42.946  27.372  30.263  1.00  0.00     0.074 A 
ATOM     29  C   UNL A   1      41.861  30.349  35.765  1.00  0.00     0.029 A 
ATOM     30  N   UNL A   1      41.735  29.591  33.678  1.00  0.00    -0.354 N 
ATOM     31  N   UNL A   1      42.640  28.017  31.363  1.00  0.00    -0.248 NA
ATOM     32  C   UNL A   1      44.255  26.709  30.299  1.00  0.00     0.031 C 
ATOM     33  C   UNL A   1      43.024  29.622  35.487  1.00  0.00     0.029 A 
ATOM     34  C   UNL A   1      42.936  29.131  34.194  1.00  0.00     0.049 A 
ATOM     35  H   UNL A   1      41.399  29.401  32.773  1.00  0.00     0.167 HD
ATOM     36  C   UNL A   1      43.709  27.829  32.225  1.00  0.00     0.074 A 
ATOM     37  C   UNL A   1      44.666  26.995  31.526  1.00  0.00     0.031 C 
ATOM     38  C   UNL A   1      43.882  28.308  33.482  1.00  0.00     0.037 A 
BRANCH  25  39
ATOM     39  C   UNL A   1      39.285  31.913  35.503  1.00  0.00     0.064 A 
ATOM     40  C   UNL A   1      38.448  31.424  36.517  1.00  0.00     0.173 A 
ATOM     41  C   UNL A   1      39.646  33.267  35.551  1.00  0.00     0.173 A 
ATOM     42  F   UNL A   1      38.063  30.138  36.515  1.00  0.00    -0.203 F 
ATOM     43  C   UNL A   1      37.968  32.264  37.519  1.00  0.00     0.198 A 
ATOM     44  C   UNL A   1      39.189  34.099  36.570  1.00  0.00     0.198 A 
ATOM     45  F   UNL A   1      40.451  33.787  34.612  1.00  0.00    -0.203 F 
ATOM     46  F   UNL A   1      37.128  31.787  38.448  1.00  0.00    -0.200 F 
ATOM     47  C   UNL A   1      38.343  33.599  37.548  1.00  0.00     0.200 A 
ATOM     48  F   UNL A   1      39.563  35.385  36.604  1.00  0.00    -0.200 F 
ATOM     49  F   UNL A   1      37.881  34.406  38.513  1.00  0.00    -0.200 F 
ENDBRANCH  25  39
BRANCH  26  50
ATOM     50  C   UNL A   1      42.669  26.486  27.827  1.00  0.00     0.064 A 
ATOM     51  C   UNL A   1      43.408  27.132  26.828  1.00  0.00     0.173 A 
ATOM     52  C   UNL A   1      42.487  25.099  27.714  1.00  0.00     0.173 A 
ATOM     53  F   UNL A   1      43.597  28.458  26.886  1.00  0.00    -0.203 F 
ATOM     54  C   UNL A   1      43.942  26.418  25.757  1.00  0.00     0.198 A 
ATOM     55  C   UNL A   1      43.045  24.383  26.660  1.00  0.00     0.198 A 
ATOM     56  F   UNL A   1      41.795  24.435  28.652  1.00  0.00    -0.203 F 
ATOM     57  F   UNL A   1      44.625  27.061  24.801  1.00  0.00    -0.200 F 
ATOM     58  C   UNL A   1      43.769  25.043  25.680  1.00  0.00     0.200 A 
ATOM     59  F   UNL A   1      42.894  23.053  26.601  1.00  0.00    -0.200 F 
ATOM     60  F   UNL A   1      44.302  24.355  24.661  1.00  0.00    -0.200 F 
ENDBRANCH  26  50
BRANCH  38  61
ATOM     61  C   UNL A   1      45.148  27.926  34.190  1.00  0.00     0.064 A 
ATOM     62  C   UNL A   1      46.294  28.733  34.130  1.00  0.00     0.173 A 
ATOM     63  C   UNL A   1      45.201  26.763  34.972  1.00  0.00     0.173 A 
ATOM     64  F   UNL A   1      46.298  29.844  33.380  1.00  0.00    -0.203 F 
ATOM     65  C   UNL A   1      47.454  28.378  34.814  1.00  0.00     0.198 A 
ATOM     66  C   UNL A   1      46.353  26.427  35.678  1.00  0.00     0.198 A 
ATOM     67  F   UNL A   1      44.130  25.961  35.064  1.00  0.00    -0.203 F 
ATOM     68  F   UNL A   1      48.550  29.142  34.711  1.00  0.00    -0.200 F 
ATOM     69  C   UNL A   1      47.479  27.231  35.595  1.00  0.00     0.200 A 
ATOM     70  F   UNL A   1      46.372  25.324  36.439  1.00  0.00    -0.200 F 
ATOM     71  F   UNL A   1      48.593  26.897  36.261  1.00  0.00    -0.200 F 
ENDBRANCH  38  61
ENDBRANCH  12  13
ENDBRANCH   5   7
ENDBRANCH   2   3
ENDBRANCH   1   2
BRANCH   1  72
ATOM     72  C   UNL A   1      31.456  27.559  25.382  1.00  0.00     0.023 C 
BRANCH  72  73
ATOM     73  C   UNL A   1      32.106  26.704  26.463  1.00  0.00     0.116 C 
BRANCH  73  74
ATOM     74  N   UNL A   1      31.309  25.571  26.886  1.00  0.00    -0.356 N 
ATOM     75  C   UNL A   1      31.570  24.240  26.708  1.00  0.00     0.225 C 
ATOM     76  H   UNL A   1      30.476  25.786  27.362  1.00  0.00     0.163 HD
ATOM     77  O   UNL A   1      30.808  23.427  27.227  1.00  0.00    -0.275 OA
BRANCH  75  78
ATOM     78  C   UNL A   1      32.748  23.826  25.841  1.00  0.00     0.103 C 
ATOM     79  C   UNL A   1      32.561  22.474  25.084  1.00  0.00     0.040 C 
ATOM     80  C   UNL A   1      34.059  23.572  26.610  1.00  0.00     0.098 C 
ATOM     81  C   UNL A   1      33.833  21.686  25.472  1.00  0.00     0.086 C 
ATOM     82  C   UNL A   1      33.836  22.530  27.721  1.00  0.00     0.028 C 
ATOM     83  N   UNL A   1      34.774  22.769  25.639  1.00  0.00    -0.332 N 
ATOM     84  C   UNL A   1      33.687  21.214  26.926  1.00  0.00     0.027 C 
BRANCH  83  85
ATOM     85  C   UNL A   1      35.881  22.998  24.869  1.00  0.00     0.256 C 
ATOM     86  O   UNL A   1      35.828  23.365  23.700  1.00  0.00    -0.269 OA
BRANCH  85  87
ATOM     87  C   UNL A   1      37.209  22.907  25.506  1.00  0.00     0.061 A 
ATOM     88  C   UNL A   1      37.695  24.078  26.097  1.00  0.00     0.035 A 
ATOM     89  C   UNL A   1      37.987  21.752  25.510  1.00  0.00     0.072 A 
ATOM     90  C   UNL A   1      38.924  24.031  26.729  1.00  0.00     0.112 A 
ATOM     91  C   UNL A   1      39.197  21.807  26.185  1.00  0.00     0.132 A 
ATOM     92  Cl  UNL A   1      37.550  20.294  24.708  1.00  0.00    -0.082 Cl
ATOM     93  N   UNL A   1      39.674  22.913  26.808  1.00  0.00    -0.263 NA
ENDBRANCH  85  87
ENDBRANCH  83  85
ENDBRANCH  75  78
ENDBRANCH  73  74
ENDBRANCH  72  73
ENDBRANCH   1  72
TORSDOF 13
ENDMDL
MODEL 3
REMARK VINA RESULT:     -12.7      0.295      7.401
REMARK SMILES O=C(NCCCCNC(=O)[C@@H]1C[C@@H]2CC[C@H]1N2C(=O)c1ccncc1Cl)c1ccc(-c2c3nc(c(-c4c(F)c(F)c(F)c(F)c4F)c4ccc([nH]4)c(-c4c(F)c(F)c(F)c(F)c4F)c4nc(c(-c5c(F)c(F)c(F)c(F)c5F)c5ccc2[nH]5)C=C4)C=C3)cc1
REMARK SMILES IDX 5 1 4 2 3 3 1 4 2 5 27 7 28 8 89 9 29 10 88 11 30 12 31 13
REMARK SMILES IDX 32 14 82 15 33 16 87 17 81 18 83 19 34 20 86 21 80 22 79 23
REMARK SMILES IDX 35 25 67 26 47 27 66 28 48 29 51 30 65 31 84 32 49 33 50 34
REMARK SMILES IDX 64 36 85 37 52 38 36 39 37 40 45 41 38 42 39 43 43 44 46 45
REMARK SMILES IDX 40 46 41 47 44 48 42 49 68 50 69 51 77 52 70 53 71 54 75 55
REMARK SMILES IDX 78 56 72 57 73 58 76 59 74 60 53 61 54 62 62 63 55 64 56 65
REMARK SMILES IDX 60 66 63 67 57 68 58 69 61 70 59 71 6 72 7 73 8 74 9 75
REMARK SMILES IDX 10 77 11 78 12 79 16 80 13 81 15 82 17 83 14 84 18 85 19 86
REMARK SMILES IDX 20 87 21 88 25 89 22 90 24 91 26 92 23 93
REMARK H PARENT 3 6 83 24 51 35 8 76
REMARK Flexibility Score: inf
ROOT
ATOM      1  C   UNL A   1      31.403  32.699  26.503  1.00  0.00     0.023 C 
ENDROOT
BRANCH   1   2
ATOM      2  C   UNL A   1      32.597  33.179  27.320  1.00  0.00     0.116 C 
BRANCH   2   3
ATOM      3  N   UNL A   1      32.440  34.541  27.809  1.00  0.00    -0.352 N 
ATOM      4  O   UNL A   1      32.697  36.299  29.196  1.00  0.00    -0.269 OA
ATOM      5  C   UNL A   1      33.079  35.193  28.839  1.00  0.00     0.251 C 
ATOM      6  H   UNL A   1      31.771  35.080  27.328  1.00  0.00     0.163 HD
BRANCH   5   7
ATOM      7  C   UNL A   1      34.211  34.544  29.537  1.00  0.00     0.039 A 
ATOM      8  C   UNL A   1      35.499  34.588  29.000  1.00  0.00     0.014 A 
ATOM      9  C   UNL A   1      33.978  33.893  30.752  1.00  0.00     0.014 A 
ATOM     10  C   UNL A   1      36.515  33.842  29.586  1.00  0.00     0.010 A 
ATOM     11  C   UNL A   1      35.025  33.224  31.391  1.00  0.00     0.010 A 
ATOM     12  C   UNL A   1      36.293  33.162  30.794  1.00  0.00    -0.014 A 
BRANCH  12  13
ATOM     13  C   UNL A   1      37.417  32.447  31.448  1.00  0.00     0.031 A 
ATOM     14  C   UNL A   1      37.890  32.830  32.820  1.00  0.00     0.074 A 
ATOM     15  C   UNL A   1      38.011  31.437  30.784  1.00  0.00     0.049 A 
ATOM     16  N   UNL A   1      38.875  32.330  33.524  1.00  0.00    -0.248 NA
ATOM     17  C   UNL A   1      37.173  33.924  33.489  1.00  0.00     0.031 C 
ATOM     18  C   UNL A   1      37.646  30.989  29.439  1.00  0.00     0.029 A 
ATOM     19  N   UNL A   1      39.042  30.608  31.143  1.00  0.00    -0.354 N 
ATOM     20  C   UNL A   1      38.912  33.061  34.704  1.00  0.00     0.074 A 
ATOM     21  C   UNL A   1      37.864  34.056  34.613  1.00  0.00     0.031 C 
ATOM     22  C   UNL A   1      38.423  29.954  29.095  1.00  0.00     0.029 A 
ATOM     23  C   UNL A   1      39.383  29.708  30.165  1.00  0.00     0.049 A 
ATOM     24  H   UNL A   1      39.493  30.654  32.017  1.00  0.00     0.167 HD
ATOM     25  C   UNL A   1      39.743  32.909  35.764  1.00  0.00     0.037 A 
ATOM     26  C   UNL A   1      40.380  28.805  30.117  1.00  0.00     0.037 A 
ATOM     27  C   UNL A   1      40.774  31.904  35.848  1.00  0.00     0.049 A 
ATOM     28  C   UNL A   1      41.297  28.669  31.295  1.00  0.00     0.074 A 
ATOM     29  C   UNL A   1      41.627  31.630  36.902  1.00  0.00     0.029 A 
ATOM     30  N   UNL A   1      41.096  31.015  34.831  1.00  0.00    -0.354 N 
ATOM     31  N   UNL A   1      41.292  29.333  32.425  1.00  0.00    -0.248 NA
ATOM     32  C   UNL A   1      42.359  27.660  31.194  1.00  0.00     0.031 C 
ATOM     33  C   UNL A   1      42.502  30.612  36.503  1.00  0.00     0.029 A 
ATOM     34  C   UNL A   1      42.158  30.214  35.221  1.00  0.00     0.049 A 
ATOM     35  H   UNL A   1      40.637  30.961  33.962  1.00  0.00     0.167 HD
ATOM     36  C   UNL A   1      42.338  28.819  33.174  1.00  0.00     0.074 A 
ATOM     37  C   UNL A   1      42.947  27.773  32.377  1.00  0.00     0.031 C 
ATOM     38  C   UNL A   1      42.758  29.182  34.411  1.00  0.00     0.037 A 
BRANCH  25  39
ATOM     39  C   UNL A   1      39.594  33.870  36.910  1.00  0.00     0.064 A 
ATOM     40  C   UNL A   1      38.823  33.563  38.040  1.00  0.00     0.173 A 
ATOM     41  C   UNL A   1      40.260  35.105  36.888  1.00  0.00     0.173 A 
ATOM     42  F   UNL A   1      38.157  32.400  38.109  1.00  0.00    -0.203 F 
ATOM     43  C   UNL A   1      38.698  34.470  39.091  1.00  0.00     0.198 A 
ATOM     44  C   UNL A   1      40.157  35.996  37.953  1.00  0.00     0.198 A 
ATOM     45  F   UNL A   1      41.019  35.447  35.836  1.00  0.00    -0.203 F 
ATOM     46  F   UNL A   1      37.913  34.177  40.138  1.00  0.00    -0.200 F 
ATOM     47  C   UNL A   1      39.369  35.683  39.049  1.00  0.00     0.200 A 
ATOM     48  F   UNL A   1      40.817  37.162  37.916  1.00  0.00    -0.200 F 
ATOM     49  F   UNL A   1      39.248  36.553  40.061  1.00  0.00    -0.200 F 
ENDBRANCH  25  39
BRANCH  26  50
ATOM     50  C   UNL A   1      40.553  27.986  28.891  1.00  0.00     0.064 A 
ATOM     51  C   UNL A   1      39.885  26.765  28.735  1.00  0.00     0.173 A 
ATOM     52  C   UNL A   1      41.345  28.441  27.826  1.00  0.00     0.173 A 
ATOM     53  F   UNL A   1      39.129  26.283  29.732  1.00  0.00    -0.203 F 
ATOM     54  C   UNL A   1      40.007  26.027  27.560  1.00  0.00     0.198 A 
ATOM     55  C   UNL A   1      41.442  27.718  26.641  1.00  0.00     0.198 A 
ATOM     56  F   UNL A   1      41.995  29.610  27.924  1.00  0.00    -0.203 F 
ATOM     57  F   UNL A   1      39.379  24.850  27.442  1.00  0.00    -0.200 F 
ATOM     58  C   UNL A   1      40.777  26.509  26.509  1.00  0.00     0.200 A 
ATOM     59  F   UNL A   1      42.169  28.198  25.622  1.00  0.00    -0.200 F 
ATOM     60  F   UNL A   1      40.874  25.809  25.371  1.00  0.00    -0.200 F 
ENDBRANCH  26  50
BRANCH  38  61
ATOM     61  C   UNL A   1      43.921  28.431  34.987  1.00  0.00     0.064 A 
ATOM     62  C   UNL A   1      43.740  27.252  35.726  1.00  0.00     0.173 A 
ATOM     63  C   UNL A   1      45.233  28.871  34.761  1.00  0.00     0.173 A 
ATOM     64  F   UNL A   1      42.503  26.802  35.985  1.00  0.00    -0.203 F 
ATOM     65  C   UNL A   1      44.831  26.552  36.232  1.00  0.00     0.198 A 
ATOM     66  C   UNL A   1      46.323  28.152  35.245  1.00  0.00     0.198 A 
ATOM     67  F   UNL A   1      45.459  29.991  34.057  1.00  0.00    -0.203 F 
ATOM     68  F   UNL A   1      44.634  25.450  36.970  1.00  0.00    -0.200 F 
ATOM     69  C   UNL A   1      46.121  26.997  35.984  1.00  0.00     0.200 A 
ATOM     70  F   UNL A   1      47.568  28.578  34.994  1.00  0.00    -0.200 F 
ATOM     71  F   UNL A   1      47.171  26.315  36.463  1.00  0.00    -0.200 F 
ENDBRANCH  38  61
ENDBRANCH  12  13
ENDBRANCH   5   7
ENDBRANCH   2   3
ENDBRANCH   1   2
BRANCH   1  72
ATOM     72  C   UNL A   1      31.413  31.217  26.133  1.00  0.00     0.023 C 
BRANCH  72  73
ATOM     73  C   UNL A   1      32.648  30.436  26.562  1.00  0.00     0.116 C 
BRANCH  73  74
ATOM     74  N   UNL A   1      32.394  29.425  27.568  1.00  0.00    -0.356 N 
ATOM     75  C   UNL A   1      31.827  28.191  27.404  1.00  0.00     0.225 C 
ATOM     76  H   UNL A   1      32.664  29.655  28.486  1.00  0.00     0.163 HD
ATOM     77  O   UNL A   1      31.783  27.440  28.376  1.00  0.00    -0.275 OA
BRANCH  75  78
ATOM     78  C   UNL A   1      31.233  27.824  26.054  1.00  0.00     0.103 C 
ATOM     79  C   UNL A   1      30.652  26.378  25.965  1.00  0.00     0.040 C 
ATOM     80  C   UNL A   1      32.236  27.827  24.884  1.00  0.00     0.098 C 
ATOM     81  C   UNL A   1      31.351  25.805  24.712  1.00  0.00     0.086 C 
ATOM     82  C   UNL A   1      33.429  26.906  25.199  1.00  0.00     0.028 C 
ATOM     83  N   UNL A   1      31.519  27.007  23.929  1.00  0.00    -0.332 N 
ATOM     84  C   UNL A   1      32.812  25.496  25.070  1.00  0.00     0.027 C 
BRANCH  83  85
ATOM     85  C   UNL A   1      30.919  27.275  22.729  1.00  0.00     0.256 C 
ATOM     86  O   UNL A   1      31.128  26.628  21.709  1.00  0.00    -0.269 OA
BRANCH  85  87
ATOM     87  C   UNL A   1      29.883  28.324  22.683  1.00  0.00     0.061 A 
ATOM     88  C   UNL A   1      30.283  29.571  22.189  1.00  0.00     0.035 A 
ATOM     89  C   UNL A   1      28.577  28.141  23.129  1.00  0.00     0.072 A 
ATOM     90  C   UNL A   1      29.338  30.575  22.102  1.00  0.00     0.112 A 
ATOM     91  C   UNL A   1      27.703  29.209  22.983  1.00  0.00     0.132 A 
ATOM     92  Cl  UNL A   1      28.006  26.697  23.870  1.00  0.00    -0.082 Cl
ATOM     93  N   UNL A   1      28.049  30.413  22.465  1.00  0.00    -0.263 NA
ENDBRANCH  85  87
ENDBRANCH  83  85
ENDBRANCH  75  78
ENDBRANCH  73  74
ENDBRANCH  72  73
ENDBRANCH   1  72
TORSDOF 13
ENDMDL
