MODEL 1
REMARK VINA RESULT:     -11.3      0.000      0.000
REMARK SMILES C=CCSc1ccccc1C(=O)NCCCCNC(=O)c1ccc(-c2c3nc(c(-c4c(F)c(F)c(F)c(F)c4F)c4ccc([nH]4)c(-c4c(F)c(F)c(F)c(F)c4F)c4nc(c(-c5c(F)c(F)c(F)c(F)c5F)c5ccc2[nH]5)C=C4)C=C3)cc1
REMARK SMILES IDX 15 1 14 2 13 3 11 4 12 5 10 7 5 8 6 9 7 10 9 11 8 12 4 13
REMARK SMILES IDX 3 14 2 15 1 16 16 17 17 18 18 19 19 20 20 22 21 23 22 24
REMARK SMILES IDX 83 25 23 26 82 27 24 28 25 29 26 30 76 31 27 32 81 33 75 34
REMARK SMILES IDX 77 35 28 36 80 37 74 38 73 39 29 41 61 42 41 43 60 44 42 45
REMARK SMILES IDX 45 46 59 47 78 48 43 49 44 50 58 52 79 53 46 54 30 55 31 56
REMARK SMILES IDX 39 57 32 58 33 59 37 60 40 61 34 62 35 63 38 64 36 65 62 66
REMARK SMILES IDX 63 67 71 68 64 69 65 70 69 71 72 72 66 73 67 74 70 75 68 76
REMARK SMILES IDX 47 77 48 78 56 79 49 80 50 81 54 82 57 83 51 84 52 85 55 86
REMARK SMILES IDX 53 87
REMARK H PARENT 13 6 18 21 77 40 45 51
REMARK Flexibility Score: inf
ROOT
ATOM      1  C   UNL A   1      31.854  30.755  26.005  1.00  0.00     0.023 C 
ENDROOT
BRANCH   1   2
ATOM      2  C   UNL A   1      33.163  29.978  26.179  1.00  0.00     0.116 C 
BRANCH   2   3
ATOM      3  N   UNL A   1      33.589  29.516  24.877  1.00  0.00    -0.352 N 
ATOM      4  C   UNL A   1      33.219  28.447  24.108  1.00  0.00     0.252 C 
ATOM      5  O   UNL A   1      33.991  28.148  23.192  1.00  0.00    -0.269 OA
ATOM      6  H   UNL A   1      34.279  30.083  24.462  1.00  0.00     0.163 HD
BRANCH   4   7
ATOM      7  C   UNL A   1      31.919  27.719  24.185  1.00  0.00     0.053 A 
ATOM      8  C   UNL A   1      30.691  27.978  23.549  1.00  0.00     0.020 A 
ATOM      9  C   UNL A   1      29.585  27.150  23.855  1.00  0.00     0.016 A 
ATOM     10  C   UNL A   1      29.661  26.129  24.802  1.00  0.00     0.001 A 
ATOM     11  C   UNL A   1      31.969  26.675  25.144  1.00  0.00     0.015 A 
ATOM     12  C   UNL A   1      30.856  25.895  25.456  1.00  0.00     0.001 A 
BRANCH   8  13
ATOM     13  S   UNL A   1      30.266  29.235  22.353  1.00  0.00    -0.121 SA
BRANCH  13  14
ATOM     14  C   UNL A   1      28.462  29.323  22.502  1.00  0.00     0.101 C 
BRANCH  14  15
ATOM     15  C   UNL A   1      28.032  30.565  23.206  1.00  0.00    -0.024 C 
ATOM     16  C   UNL A   1      28.897  31.406  23.785  1.00  0.00     0.005 C 
ENDBRANCH  14  15
ENDBRANCH  13  14
ENDBRANCH   8  13
ENDBRANCH   4   7
ENDBRANCH   2   3
ENDBRANCH   1   2
BRANCH   1  17
ATOM     17  C   UNL A   1      31.593  31.841  27.035  1.00  0.00     0.023 C 
BRANCH  17  18
ATOM     18  C   UNL A   1      32.792  32.729  27.302  1.00  0.00     0.116 C 
BRANCH  18  19
ATOM     19  N   UNL A   1      32.441  34.105  27.638  1.00  0.00    -0.352 N 
ATOM     20  C   UNL A   1      32.993  34.935  28.589  1.00  0.00     0.251 C 
ATOM     21  H   UNL A   1      31.707  34.495  27.111  1.00  0.00     0.163 HD
ATOM     22  O   UNL A   1      32.526  36.044  28.804  1.00  0.00    -0.269 OA
BRANCH  20  23
ATOM     23  C   UNL A   1      34.132  34.436  29.382  1.00  0.00     0.039 A 
ATOM     24  C   UNL A   1      33.880  33.720  30.555  1.00  0.00     0.014 A 
ATOM     25  C   UNL A   1      35.434  34.588  28.906  1.00  0.00     0.014 A 
ATOM     26  C   UNL A   1      34.934  33.068  31.194  1.00  0.00     0.010 A 
ATOM     27  C   UNL A   1      36.455  33.842  29.474  1.00  0.00     0.010 A 
ATOM     28  C   UNL A   1      36.218  33.076  30.626  1.00  0.00    -0.014 A 
BRANCH  28  29
ATOM     29  C   UNL A   1      37.341  32.308  31.216  1.00  0.00     0.031 A 
ATOM     30  C   UNL A   1      37.825  32.650  32.597  1.00  0.00     0.074 A 
ATOM     31  C   UNL A   1      37.990  31.387  30.475  1.00  0.00     0.049 A 
ATOM     32  N   UNL A   1      38.878  32.212  33.240  1.00  0.00    -0.248 NA
ATOM     33  C   UNL A   1      37.053  33.663  33.336  1.00  0.00     0.031 C 
ATOM     34  C   UNL A   1      37.669  31.025  29.093  1.00  0.00     0.029 A 
ATOM     35  N   UNL A   1      39.070  30.597  30.780  1.00  0.00    -0.354 N 
ATOM     36  C   UNL A   1      38.916  32.929  34.428  1.00  0.00     0.074 A 
ATOM     37  C   UNL A   1      37.818  33.868  34.397  1.00  0.00     0.031 C 
ATOM     38  C   UNL A   1      38.512  30.065  28.680  1.00  0.00     0.029 A 
ATOM     39  C   UNL A   1      39.455  29.769  29.755  1.00  0.00     0.049 A 
ATOM     40  H   UNL A   1      39.526  30.622  31.652  1.00  0.00     0.167 HD
ATOM     41  C   UNL A   1      39.773  32.795  35.467  1.00  0.00     0.037 A 
ATOM     42  C   UNL A   1      40.458  28.872  29.692  1.00  0.00     0.037 A 
ATOM     43  C   UNL A   1      40.811  31.803  35.527  1.00  0.00     0.049 A 
ATOM     44  C   UNL A   1      41.341  28.681  30.894  1.00  0.00     0.074 A 
ATOM     45  C   UNL A   1      41.669  31.514  36.572  1.00  0.00     0.029 A 
ATOM     46  N   UNL A   1      41.116  30.923  34.499  1.00  0.00    -0.354 N 
ATOM     47  N   UNL A   1      41.323  29.314  32.042  1.00  0.00    -0.248 NA
ATOM     48  C   UNL A   1      42.379  27.645  30.797  1.00  0.00     0.031 C 
ATOM     49  C   UNL A   1      42.511  30.474  36.168  1.00  0.00     0.029 A 
ATOM     50  C   UNL A   1      42.155  30.093  34.885  1.00  0.00     0.049 A 
ATOM     51  H   UNL A   1      40.663  30.896  33.625  1.00  0.00     0.167 HD
ATOM     52  C   UNL A   1      42.324  28.738  32.811  1.00  0.00     0.074 A 
ATOM     53  C   UNL A   1      42.922  27.694  32.005  1.00  0.00     0.031 C 
ATOM     54  C   UNL A   1      42.717  29.048  34.071  1.00  0.00     0.037 A 
BRANCH  41  55
ATOM     55  C   UNL A   1      39.605  33.726  36.630  1.00  0.00     0.064 A 
ATOM     56  C   UNL A   1      38.813  33.385  37.737  1.00  0.00     0.173 A 
ATOM     57  C   UNL A   1      40.264  34.964  36.651  1.00  0.00     0.173 A 
ATOM     58  F   UNL A   1      38.150  32.218  37.758  1.00  0.00    -0.203 F 
ATOM     59  C   UNL A   1      38.664  34.260  38.809  1.00  0.00     0.198 A 
ATOM     60  C   UNL A   1      40.137  35.825  37.738  1.00  0.00     0.198 A 
ATOM     61  F   UNL A   1      41.035  35.338  35.619  1.00  0.00    -0.203 F 
ATOM     62  F   UNL A   1      37.860  33.934  39.830  1.00  0.00    -0.200 F 
ATOM     63  C   UNL A   1      39.331  35.476  38.811  1.00  0.00     0.200 A 
ATOM     64  F   UNL A   1      40.789  36.996  37.744  1.00  0.00    -0.200 F 
ATOM     65  F   UNL A   1      39.190  36.316  39.847  1.00  0.00    -0.200 F 
ENDBRANCH  41  55
BRANCH  42  66
ATOM     66  C   UNL A   1      40.657  28.058  28.465  1.00  0.00     0.064 A 
ATOM     67  C   UNL A   1      41.476  28.519  27.425  1.00  0.00     0.173 A 
ATOM     68  C   UNL A   1      40.031  26.814  28.300  1.00  0.00     0.173 A 
ATOM     69  F   UNL A   1      42.082  29.712  27.530  1.00  0.00    -0.203 F 
ATOM     70  C   UNL A   1      41.641  27.780  26.256  1.00  0.00     0.198 A 
ATOM     71  C   UNL A   1      40.217  26.065  27.140  1.00  0.00     0.198 A 
ATOM     72  F   UNL A   1      39.243  26.325  29.268  1.00  0.00    -0.203 F 
ATOM     73  F   UNL A   1      42.392  28.267  25.258  1.00  0.00    -0.200 F 
ATOM     74  C   UNL A   1      41.015  26.551  26.115  1.00  0.00     0.200 A 
ATOM     75  F   UNL A   1      39.619  24.872  27.012  1.00  0.00    -0.200 F 
ATOM     76  F   UNL A   1      41.172  25.842  24.990  1.00  0.00    -0.200 F 
ENDBRANCH  42  66
BRANCH  54  77
ATOM     77  C   UNL A   1      43.819  28.226  34.667  1.00  0.00     0.064 A 
ATOM     78  C   UNL A   1      45.158  28.636  34.596  1.00  0.00     0.173 A 
ATOM     79  C   UNL A   1      43.524  27.044  35.361  1.00  0.00     0.173 A 
ATOM     80  F   UNL A   1      45.488  29.752  33.930  1.00  0.00    -0.203 F 
ATOM     81  C   UNL A   1      46.166  27.879  35.185  1.00  0.00     0.198 A 
ATOM     82  C   UNL A   1      44.532  26.303  35.970  1.00  0.00     0.198 A 
ATOM     83  F   UNL A   1      42.257  26.616  35.460  1.00  0.00    -0.203 F 
ATOM     84  F   UNL A   1      47.444  28.268  35.076  1.00  0.00    -0.200 F 
ATOM     85  C   UNL A   1      45.851  26.719  35.878  1.00  0.00     0.200 A 
ATOM     86  F   UNL A   1      44.225  25.189  36.649  1.00  0.00    -0.200 F 
ATOM     87  F   UNL A   1      46.823  25.997  36.454  1.00  0.00    -0.200 F 
ENDBRANCH  54  77
ENDBRANCH  28  29
ENDBRANCH  20  23
ENDBRANCH  18  19
ENDBRANCH  17  18
ENDBRANCH   1  17
TORSDOF 14
ENDMDL
MODEL 2
REMARK VINA RESULT:     -11.3      0.640      7.683
REMARK SMILES C=CCSc1ccccc1C(=O)NCCCCNC(=O)c1ccc(-c2c3nc(c(-c4c(F)c(F)c(F)c(F)c4F)c4ccc([nH]4)c(-c4c(F)c(F)c(F)c(F)c4F)c4nc(c(-c5c(F)c(F)c(F)c(F)c5F)c5ccc2[nH]5)C=C4)C=C3)cc1
REMARK SMILES IDX 15 1 14 2 13 3 11 4 12 5 10 7 5 8 6 9 7 10 9 11 8 12 4 13
REMARK SMILES IDX 3 14 2 15 1 16 16 17 17 18 18 19 19 20 20 22 21 23 22 24
REMARK SMILES IDX 83 25 23 26 82 27 24 28 25 29 26 30 76 31 27 32 81 33 75 34
REMARK SMILES IDX 77 35 28 36 80 37 74 38 73 39 29 41 61 42 41 43 60 44 42 45
REMARK SMILES IDX 45 46 59 47 78 48 43 49 44 50 58 52 79 53 46 54 30 55 31 56
REMARK SMILES IDX 39 57 32 58 33 59 37 60 40 61 34 62 35 63 38 64 36 65 62 66
REMARK SMILES IDX 63 67 71 68 64 69 65 70 69 71 72 72 66 73 67 74 70 75 68 76
REMARK SMILES IDX 47 77 48 78 56 79 49 80 50 81 54 82 57 83 51 84 52 85 55 86
REMARK SMILES IDX 53 87
REMARK H PARENT 13 6 18 21 77 40 45 51
REMARK Flexibility Score: inf
ROOT
ATOM      1  C   UNL A   1      32.065  30.077  26.926  1.00  0.00     0.023 C 
ENDROOT
BRANCH   1   2
ATOM      2  C   UNL A   1      33.385  29.470  26.439  1.00  0.00     0.116 C 
BRANCH   2   3
ATOM      3  N   UNL A   1      33.456  29.637  25.004  1.00  0.00    -0.352 N 
ATOM      4  C   UNL A   1      32.924  28.926  23.963  1.00  0.00     0.252 C 
ATOM      5  O   UNL A   1      33.426  29.135  22.854  1.00  0.00    -0.269 OA
ATOM      6  H   UNL A   1      33.989  30.415  24.722  1.00  0.00     0.163 HD
BRANCH   4   7
ATOM      7  C   UNL A   1      31.717  28.051  24.024  1.00  0.00     0.053 A 
ATOM      8  C   UNL A   1      30.445  28.210  23.442  1.00  0.00     0.020 A 
ATOM      9  C   UNL A   1      29.451  27.243  23.719  1.00  0.00     0.016 A 
ATOM     10  C   UNL A   1      29.673  26.176  24.588  1.00  0.00     0.001 A 
ATOM     11  C   UNL A   1      31.917  26.957  24.905  1.00  0.00     0.015 A 
ATOM     12  C   UNL A   1      30.910  26.036  25.191  1.00  0.00     0.001 A 
BRANCH   8  13
ATOM     13  S   UNL A   1      29.841  29.488  22.350  1.00  0.00    -0.121 SA
BRANCH  13  14
ATOM     14  C   UNL A   1      28.097  29.615  22.825  1.00  0.00     0.101 C 
BRANCH  14  15
ATOM     15  C   UNL A   1      27.793  30.938  23.443  1.00  0.00    -0.024 C 
ATOM     16  C   UNL A   1      28.731  31.869  23.659  1.00  0.00     0.005 C 
ENDBRANCH  14  15
ENDBRANCH  13  14
ENDBRANCH   8  13
ENDBRANCH   4   7
ENDBRANCH   2   3
ENDBRANCH   1   2
BRANCH   1  17
ATOM     17  C   UNL A   1      31.910  31.572  26.706  1.00  0.00     0.023 C 
BRANCH  17  18
ATOM     18  C   UNL A   1      32.887  32.411  27.507  1.00  0.00     0.116 C 
BRANCH  18  19
ATOM     19  N   UNL A   1      32.479  33.804  27.657  1.00  0.00    -0.352 N 
ATOM     20  C   UNL A   1      32.999  34.777  28.482  1.00  0.00     0.251 C 
ATOM     21  H   UNL A   1      31.729  34.088  27.088  1.00  0.00     0.163 HD
ATOM     22  O   UNL A   1      32.487  35.884  28.549  1.00  0.00    -0.269 OA
BRANCH  20  23
ATOM     23  C   UNL A   1      34.160  34.436  29.327  1.00  0.00     0.039 A 
ATOM     24  C   UNL A   1      33.940  33.877  30.588  1.00  0.00     0.014 A 
ATOM     25  C   UNL A   1      35.453  34.574  28.825  1.00  0.00     0.014 A 
ATOM     26  C   UNL A   1      35.021  33.361  31.302  1.00  0.00     0.010 A 
ATOM     27  C   UNL A   1      36.505  33.954  29.481  1.00  0.00     0.010 A 
ATOM     28  C   UNL A   1      36.302  33.343  30.728  1.00  0.00    -0.014 A 
BRANCH  28  29
ATOM     29  C   UNL A   1      37.457  32.708  31.407  1.00  0.00     0.031 A 
ATOM     30  C   UNL A   1      38.168  31.563  30.741  1.00  0.00     0.074 A 
ATOM     31  C   UNL A   1      37.795  33.085  32.657  1.00  0.00     0.049 A 
ATOM     32  N   UNL A   1      39.096  30.773  31.217  1.00  0.00    -0.248 NA
ATOM     33  C   UNL A   1      37.738  31.224  29.374  1.00  0.00     0.031 C 
ATOM     34  C   UNL A   1      37.129  34.126  33.442  1.00  0.00     0.029 A 
ATOM     35  N   UNL A   1      38.778  32.619  33.494  1.00  0.00    -0.354 N 
ATOM     36  C   UNL A   1      39.322  29.823  30.229  1.00  0.00     0.074 A 
ATOM     37  C   UNL A   1      38.398  30.098  29.153  1.00  0.00     0.031 C 
ATOM     38  C   UNL A   1      37.740  34.241  34.632  1.00  0.00     0.029 A 
ATOM     39  C   UNL A   1      38.817  33.258  34.709  1.00  0.00     0.049 A 
ATOM     40  H   UNL A   1      39.397  31.895  33.247  1.00  0.00     0.167 HD
ATOM     41  C   UNL A   1      40.239  28.829  30.210  1.00  0.00     0.037 A 
ATOM     42  C   UNL A   1      39.631  33.070  35.764  1.00  0.00     0.037 A 
ATOM     43  C   UNL A   1      41.209  28.612  31.247  1.00  0.00     0.049 A 
ATOM     44  C   UNL A   1      40.700  32.014  35.681  1.00  0.00     0.074 A 
ATOM     45  C   UNL A   1      42.247  27.699  31.281  1.00  0.00     0.029 A 
ATOM     46  N   UNL A   1      41.271  29.337  32.428  1.00  0.00    -0.354 N 
ATOM     47  N   UNL A   1      40.952  31.169  34.711  1.00  0.00    -0.248 NA
ATOM     48  C   UNL A   1      41.604  31.892  36.832  1.00  0.00     0.031 C 
ATOM     49  C   UNL A   1      42.923  27.855  32.494  1.00  0.00     0.029 A 
ATOM     50  C   UNL A   1      42.328  28.887  33.201  1.00  0.00     0.049 A 
ATOM     51  H   UNL A   1      40.654  30.062  32.679  1.00  0.00     0.167 HD
ATOM     52  C   UNL A   1      42.056  30.435  35.123  1.00  0.00     0.074 A 
ATOM     53  C   UNL A   1      42.435  30.944  36.425  1.00  0.00     0.031 C 
ATOM     54  C   UNL A   1      42.696  29.425  34.483  1.00  0.00     0.037 A 
BRANCH  41  55
ATOM     55  C   UNL A   1      40.250  27.918  29.018  1.00  0.00     0.064 A 
ATOM     56  C   UNL A   1      39.528  26.714  29.007  1.00  0.00     0.173 A 
ATOM     57  C   UNL A   1      40.970  28.263  27.865  1.00  0.00     0.173 A 
ATOM     58  F   UNL A   1      38.836  26.332  30.091  1.00  0.00    -0.203 F 
ATOM     59  C   UNL A   1      39.550  25.876  27.896  1.00  0.00     0.198 A 
ATOM     60  C   UNL A   1      40.966  27.437  26.745  1.00  0.00     0.198 A 
ATOM     61  F   UNL A   1      41.674  29.403  27.824  1.00  0.00    -0.203 F 
ATOM     62  F   UNL A   1      38.896  24.708  27.928  1.00  0.00    -0.200 F 
ATOM     63  C   UNL A   1      40.263  26.241  26.764  1.00  0.00     0.200 A 
ATOM     64  F   UNL A   1      41.647  27.795  25.647  1.00  0.00    -0.200 F 
ATOM     65  F   UNL A   1      40.279  25.435  25.693  1.00  0.00    -0.200 F 
ENDBRANCH  41  55
BRANCH  42  66
ATOM     66  C   UNL A   1      39.498  33.922  36.974  1.00  0.00     0.064 A 
ATOM     67  C   UNL A   1      38.773  33.476  38.088  1.00  0.00     0.173 A 
ATOM     68  C   UNL A   1      40.078  35.197  37.041  1.00  0.00     0.173 A 
ATOM     69  F   UNL A   1      38.184  32.270  38.063  1.00  0.00    -0.203 F 
ATOM     70  C   UNL A   1      38.611  34.281  39.213  1.00  0.00     0.198 A 
ATOM     71  C   UNL A   1      39.937  35.991  38.178  1.00  0.00     0.198 A 
ATOM     72  F   UNL A   1      40.788  35.667  36.006  1.00  0.00    -0.203 F 
ATOM     73  F   UNL A   1      37.874  33.847  40.244  1.00  0.00    -0.200 F 
ATOM     74  C   UNL A   1      39.197  35.537  39.259  1.00  0.00     0.200 A 
ATOM     75  F   UNL A   1      40.514  37.200  38.223  1.00  0.00    -0.200 F 
ATOM     76  F   UNL A   1      39.040  36.312  40.340  1.00  0.00    -0.200 F 
ENDBRANCH  42  66
BRANCH  54  77
ATOM     77  C   UNL A   1      43.892  28.832  35.163  1.00  0.00     0.064 A 
ATOM     78  C   UNL A   1      43.772  27.735  36.028  1.00  0.00     0.173 A 
ATOM     79  C   UNL A   1      45.175  29.335  34.905  1.00  0.00     0.173 A 
ATOM     80  F   UNL A   1      42.563  27.230  36.315  1.00  0.00    -0.203 F 
ATOM     81  C   UNL A   1      44.897  27.173  36.625  1.00  0.00     0.198 A 
ATOM     82  C   UNL A   1      46.299  28.755  35.484  1.00  0.00     0.198 A 
ATOM     83  F   UNL A   1      45.338  30.380  34.079  1.00  0.00    -0.203 F 
ATOM     84  F   UNL A   1      44.759  26.148  37.476  1.00  0.00    -0.200 F 
ATOM     85  C   UNL A   1      46.159  27.678  36.346  1.00  0.00     0.200 A 
ATOM     86  F   UNL A   1      47.518  29.236  35.204  1.00  0.00    -0.200 F 
ATOM     87  F   UNL A   1      47.242  27.129  36.914  1.00  0.00    -0.200 F 
ENDBRANCH  54  77
ENDBRANCH  28  29
ENDBRANCH  20  23
ENDBRANCH  18  19
ENDBRANCH  17  18
ENDBRANCH   1  17
TORSDOF 14
ENDMDL
MODEL 3
REMARK VINA RESULT:     -11.2      0.351      2.074
REMARK SMILES C=CCSc1ccccc1C(=O)NCCCCNC(=O)c1ccc(-c2c3nc(c(-c4c(F)c(F)c(F)c(F)c4F)c4ccc([nH]4)c(-c4c(F)c(F)c(F)c(F)c4F)c4nc(c(-c5c(F)c(F)c(F)c(F)c5F)c5ccc2[nH]5)C=C4)C=C3)cc1
REMARK SMILES IDX 15 1 14 2 13 3 11 4 12 5 10 7 5 8 6 9 7 10 9 11 8 12 4 13
REMARK SMILES IDX 3 14 2 15 1 16 16 17 17 18 18 19 19 20 20 22 21 23 22 24
REMARK SMILES IDX 83 25 23 26 82 27 24 28 25 29 26 30 76 31 27 32 81 33 75 34
REMARK SMILES IDX 77 35 28 36 80 37 74 38 73 39 29 41 61 42 41 43 60 44 42 45
REMARK SMILES IDX 45 46 59 47 78 48 43 49 44 50 58 52 79 53 46 54 30 55 31 56
REMARK SMILES IDX 39 57 32 58 33 59 37 60 40 61 34 62 35 63 38 64 36 65 62 66
REMARK SMILES IDX 63 67 71 68 64 69 65 70 69 71 72 72 66 73 67 74 70 75 68 76
REMARK SMILES IDX 47 77 48 78 56 79 49 80 50 81 54 82 57 83 51 84 52 85 55 86
REMARK SMILES IDX 53 87
REMARK H PARENT 13 6 18 21 77 40 45 51
REMARK Flexibility Score: inf
ROOT
ATOM      1  C   UNL A   1      31.901  30.792  25.975  1.00  0.00     0.023 C 
ENDROOT
BRANCH   1   2
ATOM      2  C   UNL A   1      33.164  29.999  26.330  1.00  0.00     0.116 C 
BRANCH   2   3
ATOM      3  N   UNL A   1      33.672  29.395  25.118  1.00  0.00    -0.352 N 
ATOM      4  C   UNL A   1      33.387  28.218  24.482  1.00  0.00     0.252 C 
ATOM      5  O   UNL A   1      34.215  27.843  23.645  1.00  0.00    -0.269 OA
ATOM      6  H   UNL A   1      34.354  29.938  24.661  1.00  0.00     0.163 HD
BRANCH   4   7
ATOM      7  C   UNL A   1      32.120  27.440  24.600  1.00  0.00     0.053 A 
ATOM      8  C   UNL A   1      30.913  27.551  23.884  1.00  0.00     0.020 A 
ATOM      9  C   UNL A   1      29.832  26.715  24.251  1.00  0.00     0.016 A 
ATOM     10  C   UNL A   1      29.908  25.831  25.327  1.00  0.00     0.001 A 
ATOM     11  C   UNL A   1      32.170  26.535  25.690  1.00  0.00     0.015 A 
ATOM     12  C   UNL A   1      31.080  25.746  26.056  1.00  0.00     0.001 A 
BRANCH   8  13
ATOM     13  S   UNL A   1      30.490  28.617  22.515  1.00  0.00    -0.121 SA
BRANCH  13  14
ATOM     14  C   UNL A   1      29.179  29.653  23.217  1.00  0.00     0.101 C 
BRANCH  14  15
ATOM     15  C   UNL A   1      27.848  29.322  22.632  1.00  0.00    -0.024 C 
ATOM     16  C   UNL A   1      26.872  28.737  23.337  1.00  0.00     0.005 C 
ENDBRANCH  14  15
ENDBRANCH  13  14
ENDBRANCH   8  13
ENDBRANCH   4   7
ENDBRANCH   2   3
ENDBRANCH   1   2
BRANCH   1  17
ATOM     17  C   UNL A   1      31.566  31.944  26.906  1.00  0.00     0.023 C 
BRANCH  17  18
ATOM     18  C   UNL A   1      32.766  32.787  27.290  1.00  0.00     0.116 C 
BRANCH  18  19
ATOM     19  N   UNL A   1      32.431  34.167  27.625  1.00  0.00    -0.352 N 
ATOM     20  C   UNL A   1      32.997  34.993  28.572  1.00  0.00     0.251 C 
ATOM     21  H   UNL A   1      31.699  34.564  27.101  1.00  0.00     0.163 HD
ATOM     22  O   UNL A   1      32.543  36.106  28.787  1.00  0.00    -0.269 OA
BRANCH  20  23
ATOM     23  C   UNL A   1      34.135  34.482  29.361  1.00  0.00     0.039 A 
ATOM     24  C   UNL A   1      33.880  33.759  30.528  1.00  0.00     0.014 A 
ATOM     25  C   UNL A   1      35.437  34.632  28.885  1.00  0.00     0.014 A 
ATOM     26  C   UNL A   1      34.932  33.097  31.162  1.00  0.00     0.010 A 
ATOM     27  C   UNL A   1      36.455  33.877  29.447  1.00  0.00     0.010 A 
ATOM     28  C   UNL A   1      36.215  33.104  30.593  1.00  0.00    -0.014 A 
BRANCH  28  29
ATOM     29  C   UNL A   1      37.335  32.327  31.176  1.00  0.00     0.031 A 
ATOM     30  C   UNL A   1      37.829  32.664  32.556  1.00  0.00     0.074 A 
ATOM     31  C   UNL A   1      37.973  31.401  30.431  1.00  0.00     0.049 A 
ATOM     32  N   UNL A   1      38.882  32.217  33.192  1.00  0.00    -0.248 NA
ATOM     33  C   UNL A   1      37.069  33.682  33.299  1.00  0.00     0.031 C 
ATOM     34  C   UNL A   1      37.642  31.043  29.051  1.00  0.00     0.029 A 
ATOM     35  N   UNL A   1      39.048  30.602  30.730  1.00  0.00    -0.354 N 
ATOM     36  C   UNL A   1      38.932  32.933  34.381  1.00  0.00     0.074 A 
ATOM     37  C   UNL A   1      37.841  33.880  34.356  1.00  0.00     0.031 C 
ATOM     38  C   UNL A   1      38.475  30.076  28.633  1.00  0.00     0.029 A 
ATOM     39  C   UNL A   1      39.421  29.772  29.702  1.00  0.00     0.049 A 
ATOM     40  H   UNL A   1      39.509  30.623  31.600  1.00  0.00     0.167 HD
ATOM     41  C   UNL A   1      39.793  32.791  35.415  1.00  0.00     0.037 A 
ATOM     42  C   UNL A   1      40.416  28.867  29.633  1.00  0.00     0.037 A 
ATOM     43  C   UNL A   1      40.824  31.791  35.469  1.00  0.00     0.049 A 
ATOM     44  C   UNL A   1      41.304  28.668  30.831  1.00  0.00     0.074 A 
ATOM     45  C   UNL A   1      41.684  31.495  36.509  1.00  0.00     0.029 A 
ATOM     46  N   UNL A   1      41.116  30.910  34.439  1.00  0.00    -0.354 N 
ATOM     47  N   UNL A   1      41.297  29.301  31.979  1.00  0.00    -0.248 NA
ATOM     48  C   UNL A   1      42.333  27.624  30.728  1.00  0.00     0.031 C 
ATOM     49  C   UNL A   1      42.516  30.447  36.100  1.00  0.00     0.029 A 
ATOM     50  C   UNL A   1      42.150  30.070  34.818  1.00  0.00     0.049 A 
ATOM     51  H   UNL A   1      40.659  30.886  33.567  1.00  0.00     0.167 HD
ATOM     52  C   UNL A   1      42.298  28.716  32.743  1.00  0.00     0.074 A 
ATOM     53  C   UNL A   1      42.883  27.667  31.933  1.00  0.00     0.031 C 
ATOM     54  C   UNL A   1      42.700  29.022  34.001  1.00  0.00     0.037 A 
BRANCH  41  55
ATOM     55  C   UNL A   1      39.639  33.723  36.580  1.00  0.00     0.064 A 
ATOM     56  C   UNL A   1      40.280  34.971  36.612  1.00  0.00     0.173 A 
ATOM     57  C   UNL A   1      38.821  33.376  37.665  1.00  0.00     0.173 A 
ATOM     58  F   UNL A   1      41.085  35.342  35.605  1.00  0.00    -0.203 F 
ATOM     59  C   UNL A   1      40.131  35.824  37.702  1.00  0.00     0.198 A 
ATOM     60  C   UNL A   1      38.651  34.244  38.740  1.00  0.00     0.198 A 
ATOM     61  F   UNL A   1      38.184  32.196  37.682  1.00  0.00    -0.203 F 
ATOM     62  F   UNL A   1      40.795  36.987  37.733  1.00  0.00    -0.200 F 
ATOM     63  C   UNL A   1      39.312  35.464  38.761  1.00  0.00     0.200 A 
ATOM     64  F   UNL A   1      37.851  33.900  39.759  1.00  0.00    -0.200 F 
ATOM     65  F   UNL A   1      39.166  36.289  39.807  1.00  0.00    -0.200 F 
ENDBRANCH  41  55
BRANCH  42  66
ATOM     66  C   UNL A   1      40.602  28.052  28.405  1.00  0.00     0.064 A 
ATOM     67  C   UNL A   1      40.033  26.775  28.301  1.00  0.00     0.173 A 
ATOM     68  C   UNL A   1      41.355  28.522  27.319  1.00  0.00     0.173 A 
ATOM     69  F   UNL A   1      39.321  26.275  29.322  1.00  0.00    -0.203 F 
ATOM     70  C   UNL A   1      40.232  25.988  27.169  1.00  0.00     0.198 A 
ATOM     71  C   UNL A   1      41.530  27.743  26.177  1.00  0.00     0.198 A 
ATOM     72  F   UNL A   1      41.913  29.740  27.366  1.00  0.00    -0.203 F 
ATOM     73  F   UNL A   1      39.716  24.752  27.116  1.00  0.00    -0.200 F 
ATOM     74  C   UNL A   1      40.977  26.474  26.105  1.00  0.00     0.200 A 
ATOM     75  F   UNL A   1      42.242  28.222  25.146  1.00  0.00    -0.200 F 
ATOM     76  F   UNL A   1      41.168  25.716  25.017  1.00  0.00    -0.200 F 
ENDBRANCH  42  66
BRANCH  54  77
ATOM     77  C   UNL A   1      43.799  28.191  34.591  1.00  0.00     0.064 A 
ATOM     78  C   UNL A   1      43.536  26.954  35.194  1.00  0.00     0.173 A 
ATOM     79  C   UNL A   1      45.132  28.616  34.502  1.00  0.00     0.173 A 
ATOM     80  F   UNL A   1      42.274  26.514  35.314  1.00  0.00    -0.203 F 
ATOM     81  C   UNL A   1      44.572  26.177  35.706  1.00  0.00     0.198 A 
ATOM     82  C   UNL A   1      46.167  27.825  34.992  1.00  0.00     0.198 A 
ATOM     83  F   UNL A   1      45.431  29.790  33.927  1.00  0.00    -0.203 F 
ATOM     84  F   UNL A   1      44.298  25.014  36.312  1.00  0.00    -0.200 F 
ATOM     85  C   UNL A   1      45.886  26.610  35.597  1.00  0.00     0.200 A 
ATOM     86  F   UNL A   1      47.436  28.239  34.876  1.00  0.00    -0.200 F 
ATOM     87  F   UNL A   1      46.883  25.856  36.082  1.00  0.00    -0.200 F 
ENDBRANCH  54  77
ENDBRANCH  28  29
ENDBRANCH  20  23
ENDBRANCH  18  19
ENDBRANCH  17  18
ENDBRANCH   1  17
TORSDOF 14
ENDMDL
