MODEL 1
REMARK VINA RESULT:     -10.1      0.000      0.000
REMARK SMILES O=C(CNC(=O)CNC(=O)OCc1ccccc1)NCCCCNC(=O)c1ccc(-c2c3nc(c(-c4c(F)c(F)c(F)c(F)c4F)c4ccc([nH]4)c(-c4c(F)c(F)c(F)c(F)c4F)c4nc(c(-c5c(F)c(F)c(F)c(F)c5F)c5ccc2[nH]5)C=C4)C=C3)cc1
REMARK SMILES IDX 1 1 2 2 19 3 3 5 4 6 5 7 6 9 7 10 8 11 9 12 10 14 11 15
REMARK SMILES IDX 12 16 13 17 14 18 18 19 15 20 17 21 16 22 20 23 21 24 22 25
REMARK SMILES IDX 23 26 24 27 25 28 26 30 27 31 28 32 89 33 29 34 88 35 30 36
REMARK SMILES IDX 31 37 32 38 82 39 33 40 87 41 81 42 83 43 34 44 86 45 80 46
REMARK SMILES IDX 79 47 35 49 67 50 47 51 66 52 48 53 51 54 65 55 84 56 49 57
REMARK SMILES IDX 50 58 64 60 85 61 52 62 36 63 37 64 45 65 38 66 39 67 43 68
REMARK SMILES IDX 46 69 40 70 41 71 44 72 42 73 68 74 69 75 77 76 70 77 71 78
REMARK SMILES IDX 75 79 78 80 72 81 73 82 76 83 74 84 53 85 54 86 62 87 55 88
REMARK SMILES IDX 56 89 60 90 63 91 57 92 58 93 61 94 59 95
REMARK H PARENT 19 4 4 8 8 13 24 29 83 48 51 59
REMARK Flexibility Score: inf
ROOT
ATOM      1  O   UNL A   1      44.539  18.610  23.774  1.00  0.00    -0.273 OA
ATOM      2  C   UNL A   1      44.872  19.234  24.778  1.00  0.00     0.239 C 
ATOM      3  N   UNL A   1      44.135  19.237  25.944  1.00  0.00    -0.355 N 
ATOM      4  H   UNL A   1      44.519  19.659  26.747  1.00  0.00     0.163 HD
ENDROOT
BRANCH   2   5
ATOM      5  C   UNL A   1      46.210  19.989  24.840  1.00  0.00     0.216 C 
BRANCH   5   6
ATOM      6  N   UNL A   1      46.200  21.269  24.141  1.00  0.00    -0.346 N 
ATOM      7  C   UNL A   1      46.100  22.534  24.642  1.00  0.00     0.239 C 
ATOM      8  H   UNL A   1      46.276  21.212  23.161  1.00  0.00     0.164 HD
ATOM      9  O   UNL A   1      46.081  23.474  23.847  1.00  0.00    -0.273 OA
BRANCH   7  10
ATOM     10  C   UNL A   1      45.941  22.759  26.145  1.00  0.00     0.219 C 
BRANCH  10  11
ATOM     11  N   UNL A   1      44.586  23.207  26.398  1.00  0.00    -0.312 N 
ATOM     12  C   UNL A   1      44.213  24.439  26.833  1.00  0.00     0.407 C 
ATOM     13  H   UNL A   1      43.866  22.555  26.240  1.00  0.00     0.167 HD
ATOM     14  O   UNL A   1      43.079  24.636  27.252  1.00  0.00    -0.225 OA
BRANCH  12  15
ATOM     15  O   UNL A   1      45.212  25.349  26.786  1.00  0.00    -0.445 OA
BRANCH  15  16
ATOM     16  C   UNL A   1      45.107  26.330  25.745  1.00  0.00     0.270 C 
BRANCH  16  17
ATOM     17  C   UNL A   1      44.525  27.638  26.221  1.00  0.00    -0.011 A 
ATOM     18  C   UNL A   1      45.293  28.546  26.960  1.00  0.00     0.007 A 
ATOM     19  C   UNL A   1      43.200  27.970  25.900  1.00  0.00     0.007 A 
ATOM     20  C   UNL A   1      44.741  29.761  27.372  1.00  0.00     0.000 A 
ATOM     21  C   UNL A   1      42.654  29.186  26.306  1.00  0.00     0.000 A 
ATOM     22  C   UNL A   1      43.424  30.081  27.044  1.00  0.00     0.000 A 
ENDBRANCH  16  17
ENDBRANCH  15  16
ENDBRANCH  12  15
ENDBRANCH  10  11
ENDBRANCH   7  10
ENDBRANCH   5   6
ENDBRANCH   2   5
BRANCH   3  23
ATOM     23  C   UNL A   1      42.814  18.643  26.031  1.00  0.00     0.116 C 
BRANCH  23  24
ATOM     24  C   UNL A   1      41.682  19.664  26.151  1.00  0.00     0.023 C 
BRANCH  24  25
ATOM     25  C   UNL A   1      41.640  20.449  27.463  1.00  0.00     0.023 C 
BRANCH  25  26
ATOM     26  C   UNL A   1      41.071  21.861  27.398  1.00  0.00     0.116 C 
BRANCH  26  27
ATOM     27  N   UNL A   1      39.885  21.979  26.569  1.00  0.00    -0.352 N 
ATOM     28  C   UNL A   1      39.048  23.056  26.386  1.00  0.00     0.251 C 
ATOM     29  H   UNL A   1      39.643  21.169  26.063  1.00  0.00     0.163 HD
ATOM     30  O   UNL A   1      38.033  22.932  25.705  1.00  0.00    -0.269 OA
BRANCH  28  31
ATOM     31  C   UNL A   1      39.335  24.359  27.036  1.00  0.00     0.039 A 
ATOM     32  C   UNL A   1      38.947  24.540  28.367  1.00  0.00     0.014 A 
ATOM     33  C   UNL A   1      39.970  25.399  26.354  1.00  0.00     0.014 A 
ATOM     34  C   UNL A   1      39.263  25.727  29.034  1.00  0.00     0.010 A 
ATOM     35  C   UNL A   1      40.349  26.553  27.038  1.00  0.00     0.010 A 
ATOM     36  C   UNL A   1      40.004  26.729  28.388  1.00  0.00    -0.014 A 
BRANCH  36  37
ATOM     37  C   UNL A   1      40.437  27.955  29.109  1.00  0.00     0.031 A 
ATOM     38  C   UNL A   1      41.823  28.052  29.684  1.00  0.00     0.074 A 
ATOM     39  C   UNL A   1      39.560  28.958  29.309  1.00  0.00     0.049 A 
ATOM     40  N   UNL A   1      42.354  29.000  30.415  1.00  0.00    -0.248 NA
ATOM     41  C   UNL A   1      42.726  26.920  29.423  1.00  0.00     0.031 C 
ATOM     42  C   UNL A   1      38.172  28.973  28.845  1.00  0.00     0.029 A 
ATOM     43  N   UNL A   1      39.701  30.155  29.969  1.00  0.00    -0.354 N 
ATOM     44  C   UNL A   1      43.642  28.574  30.712  1.00  0.00     0.074 A 
ATOM     45  C   UNL A   1      43.798  27.261  30.124  1.00  0.00     0.031 C 
ATOM     46  C   UNL A   1      37.594  30.125  29.221  1.00  0.00     0.029 A 
ATOM     47  C   UNL A   1      38.557  30.915  29.983  1.00  0.00     0.049 A 
ATOM     48  H   UNL A   1      40.543  30.442  30.391  1.00  0.00     0.167 HD
ATOM     49  C   UNL A   1      44.615  29.227  31.393  1.00  0.00     0.037 A 
ATOM     50  C   UNL A   1      38.306  32.108  30.556  1.00  0.00     0.037 A 
ATOM     51  C   UNL A   1      44.469  30.543  31.959  1.00  0.00     0.049 A 
ATOM     52  C   UNL A   1      39.402  32.812  31.309  1.00  0.00     0.074 A 
ATOM     53  C   UNL A   1      45.415  31.308  32.621  1.00  0.00     0.029 A 
ATOM     54  N   UNL A   1      43.302  31.292  31.930  1.00  0.00    -0.354 N 
ATOM     55  N   UNL A   1      40.634  32.424  31.530  1.00  0.00    -0.248 NA
ATOM     56  C   UNL A   1      39.073  34.123  31.887  1.00  0.00     0.031 C 
ATOM     57  C   UNL A   1      44.810  32.502  33.027  1.00  0.00     0.029 A 
ATOM     58  C   UNL A   1      43.499  32.501  32.577  1.00  0.00     0.049 A 
ATOM     59  H   UNL A   1      42.458  31.005  31.511  1.00  0.00     0.167 HD
ATOM     60  C   UNL A   1      41.234  33.451  32.248  1.00  0.00     0.074 A 
ATOM     61  C   UNL A   1      40.234  34.486  32.412  1.00  0.00     0.031 C 
ATOM     62  C   UNL A   1      42.499  33.527  32.727  1.00  0.00     0.037 A 
BRANCH  49  63
ATOM     63  C   UNL A   1      45.932  28.528  31.561  1.00  0.00     0.064 A 
ATOM     64  C   UNL A   1      46.125  27.557  32.556  1.00  0.00     0.173 A 
ATOM     65  C   UNL A   1      47.001  28.799  30.693  1.00  0.00     0.173 A 
ATOM     66  F   UNL A   1      45.138  27.267  33.417  1.00  0.00    -0.203 F 
ATOM     67  C   UNL A   1      47.347  26.904  32.693  1.00  0.00     0.198 A 
ATOM     68  C   UNL A   1      48.213  28.123  30.816  1.00  0.00     0.198 A 
ATOM     69  F   UNL A   1      46.868  29.712  29.721  1.00  0.00    -0.203 F 
ATOM     70  F   UNL A   1      47.522  26.015  33.681  1.00  0.00    -0.200 F 
ATOM     71  C   UNL A   1      48.387  27.183  31.820  1.00  0.00     0.200 A 
ATOM     72  F   UNL A   1      49.213  28.384  29.962  1.00  0.00    -0.200 F 
ATOM     73  F   UNL A   1      49.560  26.549  31.949  1.00  0.00    -0.200 F 
ENDBRANCH  49  63
BRANCH  50  74
ATOM     74  C   UNL A   1      36.960  32.725  30.423  1.00  0.00     0.064 A 
ATOM     75  C   UNL A   1      36.612  33.453  29.277  1.00  0.00     0.173 A 
ATOM     76  C   UNL A   1      36.000  32.608  31.438  1.00  0.00     0.173 A 
ATOM     77  F   UNL A   1      37.506  33.613  28.289  1.00  0.00    -0.203 F 
ATOM     78  C   UNL A   1      35.362  34.056  29.159  1.00  0.00     0.198 A 
ATOM     79  C   UNL A   1      34.740  33.188  31.307  1.00  0.00     0.198 A 
ATOM     80  F   UNL A   1      36.284  31.921  32.555  1.00  0.00    -0.203 F 
ATOM     81  F   UNL A   1      35.072  34.785  28.072  1.00  0.00    -0.200 F 
ATOM     82  C   UNL A   1      34.426  33.919  30.172  1.00  0.00     0.200 A 
ATOM     83  F   UNL A   1      33.834  33.044  32.283  1.00  0.00    -0.200 F 
ATOM     84  F   UNL A   1      33.222  34.497  30.057  1.00  0.00    -0.200 F 
ENDBRANCH  50  74
BRANCH  62  85
ATOM     85  C   UNL A   1      42.889  34.786  33.446  1.00  0.00     0.064 A 
ATOM     86  C   UNL A   1      43.367  35.909  32.756  1.00  0.00     0.173 A 
ATOM     87  C   UNL A   1      42.744  34.882  34.838  1.00  0.00     0.173 A 
ATOM     88  F   UNL A   1      43.539  35.862  31.427  1.00  0.00    -0.203 F 
ATOM     89  C   UNL A   1      43.709  37.074  33.437  1.00  0.00     0.198 A 
ATOM     90  C   UNL A   1      43.059  36.057  35.512  1.00  0.00     0.198 A 
ATOM     91  F   UNL A   1      42.284  33.837  35.544  1.00  0.00    -0.203 F 
ATOM     92  F   UNL A   1      44.206  38.121  32.764  1.00  0.00    -0.200 F 
ATOM     93  C   UNL A   1      43.547  37.150  34.813  1.00  0.00     0.200 A 
ATOM     94  F   UNL A   1      42.891  36.133  36.840  1.00  0.00    -0.200 F 
ATOM     95  F   UNL A   1      43.869  38.276  35.465  1.00  0.00    -0.200 F 
ENDBRANCH  62  85
ENDBRANCH  36  37
ENDBRANCH  28  31
ENDBRANCH  26  27
ENDBRANCH  25  26
ENDBRANCH  24  25
ENDBRANCH  23  24
ENDBRANCH   3  23
TORSDOF 17
ENDMDL
MODEL 2
REMARK VINA RESULT:      -9.9      5.071      9.797
REMARK SMILES O=C(CNC(=O)CNC(=O)OCc1ccccc1)NCCCCNC(=O)c1ccc(-c2c3nc(c(-c4c(F)c(F)c(F)c(F)c4F)c4ccc([nH]4)c(-c4c(F)c(F)c(F)c(F)c4F)c4nc(c(-c5c(F)c(F)c(F)c(F)c5F)c5ccc2[nH]5)C=C4)C=C3)cc1
REMARK SMILES IDX 1 1 2 2 19 3 3 5 4 6 5 7 6 9 7 10 8 11 9 12 10 14 11 15
REMARK SMILES IDX 12 16 13 17 14 18 18 19 15 20 17 21 16 22 20 23 21 24 22 25
REMARK SMILES IDX 23 26 24 27 25 28 26 30 27 31 28 32 89 33 29 34 88 35 30 36
REMARK SMILES IDX 31 37 32 38 82 39 33 40 87 41 81 42 83 43 34 44 86 45 80 46
REMARK SMILES IDX 79 47 35 49 67 50 47 51 66 52 48 53 51 54 65 55 84 56 49 57
REMARK SMILES IDX 50 58 64 60 85 61 52 62 36 63 37 64 45 65 38 66 39 67 43 68
REMARK SMILES IDX 46 69 40 70 41 71 44 72 42 73 68 74 69 75 77 76 70 77 71 78
REMARK SMILES IDX 75 79 78 80 72 81 73 82 76 83 74 84 53 85 54 86 62 87 55 88
REMARK SMILES IDX 56 89 60 90 63 91 57 92 58 93 61 94 59 95
REMARK H PARENT 19 4 4 8 8 13 24 29 83 48 51 59
REMARK Flexibility Score: inf
ROOT
ATOM      1  O   UNL A   1      34.395  28.574  25.767  1.00  0.00    -0.273 OA
ATOM      2  C   UNL A   1      33.457  27.845  26.075  1.00  0.00     0.239 C 
ATOM      3  N   UNL A   1      32.301  28.311  26.667  1.00  0.00    -0.355 N 
ATOM      4  H   UNL A   1      31.543  27.693  26.778  1.00  0.00     0.163 HD
ENDROOT
BRANCH   2   5
ATOM      5  C   UNL A   1      33.464  26.348  25.728  1.00  0.00     0.216 C 
BRANCH   5   6
ATOM      6  N   UNL A   1      33.890  26.059  24.363  1.00  0.00    -0.346 N 
ATOM      7  C   UNL A   1      33.309  25.264  23.419  1.00  0.00     0.239 C 
ATOM      8  H   UNL A   1      34.723  26.503  24.081  1.00  0.00     0.164 HD
ATOM      9  O   UNL A   1      33.874  25.145  22.331  1.00  0.00    -0.273 OA
BRANCH   7  10
ATOM     10  C   UNL A   1      32.031  24.491  23.741  1.00  0.00     0.219 C 
BRANCH  10  11
ATOM     11  N   UNL A   1      31.853  23.464  22.732  1.00  0.00    -0.312 N 
ATOM     12  C   UNL A   1      32.100  22.136  22.882  1.00  0.00     0.407 C 
ATOM     13  H   UNL A   1      31.522  23.758  21.854  1.00  0.00     0.167 HD
ATOM     14  O   UNL A   1      32.158  21.398  21.907  1.00  0.00    -0.225 OA
BRANCH  12  15
ATOM     15  O   UNL A   1      32.306  21.772  24.168  1.00  0.00    -0.445 OA
BRANCH  15  16
ATOM     16  C   UNL A   1      33.539  21.085  24.426  1.00  0.00     0.270 C 
BRANCH  16  17
ATOM     17  C   UNL A   1      34.695  22.019  24.679  1.00  0.00    -0.011 A 
ATOM     18  C   UNL A   1      35.615  22.324  23.669  1.00  0.00     0.007 A 
ATOM     19  C   UNL A   1      34.845  22.618  25.939  1.00  0.00     0.007 A 
ATOM     20  C   UNL A   1      36.665  23.209  23.917  1.00  0.00     0.000 A 
ATOM     21  C   UNL A   1      35.890  23.507  26.183  1.00  0.00     0.000 A 
ATOM     22  C   UNL A   1      36.802  23.801  25.173  1.00  0.00     0.000 A 
ENDBRANCH  16  17
ENDBRANCH  15  16
ENDBRANCH  12  15
ENDBRANCH  10  11
ENDBRANCH   7  10
ENDBRANCH   5   6
ENDBRANCH   2   5
BRANCH   3  23
ATOM     23  C   UNL A   1      32.162  29.678  27.133  1.00  0.00     0.116 C 
BRANCH  23  24
ATOM     24  C   UNL A   1      31.640  30.645  26.070  1.00  0.00     0.023 C 
BRANCH  24  25
ATOM     25  C   UNL A   1      31.405  32.080  26.543  1.00  0.00     0.023 C 
BRANCH  25  26
ATOM     26  C   UNL A   1      32.575  32.776  27.225  1.00  0.00     0.116 C 
BRANCH  26  27
ATOM     27  N   UNL A   1      32.301  34.148  27.611  1.00  0.00    -0.352 N 
ATOM     28  C   UNL A   1      32.943  34.945  28.531  1.00  0.00     0.251 C 
ATOM     29  H   UNL A   1      31.543  34.572  27.145  1.00  0.00     0.163 HD
ATOM     30  O   UNL A   1      32.502  36.063  28.784  1.00  0.00    -0.269 OA
BRANCH  28  31
ATOM     31  C   UNL A   1      34.141  34.454  29.254  1.00  0.00     0.039 A 
ATOM     32  C   UNL A   1      33.964  33.825  30.491  1.00  0.00     0.014 A 
ATOM     33  C   UNL A   1      35.430  34.609  28.737  1.00  0.00     0.014 A 
ATOM     34  C   UNL A   1      35.063  33.287  31.168  1.00  0.00     0.010 A 
ATOM     35  C   UNL A   1      36.515  34.010  29.376  1.00  0.00     0.010 A 
ATOM     36  C   UNL A   1      36.344  33.338  30.596  1.00  0.00    -0.014 A 
BRANCH  36  37
ATOM     37  C   UNL A   1      37.508  32.684  31.251  1.00  0.00     0.031 A 
ATOM     38  C   UNL A   1      38.216  31.540  30.580  1.00  0.00     0.074 A 
ATOM     39  C   UNL A   1      37.886  33.073  32.485  1.00  0.00     0.049 A 
ATOM     40  N   UNL A   1      39.192  30.791  31.029  1.00  0.00    -0.248 NA
ATOM     41  C   UNL A   1      37.750  31.173  29.234  1.00  0.00     0.031 C 
ATOM     42  C   UNL A   1      37.256  34.137  33.266  1.00  0.00     0.029 A 
ATOM     43  N   UNL A   1      38.885  32.607  33.305  1.00  0.00    -0.354 N 
ATOM     44  C   UNL A   1      39.445  29.859  30.031  1.00  0.00     0.074 A 
ATOM     45  C   UNL A   1      38.489  30.105  28.973  1.00  0.00     0.031 C 
ATOM     46  C   UNL A   1      37.889  34.254  34.444  1.00  0.00     0.029 A 
ATOM     47  C   UNL A   1      38.946  33.249  34.518  1.00  0.00     0.049 A 
ATOM     48  H   UNL A   1      39.499  31.882  33.048  1.00  0.00     0.167 HD
ATOM     49  C   UNL A   1      40.402  28.900  29.989  1.00  0.00     0.037 A 
ATOM     50  C   UNL A   1      39.755  33.044  35.576  1.00  0.00     0.037 A 
ATOM     51  C   UNL A   1      41.368  28.669  31.031  1.00  0.00     0.049 A 
ATOM     52  C   UNL A   1      40.807  31.972  35.506  1.00  0.00     0.074 A 
ATOM     53  C   UNL A   1      42.409  27.756  31.056  1.00  0.00     0.029 A 
ATOM     54  N   UNL A   1      41.415  29.358  32.234  1.00  0.00    -0.354 N 
ATOM     55  N   UNL A   1      41.074  31.137  34.531  1.00  0.00    -0.248 NA
ATOM     56  C   UNL A   1      41.675  31.816  36.682  1.00  0.00     0.031 C 
ATOM     57  C   UNL A   1      43.060  27.864  32.290  1.00  0.00     0.029 A 
ATOM     58  C   UNL A   1      42.454  28.878  33.015  1.00  0.00     0.049 A 
ATOM     59  H   UNL A   1      40.799  30.081  32.494  1.00  0.00     0.167 HD
ATOM     60  C   UNL A   1      42.154  30.379  34.964  1.00  0.00     0.074 A 
ATOM     61  C   UNL A   1      42.502  30.861  36.284  1.00  0.00     0.031 C 
ATOM     62  C   UNL A   1      42.796  29.372  34.323  1.00  0.00     0.037 A 
BRANCH  49  63
ATOM     63  C   UNL A   1      40.454  28.026  28.771  1.00  0.00     0.064 A 
ATOM     64  C   UNL A   1      41.219  28.378  27.649  1.00  0.00     0.173 A 
ATOM     65  C   UNL A   1      39.766  26.803  28.738  1.00  0.00     0.173 A 
ATOM     66  F   UNL A   1      41.889  29.540  27.625  1.00  0.00    -0.203 F 
ATOM     67  C   UNL A   1      41.271  27.552  26.528  1.00  0.00     0.198 A 
ATOM     68  C   UNL A   1      39.844  25.967  27.627  1.00  0.00     0.198 A 
ATOM     69  F   UNL A   1      39.025  26.415  29.786  1.00  0.00    -0.203 F 
ATOM     70  F   UNL A   1      41.972  27.932  25.450  1.00  0.00    -0.200 F 
ATOM     71  C   UNL A   1      40.590  26.346  26.521  1.00  0.00     0.200 A 
ATOM     72  F   UNL A   1      39.195  24.794  27.626  1.00  0.00    -0.200 F 
ATOM     73  F   UNL A   1      40.647  25.549  25.445  1.00  0.00    -0.200 F 
ENDBRANCH  49  63
BRANCH  50  74
ATOM     74  C   UNL A   1      39.612  33.889  36.791  1.00  0.00     0.064 A 
ATOM     75  C   UNL A   1      38.826  33.468  37.872  1.00  0.00     0.173 A 
ATOM     76  C   UNL A   1      40.248  35.135  36.892  1.00  0.00     0.173 A 
ATOM     77  F   UNL A   1      38.178  32.295  37.812  1.00  0.00    -0.203 F 
ATOM     78  C   UNL A   1      38.667  34.269  39.001  1.00  0.00     0.198 A 
ATOM     79  C   UNL A   1      40.111  35.922  38.033  1.00  0.00     0.198 A 
ATOM     80  F   UNL A   1      41.012  35.583  35.884  1.00  0.00    -0.203 F 
ATOM     81  F   UNL A   1      37.873  33.862  40.001  1.00  0.00    -0.200 F 
ATOM     82  C   UNL A   1      39.313  35.492  39.083  1.00  0.00     0.200 A 
ATOM     83  F   UNL A   1      40.746  37.099  38.113  1.00  0.00    -0.200 F 
ATOM     84  F   UNL A   1      39.162  36.261  40.170  1.00  0.00    -0.200 F 
ENDBRANCH  50  74
BRANCH  62  85
ATOM     85  C   UNL A   1      43.967  28.745  35.026  1.00  0.00     0.064 A 
ATOM     86  C   UNL A   1      43.801  27.680  35.922  1.00  0.00     0.173 A 
ATOM     87  C   UNL A   1      45.271  29.191  34.767  1.00  0.00     0.173 A 
ATOM     88  F   UNL A   1      42.573  27.228  36.214  1.00  0.00    -0.203 F 
ATOM     89  C   UNL A   1      44.899  27.100  36.552  1.00  0.00     0.198 A 
ATOM     90  C   UNL A   1      46.368  28.591  35.377  1.00  0.00     0.198 A 
ATOM     91  F   UNL A   1      45.483  30.204  33.913  1.00  0.00    -0.203 F 
ATOM     92  F   UNL A   1      44.716  26.112  37.439  1.00  0.00    -0.200 F 
ATOM     93  C   UNL A   1      46.181  27.550  36.274  1.00  0.00     0.200 A 
ATOM     94  F   UNL A   1      47.607  29.019  35.098  1.00  0.00    -0.200 F 
ATOM     95  F   UNL A   1      47.237  26.985  36.876  1.00  0.00    -0.200 F 
ENDBRANCH  62  85
ENDBRANCH  36  37
ENDBRANCH  28  31
ENDBRANCH  26  27
ENDBRANCH  25  26
ENDBRANCH  24  25
ENDBRANCH  23  24
ENDBRANCH   3  23
TORSDOF 17
ENDMDL
MODEL 3
REMARK VINA RESULT:      -9.8      5.548     10.321
REMARK SMILES O=C(CNC(=O)CNC(=O)OCc1ccccc1)NCCCCNC(=O)c1ccc(-c2c3nc(c(-c4c(F)c(F)c(F)c(F)c4F)c4ccc([nH]4)c(-c4c(F)c(F)c(F)c(F)c4F)c4nc(c(-c5c(F)c(F)c(F)c(F)c5F)c5ccc2[nH]5)C=C4)C=C3)cc1
REMARK SMILES IDX 1 1 2 2 19 3 3 5 4 6 5 7 6 9 7 10 8 11 9 12 10 14 11 15
REMARK SMILES IDX 12 16 13 17 14 18 18 19 15 20 17 21 16 22 20 23 21 24 22 25
REMARK SMILES IDX 23 26 24 27 25 28 26 30 27 31 28 32 89 33 29 34 88 35 30 36
REMARK SMILES IDX 31 37 32 38 82 39 33 40 87 41 81 42 83 43 34 44 86 45 80 46
REMARK SMILES IDX 79 47 35 49 67 50 47 51 66 52 48 53 51 54 65 55 84 56 49 57
REMARK SMILES IDX 50 58 64 60 85 61 52 62 36 63 37 64 45 65 38 66 39 67 43 68
REMARK SMILES IDX 46 69 40 70 41 71 44 72 42 73 68 74 69 75 77 76 70 77 71 78
REMARK SMILES IDX 75 79 78 80 72 81 73 82 76 83 74 84 53 85 54 86 62 87 55 88
REMARK SMILES IDX 56 89 60 90 63 91 57 92 58 93 61 94 59 95
REMARK H PARENT 19 4 4 8 8 13 24 29 83 48 51 59
REMARK Flexibility Score: inf
ROOT
ATOM      1  O   UNL A   1      32.723  26.598  25.590  1.00  0.00    -0.273 OA
ATOM      2  C   UNL A   1      31.547  26.788  25.887  1.00  0.00     0.239 C 
ATOM      3  N   UNL A   1      31.068  28.002  26.335  1.00  0.00    -0.355 N 
ATOM      4  H   UNL A   1      30.096  28.119  26.440  1.00  0.00     0.163 HD
ENDROOT
BRANCH   2   5
ATOM      5  C   UNL A   1      30.486  25.694  25.683  1.00  0.00     0.216 C 
BRANCH   5   6
ATOM      6  N   UNL A   1      31.032  24.342  25.631  1.00  0.00    -0.346 N 
ATOM      7  C   UNL A   1      31.403  23.594  24.553  1.00  0.00     0.239 C 
ATOM      8  H   UNL A   1      31.150  23.905  26.505  1.00  0.00     0.164 HD
ATOM      9  O   UNL A   1      31.814  22.450  24.752  1.00  0.00    -0.273 OA
BRANCH   7  10
ATOM     10  C   UNL A   1      31.238  24.145  23.137  1.00  0.00     0.219 C 
BRANCH  10  11
ATOM     11  N   UNL A   1      32.473  24.801  22.756  1.00  0.00    -0.312 N 
ATOM     12  C   UNL A   1      32.588  25.998  22.122  1.00  0.00     0.407 C 
ATOM     13  H   UNL A   1      33.311  24.334  22.978  1.00  0.00     0.167 HD
ATOM     14  O   UNL A   1      33.653  26.342  21.626  1.00  0.00    -0.225 OA
BRANCH  12  15
ATOM     15  O   UNL A   1      31.429  26.692  22.076  1.00  0.00    -0.445 OA
BRANCH  15  16
ATOM     16  C   UNL A   1      31.482  28.022  22.613  1.00  0.00     0.270 C 
BRANCH  16  17
ATOM     17  C   UNL A   1      30.152  28.731  22.569  1.00  0.00    -0.011 A 
ATOM     18  C   UNL A   1      30.006  29.954  21.903  1.00  0.00     0.007 A 
ATOM     19  C   UNL A   1      29.031  28.151  23.180  1.00  0.00     0.007 A 
ATOM     20  C   UNL A   1      28.760  30.584  21.854  1.00  0.00     0.000 A 
ATOM     21  C   UNL A   1      27.787  28.778  23.125  1.00  0.00     0.000 A 
ATOM     22  C   UNL A   1      27.653  29.995  22.463  1.00  0.00     0.000 A 
ENDBRANCH  16  17
ENDBRANCH  15  16
ENDBRANCH  12  15
ENDBRANCH  10  11
ENDBRANCH   7  10
ENDBRANCH   5   6
ENDBRANCH   2   5
BRANCH   3  23
ATOM     23  C   UNL A   1      31.944  29.113  26.657  1.00  0.00     0.116 C 
BRANCH  23  24
ATOM     24  C   UNL A   1      31.736  30.343  25.773  1.00  0.00     0.023 C 
BRANCH  24  25
ATOM     25  C   UNL A   1      31.439  31.646  26.515  1.00  0.00     0.023 C 
BRANCH  25  26
ATOM     26  C   UNL A   1      32.634  32.392  27.093  1.00  0.00     0.116 C 
BRANCH  26  27
ATOM     27  N   UNL A   1      32.351  33.770  27.452  1.00  0.00    -0.352 N 
ATOM     28  C   UNL A   1      32.974  34.582  28.372  1.00  0.00     0.251 C 
ATOM     29  H   UNL A   1      31.603  34.186  26.965  1.00  0.00     0.163 HD
ATOM     30  O   UNL A   1      32.528  35.703  28.599  1.00  0.00    -0.269 OA
BRANCH  28  31
ATOM     31  C   UNL A   1      34.159  34.103  29.127  1.00  0.00     0.039 A 
ATOM     32  C   UNL A   1      33.952  33.321  30.268  1.00  0.00     0.014 A 
ATOM     33  C   UNL A   1      35.461  34.416  28.731  1.00  0.00     0.014 A 
ATOM     34  C   UNL A   1      35.045  32.794  30.964  1.00  0.00     0.010 A 
ATOM     35  C   UNL A   1      36.548  33.832  29.381  1.00  0.00     0.010 A 
ATOM     36  C   UNL A   1      36.352  33.010  30.502  1.00  0.00    -0.014 A 
BRANCH  36  37
ATOM     37  C   UNL A   1      37.521  32.376  31.167  1.00  0.00     0.031 A 
ATOM     38  C   UNL A   1      38.258  31.248  30.501  1.00  0.00     0.074 A 
ATOM     39  C   UNL A   1      37.878  32.768  32.407  1.00  0.00     0.049 A 
ATOM     40  N   UNL A   1      39.243  30.515  30.959  1.00  0.00    -0.248 NA
ATOM     41  C   UNL A   1      37.814  30.877  29.149  1.00  0.00     0.031 C 
ATOM     42  C   UNL A   1      37.220  33.817  33.184  1.00  0.00     0.029 A 
ATOM     43  N   UNL A   1      38.876  32.317  33.237  1.00  0.00    -0.354 N 
ATOM     44  C   UNL A   1      39.524  29.591  29.960  1.00  0.00     0.074 A 
ATOM     45  C   UNL A   1      38.575  29.823  28.893  1.00  0.00     0.031 C 
ATOM     46  C   UNL A   1      37.837  33.941  34.370  1.00  0.00     0.029 A 
ATOM     47  C   UNL A   1      38.912  32.956  34.452  1.00  0.00     0.049 A 
ATOM     48  H   UNL A   1      39.507  31.604  32.984  1.00  0.00     0.167 HD
ATOM     49  C   UNL A   1      40.499  28.650  29.926  1.00  0.00     0.037 A 
ATOM     50  C   UNL A   1      39.712  32.763  35.519  1.00  0.00     0.037 A 
ATOM     51  C   UNL A   1      41.458  28.434  30.978  1.00  0.00     0.049 A 
ATOM     52  C   UNL A   1      40.785  31.710  35.457  1.00  0.00     0.074 A 
ATOM     53  C   UNL A   1      42.515  27.540  31.011  1.00  0.00     0.029 A 
ATOM     54  N   UNL A   1      41.478  29.119  32.183  1.00  0.00    -0.354 N 
ATOM     55  N   UNL A   1      41.079  30.884  34.483  1.00  0.00    -0.248 NA
ATOM     56  C   UNL A   1      41.643  31.567  36.642  1.00  0.00     0.031 C 
ATOM     57  C   UNL A   1      43.150  27.656  32.253  1.00  0.00     0.029 A 
ATOM     58  C   UNL A   1      42.518  28.656  32.975  1.00  0.00     0.049 A 
ATOM     59  H   UNL A   1      40.846  29.830  32.439  1.00  0.00     0.167 HD
ATOM     60  C   UNL A   1      42.167  30.144  34.925  1.00  0.00     0.074 A 
ATOM     61  C   UNL A   1      42.492  30.629  36.250  1.00  0.00     0.031 C 
ATOM     62  C   UNL A   1      42.836  29.152  34.288  1.00  0.00     0.037 A 
BRANCH  49  63
ATOM     63  C   UNL A   1      40.581  27.782  28.705  1.00  0.00     0.064 A 
ATOM     64  C   UNL A   1      41.376  28.137  27.605  1.00  0.00     0.173 A 
ATOM     65  C   UNL A   1      39.891  26.561  28.648  1.00  0.00     0.173 A 
ATOM     66  F   UNL A   1      42.049  29.298  27.605  1.00  0.00    -0.203 F 
ATOM     67  C   UNL A   1      41.456  27.316  26.483  1.00  0.00     0.198 A 
ATOM     68  C   UNL A   1      39.996  25.730  27.536  1.00  0.00     0.198 A 
ATOM     69  F   UNL A   1      39.122  26.170  29.675  1.00  0.00    -0.203 F 
ATOM     70  F   UNL A   1      42.185  27.699  25.425  1.00  0.00    -0.200 F 
ATOM     71  C   UNL A   1      40.771  26.111  26.452  1.00  0.00     0.200 A 
ATOM     72  F   UNL A   1      39.344  24.558  27.513  1.00  0.00    -0.200 F 
ATOM     73  F   UNL A   1      40.855  25.319  25.375  1.00  0.00    -0.200 F 
ENDBRANCH  49  63
BRANCH  50  74
ATOM     74  C   UNL A   1      39.540  33.601  36.735  1.00  0.00     0.064 A 
ATOM     75  C   UNL A   1      40.195  34.834  36.857  1.00  0.00     0.173 A 
ATOM     76  C   UNL A   1      38.728  33.184  37.799  1.00  0.00     0.173 A 
ATOM     77  F   UNL A   1      41.002  35.263  35.875  1.00  0.00    -0.203 F 
ATOM     78  C   UNL A   1      40.060  35.610  38.006  1.00  0.00     0.198 A 
ATOM     79  C   UNL A   1      38.571  33.974  38.936  1.00  0.00     0.198 A 
ATOM     80  F   UNL A   1      38.079  32.012  37.730  1.00  0.00    -0.203 F 
ATOM     81  F   UNL A   1      40.733  36.763  38.115  1.00  0.00    -0.200 F 
ATOM     82  C   UNL A   1      39.244  35.182  39.042  1.00  0.00     0.200 A 
ATOM     83  F   UNL A   1      37.773  33.563  39.930  1.00  0.00    -0.200 F 
ATOM     84  F   UNL A   1      39.111  35.930  40.146  1.00  0.00    -0.200 F 
ENDBRANCH  50  74
BRANCH  62  85
ATOM     85  C   UNL A   1      44.009  28.544  35.002  1.00  0.00     0.064 A 
ATOM     86  C   UNL A   1      43.865  27.427  35.836  1.00  0.00     0.173 A 
ATOM     87  C   UNL A   1      45.299  29.064  34.816  1.00  0.00     0.173 A 
ATOM     88  F   UNL A   1      42.650  26.903  36.058  1.00  0.00    -0.203 F 
ATOM     89  C   UNL A   1      44.966  26.866  36.477  1.00  0.00     0.198 A 
ATOM     90  C   UNL A   1      46.401  28.484  35.436  1.00  0.00     0.198 A 
ATOM     91  F   UNL A   1      45.491  30.129  34.022  1.00  0.00    -0.203 F 
ATOM     92  F   UNL A   1      44.800  25.826  37.305  1.00  0.00    -0.200 F 
ATOM     93  C   UNL A   1      46.234  27.390  36.270  1.00  0.00     0.200 A 
ATOM     94  F   UNL A   1      47.627  28.983  35.225  1.00  0.00    -0.200 F 
ATOM     95  F   UNL A   1      47.294  26.844  36.883  1.00  0.00    -0.200 F 
ENDBRANCH  62  85
ENDBRANCH  36  37
ENDBRANCH  28  31
ENDBRANCH  26  27
ENDBRANCH  25  26
ENDBRANCH  24  25
ENDBRANCH  23  24
ENDBRANCH   3  23
TORSDOF 17
ENDMDL
