MODEL 1
REMARK VINA RESULT:     -13.5      0.000      0.000
REMARK SMILES NC(=O)c1ccc(Oc2cccc(C(=O)NCCCCNC(=O)c3ccc(-c4c5nc(c(-c6c(F)c(F)c(F)c(F)c6F)c6ccc([nH]6)c(-c6c(F)c(F)c(F)c(F)c6F)c6nc(c(-c7c(F)c(F)c(F)c(F)c7F)c7ccc4[nH]7)C=C6)C=C5)cc3)c2)nc1
REMARK SMILES IDX 18 1 17 2 16 3 14 4 15 5 13 7 9 8 10 9 87 10 11 11 12 12
REMARK SMILES IDX 8 13 7 14 4 15 5 16 89 17 6 18 88 19 2 20 1 21 3 24 19 25
REMARK SMILES IDX 20 26 21 27 22 28 23 30 24 31 25 32 86 33 26 34 85 35 27 36
REMARK SMILES IDX 28 37 29 38 79 39 30 40 84 41 78 42 80 43 31 44 83 45 77 46
REMARK SMILES IDX 76 47 32 49 64 50 44 51 63 52 45 53 48 54 62 55 81 56 46 57
REMARK SMILES IDX 47 58 61 60 82 61 49 62 33 63 34 64 42 65 35 66 36 67 40 68
REMARK SMILES IDX 43 69 37 70 38 71 41 72 39 73 65 74 66 75 74 76 67 77 68 78
REMARK SMILES IDX 72 79 75 80 69 81 70 82 73 83 71 84 50 85 51 86 59 87 52 88
REMARK SMILES IDX 53 89 57 90 60 91 54 92 55 93 58 94 56 95
REMARK H PARENT 16 6 1 22 1 23 21 29 80 48 48 59
REMARK Flexibility Score: inf
ROOT
ATOM      1  C   UNL A   1      37.419  21.703  24.599  1.00  0.00     0.023 C 
ENDROOT
BRANCH   1   2
ATOM      2  C   UNL A   1      37.528  22.894  25.553  1.00  0.00     0.116 C 
BRANCH   2   3
ATOM      3  N   UNL A   1      36.425  22.888  26.493  1.00  0.00    -0.352 N 
ATOM      4  C   UNL A   1      35.063  22.824  26.344  1.00  0.00     0.251 C 
ATOM      5  O   UNL A   1      34.392  22.874  27.377  1.00  0.00    -0.269 OA
ATOM      6  H   UNL A   1      36.713  22.942  27.432  1.00  0.00     0.163 HD
BRANCH   4   7
ATOM      7  C   UNL A   1      34.368  22.620  25.040  1.00  0.00     0.043 A 
ATOM      8  C   UNL A   1      32.863  21.466  23.534  1.00  0.00     0.130 A 
ATOM      9  C   UNL A   1      32.893  22.532  22.641  1.00  0.00     0.047 A 
ATOM     10  C   UNL A   1      33.679  21.466  24.671  1.00  0.00     0.061 A 
ATOM     11  C   UNL A   1      33.677  23.643  22.931  1.00  0.00     0.005 A 
ATOM     12  C   UNL A   1      34.383  23.698  24.137  1.00  0.00     0.014 A 
BRANCH   8  13
ATOM     13  O   UNL A   1      32.019  20.415  23.263  1.00  0.00    -0.439 OA
BRANCH  13  14
ATOM     14  C   UNL A   1      32.424  19.145  23.640  1.00  0.00     0.219 A 
ATOM     15  C   UNL A   1      33.227  16.689  24.616  1.00  0.00     0.058 A 
ATOM     16  C   UNL A   1      33.437  16.988  23.272  1.00  0.00     0.021 A 
ATOM     17  C   UNL A   1      32.601  17.648  25.400  1.00  0.00     0.129 A 
ATOM     18  C   UNL A   1      33.050  18.240  22.782  1.00  0.00     0.070 A 
ATOM     19  N   UNL A   1      32.202  18.864  24.942  1.00  0.00    -0.221 NA
BRANCH  15  20
ATOM     20  C   UNL A   1      33.626  15.409  25.240  1.00  0.00     0.250 C 
ATOM     21  N   UNL A   1      32.630  14.593  25.703  1.00  0.00    -0.366 N 
ATOM     22  H   UNL A   1      32.855  13.733  26.124  1.00  0.00     0.159 HD
ATOM     23  H   UNL A   1      31.689  14.868  25.615  1.00  0.00     0.159 HD
ATOM     24  O   UNL A   1      34.798  15.075  25.310  1.00  0.00    -0.269 OA
ENDBRANCH  15  20
ENDBRANCH  13  14
ENDBRANCH   8  13
ENDBRANCH   4   7
ENDBRANCH   2   3
ENDBRANCH   1   2
BRANCH   1  25
ATOM     25  C   UNL A   1      37.975  20.403  25.186  1.00  0.00     0.023 C 
BRANCH  25  26
ATOM     26  C   UNL A   1      39.305  20.550  25.918  1.00  0.00     0.116 C 
BRANCH  26  27
ATOM     27  N   UNL A   1      40.110  19.337  25.901  1.00  0.00    -0.352 N 
ATOM     28  C   UNL A   1      41.466  19.211  26.092  1.00  0.00     0.251 C 
ATOM     29  H   UNL A   1      39.621  18.499  25.731  1.00  0.00     0.163 HD
ATOM     30  O   UNL A   1      42.030  18.136  25.937  1.00  0.00    -0.269 OA
BRANCH  28  31
ATOM     31  C   UNL A   1      42.240  20.416  26.444  1.00  0.00     0.039 A 
ATOM     32  C   UNL A   1      42.858  21.139  25.422  1.00  0.00     0.014 A 
ATOM     33  C   UNL A   1      42.259  20.876  27.763  1.00  0.00     0.014 A 
ATOM     34  C   UNL A   1      43.419  22.382  25.711  1.00  0.00     0.010 A 
ATOM     35  C   UNL A   1      42.753  22.145  28.033  1.00  0.00     0.010 A 
ATOM     36  C   UNL A   1      43.317  22.919  27.005  1.00  0.00    -0.014 A 
BRANCH  36  37
ATOM     37  C   UNL A   1      43.743  24.309  27.299  1.00  0.00     0.031 A 
ATOM     38  C   UNL A   1      42.742  25.321  27.770  1.00  0.00     0.074 A 
ATOM     39  C   UNL A   1      45.016  24.676  27.048  1.00  0.00     0.049 A 
ATOM     40  N   UNL A   1      42.896  26.605  27.975  1.00  0.00    -0.248 NA
ATOM     41  C   UNL A   1      41.378  24.832  28.022  1.00  0.00     0.031 C 
ATOM     42  C   UNL A   1      46.069  23.790  26.549  1.00  0.00     0.029 A 
ATOM     43  N   UNL A   1      45.637  25.894  27.162  1.00  0.00    -0.354 N 
ATOM     44  C   UNL A   1      41.651  27.076  28.365  1.00  0.00     0.074 A 
ATOM     45  C   UNL A   1      40.740  25.954  28.322  1.00  0.00     0.031 C 
ATOM     46  C   UNL A   1      47.208  24.489  26.419  1.00  0.00     0.029 A 
ATOM     47  C   UNL A   1      46.954  25.881  26.774  1.00  0.00     0.049 A 
ATOM     48  H   UNL A   1      45.180  26.703  27.491  1.00  0.00     0.167 HD
ATOM     49  C   UNL A   1      41.307  28.331  28.741  1.00  0.00     0.037 A 
ATOM     50  C   UNL A   1      47.851  26.882  26.694  1.00  0.00     0.037 A 
ATOM     51  C   UNL A   1      42.225  29.438  28.796  1.00  0.00     0.049 A 
ATOM     52  C   UNL A   1      47.428  28.275  27.080  1.00  0.00     0.074 A 
ATOM     53  C   UNL A   1      41.990  30.731  29.229  1.00  0.00     0.029 A 
ATOM     54  N   UNL A   1      43.551  29.388  28.391  1.00  0.00    -0.354 N 
ATOM     55  N   UNL A   1      46.268  28.695  27.522  1.00  0.00    -0.248 NA
ATOM     56  C   UNL A   1      48.440  29.332  26.951  1.00  0.00     0.031 C 
ATOM     57  C   UNL A   1      43.153  31.479  29.025  1.00  0.00     0.029 A 
ATOM     58  C   UNL A   1      44.134  30.639  28.525  1.00  0.00     0.049 A 
ATOM     59  H   UNL A   1      44.010  28.583  28.057  1.00  0.00     0.167 HD
ATOM     60  C   UNL A   1      46.417  30.057  27.748  1.00  0.00     0.074 A 
ATOM     61  C   UNL A   1      47.787  30.388  27.415  1.00  0.00     0.031 C 
ATOM     62  C   UNL A   1      45.500  30.953  28.189  1.00  0.00     0.037 A 
BRANCH  49  63
ATOM     63  C   UNL A   1      39.874  28.578  29.116  1.00  0.00     0.064 A 
ATOM     64  C   UNL A   1      39.401  28.359  30.418  1.00  0.00     0.173 A 
ATOM     65  C   UNL A   1      38.972  29.089  28.170  1.00  0.00     0.173 A 
ATOM     66  F   UNL A   1      40.219  27.863  31.359  1.00  0.00    -0.203 F 
ATOM     67  C   UNL A   1      38.074  28.616  30.753  1.00  0.00     0.198 A 
ATOM     68  C   UNL A   1      37.655  29.376  28.515  1.00  0.00     0.198 A 
ATOM     69  F   UNL A   1      39.373  29.321  26.909  1.00  0.00    -0.203 F 
ATOM     70  F   UNL A   1      37.633  28.353  31.990  1.00  0.00    -0.200 F 
ATOM     71  C   UNL A   1      37.205  29.133  29.803  1.00  0.00     0.200 A 
ATOM     72  F   UNL A   1      36.820  29.889  27.600  1.00  0.00    -0.200 F 
ATOM     73  F   UNL A   1      35.931  29.391  30.130  1.00  0.00    -0.200 F 
ENDBRANCH  49  63
BRANCH  50  74
ATOM     74  C   UNL A   1      49.239  26.609  26.231  1.00  0.00     0.064 A 
ATOM     75  C   UNL A   1      50.215  26.142  27.123  1.00  0.00     0.173 A 
ATOM     76  C   UNL A   1      49.624  26.827  24.900  1.00  0.00     0.173 A 
ATOM     77  F   UNL A   1      49.903  25.939  28.412  1.00  0.00    -0.203 F 
ATOM     78  C   UNL A   1      51.527  25.926  26.706  1.00  0.00     0.198 A 
ATOM     79  C   UNL A   1      50.928  26.579  24.477  1.00  0.00     0.198 A 
ATOM     80  F   UNL A   1      48.729  27.272  24.005  1.00  0.00    -0.203 F 
ATOM     81  F   UNL A   1      52.452  25.532  27.592  1.00  0.00    -0.200 F 
ATOM     82  C   UNL A   1      51.881  26.139  25.383  1.00  0.00     0.200 A 
ATOM     83  F   UNL A   1      51.261  26.771  23.194  1.00  0.00    -0.200 F 
ATOM     84  F   UNL A   1      53.143  25.930  24.982  1.00  0.00    -0.200 F 
ENDBRANCH  50  74
BRANCH  62  85
ATOM     85  C   UNL A   1      45.953  32.375  28.358  1.00  0.00     0.064 A 
ATOM     86  C   UNL A   1      46.543  32.824  29.550  1.00  0.00     0.173 A 
ATOM     87  C   UNL A   1      45.835  33.290  27.300  1.00  0.00     0.173 A 
ATOM     88  F   UNL A   1      46.665  31.993  30.596  1.00  0.00    -0.203 F 
ATOM     89  C   UNL A   1      46.973  34.140  29.684  1.00  0.00     0.198 A 
ATOM     90  C   UNL A   1      46.299  34.596  27.426  1.00  0.00     0.198 A 
ATOM     91  F   UNL A   1      45.286  32.912  26.136  1.00  0.00    -0.203 F 
ATOM     92  F   UNL A   1      47.487  34.560  30.849  1.00  0.00    -0.200 F 
ATOM     93  C   UNL A   1      46.860  35.024  28.620  1.00  0.00     0.200 A 
ATOM     94  F   UNL A   1      46.205  35.442  26.390  1.00  0.00    -0.200 F 
ATOM     95  F   UNL A   1      47.286  36.287  28.747  1.00  0.00    -0.200 F 
ENDBRANCH  62  85
ENDBRANCH  36  37
ENDBRANCH  28  31
ENDBRANCH  26  27
ENDBRANCH  25  26
ENDBRANCH   1  25
TORSDOF 14
ENDMDL
MODEL 2
REMARK VINA RESULT:     -13.4      0.945      1.890
REMARK SMILES NC(=O)c1ccc(Oc2cccc(C(=O)NCCCCNC(=O)c3ccc(-c4c5nc(c(-c6c(F)c(F)c(F)c(F)c6F)c6ccc([nH]6)c(-c6c(F)c(F)c(F)c(F)c6F)c6nc(c(-c7c(F)c(F)c(F)c(F)c7F)c7ccc4[nH]7)C=C6)C=C5)cc3)c2)nc1
REMARK SMILES IDX 18 1 17 2 16 3 14 4 15 5 13 7 9 8 10 9 87 10 11 11 12 12
REMARK SMILES IDX 8 13 7 14 4 15 5 16 89 17 6 18 88 19 2 20 1 21 3 24 19 25
REMARK SMILES IDX 20 26 21 27 22 28 23 30 24 31 25 32 86 33 26 34 85 35 27 36
REMARK SMILES IDX 28 37 29 38 79 39 30 40 84 41 78 42 80 43 31 44 83 45 77 46
REMARK SMILES IDX 76 47 32 49 64 50 44 51 63 52 45 53 48 54 62 55 81 56 46 57
REMARK SMILES IDX 47 58 61 60 82 61 49 62 33 63 34 64 42 65 35 66 36 67 40 68
REMARK SMILES IDX 43 69 37 70 38 71 41 72 39 73 65 74 66 75 74 76 67 77 68 78
REMARK SMILES IDX 72 79 75 80 69 81 70 82 73 83 71 84 50 85 51 86 59 87 52 88
REMARK SMILES IDX 53 89 57 90 60 91 54 92 55 93 58 94 56 95
REMARK H PARENT 16 6 1 22 1 23 21 29 80 48 48 59
REMARK Flexibility Score: inf
ROOT
ATOM      1  C   UNL A   1      37.284  22.059  24.460  1.00  0.00     0.023 C 
ENDROOT
BRANCH   1   2
ATOM      2  C   UNL A   1      36.892  23.122  25.488  1.00  0.00     0.116 C 
BRANCH   2   3
ATOM      3  N   UNL A   1      36.063  22.539  26.524  1.00  0.00    -0.352 N 
ATOM      4  C   UNL A   1      34.740  22.181  26.580  1.00  0.00     0.251 C 
ATOM      5  O   UNL A   1      34.336  21.728  27.653  1.00  0.00    -0.269 OA
ATOM      6  H   UNL A   1      36.551  22.363  27.360  1.00  0.00     0.163 HD
BRANCH   4   7
ATOM      7  C   UNL A   1      33.805  22.232  25.418  1.00  0.00     0.043 A 
ATOM      8  C   UNL A   1      32.501  21.247  23.632  1.00  0.00     0.130 A 
ATOM      9  C   UNL A   1      31.801  22.435  23.448  1.00  0.00     0.047 A 
ATOM     10  C   UNL A   1      33.568  21.181  24.535  1.00  0.00     0.061 A 
ATOM     11  C   UNL A   1      32.112  23.538  24.236  1.00  0.00     0.005 A 
ATOM     12  C   UNL A   1      33.084  23.425  25.235  1.00  0.00     0.014 A 
BRANCH   8  13
ATOM     13  O   UNL A   1      32.121  20.149  22.896  1.00  0.00    -0.439 OA
BRANCH  13  14
ATOM     14  C   UNL A   1      32.474  18.897  23.371  1.00  0.00     0.219 A 
ATOM     15  C   UNL A   1      33.146  16.485  24.536  1.00  0.00     0.058 A 
ATOM     16  C   UNL A   1      33.520  16.729  23.217  1.00  0.00     0.021 A 
ATOM     17  C   UNL A   1      32.430  17.472  25.198  1.00  0.00     0.129 A 
ATOM     18  C   UNL A   1      33.199  17.959  22.633  1.00  0.00     0.070 A 
ATOM     19  N   UNL A   1      32.094  18.668  24.646  1.00  0.00    -0.221 NA
BRANCH  15  20
ATOM     20  C   UNL A   1      33.463  15.232  25.256  1.00  0.00     0.250 C 
ATOM     21  N   UNL A   1      32.415  14.507  25.755  1.00  0.00    -0.366 N 
ATOM     22  H   UNL A   1      32.585  13.667  26.239  1.00  0.00     0.159 HD
ATOM     23  H   UNL A   1      31.493  14.826  25.630  1.00  0.00     0.159 HD
ATOM     24  O   UNL A   1      34.613  14.840  25.372  1.00  0.00    -0.269 OA
ENDBRANCH  15  20
ENDBRANCH  13  14
ENDBRANCH   8  13
ENDBRANCH   4   7
ENDBRANCH   2   3
ENDBRANCH   1   2
BRANCH   1  25
ATOM     25  C   UNL A   1      37.821  20.773  25.094  1.00  0.00     0.023 C 
BRANCH  25  26
ATOM     26  C   UNL A   1      39.180  20.915  25.773  1.00  0.00     0.116 C 
BRANCH  26  27
ATOM     27  N   UNL A   1      39.960  19.685  25.765  1.00  0.00    -0.352 N 
ATOM     28  C   UNL A   1      41.297  19.523  26.041  1.00  0.00     0.251 C 
ATOM     29  H   UNL A   1      39.467  18.865  25.532  1.00  0.00     0.163 HD
ATOM     30  O   UNL A   1      41.849  18.442  25.884  1.00  0.00    -0.269 OA
BRANCH  28  31
ATOM     31  C   UNL A   1      42.069  20.696  26.488  1.00  0.00     0.039 A 
ATOM     32  C   UNL A   1      42.615  21.548  25.526  1.00  0.00     0.014 A 
ATOM     33  C   UNL A   1      42.158  21.000  27.849  1.00  0.00     0.014 A 
ATOM     34  C   UNL A   1      43.170  22.762  25.927  1.00  0.00     0.010 A 
ATOM     35  C   UNL A   1      42.645  22.241  28.238  1.00  0.00     0.010 A 
ATOM     36  C   UNL A   1      43.134  23.143  27.279  1.00  0.00    -0.014 A 
BRANCH  36  37
ATOM     37  C   UNL A   1      43.552  24.499  27.709  1.00  0.00     0.031 A 
ATOM     38  C   UNL A   1      42.521  25.535  28.044  1.00  0.00     0.074 A 
ATOM     39  C   UNL A   1      44.862  24.818  27.705  1.00  0.00     0.049 A 
ATOM     40  N   UNL A   1      42.684  26.801  28.334  1.00  0.00    -0.248 NA
ATOM     41  C   UNL A   1      41.117  25.098  28.027  1.00  0.00     0.031 C 
ATOM     42  C   UNL A   1      45.954  23.906  27.358  1.00  0.00     0.029 A 
ATOM     43  N   UNL A   1      45.497  26.002  27.986  1.00  0.00    -0.354 N 
ATOM     44  C   UNL A   1      41.408  27.312  28.520  1.00  0.00     0.074 A 
ATOM     45  C   UNL A   1      40.478  26.234  28.263  1.00  0.00     0.031 C 
ATOM     46  C   UNL A   1      47.123  24.558  27.465  1.00  0.00     0.029 A 
ATOM     47  C   UNL A   1      46.861  25.944  27.836  1.00  0.00     0.049 A 
ATOM     48  H   UNL A   1      45.020  26.816  28.267  1.00  0.00     0.167 HD
ATOM     49  C   UNL A   1      41.049  28.565  28.889  1.00  0.00     0.037 A 
ATOM     50  C   UNL A   1      47.795  26.906  27.965  1.00  0.00     0.037 A 
ATOM     51  C   UNL A   1      41.983  29.627  29.158  1.00  0.00     0.049 A 
ATOM     52  C   UNL A   1      47.362  28.300  28.335  1.00  0.00     0.074 A 
ATOM     53  C   UNL A   1      41.722  30.910  29.605  1.00  0.00     0.029 A 
ATOM     54  N   UNL A   1      43.358  29.533  28.992  1.00  0.00    -0.354 N 
ATOM     55  N   UNL A   1      46.158  28.754  28.585  1.00  0.00    -0.248 NA
ATOM     56  C   UNL A   1      48.419  29.315  28.439  1.00  0.00     0.031 C 
ATOM     57  C   UNL A   1      42.930  31.612  29.646  1.00  0.00     0.029 A 
ATOM     58  C   UNL A   1      43.953  30.750  29.287  1.00  0.00     0.049 A 
ATOM     59  H   UNL A   1      43.838  28.723  28.707  1.00  0.00     0.167 HD
ATOM     60  C   UNL A   1      46.314  30.097  28.899  1.00  0.00     0.074 A 
ATOM     61  C   UNL A   1      47.733  30.379  28.829  1.00  0.00     0.031 C 
ATOM     62  C   UNL A   1      45.368  31.016  29.213  1.00  0.00     0.037 A 
BRANCH  49  63
ATOM     63  C   UNL A   1      39.583  28.861  29.017  1.00  0.00     0.064 A 
ATOM     64  C   UNL A   1      38.910  28.761  30.244  1.00  0.00     0.173 A 
ATOM     65  C   UNL A   1      38.849  29.299  27.903  1.00  0.00     0.173 A 
ATOM     66  F   UNL A   1      39.562  28.337  31.337  1.00  0.00    -0.203 F 
ATOM     67  C   UNL A   1      37.555  29.062  30.346  1.00  0.00     0.198 A 
ATOM     68  C   UNL A   1      37.502  29.632  28.016  1.00  0.00     0.198 A 
ATOM     69  F   UNL A   1      39.443  29.417  26.705  1.00  0.00    -0.203 F 
ATOM     70  F   UNL A   1      36.923  28.912  31.518  1.00  0.00    -0.200 F 
ATOM     71  C   UNL A   1      36.854  29.506  29.234  1.00  0.00     0.200 A 
ATOM     72  F   UNL A   1      36.831  30.074  26.943  1.00  0.00    -0.200 F 
ATOM     73  F   UNL A   1      35.553  29.807  29.338  1.00  0.00    -0.200 F 
ENDBRANCH  49  63
BRANCH  50  74
ATOM     74  C   UNL A   1      49.232  26.590  27.742  1.00  0.00     0.064 A 
ATOM     75  C   UNL A   1      49.748  26.469  26.444  1.00  0.00     0.173 A 
ATOM     76  C   UNL A   1      50.112  26.384  28.814  1.00  0.00     0.173 A 
ATOM     77  F   UNL A   1      48.943  26.635  25.384  1.00  0.00    -0.203 F 
ATOM     78  C   UNL A   1      51.082  26.131  26.227  1.00  0.00     0.198 A 
ATOM     79  C   UNL A   1      51.454  26.079  28.597  1.00  0.00     0.198 A 
ATOM     80  F   UNL A   1      49.671  26.489  30.077  1.00  0.00    -0.203 F 
ATOM     81  F   UNL A   1      51.535  25.968  24.977  1.00  0.00    -0.200 F 
ATOM     82  C   UNL A   1      51.936  25.942  27.304  1.00  0.00     0.200 A 
ATOM     83  F   UNL A   1      52.278  25.912  29.640  1.00  0.00    -0.200 F 
ATOM     84  F   UNL A   1      53.219  25.618  27.096  1.00  0.00    -0.200 F 
ENDBRANCH  50  74
BRANCH  62  85
ATOM     85  C   UNL A   1      45.836  32.408  29.528  1.00  0.00     0.064 A 
ATOM     86  C   UNL A   1      45.913  33.400  28.538  1.00  0.00     0.173 A 
ATOM     87  C   UNL A   1      46.170  32.766  30.843  1.00  0.00     0.173 A 
ATOM     88  F   UNL A   1      45.619  33.105  27.262  1.00  0.00    -0.203 F 
ATOM     89  C   UNL A   1      46.333  34.690  28.850  1.00  0.00     0.198 A 
ATOM     90  C   UNL A   1      46.555  34.066  31.157  1.00  0.00     0.198 A 
ATOM     91  F   UNL A   1      46.106  31.859  31.828  1.00  0.00    -0.203 F 
ATOM     92  F   UNL A   1      46.448  35.607  27.879  1.00  0.00    -0.200 F 
ATOM     93  C   UNL A   1      46.644  35.025  30.159  1.00  0.00     0.200 A 
ATOM     94  F   UNL A   1      46.838  34.392  32.426  1.00  0.00    -0.200 F 
ATOM     95  F   UNL A   1      47.036  36.271  30.458  1.00  0.00    -0.200 F 
ENDBRANCH  62  85
ENDBRANCH  36  37
ENDBRANCH  28  31
ENDBRANCH  26  27
ENDBRANCH  25  26
ENDBRANCH   1  25
TORSDOF 14
ENDMDL
MODEL 3
REMARK VINA RESULT:     -13.1      5.238     10.479
REMARK SMILES NC(=O)c1ccc(Oc2cccc(C(=O)NCCCCNC(=O)c3ccc(-c4c5nc(c(-c6c(F)c(F)c(F)c(F)c6F)c6ccc([nH]6)c(-c6c(F)c(F)c(F)c(F)c6F)c6nc(c(-c7c(F)c(F)c(F)c(F)c7F)c7ccc4[nH]7)C=C6)C=C5)cc3)c2)nc1
REMARK SMILES IDX 18 1 17 2 16 3 14 4 15 5 13 7 9 8 10 9 87 10 11 11 12 12
REMARK SMILES IDX 8 13 7 14 4 15 5 16 89 17 6 18 88 19 2 20 1 21 3 24 19 25
REMARK SMILES IDX 20 26 21 27 22 28 23 30 24 31 25 32 86 33 26 34 85 35 27 36
REMARK SMILES IDX 28 37 29 38 79 39 30 40 84 41 78 42 80 43 31 44 83 45 77 46
REMARK SMILES IDX 76 47 32 49 64 50 44 51 63 52 45 53 48 54 62 55 81 56 46 57
REMARK SMILES IDX 47 58 61 60 82 61 49 62 33 63 34 64 42 65 35 66 36 67 40 68
REMARK SMILES IDX 43 69 37 70 38 71 41 72 39 73 65 74 66 75 74 76 67 77 68 78
REMARK SMILES IDX 72 79 75 80 69 81 70 82 73 83 71 84 50 85 51 86 59 87 52 88
REMARK SMILES IDX 53 89 57 90 60 91 54 92 55 93 58 94 56 95
REMARK H PARENT 16 6 1 22 1 23 21 29 80 48 48 59
REMARK Flexibility Score: inf
ROOT
ATOM      1  C   UNL A   1      33.457  28.891  24.567  1.00  0.00     0.023 C 
ENDROOT
BRANCH   1   2
ATOM      2  C   UNL A   1      33.409  29.044  23.046  1.00  0.00     0.116 C 
BRANCH   2   3
ATOM      3  N   UNL A   1      32.035  29.141  22.593  1.00  0.00    -0.352 N 
ATOM      4  C   UNL A   1      31.071  28.208  22.306  1.00  0.00     0.251 C 
ATOM      5  O   UNL A   1      29.989  28.639  21.903  1.00  0.00    -0.269 OA
ATOM      6  H   UNL A   1      31.732  30.069  22.464  1.00  0.00     0.163 HD
BRANCH   4   7
ATOM      7  C   UNL A   1      31.229  26.741  22.527  1.00  0.00     0.043 A 
ATOM      8  C   UNL A   1      32.464  24.659  22.502  1.00  0.00     0.130 A 
ATOM      9  C   UNL A   1      31.491  24.039  23.280  1.00  0.00     0.047 A 
ATOM     10  C   UNL A   1      32.279  25.967  22.039  1.00  0.00     0.061 A 
ATOM     11  C   UNL A   1      30.369  24.761  23.671  1.00  0.00     0.005 A 
ATOM     12  C   UNL A   1      30.257  26.111  23.323  1.00  0.00     0.014 A 
BRANCH   8  13
ATOM     13  O   UNL A   1      33.601  23.948  22.196  1.00  0.00    -0.439 OA
BRANCH  13  14
ATOM     14  C   UNL A   1      34.604  23.888  23.149  1.00  0.00     0.219 A 
ATOM     15  C   UNL A   1      36.694  23.587  24.928  1.00  0.00     0.058 A 
ATOM     16  C   UNL A   1      35.562  24.296  25.324  1.00  0.00     0.021 A 
ATOM     17  C   UNL A   1      36.719  23.078  23.637  1.00  0.00     0.129 A 
ATOM     18  C   UNL A   1      34.494  24.430  24.431  1.00  0.00     0.070 A 
ATOM     19  N   UNL A   1      35.700  23.210  22.747  1.00  0.00    -0.221 NA
BRANCH  15  20
ATOM     20  C   UNL A   1      37.864  23.361  25.806  1.00  0.00     0.250 C 
ATOM     21  N   UNL A   1      38.533  22.175  25.674  1.00  0.00    -0.366 N 
ATOM     22  H   UNL A   1      39.317  21.987  26.239  1.00  0.00     0.159 HD
ATOM     23  H   UNL A   1      38.230  21.510  25.014  1.00  0.00     0.159 HD
ATOM     24  O   UNL A   1      38.239  24.213  26.595  1.00  0.00    -0.269 OA
ENDBRANCH  15  20
ENDBRANCH  13  14
ENDBRANCH   8  13
ENDBRANCH   4   7
ENDBRANCH   2   3
ENDBRANCH   1   2
BRANCH   1  25
ATOM     25  C   UNL A   1      32.273  29.552  25.280  1.00  0.00     0.023 C 
BRANCH  25  26
ATOM     26  C   UNL A   1      32.560  30.003  26.708  1.00  0.00     0.116 C 
BRANCH  26  27
ATOM     27  N   UNL A   1      32.424  31.441  26.897  1.00  0.00    -0.352 N 
ATOM     28  C   UNL A   1      33.321  32.314  27.466  1.00  0.00     0.251 C 
ATOM     29  H   UNL A   1      31.583  31.839  26.576  1.00  0.00     0.163 HD
ATOM     30  O   UNL A   1      33.026  33.486  27.664  1.00  0.00    -0.269 OA
BRANCH  28  31
ATOM     31  C   UNL A   1      34.638  31.797  27.881  1.00  0.00     0.039 A 
ATOM     32  C   UNL A   1      35.714  32.682  27.957  1.00  0.00     0.014 A 
ATOM     33  C   UNL A   1      34.771  30.467  28.292  1.00  0.00     0.014 A 
ATOM     34  C   UNL A   1      36.908  32.256  28.538  1.00  0.00     0.010 A 
ATOM     35  C   UNL A   1      35.935  30.068  28.935  1.00  0.00     0.010 A 
ATOM     36  C   UNL A   1      37.006  30.965  29.084  1.00  0.00    -0.014 A 
BRANCH  36  37
ATOM     37  C   UNL A   1      38.195  30.546  29.864  1.00  0.00     0.031 A 
ATOM     38  C   UNL A   1      39.163  29.555  29.290  1.00  0.00     0.074 A 
ATOM     39  C   UNL A   1      38.347  30.993  31.127  1.00  0.00     0.049 A 
ATOM     40  N   UNL A   1      40.198  28.986  29.855  1.00  0.00    -0.248 NA
ATOM     41  C   UNL A   1      38.922  29.124  27.905  1.00  0.00     0.031 C 
ATOM     42  C   UNL A   1      37.448  31.928  31.807  1.00  0.00     0.029 A 
ATOM     43  N   UNL A   1      39.302  30.709  32.070  1.00  0.00    -0.354 N 
ATOM     44  C   UNL A   1      40.721  28.125  28.902  1.00  0.00     0.074 A 
ATOM     45  C   UNL A   1      39.864  28.207  27.739  1.00  0.00     0.031 C 
ATOM     46  C   UNL A   1      37.906  32.154  33.049  1.00  0.00     0.029 A 
ATOM     47  C   UNL A   1      39.097  31.342  33.271  1.00  0.00     0.049 A 
ATOM     48  H   UNL A   1      40.063  30.106  31.902  1.00  0.00     0.167 HD
ATOM     49  C   UNL A   1      41.829  27.349  28.987  1.00  0.00     0.037 A 
ATOM     50  C   UNL A   1      39.781  31.262  34.428  1.00  0.00     0.037 A 
ATOM     51  C   UNL A   1      42.684  27.286  30.142  1.00  0.00     0.049 A 
ATOM     52  C   UNL A   1      40.984  30.359  34.505  1.00  0.00     0.074 A 
ATOM     53  C   UNL A   1      43.866  26.585  30.301  1.00  0.00     0.029 A 
ATOM     54  N   UNL A   1      42.442  27.939  31.343  1.00  0.00    -0.354 N 
ATOM     55  N   UNL A   1      41.516  29.608  33.573  1.00  0.00    -0.248 NA
ATOM     56  C   UNL A   1      41.678  30.293  35.798  1.00  0.00     0.031 C 
ATOM     57  C   UNL A   1      44.304  26.759  31.617  1.00  0.00     0.029 A 
ATOM     58  C   UNL A   1      43.432  27.621  32.261  1.00  0.00     0.049 A 
ATOM     59  H   UNL A   1      41.681  28.537  31.517  1.00  0.00     0.167 HD
ATOM     60  C   UNL A   1      42.619  29.000  34.156  1.00  0.00     0.074 A 
ATOM     61  C   UNL A   1      42.693  29.487  35.518  1.00  0.00     0.031 C 
ATOM     62  C   UNL A   1      43.491  28.114  33.614  1.00  0.00     0.037 A 
BRANCH  49  63
ATOM     63  C   UNL A   1      42.176  26.498  27.800  1.00  0.00     0.064 A 
ATOM     64  C   UNL A   1      43.104  26.915  26.835  1.00  0.00     0.173 A 
ATOM     65  C   UNL A   1      41.606  25.223  27.652  1.00  0.00     0.173 A 
ATOM     66  F   UNL A   1      43.670  28.128  26.923  1.00  0.00    -0.203 F 
ATOM     67  C   UNL A   1      43.431  26.101  25.753  1.00  0.00     0.198 A 
ATOM     68  C   UNL A   1      41.960  24.398  26.588  1.00  0.00     0.198 A 
ATOM     69  F   UNL A   1      40.715  24.771  28.548  1.00  0.00    -0.203 F 
ATOM     70  F   UNL A   1      44.284  26.541  24.819  1.00  0.00    -0.200 F 
ATOM     71  C   UNL A   1      42.865  24.840  25.635  1.00  0.00     0.200 A 
ATOM     72  F   UNL A   1      41.423  23.174  26.484  1.00  0.00    -0.200 F 
ATOM     73  F   UNL A   1      43.189  24.053  24.600  1.00  0.00    -0.200 F 
ENDBRANCH  49  63
BRANCH  50  74
ATOM     74  C   UNL A   1      39.349  32.057  35.610  1.00  0.00     0.064 A 
ATOM     75  C   UNL A   1      38.452  31.523  36.545  1.00  0.00     0.173 A 
ATOM     76  C   UNL A   1      39.806  33.366  35.820  1.00  0.00     0.173 A 
ATOM     77  F   UNL A   1      37.968  30.283  36.378  1.00  0.00    -0.203 F 
ATOM     78  C   UNL A   1      38.009  32.277  37.631  1.00  0.00     0.198 A 
ATOM     79  C   UNL A   1      39.390  34.107  36.924  1.00  0.00     0.198 A 
ATOM     80  F   UNL A   1      40.668  33.925  34.957  1.00  0.00    -0.203 F 
ATOM     81  F   UNL A   1      37.109  31.761  38.479  1.00  0.00    -0.200 F 
ATOM     82  C   UNL A   1      38.483  33.566  37.823  1.00  0.00     0.200 A 
ATOM     83  F   UNL A   1      39.862  35.347  37.113  1.00  0.00    -0.200 F 
ATOM     84  F   UNL A   1      38.059  34.290  38.868  1.00  0.00    -0.200 F 
ENDBRANCH  50  74
BRANCH  62  85
ATOM     85  C   UNL A   1      44.614  27.631  34.487  1.00  0.00     0.064 A 
ATOM     86  C   UNL A   1      45.825  28.335  34.587  1.00  0.00     0.173 A 
ATOM     87  C   UNL A   1      44.463  26.473  35.265  1.00  0.00     0.173 A 
ATOM     88  F   UNL A   1      46.026  29.439  33.852  1.00  0.00    -0.203 F 
ATOM     89  C   UNL A   1      46.848  27.883  35.414  1.00  0.00     0.198 A 
ATOM     90  C   UNL A   1      45.475  26.044  36.118  1.00  0.00     0.198 A 
ATOM     91  F   UNL A   1      43.323  25.768  35.213  1.00  0.00    -0.203 F 
ATOM     92  F   UNL A   1      48.015  28.543  35.455  1.00  0.00    -0.200 F 
ATOM     93  C   UNL A   1      46.671  26.744  36.186  1.00  0.00     0.200 A 
ATOM     94  F   UNL A   1      45.295  24.954  36.876  1.00  0.00    -0.200 F 
ATOM     95  F   UNL A   1      47.654  26.318  36.990  1.00  0.00    -0.200 F 
ENDBRANCH  62  85
ENDBRANCH  36  37
ENDBRANCH  28  31
ENDBRANCH  26  27
ENDBRANCH  25  26
ENDBRANCH   1  25
TORSDOF 14
ENDMDL
