MODEL 1
REMARK VINA RESULT:     -13.9      0.000      0.000
REMARK SMILES Cc1cc(F)ccc1OC1(C(=O)NCCCCNC(=O)c2ccc(-c3c4nc(c(-c5c(F)c(F)c(F)c(F)c5F)c5ccc([nH]5)c(-c5c(F)c(F)c(F)c(F)c5F)c5nc(c(-c6c(F)c(F)c(F)c(F)c6F)c6ccc3[nH]6)C=C5)C=C4)cc2)CCN(C(=O)[C@H]2CCOC2)CC1
REMARK SMILES IDX 15 1 14 2 13 3 11 4 12 5 10 7 84 8 95 9 85 10 94 11 86 12
REMARK SMILES IDX 87 13 88 14 9 15 8 16 1 17 2 18 3 19 4 20 7 21 5 22 6 23
REMARK SMILES IDX 89 24 90 25 93 26 91 27 92 28 16 29 17 30 18 31 19 32 20 34
REMARK SMILES IDX 21 35 22 36 83 37 23 38 82 39 24 40 25 41 26 42 76 43 27 44
REMARK SMILES IDX 81 45 75 46 77 47 28 48 80 49 74 50 73 51 29 53 61 54 41 55
REMARK SMILES IDX 60 56 42 57 45 58 59 59 78 60 43 61 44 62 58 64 79 65 46 66
REMARK SMILES IDX 30 67 31 68 39 69 32 70 33 71 37 72 40 73 34 74 35 75 38 76
REMARK SMILES IDX 36 77 62 78 63 79 71 80 64 81 65 82 69 83 72 84 66 85 67 86
REMARK SMILES IDX 70 87 68 88 47 89 48 90 56 91 49 92 50 93 54 94 57 95 51 96
REMARK SMILES IDX 52 97 55 98 53 99
REMARK H PARENT 13 6 18 33 77 52 45 63
REMARK Flexibility Score: inf
ROOT
ATOM      1  C   UNL A   1      34.573  30.149  27.735  1.00  0.00     0.023 C 
ENDROOT
BRANCH   1   2
ATOM      2  C   UNL A   1      34.302  28.843  26.982  1.00  0.00     0.116 C 
BRANCH   2   3
ATOM      3  N   UNL A   1      33.035  28.232  27.335  1.00  0.00    -0.353 N 
ATOM      4  C   UNL A   1      32.012  27.732  26.571  1.00  0.00     0.264 C 
ATOM      5  O   UNL A   1      31.089  27.219  27.217  1.00  0.00    -0.270 OA
ATOM      6  H   UNL A   1      32.880  28.163  28.305  1.00  0.00     0.163 HD
BRANCH   4   7
ATOM      7  C   UNL A   1      32.014  27.781  24.985  1.00  0.00     0.190 C 
ATOM      8  C   UNL A   1      30.828  26.964  24.506  1.00  0.00     0.080 C 
ATOM      9  C   UNL A   1      32.130  29.260  24.604  1.00  0.00     0.080 C 
ATOM     10  C   UNL A   1      29.706  27.718  23.812  1.00  0.00     0.124 C 
ATOM     11  C   UNL A   1      31.192  29.767  23.524  1.00  0.00     0.124 C 
ATOM     12  N   UNL A   1      29.887  29.121  23.445  1.00  0.00    -0.342 N 
ATOM     13  C   UNL A   1      28.777  29.691  22.810  1.00  0.00     0.228 C 
ATOM     14  O   UNL A   1      27.680  29.129  22.849  1.00  0.00    -0.274 OA
BRANCH   7  15
ATOM     15  O   UNL A   1      33.257  27.107  24.679  1.00  0.00    -0.477 OA
BRANCH  15  16
ATOM     16  C   UNL A   1      33.581  25.854  24.268  1.00  0.00     0.124 A 
ATOM     17  C   UNL A   1      32.897  25.681  21.758  1.00  0.00     0.048 C 
ATOM     18  C   UNL A   1      33.478  25.184  23.038  1.00  0.00    -0.006 A 
ATOM     19  C   UNL A   1      33.894  23.833  22.954  1.00  0.00     0.046 A 
ATOM     20  C   UNL A   1      34.408  23.161  24.049  1.00  0.00     0.123 A 
ATOM     21  C   UNL A   1      34.109  25.133  25.363  1.00  0.00     0.050 A 
ATOM     22  F   UNL A   1      34.787  21.884  23.922  1.00  0.00    -0.207 F 
ATOM     23  C   UNL A   1      34.519  23.802  25.263  1.00  0.00     0.043 A 
ENDBRANCH  15  16
ENDBRANCH   7  15
BRANCH  13  24
ATOM     24  C   UNL A   1      28.971  30.952  21.984  1.00  0.00     0.107 C 
ATOM     25  C   UNL A   1      28.051  30.959  20.778  1.00  0.00     0.044 C 
ATOM     26  C   UNL A   1      28.522  32.192  22.736  1.00  0.00     0.173 C 
ATOM     27  C   UNL A   1      27.730  32.424  20.563  1.00  0.00     0.161 C 
ATOM     28  O   UNL A   1      28.058  33.131  21.759  1.00  0.00    -0.381 OA
ENDBRANCH  13  24
ENDBRANCH   4   7
ENDBRANCH   2   3
ENDBRANCH   1   2
BRANCH   1  29
ATOM     29  C   UNL A   1      33.483  31.217  27.679  1.00  0.00     0.023 C 
BRANCH  29  30
ATOM     30  C   UNL A   1      34.033  32.622  27.598  1.00  0.00     0.116 C 
BRANCH  30  31
ATOM     31  N   UNL A   1      33.815  33.384  28.829  1.00  0.00    -0.352 N 
ATOM     32  C   UNL A   1      34.552  33.344  29.996  1.00  0.00     0.251 C 
ATOM     33  H   UNL A   1      33.048  34.001  28.824  1.00  0.00     0.163 HD
ATOM     34  O   UNL A   1      34.118  33.778  31.049  1.00  0.00    -0.269 OA
BRANCH  32  35
ATOM     35  C   UNL A   1      35.904  32.778  29.919  1.00  0.00     0.039 A 
ATOM     36  C   UNL A   1      36.916  33.358  29.146  1.00  0.00     0.014 A 
ATOM     37  C   UNL A   1      36.132  31.633  30.672  1.00  0.00     0.014 A 
ATOM     38  C   UNL A   1      38.188  32.794  29.173  1.00  0.00     0.010 A 
ATOM     39  C   UNL A   1      37.409  31.217  30.869  1.00  0.00     0.010 A 
ATOM     40  C   UNL A   1      38.413  31.730  30.045  1.00  0.00    -0.014 A 
BRANCH  40  41
ATOM     41  C   UNL A   1      39.629  30.955  30.133  1.00  0.00     0.031 A 
ATOM     42  C   UNL A   1      39.717  29.648  29.484  1.00  0.00     0.074 A 
ATOM     43  C   UNL A   1      40.681  31.638  30.638  1.00  0.00     0.049 A 
ATOM     44  N   UNL A   1      40.498  28.706  29.876  1.00  0.00    -0.248 NA
ATOM     45  C   UNL A   1      38.895  29.271  28.337  1.00  0.00     0.031 C 
ATOM     46  C   UNL A   1      42.104  31.377  30.539  1.00  0.00     0.029 A 
ATOM     47  N   UNL A   1      40.606  32.791  31.439  1.00  0.00    -0.354 N 
ATOM     48  C   UNL A   1      40.559  27.783  28.853  1.00  0.00     0.074 A 
ATOM     49  C   UNL A   1      39.423  28.082  28.015  1.00  0.00     0.031 C 
ATOM     50  C   UNL A   1      42.742  32.119  31.467  1.00  0.00     0.029 A 
ATOM     51  C   UNL A   1      41.728  32.781  32.276  1.00  0.00     0.049 A 
ATOM     52  H   UNL A   1      39.898  33.475  31.417  1.00  0.00     0.167 HD
ATOM     53  C   UNL A   1      41.693  27.030  28.739  1.00  0.00     0.037 A 
ATOM     54  C   UNL A   1      41.529  32.602  33.616  1.00  0.00     0.037 A 
ATOM     55  C   UNL A   1      42.654  27.453  29.759  1.00  0.00     0.049 A 
ATOM     56  C   UNL A   1      42.057  31.266  34.060  1.00  0.00     0.074 A 
ATOM     57  C   UNL A   1      43.726  28.330  29.687  1.00  0.00     0.029 A 
ATOM     58  N   UNL A   1      42.368  27.278  31.106  1.00  0.00    -0.354 N 
ATOM     59  N   UNL A   1      42.130  30.224  33.279  1.00  0.00    -0.248 NA
ATOM     60  C   UNL A   1      42.621  31.029  35.381  1.00  0.00     0.031 C 
ATOM     61  C   UNL A   1      44.054  28.721  31.009  1.00  0.00     0.029 A 
ATOM     62  C   UNL A   1      43.188  28.077  31.878  1.00  0.00     0.049 A 
ATOM     63  H   UNL A   1      41.678  26.671  31.459  1.00  0.00     0.167 HD
ATOM     64  C   UNL A   1      42.794  29.222  33.932  1.00  0.00     0.074 A 
ATOM     65  C   UNL A   1      43.059  29.765  35.252  1.00  0.00     0.031 C 
ATOM     66  C   UNL A   1      43.116  28.040  33.328  1.00  0.00     0.037 A 
BRANCH  53  67
ATOM     67  C   UNL A   1      42.119  26.169  27.564  1.00  0.00     0.064 A 
ATOM     68  C   UNL A   1      41.579  24.866  27.410  1.00  0.00     0.173 A 
ATOM     69  C   UNL A   1      43.045  26.532  26.569  1.00  0.00     0.173 A 
ATOM     70  F   UNL A   1      40.609  24.408  28.211  1.00  0.00    -0.203 F 
ATOM     71  C   UNL A   1      42.001  23.980  26.416  1.00  0.00     0.198 A 
ATOM     72  C   UNL A   1      43.481  25.636  25.582  1.00  0.00     0.198 A 
ATOM     73  F   UNL A   1      43.526  27.774  26.475  1.00  0.00    -0.203 F 
ATOM     74  F   UNL A   1      41.460  22.756  26.347  1.00  0.00    -0.200 F 
ATOM     75  C   UNL A   1      42.968  24.357  25.513  1.00  0.00     0.200 A 
ATOM     76  F   UNL A   1      44.400  26.031  24.690  1.00  0.00    -0.200 F 
ATOM     77  F   UNL A   1      43.382  23.506  24.566  1.00  0.00    -0.200 F 
ENDBRANCH  53  67
BRANCH  54  78
ATOM     78  C   UNL A   1      40.275  33.273  34.087  1.00  0.00     0.064 A 
ATOM     79  C   UNL A   1      39.186  32.429  34.384  1.00  0.00     0.173 A 
ATOM     80  C   UNL A   1      40.296  34.535  34.702  1.00  0.00     0.173 A 
ATOM     81  F   UNL A   1      39.106  31.216  33.812  1.00  0.00    -0.203 F 
ATOM     82  C   UNL A   1      38.265  32.753  35.379  1.00  0.00     0.198 A 
ATOM     83  C   UNL A   1      39.356  34.865  35.687  1.00  0.00     0.198 A 
ATOM     84  F   UNL A   1      41.293  35.395  34.453  1.00  0.00    -0.203 F 
ATOM     85  F   UNL A   1      37.336  31.858  35.746  1.00  0.00    -0.200 F 
ATOM     86  C   UNL A   1      38.376  33.954  36.059  1.00  0.00     0.200 A 
ATOM     87  F   UNL A   1      39.451  36.033  36.337  1.00  0.00    -0.200 F 
ATOM     88  F   UNL A   1      37.567  34.211  37.095  1.00  0.00    -0.200 F 
ENDBRANCH  54  78
BRANCH  66  89
ATOM     89  C   UNL A   1      43.529  26.775  34.032  1.00  0.00     0.064 A 
ATOM     90  C   UNL A   1      42.629  25.941  34.713  1.00  0.00     0.173 A 
ATOM     91  C   UNL A   1      44.848  26.272  33.903  1.00  0.00     0.173 A 
ATOM     92  F   UNL A   1      41.322  26.227  34.778  1.00  0.00    -0.203 F 
ATOM     93  C   UNL A   1      43.036  24.744  35.300  1.00  0.00     0.198 A 
ATOM     94  C   UNL A   1      45.230  25.039  34.423  1.00  0.00     0.198 A 
ATOM     95  F   UNL A   1      45.803  26.939  33.239  1.00  0.00    -0.203 F 
ATOM     96  F   UNL A   1      42.150  24.016  35.994  1.00  0.00    -0.200 F 
ATOM     97  C   UNL A   1      44.330  24.287  35.147  1.00  0.00     0.200 A 
ATOM     98  F   UNL A   1      46.469  24.580  34.200  1.00  0.00    -0.200 F 
ATOM     99  F   UNL A   1      44.704  23.115  35.675  1.00  0.00    -0.200 F 
ENDBRANCH  66  89
ENDBRANCH  40  41
ENDBRANCH  32  35
ENDBRANCH  30  31
ENDBRANCH  29  30
ENDBRANCH   1  29
TORSDOF 14
ENDMDL
MODEL 2
REMARK VINA RESULT:     -13.7      4.380     10.392
REMARK SMILES Cc1cc(F)ccc1OC1(C(=O)NCCCCNC(=O)c2ccc(-c3c4nc(c(-c5c(F)c(F)c(F)c(F)c5F)c5ccc([nH]5)c(-c5c(F)c(F)c(F)c(F)c5F)c5nc(c(-c6c(F)c(F)c(F)c(F)c6F)c6ccc3[nH]6)C=C5)C=C4)cc2)CCN(C(=O)[C@H]2CCOC2)CC1
REMARK SMILES IDX 15 1 14 2 13 3 11 4 12 5 10 7 84 8 95 9 85 10 94 11 86 12
REMARK SMILES IDX 87 13 88 14 9 15 8 16 1 17 2 18 3 19 4 20 7 21 5 22 6 23
REMARK SMILES IDX 89 24 90 25 93 26 91 27 92 28 16 29 17 30 18 31 19 32 20 34
REMARK SMILES IDX 21 35 22 36 83 37 23 38 82 39 24 40 25 41 26 42 76 43 27 44
REMARK SMILES IDX 81 45 75 46 77 47 28 48 80 49 74 50 73 51 29 53 61 54 41 55
REMARK SMILES IDX 60 56 42 57 45 58 59 59 78 60 43 61 44 62 58 64 79 65 46 66
REMARK SMILES IDX 30 67 31 68 39 69 32 70 33 71 37 72 40 73 34 74 35 75 38 76
REMARK SMILES IDX 36 77 62 78 63 79 71 80 64 81 65 82 69 83 72 84 66 85 67 86
REMARK SMILES IDX 70 87 68 88 47 89 48 90 56 91 49 92 50 93 54 94 57 95 51 96
REMARK SMILES IDX 52 97 55 98 53 99
REMARK H PARENT 13 6 18 33 77 52 45 63
REMARK Flexibility Score: inf
ROOT
ATOM      1  C   UNL A   1      38.774  23.131  26.126  1.00  0.00     0.023 C 
ENDROOT
BRANCH   1   2
ATOM      2  C   UNL A   1      37.369  23.699  25.900  1.00  0.00     0.116 C 
BRANCH   2   3
ATOM      3  N   UNL A   1      36.914  23.569  24.528  1.00  0.00    -0.353 N 
ATOM      4  C   UNL A   1      35.750  23.086  23.989  1.00  0.00     0.264 C 
ATOM      5  O   UNL A   1      35.674  23.183  22.757  1.00  0.00    -0.270 OA
ATOM      6  H   UNL A   1      37.563  23.887  23.860  1.00  0.00     0.163 HD
BRANCH   4   7
ATOM      7  C   UNL A   1      34.581  22.471  24.867  1.00  0.00     0.190 C 
ATOM      8  C   UNL A   1      33.408  22.212  23.940  1.00  0.00     0.080 C 
ATOM      9  C   UNL A   1      35.202  21.316  25.657  1.00  0.00     0.080 C 
ATOM     10  C   UNL A   1      33.022  20.761  23.704  1.00  0.00     0.124 C 
ATOM     11  C   UNL A   1      34.429  20.011  25.690  1.00  0.00     0.124 C 
ATOM     12  N   UNL A   1      33.626  19.704  24.511  1.00  0.00    -0.342 N 
ATOM     13  C   UNL A   1      33.180  18.417  24.191  1.00  0.00     0.228 C 
ATOM     14  O   UNL A   1      32.574  18.212  23.137  1.00  0.00    -0.274 OA
BRANCH   7  15
ATOM     15  O   UNL A   1      34.291  23.567  25.766  1.00  0.00    -0.477 OA
BRANCH  15  16
ATOM     16  C   UNL A   1      33.325  24.520  25.819  1.00  0.00     0.124 A 
ATOM     17  C   UNL A   1      31.124  23.327  26.549  1.00  0.00     0.048 C 
ATOM     18  C   UNL A   1      31.964  24.499  26.164  1.00  0.00    -0.006 A 
ATOM     19  C   UNL A   1      31.214  25.697  26.085  1.00  0.00     0.046 A 
ATOM     20  C   UNL A   1      31.792  26.890  25.687  1.00  0.00     0.123 A 
ATOM     21  C   UNL A   1      33.877  25.757  25.416  1.00  0.00     0.050 A 
ATOM     22  F   UNL A   1      31.043  27.998  25.626  1.00  0.00    -0.207 F 
ATOM     23  C   UNL A   1      33.126  26.932  25.347  1.00  0.00     0.043 A 
ENDBRANCH  15  16
ENDBRANCH   7  15
BRANCH  13  24
ATOM     24  C   UNL A   1      33.356  17.303  25.211  1.00  0.00     0.107 C 
ATOM     25  C   UNL A   1      32.175  16.352  25.187  1.00  0.00     0.044 C 
ATOM     26  C   UNL A   1      34.512  16.387  24.848  1.00  0.00     0.173 C 
ATOM     27  C   UNL A   1      32.774  15.005  25.538  1.00  0.00     0.161 C 
ATOM     28  O   UNL A   1      34.187  15.085  25.346  1.00  0.00    -0.381 OA
ENDBRANCH  13  24
ENDBRANCH   4   7
ENDBRANCH   2   3
ENDBRANCH   1   2
BRANCH   1  29
ATOM     29  C   UNL A   1      39.019  21.694  25.673  1.00  0.00     0.023 C 
BRANCH  29  30
ATOM     30  C   UNL A   1      39.951  20.934  26.588  1.00  0.00     0.116 C 
BRANCH  30  31
ATOM     31  N   UNL A   1      41.268  20.709  25.990  1.00  0.00    -0.352 N 
ATOM     32  C   UNL A   1      42.307  21.610  25.858  1.00  0.00     0.251 C 
ATOM     33  H   UNL A   1      41.434  19.805  25.637  1.00  0.00     0.163 HD
ATOM     34  O   UNL A   1      43.232  21.421  25.087  1.00  0.00    -0.269 OA
BRANCH  32  35
ATOM     35  C   UNL A   1      42.275  22.805  26.710  1.00  0.00     0.039 A 
ATOM     36  C   UNL A   1      42.269  22.728  28.108  1.00  0.00     0.014 A 
ATOM     37  C   UNL A   1      42.263  24.026  26.050  1.00  0.00     0.014 A 
ATOM     38  C   UNL A   1      42.297  23.909  28.844  1.00  0.00     0.010 A 
ATOM     39  C   UNL A   1      42.510  25.159  26.756  1.00  0.00     0.010 A 
ATOM     40  C   UNL A   1      42.424  25.110  28.148  1.00  0.00    -0.014 A 
BRANCH  40  41
ATOM     41  C   UNL A   1      42.364  26.431  28.731  1.00  0.00     0.031 A 
ATOM     42  C   UNL A   1      41.124  27.205  28.676  1.00  0.00     0.074 A 
ATOM     43  C   UNL A   1      43.436  26.745  29.494  1.00  0.00     0.049 A 
ATOM     44  N   UNL A   1      41.080  28.488  28.703  1.00  0.00    -0.248 NA
ATOM     45  C   UNL A   1      39.806  26.589  28.550  1.00  0.00     0.031 C 
ATOM     46  C   UNL A   1      43.592  27.755  30.521  1.00  0.00     0.029 A 
ATOM     47  N   UNL A   1      44.704  26.143  29.419  1.00  0.00    -0.354 N 
ATOM     48  C   UNL A   1      39.774  28.840  28.973  1.00  0.00     0.074 A 
ATOM     49  C   UNL A   1      39.004  27.653  28.689  1.00  0.00     0.031 C 
ATOM     50  C   UNL A   1      44.908  27.923  30.762  1.00  0.00     0.029 A 
ATOM     51  C   UNL A   1      45.640  27.112  29.798  1.00  0.00     0.049 A 
ATOM     52  H   UNL A   1      44.898  25.216  29.149  1.00  0.00     0.167 HD
ATOM     53  C   UNL A   1      39.551  30.026  29.612  1.00  0.00     0.037 A 
ATOM     54  C   UNL A   1      46.502  27.582  28.847  1.00  0.00     0.037 A 
ATOM     55  C   UNL A   1      40.838  30.649  29.929  1.00  0.00     0.049 A 
ATOM     56  C   UNL A   1      46.196  29.015  28.511  1.00  0.00     0.074 A 
ATOM     57  C   UNL A   1      41.589  30.637  31.094  1.00  0.00     0.029 A 
ATOM     58  N   UNL A   1      41.683  31.065  28.910  1.00  0.00    -0.354 N 
ATOM     59  N   UNL A   1      45.008  29.543  28.614  1.00  0.00    -0.248 NA
ATOM     60  C   UNL A   1      47.216  29.979  28.122  1.00  0.00     0.031 C 
ATOM     61  C   UNL A   1      42.915  31.006  30.757  1.00  0.00     0.029 A 
ATOM     62  C   UNL A   1      42.963  31.247  29.394  1.00  0.00     0.049 A 
ATOM     63  H   UNL A   1      41.408  31.209  27.975  1.00  0.00     0.167 HD
ATOM     64  C   UNL A   1      45.095  30.889  28.388  1.00  0.00     0.074 A 
ATOM     65  C   UNL A   1      46.492  31.110  28.061  1.00  0.00     0.031 C 
ATOM     66  C   UNL A   1      44.027  31.728  28.530  1.00  0.00     0.037 A 
BRANCH  53  67
ATOM     67  C   UNL A   1      38.265  30.500  30.263  1.00  0.00     0.064 A 
ATOM     68  C   UNL A   1      37.196  30.967  29.457  1.00  0.00     0.173 A 
ATOM     69  C   UNL A   1      38.007  30.542  31.645  1.00  0.00     0.173 A 
ATOM     70  F   UNL A   1      37.239  30.895  28.120  1.00  0.00    -0.203 F 
ATOM     71  C   UNL A   1      36.025  31.515  29.987  1.00  0.00     0.198 A 
ATOM     72  C   UNL A   1      36.840  31.108  32.178  1.00  0.00     0.198 A 
ATOM     73  F   UNL A   1      38.841  29.996  32.534  1.00  0.00    -0.203 F 
ATOM     74  F   UNL A   1      35.067  31.956  29.161  1.00  0.00    -0.200 F 
ATOM     75  C   UNL A   1      35.855  31.605  31.350  1.00  0.00     0.200 A 
ATOM     76  F   UNL A   1      36.676  31.159  33.508  1.00  0.00    -0.200 F 
ATOM     77  F   UNL A   1      34.739  32.140  31.861  1.00  0.00    -0.200 F 
ENDBRANCH  53  67
BRANCH  54  78
ATOM     78  C   UNL A   1      46.915  26.505  27.891  1.00  0.00     0.064 A 
ATOM     79  C   UNL A   1      46.329  26.543  26.610  1.00  0.00     0.173 A 
ATOM     80  C   UNL A   1      48.144  25.836  28.015  1.00  0.00     0.173 A 
ATOM     81  F   UNL A   1      45.146  27.157  26.436  1.00  0.00    -0.203 F 
ATOM     82  C   UNL A   1      47.017  26.101  25.482  1.00  0.00     0.198 A 
ATOM     83  C   UNL A   1      48.823  25.374  26.880  1.00  0.00     0.198 A 
ATOM     84  F   UNL A   1      48.751  25.747  29.206  1.00  0.00    -0.203 F 
ATOM     85  F   UNL A   1      46.495  26.297  24.262  1.00  0.00    -0.200 F 
ATOM     86  C   UNL A   1      48.281  25.554  25.614  1.00  0.00     0.200 A 
ATOM     87  F   UNL A   1      50.041  24.830  27.005  1.00  0.00    -0.200 F 
ATOM     88  F   UNL A   1      48.990  25.240  24.521  1.00  0.00    -0.200 F 
ENDBRANCH  54  78
BRANCH  66  89
ATOM     89  C   UNL A   1      43.931  33.130  27.990  1.00  0.00     0.064 A 
ATOM     90  C   UNL A   1      43.829  33.427  26.623  1.00  0.00     0.173 A 
ATOM     91  C   UNL A   1      43.775  34.234  28.867  1.00  0.00     0.173 A 
ATOM     92  F   UNL A   1      43.812  32.460  25.697  1.00  0.00    -0.203 F 
ATOM     93  C   UNL A   1      43.678  34.734  26.163  1.00  0.00     0.198 A 
ATOM     94  C   UNL A   1      43.546  35.526  28.404  1.00  0.00     0.198 A 
ATOM     95  F   UNL A   1      43.803  34.095  30.199  1.00  0.00    -0.203 F 
ATOM     96  F   UNL A   1      43.651  34.969  24.843  1.00  0.00    -0.200 F 
ATOM     97  C   UNL A   1      43.525  35.781  27.051  1.00  0.00     0.200 A 
ATOM     98  F   UNL A   1      43.325  36.516  29.282  1.00  0.00    -0.200 F 
ATOM     99  F   UNL A   1      43.336  37.029  26.604  1.00  0.00    -0.200 F 
ENDBRANCH  66  89
ENDBRANCH  40  41
ENDBRANCH  32  35
ENDBRANCH  30  31
ENDBRANCH  29  30
ENDBRANCH   1  29
TORSDOF 14
ENDMDL
MODEL 3
REMARK VINA RESULT:     -13.6      1.749      4.099
REMARK SMILES Cc1cc(F)ccc1OC1(C(=O)NCCCCNC(=O)c2ccc(-c3c4nc(c(-c5c(F)c(F)c(F)c(F)c5F)c5ccc([nH]5)c(-c5c(F)c(F)c(F)c(F)c5F)c5nc(c(-c6c(F)c(F)c(F)c(F)c6F)c6ccc3[nH]6)C=C5)C=C4)cc2)CCN(C(=O)[C@H]2CCOC2)CC1
REMARK SMILES IDX 15 1 14 2 13 3 11 4 12 5 10 7 84 8 95 9 85 10 94 11 86 12
REMARK SMILES IDX 87 13 88 14 9 15 8 16 1 17 2 18 3 19 4 20 7 21 5 22 6 23
REMARK SMILES IDX 89 24 90 25 93 26 91 27 92 28 16 29 17 30 18 31 19 32 20 34
REMARK SMILES IDX 21 35 22 36 83 37 23 38 82 39 24 40 25 41 26 42 76 43 27 44
REMARK SMILES IDX 81 45 75 46 77 47 28 48 80 49 74 50 73 51 29 53 61 54 41 55
REMARK SMILES IDX 60 56 42 57 45 58 59 59 78 60 43 61 44 62 58 64 79 65 46 66
REMARK SMILES IDX 30 67 31 68 39 69 32 70 33 71 37 72 40 73 34 74 35 75 38 76
REMARK SMILES IDX 36 77 62 78 63 79 71 80 64 81 65 82 69 83 72 84 66 85 67 86
REMARK SMILES IDX 70 87 68 88 47 89 48 90 56 91 49 92 50 93 54 94 57 95 51 96
REMARK SMILES IDX 52 97 55 98 53 99
REMARK H PARENT 13 6 18 33 77 52 45 63
REMARK Flexibility Score: inf
ROOT
ATOM      1  C   UNL A   1      34.355  30.389  27.615  1.00  0.00     0.023 C 
ENDROOT
BRANCH   1   2
ATOM      2  C   UNL A   1      33.945  29.149  26.814  1.00  0.00     0.116 C 
BRANCH   2   3
ATOM      3  N   UNL A   1      34.312  29.227  25.413  1.00  0.00    -0.353 N 
ATOM      4  C   UNL A   1      33.907  28.510  24.316  1.00  0.00     0.264 C 
ATOM      5  O   UNL A   1      34.390  28.894  23.243  1.00  0.00    -0.270 OA
ATOM      6  H   UNL A   1      34.976  29.925  25.211  1.00  0.00     0.163 HD
BRANCH   4   7
ATOM      7  C   UNL A   1      32.884  27.301  24.404  1.00  0.00     0.190 C 
ATOM      8  C   UNL A   1      32.730  26.737  23.004  1.00  0.00     0.080 C 
ATOM      9  C   UNL A   1      33.381  26.403  25.541  1.00  0.00     0.080 C 
ATOM     10  C   UNL A   1      33.259  25.333  22.763  1.00  0.00     0.124 C 
ATOM     11  C   UNL A   1      33.425  24.911  25.270  1.00  0.00     0.124 C 
ATOM     12  N   UNL A   1      33.690  24.511  23.892  1.00  0.00    -0.342 N 
ATOM     13  C   UNL A   1      34.152  23.241  23.529  1.00  0.00     0.228 C 
ATOM     14  O   UNL A   1      34.434  22.993  22.354  1.00  0.00    -0.274 OA
BRANCH   7  15
ATOM     15  O   UNL A   1      31.675  27.978  24.819  1.00  0.00    -0.477 OA
BRANCH  15  16
ATOM     16  C   UNL A   1      30.497  28.274  24.212  1.00  0.00     0.124 A 
ATOM     17  C   UNL A   1      29.235  26.018  23.866  1.00  0.00     0.048 C 
ATOM     18  C   UNL A   1      29.402  27.499  23.796  1.00  0.00    -0.006 A 
ATOM     19  C   UNL A   1      28.313  28.135  23.152  1.00  0.00     0.046 A 
ATOM     20  C   UNL A   1      28.297  29.501  22.931  1.00  0.00     0.123 A 
ATOM     21  C   UNL A   1      30.443  29.665  23.967  1.00  0.00     0.050 A 
ATOM     22  F   UNL A   1      27.247  30.058  22.317  1.00  0.00    -0.207 F 
ATOM     23  C   UNL A   1      29.360  30.279  23.335  1.00  0.00     0.043 A 
ENDBRANCH  15  16
ENDBRANCH   7  15
BRANCH  13  24
ATOM     24  C   UNL A   1      34.195  22.146  24.582  1.00  0.00     0.107 C 
ATOM     25  C   UNL A   1      33.298  20.985  24.196  1.00  0.00     0.044 C 
ATOM     26  C   UNL A   1      35.561  21.486  24.652  1.00  0.00     0.173 C 
ATOM     27  C   UNL A   1      33.998  19.768  24.766  1.00  0.00     0.161 C 
ATOM     28  O   UNL A   1      35.350  20.128  25.052  1.00  0.00    -0.381 OA
ENDBRANCH  13  24
ENDBRANCH   4   7
ENDBRANCH   2   3
ENDBRANCH   1   2
BRANCH   1  29
ATOM     29  C   UNL A   1      33.367  31.551  27.642  1.00  0.00     0.023 C 
BRANCH  29  30
ATOM     30  C   UNL A   1      34.041  32.903  27.702  1.00  0.00     0.116 C 
BRANCH  30  31
ATOM     31  N   UNL A   1      33.822  33.585  28.979  1.00  0.00    -0.352 N 
ATOM     32  C   UNL A   1      34.543  33.450  30.149  1.00  0.00     0.251 C 
ATOM     33  H   UNL A   1      33.068  34.218  29.007  1.00  0.00     0.163 HD
ATOM     34  O   UNL A   1      34.105  33.822  31.224  1.00  0.00    -0.269 OA
BRANCH  32  35
ATOM     35  C   UNL A   1      35.884  32.861  30.051  1.00  0.00     0.039 A 
ATOM     36  C   UNL A   1      36.880  33.401  29.229  1.00  0.00     0.014 A 
ATOM     37  C   UNL A   1      36.118  31.738  30.832  1.00  0.00     0.014 A 
ATOM     38  C   UNL A   1      38.144  32.819  29.236  1.00  0.00     0.010 A 
ATOM     39  C   UNL A   1      37.394  31.309  31.005  1.00  0.00     0.010 A 
ATOM     40  C   UNL A   1      38.380  31.779  30.136  1.00  0.00    -0.014 A 
BRANCH  40  41
ATOM     41  C   UNL A   1      39.587  30.989  30.212  1.00  0.00     0.031 A 
ATOM     42  C   UNL A   1      39.654  29.682  29.558  1.00  0.00     0.074 A 
ATOM     43  C   UNL A   1      40.651  31.657  30.711  1.00  0.00     0.049 A 
ATOM     44  N   UNL A   1      40.425  28.730  29.941  1.00  0.00    -0.248 NA
ATOM     45  C   UNL A   1      38.819  29.319  28.417  1.00  0.00     0.031 C 
ATOM     46  C   UNL A   1      42.070  31.379  30.600  1.00  0.00     0.029 A 
ATOM     47  N   UNL A   1      40.597  32.809  31.516  1.00  0.00    -0.354 N 
ATOM     48  C   UNL A   1      40.467  27.809  28.916  1.00  0.00     0.074 A 
ATOM     49  C   UNL A   1      39.329  28.125  28.087  1.00  0.00     0.031 C 
ATOM     50  C   UNL A   1      42.724  32.110  31.525  1.00  0.00     0.029 A 
ATOM     51  C   UNL A   1      41.724  32.782  32.345  1.00  0.00     0.049 A 
ATOM     52  H   UNL A   1      39.897  33.502  31.501  1.00  0.00     0.167 HD
ATOM     53  C   UNL A   1      41.590  27.042  28.791  1.00  0.00     0.037 A 
ATOM     54  C   UNL A   1      41.534  32.601  33.686  1.00  0.00     0.037 A 
ATOM     55  C   UNL A   1      42.565  27.451  29.804  1.00  0.00     0.049 A 
ATOM     56  C   UNL A   1      42.047  31.258  34.121  1.00  0.00     0.074 A 
ATOM     57  C   UNL A   1      43.647  28.314  29.728  1.00  0.00     0.029 A 
ATOM     58  N   UNL A   1      42.286  27.275  31.153  1.00  0.00    -0.354 N 
ATOM     59  N   UNL A   1      42.102  30.217  33.337  1.00  0.00    -0.248 NA
ATOM     60  C   UNL A   1      42.618  31.009  35.438  1.00  0.00     0.031 C 
ATOM     61  C   UNL A   1      43.989  28.696  31.048  1.00  0.00     0.029 A 
ATOM     62  C   UNL A   1      43.122  28.061  31.921  1.00  0.00     0.049 A 
ATOM     63  H   UNL A   1      41.591  26.675  31.510  1.00  0.00     0.167 HD
ATOM     64  C   UNL A   1      42.758  29.205  33.981  1.00  0.00     0.074 A 
ATOM     65  C   UNL A   1      43.040  29.740  35.301  1.00  0.00     0.031 C 
ATOM     66  C   UNL A   1      43.060  28.021  33.371  1.00  0.00     0.037 A 
BRANCH  53  67
ATOM     67  C   UNL A   1      41.997  26.179  27.610  1.00  0.00     0.064 A 
ATOM     68  C   UNL A   1      41.443  24.883  27.459  1.00  0.00     0.173 A 
ATOM     69  C   UNL A   1      42.917  26.536  26.607  1.00  0.00     0.173 A 
ATOM     70  F   UNL A   1      40.475  24.432  28.268  1.00  0.00    -0.203 F 
ATOM     71  C   UNL A   1      41.846  23.995  26.459  1.00  0.00     0.198 A 
ATOM     72  C   UNL A   1      43.335  25.638  25.614  1.00  0.00     0.198 A 
ATOM     73  F   UNL A   1      43.410  27.773  26.511  1.00  0.00    -0.203 F 
ATOM     74  F   UNL A   1      41.293  22.776  26.392  1.00  0.00    -0.200 F 
ATOM     75  C   UNL A   1      42.808  24.364  25.547  1.00  0.00     0.200 A 
ATOM     76  F   UNL A   1      44.250  26.025  24.714  1.00  0.00    -0.200 F 
ATOM     77  F   UNL A   1      43.205  23.511  24.595  1.00  0.00    -0.200 F 
ENDBRANCH  53  67
BRANCH  54  78
ATOM     78  C   UNL A   1      40.291  33.287  34.167  1.00  0.00     0.064 A 
ATOM     79  C   UNL A   1      39.191  32.456  34.462  1.00  0.00     0.173 A 
ATOM     80  C   UNL A   1      40.333  34.543  34.794  1.00  0.00     0.173 A 
ATOM     81  F   UNL A   1      39.091  31.249  33.879  1.00  0.00    -0.203 F 
ATOM     82  C   UNL A   1      38.280  32.785  35.464  1.00  0.00     0.198 A 
ATOM     83  C   UNL A   1      39.403  34.877  35.786  1.00  0.00     0.198 A 
ATOM     84  F   UNL A   1      41.343  35.390  34.548  1.00  0.00    -0.203 F 
ATOM     85  F   UNL A   1      37.338  31.901  35.826  1.00  0.00    -0.200 F 
ATOM     86  C   UNL A   1      38.412  33.977  36.154  1.00  0.00     0.200 A 
ATOM     87  F   UNL A   1      39.518  36.038  36.446  1.00  0.00    -0.200 F 
ATOM     88  F   UNL A   1      37.610  34.238  37.196  1.00  0.00    -0.200 F 
ENDBRANCH  54  78
BRANCH  66  89
ATOM     89  C   UNL A   1      43.462  26.749  34.069  1.00  0.00     0.064 A 
ATOM     90  C   UNL A   1      42.553  25.911  34.732  1.00  0.00     0.173 A 
ATOM     91  C   UNL A   1      44.782  26.243  33.950  1.00  0.00     0.173 A 
ATOM     92  F   UNL A   1      41.247  26.199  34.785  1.00  0.00    -0.203 F 
ATOM     93  C   UNL A   1      42.951  24.707  35.313  1.00  0.00     0.198 A 
ATOM     94  C   UNL A   1      45.155  25.005  34.463  1.00  0.00     0.198 A 
ATOM     95  F   UNL A   1      45.745  26.914  33.303  1.00  0.00    -0.203 F 
ATOM     96  F   UNL A   1      42.055  23.975  35.991  1.00  0.00    -0.200 F 
ATOM     97  C   UNL A   1      44.246  24.249  35.170  1.00  0.00     0.200 A 
ATOM     98  F   UNL A   1      46.396  24.545  34.250  1.00  0.00    -0.200 F 
ATOM     99  F   UNL A   1      44.611  23.071  35.692  1.00  0.00    -0.200 F 
ENDBRANCH  66  89
ENDBRANCH  40  41
ENDBRANCH  32  35
ENDBRANCH  30  31
ENDBRANCH  29  30
ENDBRANCH   1  29
TORSDOF 14
ENDMDL
