MODEL 1
REMARK VINA RESULT:     -11.2      0.000      0.000
REMARK SMILES CCC[NH2+]CC1CC[NH+](CC(C)(C)C(=O)NCCCCNC(=O)c2ccc(-c3c4nc(c(-c5c(F)c(F)c(F)c(F)c5F)c5ccc([nH]5)c(-c5c(F)c(F)c(F)c(F)c5F)c5nc(c(-c6c(F)c(F)c(F)c(F)c6F)c6ccc3[nH]6)C=C5)C=C4)cc2)CC1
REMARK SMILES IDX 14 1 15 2 16 3 11 5 12 6 13 7 10 8 9 9 6 10 7 11 88 12 8 13
REMARK SMILES IDX 87 14 5 16 4 17 3 20 2 21 1 22 17 23 18 24 19 25 20 26 21 27
REMARK SMILES IDX 22 28 23 30 24 31 25 32 86 33 26 34 85 35 27 36 28 37 29 38
REMARK SMILES IDX 79 39 30 40 84 41 78 42 80 43 31 44 83 45 77 46 76 47 32 49
REMARK SMILES IDX 64 50 44 51 63 52 45 53 48 54 62 55 81 56 46 57 47 58 61 60
REMARK SMILES IDX 82 61 49 62 33 63 34 64 42 65 35 66 36 67 40 68 43 69 37 70
REMARK SMILES IDX 38 71 41 72 39 73 65 74 66 75 74 76 67 77 68 78 72 79 75 80
REMARK SMILES IDX 69 81 70 82 73 83 71 84 50 85 51 86 59 87 52 88 53 89 57 90
REMARK SMILES IDX 60 91 54 92 55 93 58 94 56 95
REMARK H PARENT 16 4 9 15 4 18 4 19 21 29 80 48 48 59
REMARK Flexibility Score: inf
ROOT
ATOM      1  C   UNL A   1      31.840  27.456  26.377  1.00  0.00     0.231 C 
ATOM      2  O   UNL A   1      31.060  26.901  27.157  1.00  0.00    -0.274 OA
ATOM      3  N   UNL A   1      32.344  28.641  26.811  1.00  0.00    -0.355 N 
ATOM      4  H   UNL A   1      32.508  28.699  27.780  1.00  0.00     0.163 HD
ENDROOT
BRANCH   1   5
ATOM      5  C   UNL A   1      32.156  26.875  24.984  1.00  0.00     0.092 C 
ATOM      6  C   UNL A   1      33.529  27.264  24.410  1.00  0.00     0.027 C 
ATOM      7  C   UNL A   1      31.062  27.428  24.046  1.00  0.00     0.027 C 
BRANCH   5   8
ATOM      8  C   UNL A   1      32.010  25.301  25.025  1.00  0.00     0.278 C 
BRANCH   8   9
ATOM      9  N   UNL A   1      32.709  24.445  26.016  1.00  0.00    -0.334 N 
ATOM     10  C   UNL A   1      33.883  21.961  27.095  1.00  0.00     0.055 C 
ATOM     11  C   UNL A   1      32.631  22.598  27.712  1.00  0.00     0.071 C 
ATOM     12  C   UNL A   1      34.750  23.104  26.558  1.00  0.00     0.071 C 
ATOM     13  C   UNL A   1      31.872  23.465  26.701  1.00  0.00     0.262 C 
ATOM     14  C   UNL A   1      33.988  23.931  25.525  1.00  0.00     0.262 C 
ATOM     15  H   UNL A   1      32.953  25.081  26.775  1.00  0.00     0.348 HD
BRANCH  10  16
ATOM     16  C   UNL A   1      33.534  20.927  25.987  1.00  0.00     0.264 C 
BRANCH  16  17
ATOM     17  N   UNL A   1      33.272  19.580  26.492  1.00  0.00    -0.346 N 
ATOM     18  H   UNL A   1      34.145  19.191  26.847  1.00  0.00     0.346 HD
ATOM     19  H   UNL A   1      32.566  19.660  27.223  1.00  0.00     0.346 HD
BRANCH  17  20
ATOM     20  C   UNL A   1      32.744  18.683  25.468  1.00  0.00     0.260 C 
BRANCH  20  21
ATOM     21  C   UNL A   1      33.834  18.279  24.470  1.00  0.00     0.058 C 
ATOM     22  C   UNL A   1      33.294  17.551  23.245  1.00  0.00     0.010 C 
ENDBRANCH  20  21
ENDBRANCH  17  20
ENDBRANCH  16  17
ENDBRANCH  10  16
ENDBRANCH   8   9
ENDBRANCH   5   8
ENDBRANCH   1   5
BRANCH   3  23
ATOM     23  C   UNL A   1      32.674  29.829  26.057  1.00  0.00     0.116 C 
BRANCH  23  24
ATOM     24  C   UNL A   1      31.403  30.596  25.699  1.00  0.00     0.023 C 
BRANCH  24  25
ATOM     25  C   UNL A   1      31.250  31.931  26.426  1.00  0.00     0.023 C 
BRANCH  25  26
ATOM     26  C   UNL A   1      32.519  32.432  27.099  1.00  0.00     0.116 C 
BRANCH  26  27
ATOM     27  N   UNL A   1      32.406  33.809  27.555  1.00  0.00    -0.352 N 
ATOM     28  C   UNL A   1      33.139  34.467  28.509  1.00  0.00     0.251 C 
ATOM     29  H   UNL A   1      31.704  34.343  27.117  1.00  0.00     0.163 HD
ATOM     30  O   UNL A   1      32.806  35.583  28.887  1.00  0.00    -0.269 OA
BRANCH  28  31
ATOM     31  C   UNL A   1      34.324  33.807  29.092  1.00  0.00     0.039 A 
ATOM     32  C   UNL A   1      35.594  34.272  28.746  1.00  0.00     0.014 A 
ATOM     33  C   UNL A   1      34.178  32.737  29.978  1.00  0.00     0.014 A 
ATOM     34  C   UNL A   1      36.719  33.678  29.315  1.00  0.00     0.010 A 
ATOM     35  C   UNL A   1      35.293  32.216  30.620  1.00  0.00     0.010 A 
ATOM     36  C   UNL A   1      36.576  32.657  30.269  1.00  0.00    -0.014 A 
BRANCH  36  37
ATOM     37  C   UNL A   1      37.764  31.994  30.860  1.00  0.00     0.031 A 
ATOM     38  C   UNL A   1      38.210  32.363  32.249  1.00  0.00     0.074 A 
ATOM     39  C   UNL A   1      38.455  31.090  30.142  1.00  0.00     0.049 A 
ATOM     40  N   UNL A   1      39.215  31.901  32.948  1.00  0.00    -0.248 NA
ATOM     41  C   UNL A   1      37.443  33.418  32.932  1.00  0.00     0.031 C 
ATOM     42  C   UNL A   1      38.148  30.687  28.769  1.00  0.00     0.029 A 
ATOM     43  N   UNL A   1      39.556  30.342  30.472  1.00  0.00    -0.354 N 
ATOM     44  C   UNL A   1      39.210  32.621  34.136  1.00  0.00     0.074 A 
ATOM     45  C   UNL A   1      38.152  33.599  34.034  1.00  0.00     0.031 C 
ATOM     46  C   UNL A   1      39.009  29.729  28.392  1.00  0.00     0.029 A 
ATOM     47  C   UNL A   1      39.949  29.477  29.481  1.00  0.00     0.049 A 
ATOM     48  H   UNL A   1      40.021  30.419  31.336  1.00  0.00     0.167 HD
ATOM     49  C   UNL A   1      39.997  32.461  35.228  1.00  0.00     0.037 A 
ATOM     50  C   UNL A   1      40.947  28.574  29.463  1.00  0.00     0.037 A 
ATOM     51  C   UNL A   1      41.031  31.467  35.330  1.00  0.00     0.049 A 
ATOM     52  C   UNL A   1      41.813  28.418  30.685  1.00  0.00     0.074 A 
ATOM     53  C   UNL A   1      41.844  31.173  36.410  1.00  0.00     0.029 A 
ATOM     54  N   UNL A   1      41.402  30.608  34.304  1.00  0.00    -0.354 N 
ATOM     55  N   UNL A   1      41.747  29.044  31.835  1.00  0.00    -0.248 NA
ATOM     56  C   UNL A   1      42.886  27.418  30.606  1.00  0.00     0.031 C 
ATOM     57  C   UNL A   1      42.748  30.180  36.017  1.00  0.00     0.029 A 
ATOM     58  C   UNL A   1      42.452  29.803  34.716  1.00  0.00     0.049 A 
ATOM     59  H   UNL A   1      40.981  30.576  33.414  1.00  0.00     0.167 HD
ATOM     60  C   UNL A   1      42.737  28.483  32.633  1.00  0.00     0.074 A 
ATOM     61  C   UNL A   1      43.382  27.461  31.833  1.00  0.00     0.031 C 
ATOM     62  C   UNL A   1      43.076  28.781  33.912  1.00  0.00     0.037 A 
BRANCH  49  63
ATOM     63  C   UNL A   1      39.769  33.394  36.385  1.00  0.00     0.064 A 
ATOM     64  C   UNL A   1      38.878  33.086  37.426  1.00  0.00     0.173 A 
ATOM     65  C   UNL A   1      40.447  34.621  36.450  1.00  0.00     0.173 A 
ATOM     66  F   UNL A   1      38.195  31.931  37.412  1.00  0.00    -0.203 F 
ATOM     67  C   UNL A   1      38.637  33.990  38.458  1.00  0.00     0.198 A 
ATOM     68  C   UNL A   1      40.234  35.506  37.505  1.00  0.00     0.198 A 
ATOM     69  F   UNL A   1      41.315  34.967  35.487  1.00  0.00    -0.203 F 
ATOM     70  F   UNL A   1      37.725  33.704  39.398  1.00  0.00    -0.200 F 
ATOM     71  C   UNL A   1      39.319  35.196  38.499  1.00  0.00     0.200 A 
ATOM     72  F   UNL A   1      40.906  36.664  37.552  1.00  0.00    -0.200 F 
ATOM     73  F   UNL A   1      39.085  36.066  39.491  1.00  0.00    -0.200 F 
ENDBRANCH  49  63
BRANCH  50  74
ATOM     74  C   UNL A   1      41.140  27.704  28.274  1.00  0.00     0.064 A 
ATOM     75  C   UNL A   1      40.479  26.471  28.177  1.00  0.00     0.173 A 
ATOM     76  C   UNL A   1      41.981  28.077  27.217  1.00  0.00     0.173 A 
ATOM     77  F   UNL A   1      39.678  26.060  29.170  1.00  0.00    -0.203 F 
ATOM     78  C   UNL A   1      40.669  25.636  27.077  1.00  0.00     0.198 A 
ATOM     79  C   UNL A   1      42.148  27.255  26.104  1.00  0.00     0.198 A 
ATOM     80  F   UNL A   1      42.632  29.250  27.257  1.00  0.00    -0.203 F 
ATOM     81  F   UNL A   1      40.061  24.443  27.032  1.00  0.00    -0.200 F 
ATOM     82  C   UNL A   1      41.498  26.031  26.040  1.00  0.00     0.200 A 
ATOM     83  F   UNL A   1      42.937  27.647  25.095  1.00  0.00    -0.200 F 
ATOM     84  F   UNL A   1      41.677  25.230  24.980  1.00  0.00    -0.200 F 
ENDBRANCH  50  74
BRANCH  62  85
ATOM     85  C   UNL A   1      44.154  27.951  34.549  1.00  0.00     0.064 A 
ATOM     86  C   UNL A   1      45.503  28.336  34.528  1.00  0.00     0.173 A 
ATOM     87  C   UNL A   1      43.823  26.759  35.213  1.00  0.00     0.173 A 
ATOM     88  F   UNL A   1      45.876  29.459  33.897  1.00  0.00    -0.203 F 
ATOM     89  C   UNL A   1      46.484  27.537  35.111  1.00  0.00     0.198 A 
ATOM     90  C   UNL A   1      44.802  25.984  35.829  1.00  0.00     0.198 A 
ATOM     91  F   UNL A   1      42.548  26.348  35.273  1.00  0.00    -0.203 F 
ATOM     92  F   UNL A   1      47.774  27.892  35.021  1.00  0.00    -0.200 F 
ATOM     93  C   UNL A   1      46.133  26.367  35.767  1.00  0.00     0.200 A 
ATOM     94  F   UNL A   1      44.457  24.864  36.479  1.00  0.00    -0.200 F 
ATOM     95  F   UNL A   1      47.078  25.602  36.330  1.00  0.00    -0.200 F 
ENDBRANCH  62  85
ENDBRANCH  36  37
ENDBRANCH  28  31
ENDBRANCH  26  27
ENDBRANCH  25  26
ENDBRANCH  24  25
ENDBRANCH  23  24
ENDBRANCH   3  23
TORSDOF 17
ENDMDL
MODEL 2
REMARK VINA RESULT:     -11.0      5.300     11.140
REMARK SMILES CCC[NH2+]CC1CC[NH+](CC(C)(C)C(=O)NCCCCNC(=O)c2ccc(-c3c4nc(c(-c5c(F)c(F)c(F)c(F)c5F)c5ccc([nH]5)c(-c5c(F)c(F)c(F)c(F)c5F)c5nc(c(-c6c(F)c(F)c(F)c(F)c6F)c6ccc3[nH]6)C=C5)C=C4)cc2)CC1
REMARK SMILES IDX 14 1 15 2 16 3 11 5 12 6 13 7 10 8 9 9 6 10 7 11 88 12 8 13
REMARK SMILES IDX 87 14 5 16 4 17 3 20 2 21 1 22 17 23 18 24 19 25 20 26 21 27
REMARK SMILES IDX 22 28 23 30 24 31 25 32 86 33 26 34 85 35 27 36 28 37 29 38
REMARK SMILES IDX 79 39 30 40 84 41 78 42 80 43 31 44 83 45 77 46 76 47 32 49
REMARK SMILES IDX 64 50 44 51 63 52 45 53 48 54 62 55 81 56 46 57 47 58 61 60
REMARK SMILES IDX 82 61 49 62 33 63 34 64 42 65 35 66 36 67 40 68 43 69 37 70
REMARK SMILES IDX 38 71 41 72 39 73 65 74 66 75 74 76 67 77 68 78 72 79 75 80
REMARK SMILES IDX 69 81 70 82 73 83 71 84 50 85 51 86 59 87 52 88 53 89 57 90
REMARK SMILES IDX 60 91 54 92 55 93 58 94 56 95
REMARK H PARENT 16 4 9 15 4 18 4 19 21 29 80 48 48 59
REMARK Flexibility Score: inf
ROOT
ATOM      1  C   UNL A   1      36.136  23.126  23.807  1.00  0.00     0.231 C 
ATOM      2  O   UNL A   1      36.248  23.315  22.592  1.00  0.00    -0.274 OA
ATOM      3  N   UNL A   1      37.182  22.484  24.390  1.00  0.00    -0.355 N 
ATOM      4  H   UNL A   1      38.067  22.697  24.014  1.00  0.00     0.163 HD
ENDROOT
BRANCH   1   5
ATOM      5  C   UNL A   1      34.865  23.524  24.583  1.00  0.00     0.092 C 
ATOM      6  C   UNL A   1      34.970  23.406  26.113  1.00  0.00     0.027 C 
ATOM      7  C   UNL A   1      33.761  22.561  24.096  1.00  0.00     0.027 C 
BRANCH   5   8
ATOM      8  C   UNL A   1      34.440  24.993  24.179  1.00  0.00     0.278 C 
BRANCH   8   9
ATOM      9  N   UNL A   1      33.094  25.335  23.655  1.00  0.00    -0.334 N 
ATOM     10  C   UNL A   1      30.987  27.076  22.539  1.00  0.00     0.055 C 
ATOM     11  C   UNL A   1      30.889  26.493  23.955  1.00  0.00     0.071 C 
ATOM     12  C   UNL A   1      31.732  26.048  21.682  1.00  0.00     0.071 C 
ATOM     13  C   UNL A   1      32.268  26.158  24.533  1.00  0.00     0.262 C 
ATOM     14  C   UNL A   1      33.117  25.757  22.254  1.00  0.00     0.262 C 
ATOM     15  H   UNL A   1      32.587  24.451  23.657  1.00  0.00     0.348 HD
BRANCH  10  16
ATOM     16  C   UNL A   1      31.688  28.464  22.519  1.00  0.00     0.264 C 
BRANCH  16  17
ATOM     17  N   UNL A   1      30.809  29.568  22.135  1.00  0.00    -0.346 N 
ATOM     18  H   UNL A   1      31.374  30.410  22.027  1.00  0.00     0.346 HD
ATOM     19  H   UNL A   1      30.349  29.304  21.265  1.00  0.00     0.346 HD
BRANCH  17  20
ATOM     20  C   UNL A   1      29.765  29.832  23.121  1.00  0.00     0.260 C 
BRANCH  20  21
ATOM     21  C   UNL A   1      28.585  30.578  22.491  1.00  0.00     0.058 C 
ATOM     22  C   UNL A   1      27.588  31.107  23.515  1.00  0.00     0.010 C 
ENDBRANCH  20  21
ENDBRANCH  17  20
ENDBRANCH  16  17
ENDBRANCH  10  16
ENDBRANCH   8   9
ENDBRANCH   5   8
ENDBRANCH   1   5
BRANCH   3  23
ATOM     23  C   UNL A   1      37.186  21.536  25.480  1.00  0.00     0.116 C 
BRANCH  23  24
ATOM     24  C   UNL A   1      36.989  20.119  24.947  1.00  0.00     0.023 C 
BRANCH  24  25
ATOM     25  C   UNL A   1      38.247  19.251  24.993  1.00  0.00     0.023 C 
BRANCH  25  26
ATOM     26  C   UNL A   1      39.379  19.824  25.833  1.00  0.00     0.116 C 
BRANCH  26  27
ATOM     27  N   UNL A   1      40.536  18.944  25.888  1.00  0.00    -0.352 N 
ATOM     28  C   UNL A   1      41.858  19.265  26.058  1.00  0.00     0.251 C 
ATOM     29  H   UNL A   1      40.341  17.984  25.790  1.00  0.00     0.163 HD
ATOM     30  O   UNL A   1      42.726  18.412  25.919  1.00  0.00    -0.269 OA
BRANCH  28  31
ATOM     31  C   UNL A   1      42.228  20.655  26.389  1.00  0.00     0.039 A 
ATOM     32  C   UNL A   1      42.392  21.575  25.352  1.00  0.00     0.014 A 
ATOM     33  C   UNL A   1      42.410  21.046  27.718  1.00  0.00     0.014 A 
ATOM     34  C   UNL A   1      42.709  22.898  25.654  1.00  0.00     0.010 A 
ATOM     35  C   UNL A   1      42.624  22.383  28.021  1.00  0.00     0.010 A 
ATOM     36  C   UNL A   1      42.811  23.316  26.992  1.00  0.00    -0.014 A 
BRANCH  36  37
ATOM     37  C   UNL A   1      43.178  24.712  27.329  1.00  0.00     0.031 A 
ATOM     38  C   UNL A   1      44.566  25.212  27.031  1.00  0.00     0.074 A 
ATOM     39  C   UNL A   1      42.280  25.516  27.928  1.00  0.00     0.049 A 
ATOM     40  N   UNL A   1      45.086  26.394  27.242  1.00  0.00    -0.248 NA
ATOM     41  C   UNL A   1      45.507  24.242  26.448  1.00  0.00     0.031 C 
ATOM     42  C   UNL A   1      40.922  25.131  28.310  1.00  0.00     0.029 A 
ATOM     43  N   UNL A   1      42.376  26.829  28.313  1.00  0.00    -0.354 N 
ATOM     44  C   UNL A   1      46.411  26.300  26.838  1.00  0.00     0.074 A 
ATOM     45  C   UNL A   1      46.637  24.929  26.440  1.00  0.00     0.031 C 
ATOM     46  C   UNL A   1      40.294  26.197  28.829  1.00  0.00     0.029 A 
ATOM     47  C   UNL A   1      41.216  27.330  28.851  1.00  0.00     0.049 A 
ATOM     48  H   UNL A   1      43.198  27.361  28.215  1.00  0.00     0.167 HD
ATOM     49  C   UNL A   1      47.350  27.275  26.774  1.00  0.00     0.037 A 
ATOM     50  C   UNL A   1      40.930  28.567  29.295  1.00  0.00     0.037 A 
ATOM     51  C   UNL A   1      47.108  28.643  27.148  1.00  0.00     0.049 A 
ATOM     52  C   UNL A   1      41.990  29.633  29.221  1.00  0.00     0.074 A 
ATOM     53  C   UNL A   1      47.964  29.727  27.063  1.00  0.00     0.029 A 
ATOM     54  N   UNL A   1      45.920  29.113  27.690  1.00  0.00    -0.354 N 
ATOM     55  N   UNL A   1      43.214  29.558  28.758  1.00  0.00    -0.248 NA
ATOM     56  C   UNL A   1      41.618  30.964  29.722  1.00  0.00     0.031 C 
ATOM     57  C   UNL A   1      47.315  30.838  27.612  1.00  0.00     0.029 A 
ATOM     58  C   UNL A   1      46.030  30.466  27.972  1.00  0.00     0.049 A 
ATOM     59  H   UNL A   1      45.117  28.566  27.852  1.00  0.00     0.167 HD
ATOM     60  C   UNL A   1      43.744  30.837  28.869  1.00  0.00     0.074 A 
ATOM     61  C   UNL A   1      42.703  31.669  29.435  1.00  0.00     0.031 C 
ATOM     62  C   UNL A   1      44.979  31.283  28.526  1.00  0.00     0.037 A 
BRANCH  49  63
ATOM     63  C   UNL A   1      48.720  26.885  26.295  1.00  0.00     0.064 A 
ATOM     64  C   UNL A   1      49.112  27.038  24.954  1.00  0.00     0.173 A 
ATOM     65  C   UNL A   1      49.656  26.340  27.188  1.00  0.00     0.173 A 
ATOM     66  F   UNL A   1      48.256  27.543  24.053  1.00  0.00    -0.203 F 
ATOM     67  C   UNL A   1      50.365  26.614  24.518  1.00  0.00     0.198 A 
ATOM     68  C   UNL A   1      50.923  25.955  26.757  1.00  0.00     0.198 A 
ATOM     69  F   UNL A   1      49.340  26.175  28.481  1.00  0.00    -0.203 F 
ATOM     70  F   UNL A   1      50.685  26.700  23.219  1.00  0.00    -0.200 F 
ATOM     71  C   UNL A   1      51.271  26.078  25.420  1.00  0.00     0.200 A 
ATOM     72  F   UNL A   1      51.803  25.452  27.633  1.00  0.00    -0.200 F 
ATOM     73  F   UNL A   1      52.476  25.669  25.000  1.00  0.00    -0.200 F 
ENDBRANCH  49  63
BRANCH  50  74
ATOM     74  C   UNL A   1      39.563  28.881  29.789  1.00  0.00     0.064 A 
ATOM     75  C   UNL A   1      38.601  29.428  28.927  1.00  0.00     0.173 A 
ATOM     76  C   UNL A   1      39.189  28.646  31.119  1.00  0.00     0.173 A 
ATOM     77  F   UNL A   1      38.916  29.688  27.650  1.00  0.00    -0.203 F 
ATOM     78  C   UNL A   1      37.323  29.747  29.383  1.00  0.00     0.198 A 
ATOM     79  C   UNL A   1      37.902  28.938  31.567  1.00  0.00     0.198 A 
ATOM     80  F   UNL A   1      40.069  28.118  31.982  1.00  0.00    -0.203 F 
ATOM     81  F   UNL A   1      36.439  30.311  28.550  1.00  0.00    -0.200 F 
ATOM     82  C   UNL A   1      36.973  29.496  30.701  1.00  0.00     0.200 A 
ATOM     83  F   UNL A   1      37.561  28.680  32.836  1.00  0.00    -0.200 F 
ATOM     84  F   UNL A   1      35.743  29.799  31.138  1.00  0.00    -0.200 F 
ENDBRANCH  50  74
BRANCH  62  85
ATOM     85  C   UNL A   1      45.251  32.751  28.696  1.00  0.00     0.064 A 
ATOM     86  C   UNL A   1      44.902  33.693  27.717  1.00  0.00     0.173 A 
ATOM     87  C   UNL A   1      45.852  33.223  29.875  1.00  0.00     0.173 A 
ATOM     88  F   UNL A   1      44.337  33.296  26.567  1.00  0.00    -0.203 F 
ATOM     89  C   UNL A   1      45.183  35.047  27.894  1.00  0.00     0.198 A 
ATOM     90  C   UNL A   1      46.094  34.580  30.064  1.00  0.00     0.198 A 
ATOM     91  F   UNL A   1      46.196  32.367  30.848  1.00  0.00    -0.203 F 
ATOM     92  F   UNL A   1      44.901  35.920  26.916  1.00  0.00    -0.200 F 
ATOM     93  C   UNL A   1      45.771  35.489  29.069  1.00  0.00     0.200 A 
ATOM     94  F   UNL A   1      46.645  35.007  31.208  1.00  0.00    -0.200 F 
ATOM     95  F   UNL A   1      46.037  36.792  29.238  1.00  0.00    -0.200 F 
ENDBRANCH  62  85
ENDBRANCH  36  37
ENDBRANCH  28  31
ENDBRANCH  26  27
ENDBRANCH  25  26
ENDBRANCH  24  25
ENDBRANCH  23  24
ENDBRANCH   3  23
TORSDOF 17
ENDMDL
MODEL 3
REMARK VINA RESULT:     -11.0      0.659      2.238
REMARK SMILES CCC[NH2+]CC1CC[NH+](CC(C)(C)C(=O)NCCCCNC(=O)c2ccc(-c3c4nc(c(-c5c(F)c(F)c(F)c(F)c5F)c5ccc([nH]5)c(-c5c(F)c(F)c(F)c(F)c5F)c5nc(c(-c6c(F)c(F)c(F)c(F)c6F)c6ccc3[nH]6)C=C5)C=C4)cc2)CC1
REMARK SMILES IDX 14 1 15 2 16 3 11 5 12 6 13 7 10 8 9 9 6 10 7 11 88 12 8 13
REMARK SMILES IDX 87 14 5 16 4 17 3 20 2 21 1 22 17 23 18 24 19 25 20 26 21 27
REMARK SMILES IDX 22 28 23 30 24 31 25 32 86 33 26 34 85 35 27 36 28 37 29 38
REMARK SMILES IDX 79 39 30 40 84 41 78 42 80 43 31 44 83 45 77 46 76 47 32 49
REMARK SMILES IDX 64 50 44 51 63 52 45 53 48 54 62 55 81 56 46 57 47 58 61 60
REMARK SMILES IDX 82 61 49 62 33 63 34 64 42 65 35 66 36 67 40 68 43 69 37 70
REMARK SMILES IDX 38 71 41 72 39 73 65 74 66 75 74 76 67 77 68 78 72 79 75 80
REMARK SMILES IDX 69 81 70 82 73 83 71 84 50 85 51 86 59 87 52 88 53 89 57 90
REMARK SMILES IDX 60 91 54 92 55 93 58 94 56 95
REMARK H PARENT 16 4 9 15 4 18 4 19 21 29 80 48 48 59
REMARK Flexibility Score: inf
ROOT
ATOM      1  C   UNL A   1      31.893  27.835  26.889  1.00  0.00     0.231 C 
ATOM      2  O   UNL A   1      31.043  27.326  27.626  1.00  0.00    -0.274 OA
ATOM      3  N   UNL A   1      32.263  29.099  27.222  1.00  0.00    -0.355 N 
ATOM      4  H   UNL A   1      32.285  29.289  28.188  1.00  0.00     0.163 HD
ENDROOT
BRANCH   1   5
ATOM      5  C   UNL A   1      32.434  27.109  25.640  1.00  0.00     0.092 C 
ATOM      6  C   UNL A   1      33.687  27.740  25.010  1.00  0.00     0.027 C 
ATOM      7  C   UNL A   1      31.291  27.159  24.603  1.00  0.00     0.027 C 
BRANCH   5   8
ATOM      8  C   UNL A   1      32.706  25.591  25.991  1.00  0.00     0.278 C 
BRANCH   8   9
ATOM      9  N   UNL A   1      32.813  24.526  24.962  1.00  0.00    -0.334 N 
ATOM     10  C   UNL A   1      33.472  21.855  23.892  1.00  0.00     0.055 C 
ATOM     11  C   UNL A   1      34.236  23.112  23.455  1.00  0.00     0.071 C 
ATOM     12  C   UNL A   1      32.029  22.284  24.177  1.00  0.00     0.071 C 
ATOM     13  C   UNL A   1      34.167  24.220  24.513  1.00  0.00     0.262 C 
ATOM     14  C   UNL A   1      31.981  23.359  25.259  1.00  0.00     0.262 C 
ATOM     15  H   UNL A   1      32.402  24.938  24.124  1.00  0.00     0.348 HD
BRANCH  10  16
ATOM     16  C   UNL A   1      34.125  21.163  25.121  1.00  0.00     0.264 C 
BRANCH  16  17
ATOM     17  N   UNL A   1      33.641  19.806  25.367  1.00  0.00    -0.346 N 
ATOM     18  H   UNL A   1      33.744  19.599  26.360  1.00  0.00     0.346 HD
ATOM     19  H   UNL A   1      32.666  19.771  25.070  1.00  0.00     0.346 HD
BRANCH  17  20
ATOM     20  C   UNL A   1      34.368  18.796  24.603  1.00  0.00     0.260 C 
BRANCH  20  21
ATOM     21  C   UNL A   1      33.410  17.921  23.789  1.00  0.00     0.058 C 
ATOM     22  C   UNL A   1      34.018  16.590  23.365  1.00  0.00     0.010 C 
ENDBRANCH  20  21
ENDBRANCH  17  20
ENDBRANCH  16  17
ENDBRANCH  10  16
ENDBRANCH   8   9
ENDBRANCH   5   8
ENDBRANCH   1   5
BRANCH   3  23
ATOM     23  C   UNL A   1      32.629  30.204  26.366  1.00  0.00     0.116 C 
BRANCH  23  24
ATOM     24  C   UNL A   1      31.380  30.964  25.925  1.00  0.00     0.023 C 
BRANCH  24  25
ATOM     25  C   UNL A   1      31.262  32.371  26.511  1.00  0.00     0.023 C 
BRANCH  25  26
ATOM     26  C   UNL A   1      32.539  32.898  27.150  1.00  0.00     0.116 C 
BRANCH  26  27
ATOM     27  N   UNL A   1      32.393  34.254  27.655  1.00  0.00    -0.352 N 
ATOM     28  C   UNL A   1      33.086  34.881  28.659  1.00  0.00     0.251 C 
ATOM     29  H   UNL A   1      31.700  34.797  27.215  1.00  0.00     0.163 HD
ATOM     30  O   UNL A   1      32.727  35.978  29.069  1.00  0.00    -0.269 OA
BRANCH  28  31
ATOM     31  C   UNL A   1      34.258  34.211  29.256  1.00  0.00     0.039 A 
ATOM     32  C   UNL A   1      34.051  33.175  30.169  1.00  0.00     0.014 A 
ATOM     33  C   UNL A   1      35.553  34.604  28.914  1.00  0.00     0.014 A 
ATOM     34  C   UNL A   1      35.148  32.513  30.715  1.00  0.00     0.010 A 
ATOM     35  C   UNL A   1      36.641  33.878  29.379  1.00  0.00     0.010 A 
ATOM     36  C   UNL A   1      36.452  32.848  30.311  1.00  0.00    -0.014 A 
BRANCH  36  37
ATOM     37  C   UNL A   1      37.632  32.175  30.905  1.00  0.00     0.031 A 
ATOM     38  C   UNL A   1      38.082  32.544  32.293  1.00  0.00     0.074 A 
ATOM     39  C   UNL A   1      38.313  31.261  30.191  1.00  0.00     0.049 A 
ATOM     40  N   UNL A   1      39.081  32.074  32.994  1.00  0.00    -0.248 NA
ATOM     41  C   UNL A   1      37.326  33.610  32.971  1.00  0.00     0.031 C 
ATOM     42  C   UNL A   1      38.002  30.855  28.820  1.00  0.00     0.029 A 
ATOM     43  N   UNL A   1      39.405  30.501  30.524  1.00  0.00    -0.354 N 
ATOM     44  C   UNL A   1      39.084  32.798  34.179  1.00  0.00     0.074 A 
ATOM     45  C   UNL A   1      38.036  33.788  34.073  1.00  0.00     0.031 C 
ATOM     46  C   UNL A   1      38.853  29.886  28.446  1.00  0.00     0.029 A 
ATOM     47  C   UNL A   1      39.789  29.628  29.536  1.00  0.00     0.049 A 
ATOM     48  H   UNL A   1      39.871  30.576  31.388  1.00  0.00     0.167 HD
ATOM     49  C   UNL A   1      39.868  32.635  35.272  1.00  0.00     0.037 A 
ATOM     50  C   UNL A   1      40.777  28.714  29.523  1.00  0.00     0.037 A 
ATOM     51  C   UNL A   1      40.891  31.629  35.378  1.00  0.00     0.049 A 
ATOM     52  C   UNL A   1      41.640  28.554  30.746  1.00  0.00     0.074 A 
ATOM     53  C   UNL A   1      41.700  31.330  36.460  1.00  0.00     0.029 A 
ATOM     54  N   UNL A   1      41.253  30.762  34.356  1.00  0.00    -0.354 N 
ATOM     55  N   UNL A   1      41.582  29.184  31.894  1.00  0.00    -0.248 NA
ATOM     56  C   UNL A   1      42.702  27.541  30.671  1.00  0.00     0.031 C 
ATOM     57  C   UNL A   1      42.594  30.325  36.071  1.00  0.00     0.029 A 
ATOM     58  C   UNL A   1      42.294  29.947  34.772  1.00  0.00     0.049 A 
ATOM     59  H   UNL A   1      40.832  30.731  33.466  1.00  0.00     0.167 HD
ATOM     60  C   UNL A   1      42.565  28.615  32.694  1.00  0.00     0.074 A 
ATOM     61  C   UNL A   1      43.199  27.584  31.899  1.00  0.00     0.031 C 
ATOM     62  C   UNL A   1      42.907  28.915  33.972  1.00  0.00     0.037 A 
BRANCH  49  63
ATOM     63  C   UNL A   1      39.650  33.574  36.425  1.00  0.00     0.064 A 
ATOM     64  C   UNL A   1      40.289  34.823  36.500  1.00  0.00     0.173 A 
ATOM     65  C   UNL A   1      38.796  33.216  37.480  1.00  0.00     0.173 A 
ATOM     66  F   UNL A   1      41.125  35.214  35.526  1.00  0.00    -0.203 F 
ATOM     67  C   UNL A   1      40.120  35.652  37.606  1.00  0.00     0.198 A 
ATOM     68  C   UNL A   1      38.598  34.066  38.565  1.00  0.00     0.198 A 
ATOM     69  F   UNL A   1      38.154  32.038  37.461  1.00  0.00    -0.203 F 
ATOM     70  F   UNL A   1      40.801  36.804  37.688  1.00  0.00    -0.200 F 
ATOM     71  C   UNL A   1      39.271  35.276  38.635  1.00  0.00     0.200 A 
ATOM     72  F   UNL A   1      37.764  33.707  39.551  1.00  0.00    -0.200 F 
ATOM     73  F   UNL A   1      39.111  36.073  39.700  1.00  0.00    -0.200 F 
ENDBRANCH  49  63
BRANCH  50  74
ATOM     74  C   UNL A   1      40.961  27.837  28.338  1.00  0.00     0.064 A 
ATOM     75  C   UNL A   1      41.786  28.236  27.275  1.00  0.00     0.173 A 
ATOM     76  C   UNL A   1      40.326  26.591  28.237  1.00  0.00     0.173 A 
ATOM     77  F   UNL A   1      42.401  29.426  27.316  1.00  0.00    -0.203 F 
ATOM     78  C   UNL A   1      41.950  27.432  26.149  1.00  0.00     0.198 A 
ATOM     79  C   UNL A   1      40.514  25.775  27.123  1.00  0.00     0.198 A 
ATOM     80  F   UNL A   1      39.532  26.159  29.229  1.00  0.00    -0.203 F 
ATOM     81  F   UNL A   1      42.705  27.859  25.128  1.00  0.00    -0.200 F 
ATOM     82  C   UNL A   1      41.318  26.200  26.076  1.00  0.00     0.200 A 
ATOM     83  F   UNL A   1      39.915  24.578  27.063  1.00  0.00    -0.200 F 
ATOM     84  F   UNL A   1      41.480  25.425  24.995  1.00  0.00    -0.200 F 
ENDBRANCH  50  74
BRANCH  62  85
ATOM     85  C   UNL A   1      43.975  28.076  34.612  1.00  0.00     0.064 A 
ATOM     86  C   UNL A   1      43.681  26.884  35.291  1.00  0.00     0.173 A 
ATOM     87  C   UNL A   1      45.323  28.464  34.523  1.00  0.00     0.173 A 
ATOM     88  F   UNL A   1      42.411  26.473  35.417  1.00  0.00    -0.203 F 
ATOM     89  C   UNL A   1      44.691  26.135  35.892  1.00  0.00     0.198 A 
ATOM     90  C   UNL A   1      46.332  27.692  35.090  1.00  0.00     0.198 A 
ATOM     91  F   UNL A   1      45.661  29.589  33.877  1.00  0.00    -0.203 F 
ATOM     92  F   UNL A   1      44.379  25.035  36.592  1.00  0.00    -0.200 F 
ATOM     93  C   UNL A   1      46.015  26.535  35.785  1.00  0.00     0.200 A 
ATOM     94  F   UNL A   1      47.611  28.071  34.969  1.00  0.00    -0.200 F 
ATOM     95  F   UNL A   1      46.984  25.811  36.361  1.00  0.00    -0.200 F 
ENDBRANCH  62  85
ENDBRANCH  36  37
ENDBRANCH  28  31
ENDBRANCH  26  27
ENDBRANCH  25  26
ENDBRANCH  24  25
ENDBRANCH  23  24
ENDBRANCH   3  23
TORSDOF 17
ENDMDL
