MODEL 1
REMARK VINA RESULT:     -12.0      0.000      0.000
REMARK SMILES COC(=O)CCS(=O)(=O)Nc1ccc(C(=O)NCCCCNC(=O)c2ccc(-c3c4nc(c(-c5c(F)c(F)c(F)c(F)c5F)c5ccc([nH]5)c(-c5c(F)c(F)c(F)c(F)c5F)c5nc(c(-c6c(F)c(F)c(F)c(F)c6F)c6ccc3[nH]6)C=C5)C=C4)cc2)cc1
REMARK SMILES IDX 15 1 16 2 17 3 14 5 11 6 12 7 89 8 13 9 88 10 10 11 7 13
REMARK SMILES IDX 8 14 9 15 6 16 5 17 3 18 4 19 2 20 1 21 18 22 19 23 20 24
REMARK SMILES IDX 21 25 22 26 23 27 24 29 25 30 26 31 87 32 27 33 86 34 28 35
REMARK SMILES IDX 29 36 30 37 80 38 31 39 85 40 79 41 81 42 32 43 84 44 78 45
REMARK SMILES IDX 77 46 33 48 65 49 45 50 64 51 46 52 49 53 63 54 82 55 47 56
REMARK SMILES IDX 48 57 62 59 83 60 50 61 34 62 35 63 43 64 36 65 37 66 41 67
REMARK SMILES IDX 44 68 38 69 39 70 42 71 40 72 66 73 67 74 75 75 68 76 69 77
REMARK SMILES IDX 73 78 76 79 70 80 71 81 74 82 72 83 51 84 52 85 60 86 53 87
REMARK SMILES IDX 54 88 58 89 61 90 55 91 56 92 59 93 57 94
REMARK H PARENT 17 4 10 12 22 28 81 47 49 58
REMARK Flexibility Score: inf
ROOT
ATOM      1  C   UNL A   1      32.914  20.330  25.386  1.00  0.00     0.251 C 
ATOM      2  O   UNL A   1      32.341  19.244  25.324  1.00  0.00    -0.269 OA
ATOM      3  N   UNL A   1      34.210  20.373  25.863  1.00  0.00    -0.352 N 
ATOM      4  H   UNL A   1      34.530  19.513  26.220  1.00  0.00     0.163 HD
ENDROOT
BRANCH   1   5
ATOM      5  C   UNL A   1      32.199  21.551  24.932  1.00  0.00     0.039 A 
ATOM      6  C   UNL A   1      30.932  23.971  24.163  1.00  0.00     0.049 A 
ATOM      7  C   UNL A   1      31.589  23.194  23.213  1.00  0.00     0.027 A 
ATOM      8  C   UNL A   1      30.850  23.457  25.438  1.00  0.00     0.027 A 
ATOM      9  C   UNL A   1      32.260  22.008  23.604  1.00  0.00     0.016 A 
ATOM     10  C   UNL A   1      31.396  22.247  25.805  1.00  0.00     0.016 A 
BRANCH   6  11
ATOM     11  N   UNL A   1      30.032  25.012  23.801  1.00  0.00    -0.284 N 
ATOM     12  H   UNL A   1      29.125  24.745  23.524  1.00  0.00     0.180 HD
BRANCH  11  13
ATOM     13  S   UNL A   1      30.377  26.647  23.805  1.00  0.00     0.233 S 
ATOM     14  O   UNL A   1      31.443  26.811  22.835  1.00  0.00    -0.207 OA
ATOM     15  O   UNL A   1      30.607  27.012  25.185  1.00  0.00    -0.207 OA
BRANCH  13  16
ATOM     16  C   UNL A   1      28.967  27.621  23.248  1.00  0.00     0.171 C 
BRANCH  16  17
ATOM     17  C   UNL A   1      29.221  29.082  22.890  1.00  0.00     0.141 C 
BRANCH  17  18
ATOM     18  C   UNL A   1      28.090  29.803  22.206  1.00  0.00     0.306 C 
ATOM     19  O   UNL A   1      28.082  30.050  21.007  1.00  0.00    -0.252 OA
BRANCH  18  20
ATOM     20  O   UNL A   1      27.183  30.265  23.104  1.00  0.00    -0.469 OA
ATOM     21  C   UNL A   1      27.475  31.530  23.714  1.00  0.00     0.282 C 
ENDBRANCH  18  20
ENDBRANCH  17  18
ENDBRANCH  16  17
ENDBRANCH  13  16
ENDBRANCH  11  13
ENDBRANCH   6  11
ENDBRANCH   1   5
BRANCH   3  22
ATOM     22  C   UNL A   1      35.200  21.446  25.940  1.00  0.00     0.116 C 
BRANCH  22  23
ATOM     23  C   UNL A   1      36.148  21.442  24.729  1.00  0.00     0.023 C 
BRANCH  23  24
ATOM     24  C   UNL A   1      37.378  20.554  24.912  1.00  0.00     0.023 C 
BRANCH  24  25
ATOM     25  C   UNL A   1      38.565  21.249  25.568  1.00  0.00     0.116 C 
BRANCH  25  26
ATOM     26  N   UNL A   1      39.512  20.335  26.188  1.00  0.00    -0.352 N 
ATOM     27  C   UNL A   1      40.573  20.648  27.008  1.00  0.00     0.251 C 
ATOM     28  H   UNL A   1      39.379  19.377  25.999  1.00  0.00     0.163 HD
ATOM     29  O   UNL A   1      41.353  19.784  27.390  1.00  0.00    -0.269 OA
BRANCH  27  30
ATOM     30  C   UNL A   1      40.790  22.063  27.378  1.00  0.00     0.039 A 
ATOM     31  C   UNL A   1      41.732  22.365  28.364  1.00  0.00     0.014 A 
ATOM     32  C   UNL A   1      40.132  23.085  26.690  1.00  0.00     0.014 A 
ATOM     33  C   UNL A   1      42.081  23.697  28.595  1.00  0.00     0.010 A 
ATOM     34  C   UNL A   1      40.536  24.404  26.866  1.00  0.00     0.010 A 
ATOM     35  C   UNL A   1      41.526  24.721  27.810  1.00  0.00    -0.014 A 
BRANCH  35  36
ATOM     36  C   UNL A   1      41.997  26.124  27.927  1.00  0.00     0.031 A 
ATOM     37  C   UNL A   1      43.334  26.524  27.377  1.00  0.00     0.074 A 
ATOM     38  C   UNL A   1      41.250  27.020  28.602  1.00  0.00     0.049 A 
ATOM     39  N   UNL A   1      43.943  27.682  27.442  1.00  0.00    -0.248 NA
ATOM     40  C   UNL A   1      44.100  25.477  26.687  1.00  0.00     0.031 C 
ATOM     41  C   UNL A   1      39.952  26.742  29.218  1.00  0.00     0.029 A 
ATOM     42  N   UNL A   1      41.479  28.341  28.890  1.00  0.00    -0.354 N 
ATOM     43  C   UNL A   1      45.166  27.499  26.808  1.00  0.00     0.074 A 
ATOM     44  C   UNL A   1      45.236  26.105  26.424  1.00  0.00     0.031 C 
ATOM     45  C   UNL A   1      39.484  27.867  29.782  1.00  0.00     0.029 A 
ATOM     46  C   UNL A   1      40.468  28.931  29.608  1.00  0.00     0.049 A 
ATOM     47  H   UNL A   1      42.291  28.822  28.609  1.00  0.00     0.167 HD
ATOM     48  C   UNL A   1      46.129  28.416  26.550  1.00  0.00     0.037 A 
ATOM     49  C   UNL A   1      40.351  30.187  30.081  1.00  0.00     0.037 A 
ATOM     50  C   UNL A   1      46.052  29.801  26.934  1.00  0.00     0.049 A 
ATOM     51  C   UNL A   1      41.458  31.172  29.831  1.00  0.00     0.074 A 
ATOM     52  C   UNL A   1      46.947  30.822  26.670  1.00  0.00     0.029 A 
ATOM     53  N   UNL A   1      45.024  30.356  27.684  1.00  0.00    -0.354 N 
ATOM     54  N   UNL A   1      42.575  31.011  29.164  1.00  0.00    -0.248 NA
ATOM     55  C   UNL A   1      41.289  32.515  30.403  1.00  0.00     0.031 C 
ATOM     56  C   UNL A   1      46.493  31.980  27.312  1.00  0.00     0.029 A 
ATOM     57  C   UNL A   1      45.283  31.697  27.926  1.00  0.00     0.049 A 
ATOM     58  H   UNL A   1      44.227  29.870  27.998  1.00  0.00     0.167 HD
ATOM     59  C   UNL A   1      43.230  32.234  29.213  1.00  0.00     0.074 A 
ATOM     60  C   UNL A   1      42.377  33.133  29.965  1.00  0.00     0.031 C 
ATOM     61  C   UNL A   1      44.429  32.581  28.681  1.00  0.00     0.037 A 
BRANCH  48  62
ATOM     62  C   UNL A   1      47.356  27.935  25.825  1.00  0.00     0.064 A 
ATOM     63  C   UNL A   1      47.401  27.851  24.424  1.00  0.00     0.173 A 
ATOM     64  C   UNL A   1      48.500  27.547  26.539  1.00  0.00     0.173 A 
ATOM     65  F   UNL A   1      46.333  28.200  23.691  1.00  0.00    -0.203 F 
ATOM     66  C   UNL A   1      48.524  27.349  23.770  1.00  0.00     0.198 A 
ATOM     67  C   UNL A   1      49.635  27.083  25.880  1.00  0.00     0.198 A 
ATOM     68  F   UNL A   1      48.517  27.615  27.879  1.00  0.00    -0.203 F 
ATOM     69  F   UNL A   1      48.514  27.208  22.438  1.00  0.00    -0.200 F 
ATOM     70  C   UNL A   1      49.641  26.969  24.498  1.00  0.00     0.200 A 
ATOM     71  F   UNL A   1      50.719  26.730  26.584  1.00  0.00    -0.200 F 
ATOM     72  F   UNL A   1      50.720  26.482  23.869  1.00  0.00    -0.200 F 
ENDBRANCH  48  62
BRANCH  49  73
ATOM     73  C   UNL A   1      39.119  30.588  30.808  1.00  0.00     0.064 A 
ATOM     74  C   UNL A   1      37.993  31.043  30.108  1.00  0.00     0.173 A 
ATOM     75  C   UNL A   1      39.028  30.505  32.206  1.00  0.00     0.173 A 
ATOM     76  F   UNL A   1      38.039  31.160  28.773  1.00  0.00    -0.203 F 
ATOM     77  C   UNL A   1      36.827  31.408  30.776  1.00  0.00     0.198 A 
ATOM     78  C   UNL A   1      37.852  30.843  32.871  1.00  0.00     0.198 A 
ATOM     79  F   UNL A   1      40.075  30.071  32.923  1.00  0.00    -0.203 F 
ATOM     80  F   UNL A   1      35.778  31.870  30.084  1.00  0.00    -0.200 F 
ATOM     81  C   UNL A   1      36.754  31.299  32.158  1.00  0.00     0.200 A 
ATOM     82  F   UNL A   1      37.780  30.722  34.204  1.00  0.00    -0.200 F 
ATOM     83  F   UNL A   1      35.628  31.637  32.799  1.00  0.00    -0.200 F 
ENDBRANCH  49  73
BRANCH  61  84
ATOM     84  C   UNL A   1      44.884  34.000  28.874  1.00  0.00     0.064 A 
ATOM     85  C   UNL A   1      45.696  34.373  29.955  1.00  0.00     0.173 A 
ATOM     86  C   UNL A   1      44.540  34.990  27.940  1.00  0.00     0.173 A 
ATOM     87  F   UNL A   1      46.039  33.470  30.885  1.00  0.00    -0.203 F 
ATOM     88  C   UNL A   1      46.129  35.688  30.105  1.00  0.00     0.198 A 
ATOM     89  C   UNL A   1      45.002  36.295  28.075  1.00  0.00     0.198 A 
ATOM     90  F   UNL A   1      43.769  34.686  26.884  1.00  0.00    -0.203 F 
ATOM     91  F   UNL A   1      46.865  36.031  31.170  1.00  0.00    -0.200 F 
ATOM     92  C   UNL A   1      45.790  36.646  29.160  1.00  0.00     0.200 A 
ATOM     93  F   UNL A   1      44.685  37.215  27.153  1.00  0.00    -0.200 F 
ATOM     94  F   UNL A   1      46.218  37.907  29.300  1.00  0.00    -0.200 F 
ENDBRANCH  61  84
ENDBRANCH  35  36
ENDBRANCH  27  30
ENDBRANCH  25  26
ENDBRANCH  24  25
ENDBRANCH  23  24
ENDBRANCH  22  23
ENDBRANCH   3  22
TORSDOF 17
ENDMDL
MODEL 2
REMARK VINA RESULT:     -11.9      1.630      7.593
REMARK SMILES COC(=O)CCS(=O)(=O)Nc1ccc(C(=O)NCCCCNC(=O)c2ccc(-c3c4nc(c(-c5c(F)c(F)c(F)c(F)c5F)c5ccc([nH]5)c(-c5c(F)c(F)c(F)c(F)c5F)c5nc(c(-c6c(F)c(F)c(F)c(F)c6F)c6ccc3[nH]6)C=C5)C=C4)cc2)cc1
REMARK SMILES IDX 15 1 16 2 17 3 14 5 11 6 12 7 89 8 13 9 88 10 10 11 7 13
REMARK SMILES IDX 8 14 9 15 6 16 5 17 3 18 4 19 2 20 1 21 18 22 19 23 20 24
REMARK SMILES IDX 21 25 22 26 23 27 24 29 25 30 26 31 87 32 27 33 86 34 28 35
REMARK SMILES IDX 29 36 30 37 80 38 31 39 85 40 79 41 81 42 32 43 84 44 78 45
REMARK SMILES IDX 77 46 33 48 65 49 45 50 64 51 46 52 49 53 63 54 82 55 47 56
REMARK SMILES IDX 48 57 62 59 83 60 50 61 34 62 35 63 43 64 36 65 37 66 41 67
REMARK SMILES IDX 44 68 38 69 39 70 42 71 40 72 66 73 67 74 75 75 68 76 69 77
REMARK SMILES IDX 73 78 76 79 70 80 71 81 74 82 72 83 51 84 52 85 60 86 53 87
REMARK SMILES IDX 54 88 58 89 61 90 55 91 56 92 59 93 57 94
REMARK H PARENT 17 4 10 12 22 28 81 47 49 58
REMARK Flexibility Score: inf
ROOT
ATOM      1  C   UNL A   1      33.768  20.321  24.884  1.00  0.00     0.251 C 
ATOM      2  O   UNL A   1      33.397  19.172  24.656  1.00  0.00    -0.269 OA
ATOM      3  N   UNL A   1      35.004  20.519  25.468  1.00  0.00    -0.352 N 
ATOM      4  H   UNL A   1      35.445  19.687  25.755  1.00  0.00     0.163 HD
ENDROOT
BRANCH   1   5
ATOM      5  C   UNL A   1      32.882  21.454  24.507  1.00  0.00     0.039 A 
ATOM      6  C   UNL A   1      31.247  23.697  23.918  1.00  0.00     0.049 A 
ATOM      7  C   UNL A   1      32.217  23.281  23.009  1.00  0.00     0.027 A 
ATOM      8  C   UNL A   1      31.068  22.915  25.037  1.00  0.00     0.027 A 
ATOM      9  C   UNL A   1      33.063  22.188  23.322  1.00  0.00     0.016 A 
ATOM     10  C   UNL A   1      31.804  21.780  25.296  1.00  0.00     0.016 A 
BRANCH   6  11
ATOM     11  N   UNL A   1      30.209  24.603  23.559  1.00  0.00    -0.284 N 
ATOM     12  H   UNL A   1      29.542  24.284  22.909  1.00  0.00     0.180 HD
BRANCH  11  13
ATOM     13  S   UNL A   1      30.023  26.157  24.144  1.00  0.00     0.233 S 
ATOM     14  O   UNL A   1      31.118  26.344  25.077  1.00  0.00    -0.207 OA
ATOM     15  O   UNL A   1      28.660  26.254  24.617  1.00  0.00    -0.207 OA
BRANCH  13  16
ATOM     16  C   UNL A   1      30.197  27.381  22.833  1.00  0.00     0.171 C 
BRANCH  16  17
ATOM     17  C   UNL A   1      29.666  28.784  23.109  1.00  0.00     0.141 C 
BRANCH  17  18
ATOM     18  C   UNL A   1      28.313  29.106  22.532  1.00  0.00     0.306 C 
ATOM     19  O   UNL A   1      27.265  28.684  23.005  1.00  0.00    -0.252 OA
BRANCH  18  20
ATOM     20  O   UNL A   1      28.423  29.779  21.358  1.00  0.00    -0.469 OA
ATOM     21  C   UNL A   1      28.658  31.192  21.451  1.00  0.00     0.282 C 
ENDBRANCH  18  20
ENDBRANCH  17  18
ENDBRANCH  16  17
ENDBRANCH  13  16
ENDBRANCH  11  13
ENDBRANCH   6  11
ENDBRANCH   1   5
BRANCH   3  22
ATOM     22  C   UNL A   1      35.786  21.724  25.743  1.00  0.00     0.116 C 
BRANCH  22  23
ATOM     23  C   UNL A   1      37.080  21.770  24.915  1.00  0.00     0.023 C 
BRANCH  23  24
ATOM     24  C   UNL A   1      37.922  20.497  25.015  1.00  0.00     0.023 C 
BRANCH  24  25
ATOM     25  C   UNL A   1      39.207  20.654  25.817  1.00  0.00     0.116 C 
BRANCH  25  26
ATOM     26  N   UNL A   1      40.020  19.448  25.865  1.00  0.00    -0.352 N 
ATOM     27  C   UNL A   1      41.370  19.351  26.122  1.00  0.00     0.251 C 
ATOM     28  H   UNL A   1      39.550  18.600  25.693  1.00  0.00     0.163 HD
ATOM     29  O   UNL A   1      41.953  18.276  26.041  1.00  0.00    -0.269 OA
BRANCH  27  30
ATOM     30  C   UNL A   1      42.121  20.582  26.447  1.00  0.00     0.039 A 
ATOM     31  C   UNL A   1      42.637  21.351  25.402  1.00  0.00     0.014 A 
ATOM     32  C   UNL A   1      42.234  21.016  27.770  1.00  0.00     0.014 A 
ATOM     33  C   UNL A   1      43.187  22.604  25.679  1.00  0.00     0.010 A 
ATOM     34  C   UNL A   1      42.711  22.295  28.035  1.00  0.00     0.010 A 
ATOM     35  C   UNL A   1      43.178  23.107  26.991  1.00  0.00    -0.014 A 
BRANCH  35  36
ATOM     36  C   UNL A   1      43.609  24.497  27.287  1.00  0.00     0.031 A 
ATOM     37  C   UNL A   1      42.624  25.505  27.801  1.00  0.00     0.074 A 
ATOM     38  C   UNL A   1      44.876  24.870  27.015  1.00  0.00     0.049 A 
ATOM     39  N   UNL A   1      42.797  26.778  28.053  1.00  0.00    -0.248 NA
ATOM     40  C   UNL A   1      41.255  25.024  28.037  1.00  0.00     0.031 C 
ATOM     41  C   UNL A   1      45.916  23.994  26.474  1.00  0.00     0.029 A 
ATOM     42  N   UNL A   1      45.499  26.085  27.148  1.00  0.00    -0.354 N 
ATOM     43  C   UNL A   1      41.558  27.250  28.469  1.00  0.00     0.074 A 
ATOM     44  C   UNL A   1      40.632  26.142  28.374  1.00  0.00     0.031 C 
ATOM     45  C   UNL A   1      47.057  24.691  26.354  1.00  0.00     0.029 A 
ATOM     46  C   UNL A   1      46.818  26.071  26.763  1.00  0.00     0.049 A 
ATOM     47  H   UNL A   1      45.046  26.890  27.487  1.00  0.00     0.167 HD
ATOM     48  C   UNL A   1      41.231  28.488  28.913  1.00  0.00     0.037 A 
ATOM     49  C   UNL A   1      47.729  27.062  26.735  1.00  0.00     0.037 A 
ATOM     50  C   UNL A   1      42.158  29.585  29.006  1.00  0.00     0.049 A 
ATOM     51  C   UNL A   1      47.328  28.442  27.178  1.00  0.00     0.074 A 
ATOM     52  C   UNL A   1      41.942  30.861  29.495  1.00  0.00     0.029 A 
ATOM     53  N   UNL A   1      43.480  29.541  28.582  1.00  0.00    -0.354 N 
ATOM     54  N   UNL A   1      46.176  28.860  27.644  1.00  0.00    -0.248 NA
ATOM     55  C   UNL A   1      48.356  29.488  27.090  1.00  0.00     0.031 C 
ATOM     56  C   UNL A   1      43.111  31.606  29.311  1.00  0.00     0.029 A 
ATOM     57  C   UNL A   1      44.078  30.779  28.761  1.00  0.00     0.049 A 
ATOM     58  H   UNL A   1      43.927  28.747  28.208  1.00  0.00     0.167 HD
ATOM     59  C   UNL A   1      46.345  30.208  27.927  1.00  0.00     0.074 A 
ATOM     60  C   UNL A   1      47.717  30.535  27.595  1.00  0.00     0.031 C 
ATOM     61  C   UNL A   1      45.444  31.094  28.420  1.00  0.00     0.037 A 
BRANCH  48  62
ATOM     62  C   UNL A   1      39.801  28.715  29.318  1.00  0.00     0.064 A 
ATOM     63  C   UNL A   1      38.845  29.201  28.412  1.00  0.00     0.173 A 
ATOM     64  C   UNL A   1      39.380  28.448  30.630  1.00  0.00     0.173 A 
ATOM     65  F   UNL A   1      39.194  29.481  27.147  1.00  0.00    -0.203 F 
ATOM     66  C   UNL A   1      37.538  29.460  28.817  1.00  0.00     0.198 A 
ATOM     67  C   UNL A   1      38.063  28.672  31.021  1.00  0.00     0.198 A 
ATOM     68  F   UNL A   1      40.249  27.973  31.536  1.00  0.00    -0.203 F 
ATOM     69  F   UNL A   1      36.664  29.995  27.953  1.00  0.00    -0.200 F 
ATOM     70  C   UNL A   1      37.147  29.192  30.120  1.00  0.00     0.200 A 
ATOM     71  F   UNL A   1      37.683  28.399  32.277  1.00  0.00    -0.200 F 
ATOM     72  F   UNL A   1      35.890  29.447  30.510  1.00  0.00    -0.200 F 
ENDBRANCH  48  62
BRANCH  49  73
ATOM     73  C   UNL A   1      49.120  26.771  26.302  1.00  0.00     0.064 A 
ATOM     74  C   UNL A   1      50.065  26.287  27.217  1.00  0.00     0.173 A 
ATOM     75  C   UNL A   1      49.530  26.946  24.972  1.00  0.00     0.173 A 
ATOM     76  F   UNL A   1      49.726  26.123  28.504  1.00  0.00    -0.203 F 
ATOM     77  C   UNL A   1      51.368  25.996  26.821  1.00  0.00     0.198 A 
ATOM     78  C   UNL A   1      50.826  26.628  24.571  1.00  0.00     0.198 A 
ATOM     79  F   UNL A   1      48.663  27.403  24.056  1.00  0.00    -0.203 F 
ATOM     80  F   UNL A   1      52.259  25.564  27.724  1.00  0.00    -0.200 F 
ATOM     81  C   UNL A   1      51.746  26.159  25.496  1.00  0.00     0.200 A 
ATOM     82  F   UNL A   1      51.182  26.773  23.288  1.00  0.00    -0.200 F 
ATOM     83  F   UNL A   1      52.995  25.865  25.112  1.00  0.00    -0.200 F 
ENDBRANCH  49  73
BRANCH  61  84
ATOM     84  C   UNL A   1      45.917  32.502  28.652  1.00  0.00     0.064 A 
ATOM     85  C   UNL A   1      45.758  33.502  27.681  1.00  0.00     0.173 A 
ATOM     86  C   UNL A   1      46.495  32.864  29.879  1.00  0.00     0.173 A 
ATOM     87  F   UNL A   1      45.228  33.204  26.486  1.00  0.00    -0.203 F 
ATOM     88  C   UNL A   1      46.180  34.806  27.922  1.00  0.00     0.198 A 
ATOM     89  C   UNL A   1      46.885  34.177  30.128  1.00  0.00     0.198 A 
ATOM     90  F   UNL A   1      46.666  31.947  30.844  1.00  0.00    -0.203 F 
ATOM     91  F   UNL A   1      46.062  35.735  26.963  1.00  0.00    -0.200 F 
ATOM     92  C   UNL A   1      46.734  35.145  29.148  1.00  0.00     0.200 A 
ATOM     93  F   UNL A   1      47.407  34.504  31.319  1.00  0.00    -0.200 F 
ATOM     94  F   UNL A   1      47.129  36.404  29.382  1.00  0.00    -0.200 F 
ENDBRANCH  61  84
ENDBRANCH  35  36
ENDBRANCH  27  30
ENDBRANCH  25  26
ENDBRANCH  24  25
ENDBRANCH  23  24
ENDBRANCH  22  23
ENDBRANCH   3  22
TORSDOF 17
ENDMDL
MODEL 3
REMARK VINA RESULT:     -11.7      1.405      2.131
REMARK SMILES COC(=O)CCS(=O)(=O)Nc1ccc(C(=O)NCCCCNC(=O)c2ccc(-c3c4nc(c(-c5c(F)c(F)c(F)c(F)c5F)c5ccc([nH]5)c(-c5c(F)c(F)c(F)c(F)c5F)c5nc(c(-c6c(F)c(F)c(F)c(F)c6F)c6ccc3[nH]6)C=C5)C=C4)cc2)cc1
REMARK SMILES IDX 15 1 16 2 17 3 14 5 11 6 12 7 89 8 13 9 88 10 10 11 7 13
REMARK SMILES IDX 8 14 9 15 6 16 5 17 3 18 4 19 2 20 1 21 18 22 19 23 20 24
REMARK SMILES IDX 21 25 22 26 23 27 24 29 25 30 26 31 87 32 27 33 86 34 28 35
REMARK SMILES IDX 29 36 30 37 80 38 31 39 85 40 79 41 81 42 32 43 84 44 78 45
REMARK SMILES IDX 77 46 33 48 65 49 45 50 64 51 46 52 49 53 63 54 82 55 47 56
REMARK SMILES IDX 48 57 62 59 83 60 50 61 34 62 35 63 43 64 36 65 37 66 41 67
REMARK SMILES IDX 44 68 38 69 39 70 42 71 40 72 66 73 67 74 75 75 68 76 69 77
REMARK SMILES IDX 73 78 76 79 70 80 71 81 74 82 72 83 51 84 52 85 60 86 53 87
REMARK SMILES IDX 54 88 58 89 61 90 55 91 56 92 59 93 57 94
REMARK H PARENT 17 4 10 12 22 28 81 47 49 58
REMARK Flexibility Score: inf
ROOT
ATOM      1  C   UNL A   1      32.681  20.305  25.572  1.00  0.00     0.251 C 
ATOM      2  O   UNL A   1      32.204  19.204  25.306  1.00  0.00    -0.269 OA
ATOM      3  N   UNL A   1      33.481  20.433  26.690  1.00  0.00    -0.352 N 
ATOM      4  H   UNL A   1      33.511  19.624  27.251  1.00  0.00     0.163 HD
ENDROOT
BRANCH   1   5
ATOM      5  C   UNL A   1      32.394  21.453  24.671  1.00  0.00     0.039 A 
ATOM      6  C   UNL A   1      31.919  23.741  23.061  1.00  0.00     0.049 A 
ATOM      7  C   UNL A   1      32.696  22.692  22.574  1.00  0.00     0.027 A 
ATOM      8  C   UNL A   1      31.330  23.558  24.292  1.00  0.00     0.027 A 
ATOM      9  C   UNL A   1      32.969  21.569  23.394  1.00  0.00     0.016 A 
ATOM     10  C   UNL A   1      31.492  22.419  25.050  1.00  0.00     0.016 A 
BRANCH   6  11
ATOM     11  N   UNL A   1      31.397  24.756  22.212  1.00  0.00    -0.284 N 
ATOM     12  H   UNL A   1      30.505  24.602  21.825  1.00  0.00     0.180 HD
BRANCH  11  13
ATOM     13  S   UNL A   1      32.164  26.187  21.814  1.00  0.00     0.233 S 
ATOM     14  O   UNL A   1      31.094  27.115  21.501  1.00  0.00    -0.207 OA
ATOM     15  O   UNL A   1      33.141  25.857  20.801  1.00  0.00    -0.207 OA
BRANCH  13  16
ATOM     16  C   UNL A   1      33.084  26.854  23.212  1.00  0.00     0.171 C 
BRANCH  16  17
ATOM     17  C   UNL A   1      32.279  27.350  24.409  1.00  0.00     0.141 C 
BRANCH  17  18
ATOM     18  C   UNL A   1      33.059  27.607  25.671  1.00  0.00     0.306 C 
ATOM     19  O   UNL A   1      33.584  26.715  26.327  1.00  0.00    -0.252 OA
BRANCH  18  20
ATOM     20  O   UNL A   1      32.968  28.906  26.054  1.00  0.00    -0.469 OA
ATOM     21  C   UNL A   1      31.916  29.676  25.455  1.00  0.00     0.282 C 
ENDBRANCH  18  20
ENDBRANCH  17  18
ENDBRANCH  16  17
ENDBRANCH  13  16
ENDBRANCH  11  13
ENDBRANCH   6  11
ENDBRANCH   1   5
BRANCH   3  22
ATOM     22  C   UNL A   1      34.293  21.535  27.205  1.00  0.00     0.116 C 
BRANCH  22  23
ATOM     23  C   UNL A   1      35.219  22.118  26.125  1.00  0.00     0.023 C 
BRANCH  23  24
ATOM     24  C   UNL A   1      36.204  21.104  25.543  1.00  0.00     0.023 C 
BRANCH  24  25
ATOM     25  C   UNL A   1      37.628  21.623  25.393  1.00  0.00     0.116 C 
BRANCH  25  26
ATOM     26  N   UNL A   1      38.649  20.648  25.744  1.00  0.00    -0.352 N 
ATOM     27  C   UNL A   1      39.832  20.869  26.413  1.00  0.00     0.251 C 
ATOM     28  H   UNL A   1      38.473  19.718  25.471  1.00  0.00     0.163 HD
ATOM     29  O   UNL A   1      40.651  19.970  26.564  1.00  0.00    -0.269 OA
BRANCH  27  30
ATOM     30  C   UNL A   1      40.127  22.233  26.902  1.00  0.00     0.039 A 
ATOM     31  C   UNL A   1      41.082  22.396  27.908  1.00  0.00     0.014 A 
ATOM     32  C   UNL A   1      39.528  23.345  26.305  1.00  0.00     0.014 A 
ATOM     33  C   UNL A   1      41.503  23.682  28.251  1.00  0.00     0.010 A 
ATOM     34  C   UNL A   1      40.004  24.619  26.593  1.00  0.00     0.010 A 
ATOM     35  C   UNL A   1      41.007  24.799  27.558  1.00  0.00    -0.014 A 
BRANCH  35  36
ATOM     36  C   UNL A   1      41.554  26.159  27.793  1.00  0.00     0.031 A 
ATOM     37  C   UNL A   1      42.937  26.512  27.329  1.00  0.00     0.074 A 
ATOM     38  C   UNL A   1      40.832  27.051  28.498  1.00  0.00     0.049 A 
ATOM     39  N   UNL A   1      43.611  27.622  27.501  1.00  0.00    -0.248 NA
ATOM     40  C   UNL A   1      43.671  25.468  26.599  1.00  0.00     0.031 C 
ATOM     41  C   UNL A   1      39.493  26.814  29.040  1.00  0.00     0.029 A 
ATOM     42  N   UNL A   1      41.126  28.333  28.889  1.00  0.00    -0.354 N 
ATOM     43  C   UNL A   1      44.847  27.406  26.908  1.00  0.00     0.074 A 
ATOM     44  C   UNL A   1      44.853  26.040  26.429  1.00  0.00     0.031 C 
ATOM     45  C   UNL A   1      39.067  27.925  29.661  1.00  0.00     0.029 A 
ATOM     46  C   UNL A   1      40.120  28.935  29.605  1.00  0.00     0.049 A 
ATOM     47  H   UNL A   1      41.977  28.780  28.676  1.00  0.00     0.167 HD
ATOM     48  C   UNL A   1      45.874  28.277  26.754  1.00  0.00     0.037 A 
ATOM     49  C   UNL A   1      40.056  30.160  30.160  1.00  0.00     0.037 A 
ATOM     50  C   UNL A   1      45.862  29.635  27.233  1.00  0.00     0.049 A 
ATOM     51  C   UNL A   1      41.230  31.089  30.026  1.00  0.00     0.074 A 
ATOM     52  C   UNL A   1      46.827  30.614  27.079  1.00  0.00     0.029 A 
ATOM     53  N   UNL A   1      44.835  30.201  27.977  1.00  0.00    -0.354 N 
ATOM     54  N   UNL A   1      42.365  30.905  29.396  1.00  0.00    -0.248 NA
ATOM     55  C   UNL A   1      41.115  32.398  30.685  1.00  0.00     0.031 C 
ATOM     56  C   UNL A   1      46.414  31.751  27.781  1.00  0.00     0.029 A 
ATOM     57  C   UNL A   1      45.162  31.503  28.323  1.00  0.00     0.049 A 
ATOM     58  H   UNL A   1      43.997  29.745  28.222  1.00  0.00     0.167 HD
ATOM     59  C   UNL A   1      43.088  32.079  29.559  1.00  0.00     0.074 A 
ATOM     60  C   UNL A   1      42.256  32.976  30.336  1.00  0.00     0.031 C 
ATOM     61  C   UNL A   1      44.328  32.385  29.103  1.00  0.00     0.037 A 
BRANCH  48  62
ATOM     62  C   UNL A   1      47.102  27.771  26.049  1.00  0.00     0.064 A 
ATOM     63  C   UNL A   1      47.196  27.755  24.648  1.00  0.00     0.173 A 
ATOM     64  C   UNL A   1      48.199  27.291  26.782  1.00  0.00     0.173 A 
ATOM     65  F   UNL A   1      46.174  28.194  23.897  1.00  0.00    -0.203 F 
ATOM     66  C   UNL A   1      48.316  27.230  24.009  1.00  0.00     0.198 A 
ATOM     67  C   UNL A   1      49.333  26.802  26.139  1.00  0.00     0.198 A 
ATOM     68  F   UNL A   1      48.169  27.291  28.123  1.00  0.00    -0.203 F 
ATOM     69  F   UNL A   1      48.349  27.156  22.671  1.00  0.00    -0.200 F 
ATOM     70  C   UNL A   1      49.386  26.758  24.755  1.00  0.00     0.200 A 
ATOM     71  F   UNL A   1      50.372  26.360  26.861  1.00  0.00    -0.200 F 
ATOM     72  F   UNL A   1      50.461  26.249  24.139  1.00  0.00    -0.200 F 
ENDBRANCH  48  62
BRANCH  49  73
ATOM     73  C   UNL A   1      38.818  30.587  30.862  1.00  0.00     0.064 A 
ATOM     74  C   UNL A   1      38.719  30.486  32.257  1.00  0.00     0.173 A 
ATOM     75  C   UNL A   1      37.724  31.122  30.167  1.00  0.00     0.173 A 
ATOM     76  F   UNL A   1      39.731  29.962  32.963  1.00  0.00    -0.203 F 
ATOM     77  C   UNL A   1      37.570  30.897  32.929  1.00  0.00     0.198 A 
ATOM     78  C   UNL A   1      36.586  31.558  30.843  1.00  0.00     0.198 A 
ATOM     79  F   UNL A   1      37.770  31.243  28.832  1.00  0.00    -0.203 F 
ATOM     80  F   UNL A   1      37.490  30.760  34.259  1.00  0.00    -0.200 F 
ATOM     81  C   UNL A   1      36.507  31.441  32.222  1.00  0.00     0.200 A 
ATOM     82  F   UNL A   1      35.568  32.096  30.158  1.00  0.00    -0.200 F 
ATOM     83  F   UNL A   1      35.408  31.848  32.869  1.00  0.00    -0.200 F 
ENDBRANCH  49  73
BRANCH  61  84
ATOM     84  C   UNL A   1      44.858  33.757  29.415  1.00  0.00     0.064 A 
ATOM     85  C   UNL A   1      45.644  34.003  30.550  1.00  0.00     0.173 A 
ATOM     86  C   UNL A   1      44.613  34.828  28.542  1.00  0.00     0.173 A 
ATOM     87  F   UNL A   1      45.893  33.018  31.425  1.00  0.00    -0.203 F 
ATOM     88  C   UNL A   1      46.147  35.275  30.810  1.00  0.00     0.198 A 
ATOM     89  C   UNL A   1      45.145  36.090  28.788  1.00  0.00     0.198 A 
ATOM     90  F   UNL A   1      43.870  34.646  27.438  1.00  0.00    -0.203 F 
ATOM     91  F   UNL A   1      46.856  35.498  31.925  1.00  0.00    -0.200 F 
ATOM     92  C   UNL A   1      45.905  36.315  29.924  1.00  0.00     0.200 A 
ATOM     93  F   UNL A   1      44.921  37.090  27.923  1.00  0.00    -0.200 F 
ATOM     94  F   UNL A   1      46.400  37.535  30.171  1.00  0.00    -0.200 F 
ENDBRANCH  61  84
ENDBRANCH  35  36
ENDBRANCH  27  30
ENDBRANCH  25  26
ENDBRANCH  24  25
ENDBRANCH  23  24
ENDBRANCH  22  23
ENDBRANCH   3  22
TORSDOF 17
ENDMDL
