MODEL 1
REMARK VINA RESULT:     -12.7      0.000      0.000
REMARK SMILES CCC[C@H]1CCc2c(sc(NC(=O)[C@H]3[C@@H](C(=O)NCCCCNC(=O)c4ccc(-c5c6nc(c(-c7c(F)c(F)c(F)c(F)c7F)c7ccc([nH]7)c(-c7c(F)c(F)c(F)c(F)c7F)c7nc(c(-c8c(F)c(F)c(F)c(F)c8F)c8ccc5[nH]8)C=C7)C=C6)cc4)[C@H]4CC[C@@H]3O4)c2C(N)=O)C1
REMARK SMILES IDX 19 1 18 2 16 3 17 4 15 6 14 7 92 8 89 9 91 10 93 11 90 12
REMARK SMILES IDX 12 13 11 14 13 16 10 17 4 18 5 19 98 20 6 21 8 22 7 23 9 24
REMARK SMILES IDX 94 25 3 26 2 27 1 28 95 29 96 30 97 31 20 34 21 35 22 36
REMARK SMILES IDX 23 37 24 38 25 40 26 41 27 42 88 43 28 44 87 45 29 46 30 47
REMARK SMILES IDX 31 48 81 49 32 50 86 51 80 52 82 53 33 54 85 55 79 56 78 57
REMARK SMILES IDX 34 59 66 60 46 61 65 62 47 63 50 64 64 65 83 66 48 67 49 68
REMARK SMILES IDX 63 70 84 71 51 72 35 73 36 74 44 75 37 76 38 77 42 78 45 79
REMARK SMILES IDX 39 80 40 81 43 82 41 83 67 84 68 85 76 86 69 87 70 88 74 89
REMARK SMILES IDX 77 90 71 91 72 92 75 93 73 94 52 95 53 96 61 97 54 98 55 99
REMARK SMILES IDX 59 100 62 101 56 102 57 103 60 104 58 105
REMARK H PARENT 18 5 11 15 96 32 96 33 23 39 82 58 50 69
REMARK Flexibility Score: inf
ROOT
ATOM      1  C   UNL A   1      37.161  21.730  24.289  1.00  0.00     0.116 C 
ENDROOT
BRANCH   1   2
ATOM      2  N   UNL A   1      35.831  21.250  24.622  1.00  0.00    -0.356 N 
ATOM      3  C   UNL A   1      34.637  21.917  24.572  1.00  0.00     0.226 C 
ATOM      4  O   UNL A   1      33.605  21.290  24.794  1.00  0.00    -0.275 OA
ATOM      5  H   UNL A   1      35.781  20.314  24.924  1.00  0.00     0.163 HD
BRANCH   3   6
ATOM      6  C   UNL A   1      34.656  23.349  24.078  1.00  0.00     0.122 C 
ATOM      7  C   UNL A   1      33.724  24.414  24.695  1.00  0.00     0.123 C 
ATOM      8  C   UNL A   1      32.775  24.671  23.519  1.00  0.00     0.132 C 
ATOM      9  C   UNL A   1      34.223  23.355  22.596  1.00  0.00     0.132 C 
ATOM     10  C   UNL A   1      31.924  23.462  23.135  1.00  0.00     0.035 C 
ATOM     11  O   UNL A   1      33.746  24.708  22.434  1.00  0.00    -0.373 OA
ATOM     12  C   UNL A   1      32.911  22.616  22.337  1.00  0.00     0.035 C 
BRANCH   7  13
ATOM     13  C   UNL A   1      33.159  24.171  26.093  1.00  0.00     0.231 C 
ATOM     14  N   UNL A   1      32.032  24.815  26.525  1.00  0.00    -0.317 N 
ATOM     15  H   UNL A   1      31.579  24.426  27.308  1.00  0.00     0.170 HD
ATOM     16  O   UNL A   1      33.750  23.465  26.914  1.00  0.00    -0.274 OA
BRANCH  14  17
ATOM     17  C   UNL A   1      31.464  25.943  25.990  1.00  0.00     0.108 A 
ATOM     18  C   UNL A   1      29.163  28.878  22.845  1.00  0.00    -0.006 C 
ATOM     19  C   UNL A   1      30.088  29.835  23.636  1.00  0.00     0.009 C 
ATOM     20  C   UNL A   1      28.906  27.506  23.514  1.00  0.00     0.050 C 
ATOM     21  C   UNL A   1      31.379  29.168  24.110  1.00  0.00     0.038 C 
ATOM     22  C   UNL A   1      29.985  27.121  24.475  1.00  0.00     0.011 A 
ATOM     23  C   UNL A   1      31.092  27.876  24.807  1.00  0.00    -0.019 A 
ATOM     24  S   UNL A   1      29.921  25.658  25.340  1.00  0.00    -0.122 S 
ATOM     25  C   UNL A   1      31.870  27.262  25.860  1.00  0.00     0.077 A 
BRANCH  18  26
ATOM     26  C   UNL A   1      27.865  29.598  22.413  1.00  0.00     0.004 C 
BRANCH  26  27
ATOM     27  C   UNL A   1      27.784  31.126  22.557  1.00  0.00    -0.003 C 
ATOM     28  C   UNL A   1      28.151  31.936  21.324  1.00  0.00     0.004 C 
ENDBRANCH  26  27
ENDBRANCH  18  26
BRANCH  25  29
ATOM     29  C   UNL A   1      32.962  27.904  26.587  1.00  0.00     0.251 C 
ATOM     30  N   UNL A   1      32.625  28.485  27.777  1.00  0.00    -0.365 N 
ATOM     31  O   UNL A   1      34.115  27.970  26.177  1.00  0.00    -0.269 OA
ATOM     32  H   UNL A   1      31.698  28.431  28.106  1.00  0.00     0.159 HD
ATOM     33  H   UNL A   1      33.308  28.957  28.306  1.00  0.00     0.159 HD
ENDBRANCH  25  29
ENDBRANCH  14  17
ENDBRANCH   7  13
ENDBRANCH   3   6
ENDBRANCH   1   2
BRANCH   1  34
ATOM     34  C   UNL A   1      38.176  21.383  25.374  1.00  0.00     0.023 C 
BRANCH  34  35
ATOM     35  C   UNL A   1      38.840  20.015  25.207  1.00  0.00     0.023 C 
BRANCH  35  36
ATOM     36  C   UNL A   1      39.712  19.571  26.376  1.00  0.00     0.116 C 
BRANCH  36  37
ATOM     37  N   UNL A   1      40.907  18.851  25.965  1.00  0.00    -0.352 N 
ATOM     38  C   UNL A   1      42.191  19.334  25.887  1.00  0.00     0.251 C 
ATOM     39  H   UNL A   1      40.781  17.907  25.714  1.00  0.00     0.163 HD
ATOM     40  O   UNL A   1      43.100  18.648  25.435  1.00  0.00    -0.269 OA
BRANCH  38  41
ATOM     41  C   UNL A   1      42.451  20.720  26.321  1.00  0.00     0.039 A 
ATOM     42  C   UNL A   1      42.612  20.983  27.683  1.00  0.00     0.014 A 
ATOM     43  C   UNL A   1      42.600  21.737  25.374  1.00  0.00     0.014 A 
ATOM     44  C   UNL A   1      42.989  22.263  28.096  1.00  0.00     0.010 A 
ATOM     45  C   UNL A   1      43.026  22.996  25.783  1.00  0.00     0.010 A 
ATOM     46  C   UNL A   1      43.230  23.268  27.145  1.00  0.00    -0.014 A 
BRANCH  46  47
ATOM     47  C   UNL A   1      43.688  24.620  27.544  1.00  0.00     0.031 A 
ATOM     48  C   UNL A   1      42.685  25.625  28.032  1.00  0.00     0.074 A 
ATOM     49  C   UNL A   1      44.978  24.968  27.385  1.00  0.00     0.049 A 
ATOM     50  N   UNL A   1      42.841  26.900  28.279  1.00  0.00    -0.248 NA
ATOM     51  C   UNL A   1      41.314  25.134  28.243  1.00  0.00     0.031 C 
ATOM     52  C   UNL A   1      46.039  24.089  26.896  1.00  0.00     0.029 A 
ATOM     53  N   UNL A   1      45.612  26.166  27.601  1.00  0.00    -0.354 N 
ATOM     54  C   UNL A   1      41.588  27.368  28.647  1.00  0.00     0.074 A 
ATOM     55  C   UNL A   1      40.674  26.249  28.561  1.00  0.00     0.031 C 
ATOM     56  C   UNL A   1      47.194  24.774  26.853  1.00  0.00     0.029 A 
ATOM     57  C   UNL A   1      46.947  26.149  27.277  1.00  0.00     0.049 A 
ATOM     58  H   UNL A   1      45.153  26.963  27.954  1.00  0.00     0.167 HD
ATOM     59  C   UNL A   1      41.236  28.616  29.035  1.00  0.00     0.037 A 
ATOM     60  C   UNL A   1      47.861  27.138  27.307  1.00  0.00     0.037 A 
ATOM     61  C   UNL A   1      42.153  29.717  29.152  1.00  0.00     0.049 A 
ATOM     62  C   UNL A   1      47.445  28.512  27.756  1.00  0.00     0.074 A 
ATOM     63  C   UNL A   1      41.899  31.013  29.565  1.00  0.00     0.029 A 
ATOM     64  N   UNL A   1      43.508  29.645  28.866  1.00  0.00    -0.354 N 
ATOM     65  N   UNL A   1      46.262  28.938  28.127  1.00  0.00    -0.248 NA
ATOM     66  C   UNL A   1      48.492  29.543  27.795  1.00  0.00     0.031 C 
ATOM     67  C   UNL A   1      43.098  31.732  29.511  1.00  0.00     0.029 A 
ATOM     68  C   UNL A   1      44.103  30.874  29.095  1.00  0.00     0.049 A 
ATOM     69  H   UNL A   1      43.977  28.841  28.548  1.00  0.00     0.167 HD
ATOM     70  C   UNL A   1      46.428  30.270  28.474  1.00  0.00     0.074 A 
ATOM     71  C   UNL A   1      47.826  30.585  28.274  1.00  0.00     0.031 C 
ATOM     72  C   UNL A   1      45.504  31.155  28.920  1.00  0.00     0.037 A 
BRANCH  59  73
ATOM     73  C   UNL A   1      39.795  28.855  29.365  1.00  0.00     0.064 A 
ATOM     74  C   UNL A   1      38.875  29.254  28.384  1.00  0.00     0.173 A 
ATOM     75  C   UNL A   1      39.318  28.649  30.669  1.00  0.00     0.173 A 
ATOM     76  F   UNL A   1      39.286  29.478  27.126  1.00  0.00    -0.203 F 
ATOM     77  C   UNL A   1      37.535  29.458  28.700  1.00  0.00     0.198 A 
ATOM     78  C   UNL A   1      37.973  28.831  30.976  1.00  0.00     0.198 A 
ATOM     79  F   UNL A   1      40.157  28.266  31.642  1.00  0.00    -0.203 F 
ATOM     80  F   UNL A   1      36.682  29.877  27.754  1.00  0.00    -0.200 F 
ATOM     81  C   UNL A   1      37.083  29.239  29.993  1.00  0.00     0.200 A 
ATOM     82  F   UNL A   1      37.535  28.610  32.223  1.00  0.00    -0.200 F 
ATOM     83  F   UNL A   1      35.791  29.430  30.293  1.00  0.00    -0.200 F 
ENDBRANCH  59  73
BRANCH  60  84
ATOM     84  C   UNL A   1      49.267  26.862  26.917  1.00  0.00     0.064 A 
ATOM     85  C   UNL A   1      49.672  26.965  25.580  1.00  0.00     0.173 A 
ATOM     86  C   UNL A   1      50.227  26.478  27.864  1.00  0.00     0.173 A 
ATOM     87  F   UNL A   1      48.782  27.308  24.636  1.00  0.00    -0.203 F 
ATOM     88  C   UNL A   1      50.980  26.674  25.199  1.00  0.00     0.198 A 
ATOM     89  C   UNL A   1      51.541  26.211  27.486  1.00  0.00     0.198 A 
ATOM     90  F   UNL A   1      49.890  26.368  29.157  1.00  0.00    -0.203 F 
ATOM     91  F   UNL A   1      51.329  26.738  23.907  1.00  0.00    -0.200 F 
ATOM     92  C   UNL A   1      51.914  26.301  26.153  1.00  0.00     0.200 A 
ATOM     93  F   UNL A   1      52.445  25.860  28.411  1.00  0.00    -0.200 F 
ATOM     94  F   UNL A   1      53.172  26.019  25.786  1.00  0.00    -0.200 F 
ENDBRANCH  60  84
BRANCH  72  95
ATOM     95  C   UNL A   1      45.983  32.528  29.279  1.00  0.00     0.064 A 
ATOM     96  C   UNL A   1      46.052  33.555  28.327  1.00  0.00     0.173 A 
ATOM     97  C   UNL A   1      46.320  32.832  30.607  1.00  0.00     0.173 A 
ATOM     98  F   UNL A   1      45.753  33.306  27.044  1.00  0.00    -0.203 F 
ATOM     99  C   UNL A   1      46.458  34.836  28.690  1.00  0.00     0.198 A 
ATOM    100  C   UNL A   1      46.705  34.119  30.969  1.00  0.00     0.198 A 
ATOM    101  F   UNL A   1      46.264  31.883  31.553  1.00  0.00    -0.203 F 
ATOM    102  F   UNL A   1      46.548  35.796  27.760  1.00  0.00    -0.200 F 
ATOM    103  C   UNL A   1      46.776  35.119  30.011  1.00  0.00     0.200 A 
ATOM    104  F   UNL A   1      47.003  34.393  32.247  1.00  0.00    -0.200 F 
ATOM    105  F   UNL A   1      47.158  36.355  30.359  1.00  0.00    -0.200 F 
ENDBRANCH  72  95
ENDBRANCH  46  47
ENDBRANCH  38  41
ENDBRANCH  36  37
ENDBRANCH  35  36
ENDBRANCH  34  35
ENDBRANCH   1  34
TORSDOF 16
ENDMDL
MODEL 2
REMARK VINA RESULT:     -12.7      0.603      7.159
REMARK SMILES CCC[C@H]1CCc2c(sc(NC(=O)[C@H]3[C@@H](C(=O)NCCCCNC(=O)c4ccc(-c5c6nc(c(-c7c(F)c(F)c(F)c(F)c7F)c7ccc([nH]7)c(-c7c(F)c(F)c(F)c(F)c7F)c7nc(c(-c8c(F)c(F)c(F)c(F)c8F)c8ccc5[nH]8)C=C7)C=C6)cc4)[C@H]4CC[C@@H]3O4)c2C(N)=O)C1
REMARK SMILES IDX 19 1 18 2 16 3 17 4 15 6 14 7 92 8 89 9 91 10 93 11 90 12
REMARK SMILES IDX 12 13 11 14 13 16 10 17 4 18 5 19 98 20 6 21 8 22 7 23 9 24
REMARK SMILES IDX 94 25 3 26 2 27 1 28 95 29 96 30 97 31 20 34 21 35 22 36
REMARK SMILES IDX 23 37 24 38 25 40 26 41 27 42 88 43 28 44 87 45 29 46 30 47
REMARK SMILES IDX 31 48 81 49 32 50 86 51 80 52 82 53 33 54 85 55 79 56 78 57
REMARK SMILES IDX 34 59 66 60 46 61 65 62 47 63 50 64 64 65 83 66 48 67 49 68
REMARK SMILES IDX 63 70 84 71 51 72 35 73 36 74 44 75 37 76 38 77 42 78 45 79
REMARK SMILES IDX 39 80 40 81 43 82 41 83 67 84 68 85 76 86 69 87 70 88 74 89
REMARK SMILES IDX 77 90 71 91 72 92 75 93 73 94 52 95 53 96 61 97 54 98 55 99
REMARK SMILES IDX 59 100 62 101 56 102 57 103 60 104 58 105
REMARK H PARENT 18 5 11 15 96 32 96 33 23 39 82 58 50 69
REMARK Flexibility Score: inf
ROOT
ATOM      1  C   UNL A   1      37.043  21.727  24.324  1.00  0.00     0.116 C 
ENDROOT
BRANCH   1   2
ATOM      2  N   UNL A   1      35.758  21.172  24.713  1.00  0.00    -0.356 N 
ATOM      3  C   UNL A   1      34.514  21.733  24.619  1.00  0.00     0.226 C 
ATOM      4  O   UNL A   1      33.537  21.046  24.908  1.00  0.00    -0.275 OA
ATOM      5  H   UNL A   1      35.787  20.266  25.098  1.00  0.00     0.163 HD
BRANCH   3   6
ATOM      6  C   UNL A   1      34.412  23.112  24.000  1.00  0.00     0.122 C 
ATOM      7  C   UNL A   1      33.472  24.182  24.595  1.00  0.00     0.123 C 
ATOM      8  C   UNL A   1      32.422  24.281  23.484  1.00  0.00     0.132 C 
ATOM      9  C   UNL A   1      33.866  22.959  22.564  1.00  0.00     0.132 C 
ATOM     10  C   UNL A   1      31.613  23.002  23.281  1.00  0.00     0.035 C 
ATOM     11  O   UNL A   1      33.301  24.266  22.323  1.00  0.00    -0.373 OA
ATOM     12  C   UNL A   1      32.582  22.135  22.482  1.00  0.00     0.035 C 
BRANCH   7  13
ATOM     13  C   UNL A   1      33.034  24.042  26.052  1.00  0.00     0.231 C 
ATOM     14  N   UNL A   1      31.992  24.775  26.552  1.00  0.00    -0.317 N 
ATOM     15  H   UNL A   1      31.596  24.454  27.394  1.00  0.00     0.170 HD
ATOM     16  O   UNL A   1      33.660  23.341  26.850  1.00  0.00    -0.274 OA
BRANCH  14  17
ATOM     17  C   UNL A   1      31.440  25.910  26.013  1.00  0.00     0.108 A 
ATOM     18  C   UNL A   1      29.209  28.873  22.845  1.00  0.00    -0.006 C 
ATOM     19  C   UNL A   1      30.128  29.820  23.654  1.00  0.00     0.009 C 
ATOM     20  C   UNL A   1      28.932  27.500  23.504  1.00  0.00     0.050 C 
ATOM     21  C   UNL A   1      31.407  29.142  24.145  1.00  0.00     0.038 C 
ATOM     22  C   UNL A   1      29.994  27.104  24.480  1.00  0.00     0.011 A 
ATOM     23  C   UNL A   1      31.101  27.850  24.833  1.00  0.00    -0.019 A 
ATOM     24  S   UNL A   1      29.906  25.638  25.338  1.00  0.00    -0.122 S 
ATOM     25  C   UNL A   1      31.857  27.226  25.894  1.00  0.00     0.077 A 
BRANCH  18  26
ATOM     26  C   UNL A   1      27.923  29.604  22.396  1.00  0.00     0.004 C 
BRANCH  26  27
ATOM     27  C   UNL A   1      28.028  30.686  21.309  1.00  0.00    -0.003 C 
ATOM     28  C   UNL A   1      28.036  32.126  21.795  1.00  0.00     0.004 C 
ENDBRANCH  26  27
ENDBRANCH  18  26
BRANCH  25  29
ATOM     29  C   UNL A   1      32.943  27.858  26.641  1.00  0.00     0.251 C 
ATOM     30  N   UNL A   1      32.563  28.720  27.629  1.00  0.00    -0.365 N 
ATOM     31  O   UNL A   1      34.132  27.679  26.407  1.00  0.00    -0.269 OA
ATOM     32  H   UNL A   1      31.607  28.863  27.817  1.00  0.00     0.159 HD
ATOM     33  H   UNL A   1      33.244  29.200  28.155  1.00  0.00     0.159 HD
ENDBRANCH  25  29
ENDBRANCH  14  17
ENDBRANCH   7  13
ENDBRANCH   3   6
ENDBRANCH   1   2
BRANCH   1  34
ATOM     34  C   UNL A   1      38.108  21.492  25.391  1.00  0.00     0.023 C 
BRANCH  34  35
ATOM     35  C   UNL A   1      38.780  20.120  25.325  1.00  0.00     0.023 C 
BRANCH  35  36
ATOM     36  C   UNL A   1      39.725  19.805  26.479  1.00  0.00     0.116 C 
BRANCH  36  37
ATOM     37  N   UNL A   1      40.777  18.864  26.124  1.00  0.00    -0.352 N 
ATOM     38  C   UNL A   1      42.110  19.132  25.929  1.00  0.00     0.251 C 
ATOM     39  H   UNL A   1      40.500  17.925  26.012  1.00  0.00     0.163 HD
ATOM     40  O   UNL A   1      42.882  18.263  25.541  1.00  0.00    -0.269 OA
BRANCH  38  41
ATOM     41  C   UNL A   1      42.594  20.508  26.155  1.00  0.00     0.039 A 
ATOM     42  C   UNL A   1      42.829  21.331  25.052  1.00  0.00     0.014 A 
ATOM     43  C   UNL A   1      42.750  20.994  27.456  1.00  0.00     0.014 A 
ATOM     44  C   UNL A   1      43.159  22.673  25.254  1.00  0.00     0.010 A 
ATOM     45  C   UNL A   1      43.028  22.341  27.654  1.00  0.00     0.010 A 
ATOM     46  C   UNL A   1      43.228  23.193  26.556  1.00  0.00    -0.014 A 
BRANCH  46  47
ATOM     47  C   UNL A   1      43.519  24.625  26.806  1.00  0.00     0.031 A 
ATOM     48  C   UNL A   1      44.908  25.147  26.578  1.00  0.00     0.074 A 
ATOM     49  C   UNL A   1      42.566  25.427  27.316  1.00  0.00     0.049 A 
ATOM     50  N   UNL A   1      45.415  26.315  26.880  1.00  0.00    -0.248 NA
ATOM     51  C   UNL A   1      45.863  24.219  25.951  1.00  0.00     0.031 C 
ATOM     52  C   UNL A   1      41.188  25.029  27.604  1.00  0.00     0.029 A 
ATOM     53  N   UNL A   1      42.620  26.743  27.701  1.00  0.00    -0.354 N 
ATOM     54  C   UNL A   1      46.750  26.253  26.507  1.00  0.00     0.074 A 
ATOM     55  C   UNL A   1      46.984  24.924  25.984  1.00  0.00     0.031 C 
ATOM     56  C   UNL A   1      40.525  26.079  28.116  1.00  0.00     0.029 A 
ATOM     57  C   UNL A   1      41.439  27.211  28.226  1.00  0.00     0.049 A 
ATOM     58  H   UNL A   1      43.428  27.298  27.612  1.00  0.00     0.167 HD
ATOM     59  C   UNL A   1      47.691  27.223  26.581  1.00  0.00     0.037 A 
ATOM     60  C   UNL A   1      41.138  28.416  28.749  1.00  0.00     0.037 A 
ATOM     61  C   UNL A   1      47.447  28.553  27.069  1.00  0.00     0.049 A 
ATOM     62  C   UNL A   1      42.199  29.481  28.804  1.00  0.00     0.074 A 
ATOM     63  C   UNL A   1      48.327  29.617  27.157  1.00  0.00     0.029 A 
ATOM     64  N   UNL A   1      46.223  29.005  27.541  1.00  0.00    -0.354 N 
ATOM     65  N   UNL A   1      43.452  29.420  28.424  1.00  0.00    -0.248 NA
ATOM     66  C   UNL A   1      41.805  30.783  29.359  1.00  0.00     0.031 C 
ATOM     67  C   UNL A   1      47.642  30.708  27.700  1.00  0.00     0.029 A 
ATOM     68  C   UNL A   1      46.326  30.332  27.920  1.00  0.00     0.049 A 
ATOM     69  H   UNL A   1      45.405  28.462  27.598  1.00  0.00     0.167 HD
ATOM     70  C   UNL A   1      43.984  30.679  28.660  1.00  0.00     0.074 A 
ATOM     71  C   UNL A   1      42.919  31.487  29.215  1.00  0.00     0.031 C 
ATOM     72  C   UNL A   1      45.243  31.127  28.439  1.00  0.00     0.037 A 
BRANCH  59  73
ATOM     73  C   UNL A   1      49.074  26.880  26.118  1.00  0.00     0.064 A 
ATOM     74  C   UNL A   1      50.035  26.367  27.002  1.00  0.00     0.173 A 
ATOM     75  C   UNL A   1      49.432  27.031  24.770  1.00  0.00     0.173 A 
ATOM     76  F   UNL A   1      49.744  26.219  28.303  1.00  0.00    -0.203 F 
ATOM     77  C   UNL A   1      51.312  26.037  26.557  1.00  0.00     0.198 A 
ATOM     78  C   UNL A   1      50.703  26.678  24.324  1.00  0.00     0.198 A 
ATOM     79  F   UNL A   1      48.549  27.515  23.886  1.00  0.00    -0.203 F 
ATOM     80  F   UNL A   1      52.227  25.586  27.427  1.00  0.00    -0.200 F 
ATOM     81  C   UNL A   1      51.643  26.185  25.218  1.00  0.00     0.200 A 
ATOM     82  F   UNL A   1      51.019  26.812  23.029  1.00  0.00    -0.200 F 
ATOM     83  F   UNL A   1      52.871  25.862  24.790  1.00  0.00    -0.200 F 
ENDBRANCH  59  73
BRANCH  60  84
ATOM     84  C   UNL A   1      39.765  28.689  29.244  1.00  0.00     0.064 A 
ATOM     85  C   UNL A   1      39.424  28.438  30.580  1.00  0.00     0.173 A 
ATOM     86  C   UNL A   1      38.766  29.189  28.396  1.00  0.00     0.173 A 
ATOM     87  F   UNL A   1      40.341  27.939  31.422  1.00  0.00    -0.203 F 
ATOM     88  C   UNL A   1      38.129  28.657  31.045  1.00  0.00     0.198 A 
ATOM     89  C   UNL A   1      37.479  29.430  28.869  1.00  0.00     0.198 A 
ATOM     90  F   UNL A   1      39.045  29.448  27.110  1.00  0.00    -0.203 F 
ATOM     91  F   UNL A   1      37.819  28.367  32.316  1.00  0.00    -0.200 F 
ATOM     92  C   UNL A   1      37.159  29.157  30.191  1.00  0.00     0.200 A 
ATOM     93  F   UNL A   1      36.545  29.923  28.043  1.00  0.00    -0.200 F 
ATOM     94  F   UNL A   1      35.913  29.366  30.638  1.00  0.00    -0.200 F 
ENDBRANCH  60  84
BRANCH  72  95
ATOM     95  C   UNL A   1      45.525  32.567  28.735  1.00  0.00     0.064 A 
ATOM     96  C   UNL A   1      46.043  32.975  29.972  1.00  0.00     0.173 A 
ATOM     97  C   UNL A   1      45.324  33.542  27.747  1.00  0.00     0.173 A 
ATOM     98  F   UNL A   1      46.237  32.079  30.951  1.00  0.00    -0.203 F 
ATOM     99  C   UNL A   1      46.340  34.314  30.213  1.00  0.00     0.198 A 
ATOM    100  C   UNL A   1      45.642  34.876  27.985  1.00  0.00     0.198 A 
ATOM    101  F   UNL A   1      44.834  33.198  26.547  1.00  0.00    -0.203 F 
ATOM    102  F   UNL A   1      46.806  34.689  31.412  1.00  0.00    -0.200 F 
ATOM    103  C   UNL A   1      46.146  35.261  29.218  1.00  0.00     0.200 A 
ATOM    104  F   UNL A   1      45.463  35.789  27.020  1.00  0.00    -0.200 F 
ATOM    105  F   UNL A   1      46.440  36.547  29.451  1.00  0.00    -0.200 F 
ENDBRANCH  72  95
ENDBRANCH  46  47
ENDBRANCH  38  41
ENDBRANCH  36  37
ENDBRANCH  35  36
ENDBRANCH  34  35
ENDBRANCH   1  34
TORSDOF 16
ENDMDL
MODEL 3
REMARK VINA RESULT:     -11.7      2.709      8.050
REMARK SMILES CCC[C@H]1CCc2c(sc(NC(=O)[C@H]3[C@@H](C(=O)NCCCCNC(=O)c4ccc(-c5c6nc(c(-c7c(F)c(F)c(F)c(F)c7F)c7ccc([nH]7)c(-c7c(F)c(F)c(F)c(F)c7F)c7nc(c(-c8c(F)c(F)c(F)c(F)c8F)c8ccc5[nH]8)C=C7)C=C6)cc4)[C@H]4CC[C@@H]3O4)c2C(N)=O)C1
REMARK SMILES IDX 19 1 18 2 16 3 17 4 15 6 14 7 92 8 89 9 91 10 93 11 90 12
REMARK SMILES IDX 12 13 11 14 13 16 10 17 4 18 5 19 98 20 6 21 8 22 7 23 9 24
REMARK SMILES IDX 94 25 3 26 2 27 1 28 95 29 96 30 97 31 20 34 21 35 22 36
REMARK SMILES IDX 23 37 24 38 25 40 26 41 27 42 88 43 28 44 87 45 29 46 30 47
REMARK SMILES IDX 31 48 81 49 32 50 86 51 80 52 82 53 33 54 85 55 79 56 78 57
REMARK SMILES IDX 34 59 66 60 46 61 65 62 47 63 50 64 64 65 83 66 48 67 49 68
REMARK SMILES IDX 63 70 84 71 51 72 35 73 36 74 44 75 37 76 38 77 42 78 45 79
REMARK SMILES IDX 39 80 40 81 43 82 41 83 67 84 68 85 76 86 69 87 70 88 74 89
REMARK SMILES IDX 77 90 71 91 72 92 75 93 73 94 52 95 53 96 61 97 54 98 55 99
REMARK SMILES IDX 59 100 62 101 56 102 57 103 60 104 58 105
REMARK H PARENT 18 5 11 15 96 32 96 33 23 39 82 58 50 69
REMARK Flexibility Score: inf
ROOT
ATOM      1  C   UNL A   1      36.102  23.694  26.101  1.00  0.00     0.116 C 
ENDROOT
BRANCH   1   2
ATOM      2  N   UNL A   1      35.032  22.981  26.777  1.00  0.00    -0.356 N 
ATOM      3  C   UNL A   1      33.788  22.651  26.311  1.00  0.00     0.226 C 
ATOM      4  O   UNL A   1      33.068  21.945  27.013  1.00  0.00    -0.275 OA
ATOM      5  H   UNL A   1      35.229  22.695  27.699  1.00  0.00     0.163 HD
BRANCH   3   6
ATOM      6  C   UNL A   1      33.449  23.036  24.887  1.00  0.00     0.122 C 
ATOM      7  C   UNL A   1      31.990  23.018  24.384  1.00  0.00     0.123 C 
ATOM      8  C   UNL A   1      32.048  21.845  23.399  1.00  0.00     0.132 C 
ATOM      9  C   UNL A   1      34.135  22.030  23.937  1.00  0.00     0.132 C 
ATOM     10  C   UNL A   1      32.338  20.498  24.058  1.00  0.00     0.035 C 
ATOM     11  O   UNL A   1      33.318  22.140  22.751  1.00  0.00    -0.373 OA
ATOM     12  C   UNL A   1      33.847  20.569  24.280  1.00  0.00     0.035 C 
BRANCH   7  13
ATOM     13  C   UNL A   1      30.862  23.099  25.410  1.00  0.00     0.231 C 
ATOM     14  N   UNL A   1      30.389  24.305  25.850  1.00  0.00    -0.317 N 
ATOM     15  H   UNL A   1      29.509  24.295  26.292  1.00  0.00     0.170 HD
ATOM     16  O   UNL A   1      30.406  22.088  25.951  1.00  0.00    -0.274 OA
BRANCH  14  17
ATOM     17  C   UNL A   1      31.005  25.527  25.746  1.00  0.00     0.108 A 
ATOM     18  C   UNL A   1      32.798  29.888  26.998  1.00  0.00    -0.006 C 
ATOM     19  C   UNL A   1      32.430  30.053  25.503  1.00  0.00     0.009 C 
ATOM     20  C   UNL A   1      32.923  28.425  27.489  1.00  0.00     0.050 C 
ATOM     21  C   UNL A   1      31.241  29.192  25.077  1.00  0.00     0.038 C 
ATOM     22  C   UNL A   1      32.152  27.463  26.642  1.00  0.00     0.011 A 
ATOM     23  C   UNL A   1      31.423  27.772  25.511  1.00  0.00    -0.019 A 
ATOM     24  S   UNL A   1      32.143  25.796  26.978  1.00  0.00    -0.122 S 
ATOM     25  C   UNL A   1      30.903  26.589  24.863  1.00  0.00     0.077 A 
BRANCH  18  26
ATOM     26  C   UNL A   1      34.019  30.761  27.365  1.00  0.00     0.004 C 
BRANCH  26  27
ATOM     27  C   UNL A   1      35.193  30.112  28.116  1.00  0.00    -0.003 C 
ATOM     28  C   UNL A   1      36.479  29.936  27.326  1.00  0.00     0.004 C 
ENDBRANCH  26  27
ENDBRANCH  18  26
BRANCH  25  29
ATOM     29  C   UNL A   1      30.287  26.554  23.538  1.00  0.00     0.251 C 
ATOM     30  N   UNL A   1      31.052  26.021  22.540  1.00  0.00    -0.365 N 
ATOM     31  O   UNL A   1      29.171  26.994  23.288  1.00  0.00    -0.269 OA
ATOM     32  H   UNL A   1      31.948  25.667  22.742  1.00  0.00     0.159 HD
ATOM     33  H   UNL A   1      30.708  25.989  21.618  1.00  0.00     0.159 HD
ENDBRANCH  25  29
ENDBRANCH  14  17
ENDBRANCH   7  13
ENDBRANCH   3   6
ENDBRANCH   1   2
BRANCH   1  34
ATOM     34  C   UNL A   1      37.287  22.783  25.799  1.00  0.00     0.023 C 
BRANCH  34  35
ATOM     35  C   UNL A   1      38.655  23.410  26.072  1.00  0.00     0.023 C 
BRANCH  35  36
ATOM     36  C   UNL A   1      39.638  22.520  26.824  1.00  0.00     0.116 C 
BRANCH  36  37
ATOM     37  N   UNL A   1      40.825  22.187  26.052  1.00  0.00    -0.352 N 
ATOM     38  C   UNL A   1      41.913  22.989  25.801  1.00  0.00     0.251 C 
ATOM     39  H   UNL A   1      40.853  21.282  25.665  1.00  0.00     0.163 HD
ATOM     40  O   UNL A   1      42.812  22.621  25.054  1.00  0.00    -0.269 OA
BRANCH  38  41
ATOM     41  C   UNL A   1      41.959  24.329  26.417  1.00  0.00     0.039 A 
ATOM     42  C   UNL A   1      42.311  24.442  27.764  1.00  0.00     0.014 A 
ATOM     43  C   UNL A   1      41.720  25.468  25.643  1.00  0.00     0.014 A 
ATOM     44  C   UNL A   1      42.488  25.709  28.324  1.00  0.00     0.010 A 
ATOM     45  C   UNL A   1      41.948  26.726  26.188  1.00  0.00     0.010 A 
ATOM     46  C   UNL A   1      42.340  26.857  27.530  1.00  0.00    -0.014 A 
BRANCH  46  47
ATOM     47  C   UNL A   1      42.576  28.215  28.077  1.00  0.00     0.031 A 
ATOM     48  C   UNL A   1      43.981  28.736  28.178  1.00  0.00     0.074 A 
ATOM     49  C   UNL A   1      41.547  28.935  28.558  1.00  0.00     0.049 A 
ATOM     50  N   UNL A   1      44.423  29.818  28.765  1.00  0.00    -0.248 NA
ATOM     51  C   UNL A   1      45.032  27.911  27.561  1.00  0.00     0.031 C 
ATOM     52  C   UNL A   1      40.143  28.525  28.539  1.00  0.00     0.029 A 
ATOM     53  N   UNL A   1      41.527  30.160  29.177  1.00  0.00    -0.354 N 
ATOM     54  C   UNL A   1      45.802  29.792  28.611  1.00  0.00     0.074 A 
ATOM     55  C   UNL A   1      46.128  28.572  27.904  1.00  0.00     0.031 C 
ATOM     56  C   UNL A   1      39.397  29.483  29.115  1.00  0.00     0.029 A 
ATOM     57  C   UNL A   1      40.273  30.556  29.576  1.00  0.00     0.049 A 
ATOM     58  H   UNL A   1      42.336  30.703  29.323  1.00  0.00     0.167 HD
ATOM     59  C   UNL A   1      46.711  30.711  29.012  1.00  0.00     0.037 A 
ATOM     60  C   UNL A   1      39.882  31.655  30.249  1.00  0.00     0.037 A 
ATOM     61  C   UNL A   1      46.381  31.939  29.683  1.00  0.00     0.049 A 
ATOM     62  C   UNL A   1      40.913  32.667  30.669  1.00  0.00     0.074 A 
ATOM     63  C   UNL A   1      47.228  32.949  30.104  1.00  0.00     0.029 A 
ATOM     64  N   UNL A   1      45.093  32.328  30.021  1.00  0.00    -0.354 N 
ATOM     65  N   UNL A   1      42.212  32.645  30.495  1.00  0.00    -0.248 NA
ATOM     66  C   UNL A   1      40.423  33.859  31.376  1.00  0.00     0.031 C 
ATOM     67  C   UNL A   1      46.455  33.942  30.714  1.00  0.00     0.029 A 
ATOM     68  C   UNL A   1      45.124  33.564  30.644  1.00  0.00     0.049 A 
ATOM     69  H   UNL A   1      44.280  31.804  29.844  1.00  0.00     0.167 HD
ATOM     70  C   UNL A   1      42.689  33.829  31.038  1.00  0.00     0.074 A 
ATOM     71  C   UNL A   1      41.542  34.551  31.545  1.00  0.00     0.031 C 
ATOM     72  C   UNL A   1      43.965  34.279  31.110  1.00  0.00     0.037 A 
BRANCH  59  73
ATOM     73  C   UNL A   1      48.154  30.423  28.729  1.00  0.00     0.064 A 
ATOM     74  C   UNL A   1      48.918  29.608  29.578  1.00  0.00     0.173 A 
ATOM     75  C   UNL A   1      48.771  30.936  27.578  1.00  0.00     0.173 A 
ATOM     76  F   UNL A   1      48.376  29.107  30.699  1.00  0.00    -0.203 F 
ATOM     77  C   UNL A   1      50.253  29.335  29.297  1.00  0.00     0.198 A 
ATOM     78  C   UNL A   1      50.101  30.641  27.288  1.00  0.00     0.198 A 
ATOM     79  F   UNL A   1      48.084  31.718  26.734  1.00  0.00    -0.203 F 
ATOM     80  F   UNL A   1      50.974  28.586  30.143  1.00  0.00    -0.200 F 
ATOM     81  C   UNL A   1      50.841  29.845  28.149  1.00  0.00     0.200 A 
ATOM     82  F   UNL A   1      50.665  31.126  26.174  1.00  0.00    -0.200 F 
ATOM     83  F   UNL A   1      52.126  29.575  27.877  1.00  0.00    -0.200 F 
ENDBRANCH  59  73
BRANCH  60  84
ATOM     84  C   UNL A   1      38.444  31.868  30.552  1.00  0.00     0.064 A 
ATOM     85  C   UNL A   1      37.637  32.624  29.692  1.00  0.00     0.173 A 
ATOM     86  C   UNL A   1      37.853  31.338  31.708  1.00  0.00     0.173 A 
ATOM     87  F   UNL A   1      38.165  33.169  28.586  1.00  0.00    -0.203 F 
ATOM     88  C   UNL A   1      36.295  32.861  29.986  1.00  0.00     0.198 A 
ATOM     89  C   UNL A   1      36.506  31.555  31.988  1.00  0.00     0.198 A 
ATOM     90  F   UNL A   1      38.583  30.605  32.561  1.00  0.00    -0.203 F 
ATOM     91  F   UNL A   1      35.558  33.624  29.169  1.00  0.00    -0.200 F 
ATOM     92  C   UNL A   1      35.730  32.323  31.132  1.00  0.00     0.200 A 
ATOM     93  F   UNL A   1      35.960  31.026  33.092  1.00  0.00    -0.200 F 
ATOM     94  F   UNL A   1      34.441  32.551  31.415  1.00  0.00    -0.200 F 
ENDBRANCH  60  84
BRANCH  72  95
ATOM     95  C   UNL A   1      44.184  35.637  31.703  1.00  0.00     0.064 A 
ATOM     96  C   UNL A   1      44.097  36.800  30.926  1.00  0.00     0.173 A 
ATOM     97  C   UNL A   1      44.428  35.775  33.077  1.00  0.00     0.173 A 
ATOM     98  F   UNL A   1      43.880  36.715  29.606  1.00  0.00    -0.203 F 
ATOM     99  C   UNL A   1      44.261  38.056  31.504  1.00  0.00     0.198 A 
ATOM    100  C   UNL A   1      44.570  37.033  33.655  1.00  0.00     0.198 A 
ATOM    101  F   UNL A   1      44.515  34.690  33.861  1.00  0.00    -0.203 F 
ATOM    102  F   UNL A   1      44.204  39.155  30.740  1.00  0.00    -0.200 F 
ATOM    103  C   UNL A   1      44.489  38.171  32.868  1.00  0.00     0.200 A 
ATOM    104  F   UNL A   1      44.781  37.143  34.974  1.00  0.00    -0.200 F 
ATOM    105  F   UNL A   1      44.638  39.382  33.423  1.00  0.00    -0.200 F 
ENDBRANCH  72  95
ENDBRANCH  46  47
ENDBRANCH  38  41
ENDBRANCH  36  37
ENDBRANCH  35  36
ENDBRANCH  34  35
ENDBRANCH   1  34
TORSDOF 16
ENDMDL
