MODEL 1
REMARK VINA RESULT:     -12.4      0.000      0.000
REMARK SMILES Cc1cc(C(=O)N2CCC[C@@H]2C)sc1/C=C/C(=O)NCCCCNC(=O)c1ccc(-c2c3nc(c(-c4c(F)c(F)c(F)c(F)c4F)c4ccc([nH]4)c(-c4c(F)c(F)c(F)c(F)c4F)c4nc(c(-c5c(F)c(F)c(F)c(F)c5F)c5ccc2[nH]5)C=C4)C=C3)cc1
REMARK SMILES IDX 21 1 20 2 19 3 17 4 18 5 16 7 15 8 14 9 1 10 2 11 3 12 4 13
REMARK SMILES IDX 13 14 5 15 6 16 7 17 8 18 11 19 9 20 10 21 12 22 22 23 23 24
REMARK SMILES IDX 24 25 25 26 26 28 27 29 28 30 89 31 29 32 88 33 30 34 31 35
REMARK SMILES IDX 32 36 82 37 33 38 87 39 81 40 83 41 34 42 86 43 80 44 79 45
REMARK SMILES IDX 35 47 67 48 47 49 66 50 48 51 51 52 65 53 84 54 49 55 50 56
REMARK SMILES IDX 64 58 85 59 52 60 36 61 37 62 45 63 38 64 39 65 43 66 46 67
REMARK SMILES IDX 40 68 41 69 44 70 42 71 68 72 69 73 77 74 70 75 71 76 75 77
REMARK SMILES IDX 78 78 72 79 73 80 76 81 74 82 53 83 54 84 62 85 55 86 56 87
REMARK SMILES IDX 60 88 63 89 57 90 58 91 61 92 59 93
REMARK H PARENT 19 6 24 27 83 46 51 57
REMARK Flexibility Score: inf
ROOT
ATOM      1  C   UNL A   1      30.951  31.851  25.714  1.00  0.00     0.023 C 
ENDROOT
BRANCH   1   2
ATOM      2  C   UNL A   1      31.154  30.428  25.197  1.00  0.00     0.116 C 
BRANCH   2   3
ATOM      3  N   UNL A   1      30.569  30.270  23.879  1.00  0.00    -0.353 N 
ATOM      4  C   UNL A   1      30.599  29.205  23.032  1.00  0.00     0.244 C 
ATOM      5  O   UNL A   1      29.963  29.240  21.983  1.00  0.00    -0.270 OA
ATOM      6  H   UNL A   1      30.072  31.052  23.547  1.00  0.00     0.163 HD
BRANCH   4   7
ATOM      7  C   UNL A   1      31.315  27.969  23.412  1.00  0.00     0.072 C 
ATOM      8  C   UNL A   1      32.652  27.849  23.409  1.00  0.00     0.025 C 
BRANCH   8   9
ATOM      9  C   UNL A   1      33.318  26.646  23.788  1.00  0.00     0.031 A 
ATOM     10  C   UNL A   1      33.697  27.069  26.300  1.00  0.00     0.046 C 
ATOM     11  C   UNL A   1      33.836  26.292  25.028  1.00  0.00    -0.032 A 
ATOM     12  C   UNL A   1      34.512  25.024  24.968  1.00  0.00     0.029 A 
ATOM     13  C   UNL A   1      34.460  24.424  23.723  1.00  0.00     0.093 A 
ATOM     14  S   UNL A   1      33.578  25.398  22.644  1.00  0.00    -0.130 S 
BRANCH  13  15
ATOM     15  C   UNL A   1      34.876  23.059  23.409  1.00  0.00     0.264 C 
ATOM     16  O   UNL A   1      35.832  22.861  22.654  1.00  0.00    -0.268 OA
BRANCH  15  17
ATOM     17  N   UNL A   1      34.265  21.969  24.017  1.00  0.00    -0.335 N 
ATOM     18  C   UNL A   1      32.839  21.781  23.861  1.00  0.00     0.120 C 
ATOM     19  C   UNL A   1      34.829  20.915  24.869  1.00  0.00     0.082 C 
ATOM     20  C   UNL A   1      32.698  20.273  23.913  1.00  0.00     0.024 C 
ATOM     21  C   UNL A   1      33.698  19.877  24.994  1.00  0.00     0.026 C 
ATOM     22  C   UNL A   1      35.231  21.459  26.237  1.00  0.00     0.031 C 
ENDBRANCH  15  17
ENDBRANCH  13  15
ENDBRANCH   8   9
ENDBRANCH   4   7
ENDBRANCH   2   3
ENDBRANCH   1   2
BRANCH   1  23
ATOM     23  C   UNL A   1      31.453  32.079  27.141  1.00  0.00     0.023 C 
BRANCH  23  24
ATOM     24  C   UNL A   1      32.702  32.947  27.251  1.00  0.00     0.116 C 
BRANCH  24  25
ATOM     25  N   UNL A   1      32.419  34.317  27.653  1.00  0.00    -0.352 N 
ATOM     26  C   UNL A   1      33.035  35.063  28.630  1.00  0.00     0.251 C 
ATOM     27  H   UNL A   1      31.694  34.767  27.162  1.00  0.00     0.163 HD
ATOM     28  O   UNL A   1      32.619  36.174  28.923  1.00  0.00    -0.269 OA
BRANCH  26  29
ATOM     29  C   UNL A   1      34.182  34.481  29.357  1.00  0.00     0.039 A 
ATOM     30  C   UNL A   1      33.942  33.790  30.546  1.00  0.00     0.014 A 
ATOM     31  C   UNL A   1      35.477  34.578  28.841  1.00  0.00     0.014 A 
ATOM     32  C   UNL A   1      34.994  33.131  31.183  1.00  0.00     0.010 A 
ATOM     33  C   UNL A   1      36.510  33.866  29.439  1.00  0.00     0.010 A 
ATOM     34  C   UNL A   1      36.277  33.132  30.612  1.00  0.00    -0.014 A 
BRANCH  34  35
ATOM     35  C   UNL A   1      37.391  32.364  31.221  1.00  0.00     0.031 A 
ATOM     36  C   UNL A   1      37.889  32.722  32.592  1.00  0.00     0.074 A 
ATOM     37  C   UNL A   1      38.002  31.400  30.507  1.00  0.00     0.049 A 
ATOM     38  N   UNL A   1      38.901  32.229  33.259  1.00  0.00    -0.248 NA
ATOM     39  C   UNL A   1      37.172  33.798  33.294  1.00  0.00     0.031 C 
ATOM     40  C   UNL A   1      37.642  30.998  29.146  1.00  0.00     0.029 A 
ATOM     41  N   UNL A   1      39.064  30.590  30.823  1.00  0.00    -0.354 N 
ATOM     42  C   UNL A   1      38.953  32.946  34.447  1.00  0.00     0.074 A 
ATOM     43  C   UNL A   1      37.902  33.939  34.390  1.00  0.00     0.031 C 
ATOM     44  C   UNL A   1      38.457  30.007  28.751  1.00  0.00     0.029 A 
ATOM     45  C   UNL A   1      39.417  29.726  29.814  1.00  0.00     0.049 A 
ATOM     46  H   UNL A   1      39.530  30.626  31.689  1.00  0.00     0.167 HD
ATOM     47  C   UNL A   1      39.788  32.774  35.501  1.00  0.00     0.037 A 
ATOM     48  C   UNL A   1      40.406  28.815  29.754  1.00  0.00     0.037 A 
ATOM     49  C   UNL A   1      40.810  31.764  35.565  1.00  0.00     0.049 A 
ATOM     50  C   UNL A   1      41.311  28.637  30.943  1.00  0.00     0.074 A 
ATOM     51  C   UNL A   1      41.665  31.468  36.612  1.00  0.00     0.029 A 
ATOM     52  N   UNL A   1      41.114  30.883  34.537  1.00  0.00    -0.354 N 
ATOM     53  N   UNL A   1      41.306  29.273  32.089  1.00  0.00    -0.248 NA
ATOM     54  C   UNL A   1      42.355  27.608  30.831  1.00  0.00     0.031 C 
ATOM     55  C   UNL A   1      42.512  30.433  36.204  1.00  0.00     0.029 A 
ATOM     56  C   UNL A   1      42.155  30.053  34.920  1.00  0.00     0.049 A 
ATOM     57  H   UNL A   1      40.658  30.853  33.666  1.00  0.00     0.167 HD
ATOM     58  C   UNL A   1      42.321  28.702  32.846  1.00  0.00     0.074 A 
ATOM     59  C   UNL A   1      42.915  27.661  32.033  1.00  0.00     0.031 C 
ATOM     60  C   UNL A   1      42.722  29.012  34.103  1.00  0.00     0.037 A 
BRANCH  47  61
ATOM     61  C   UNL A   1      39.622  33.697  36.672  1.00  0.00     0.064 A 
ATOM     62  C   UNL A   1      38.828  33.348  37.775  1.00  0.00     0.173 A 
ATOM     63  C   UNL A   1      40.292  34.929  36.709  1.00  0.00     0.173 A 
ATOM     64  F   UNL A   1      38.157  32.186  37.782  1.00  0.00    -0.203 F 
ATOM     65  C   UNL A   1      38.686  34.211  38.858  1.00  0.00     0.198 A 
ATOM     66  C   UNL A   1      40.172  35.776  37.807  1.00  0.00     0.198 A 
ATOM     67  F   UNL A   1      41.068  35.308  35.682  1.00  0.00    -0.203 F 
ATOM     68  F   UNL A   1      37.883  33.878  39.877  1.00  0.00    -0.200 F 
ATOM     69  C   UNL A   1      39.365  35.421  38.876  1.00  0.00     0.200 A 
ATOM     70  F   UNL A   1      40.837  36.940  37.829  1.00  0.00    -0.200 F 
ATOM     71  F   UNL A   1      39.233  36.248  39.923  1.00  0.00    -0.200 F 
ENDBRANCH  47  61
BRANCH  48  72
ATOM     72  C   UNL A   1      40.573  27.980  28.537  1.00  0.00     0.064 A 
ATOM     73  C   UNL A   1      39.943  26.731  28.434  1.00  0.00     0.173 A 
ATOM     74  C   UNL A   1      41.360  28.406  27.459  1.00  0.00     0.173 A 
ATOM     75  F   UNL A   1      39.196  26.273  29.449  1.00  0.00    -0.203 F 
ATOM     76  C   UNL A   1      40.110  25.932  27.305  1.00  0.00     0.198 A 
ATOM     77  C   UNL A   1      41.505  27.617  26.319  1.00  0.00     0.198 A 
ATOM     78  F   UNL A   1      41.978  29.595  27.506  1.00  0.00    -0.203 F 
ATOM     79  F   UNL A   1      39.532  24.725  27.250  1.00  0.00    -0.200 F 
ATOM     80  C   UNL A   1      40.887  26.378  26.247  1.00  0.00     0.200 A 
ATOM     81  F   UNL A   1      42.245  28.057  25.293  1.00  0.00    -0.200 F 
ATOM     82  F   UNL A   1      41.045  25.610  25.159  1.00  0.00    -0.200 F 
ENDBRANCH  48  72
BRANCH  60  83
ATOM     83  C   UNL A   1      43.829  28.189  34.694  1.00  0.00     0.064 A 
ATOM     84  C   UNL A   1      45.174  28.564  34.569  1.00  0.00     0.173 A 
ATOM     85  C   UNL A   1      43.531  27.038  35.440  1.00  0.00     0.173 A 
ATOM     86  F   UNL A   1      45.508  29.648  33.854  1.00  0.00    -0.203 F 
ATOM     87  C   UNL A   1      46.183  27.804  35.151  1.00  0.00     0.198 A 
ATOM     88  C   UNL A   1      44.542  26.296  36.044  1.00  0.00     0.198 A 
ATOM     89  F   UNL A   1      42.260  26.641  35.594  1.00  0.00    -0.203 F 
ATOM     90  F   UNL A   1      47.465  28.158  34.986  1.00  0.00    -0.200 F 
ATOM     91  C   UNL A   1      45.867  26.676  35.895  1.00  0.00     0.200 A 
ATOM     92  F   UNL A   1      44.234  25.214  36.771  1.00  0.00    -0.200 F 
ATOM     93  F   UNL A   1      46.840  25.952  36.463  1.00  0.00    -0.200 F 
ENDBRANCH  60  83
ENDBRANCH  34  35
ENDBRANCH  26  29
ENDBRANCH  24  25
ENDBRANCH  23  24
ENDBRANCH   1  23
TORSDOF 14
ENDMDL
MODEL 2
REMARK VINA RESULT:     -12.3      5.344     10.188
REMARK SMILES Cc1cc(C(=O)N2CCC[C@@H]2C)sc1/C=C/C(=O)NCCCCNC(=O)c1ccc(-c2c3nc(c(-c4c(F)c(F)c(F)c(F)c4F)c4ccc([nH]4)c(-c4c(F)c(F)c(F)c(F)c4F)c4nc(c(-c5c(F)c(F)c(F)c(F)c5F)c5ccc2[nH]5)C=C4)C=C3)cc1
REMARK SMILES IDX 21 1 20 2 19 3 17 4 18 5 16 7 15 8 14 9 1 10 2 11 3 12 4 13
REMARK SMILES IDX 13 14 5 15 6 16 7 17 8 18 11 19 9 20 10 21 12 22 22 23 23 24
REMARK SMILES IDX 24 25 25 26 26 28 27 29 28 30 89 31 29 32 88 33 30 34 31 35
REMARK SMILES IDX 32 36 82 37 33 38 87 39 81 40 83 41 34 42 86 43 80 44 79 45
REMARK SMILES IDX 35 47 67 48 47 49 66 50 48 51 51 52 65 53 84 54 49 55 50 56
REMARK SMILES IDX 64 58 85 59 52 60 36 61 37 62 45 63 38 64 39 65 43 66 46 67
REMARK SMILES IDX 40 68 41 69 44 70 42 71 68 72 69 73 77 74 70 75 71 76 75 77
REMARK SMILES IDX 78 78 72 79 73 80 76 81 74 82 53 83 54 84 62 85 55 86 56 87
REMARK SMILES IDX 60 88 63 89 57 90 58 91 61 92 59 93
REMARK H PARENT 19 6 24 27 83 46 51 57
REMARK Flexibility Score: inf
ROOT
ATOM      1  C   UNL A   1      37.149  21.155  24.813  1.00  0.00     0.023 C 
ENDROOT
BRANCH   1   2
ATOM      2  C   UNL A   1      35.905  21.031  25.692  1.00  0.00     0.116 C 
BRANCH   2   3
ATOM      3  N   UNL A   1      34.939  20.129  25.095  1.00  0.00    -0.353 N 
ATOM      4  C   UNL A   1      33.737  20.396  24.516  1.00  0.00     0.244 C 
ATOM      5  O   UNL A   1      33.098  19.491  23.988  1.00  0.00    -0.270 OA
ATOM      6  H   UNL A   1      35.191  19.178  25.110  1.00  0.00     0.163 HD
BRANCH   4   7
ATOM      7  C   UNL A   1      33.240  21.786  24.434  1.00  0.00     0.072 C 
ATOM      8  C   UNL A   1      31.954  22.130  24.602  1.00  0.00     0.025 C 
BRANCH   8   9
ATOM      9  C   UNL A   1      31.502  23.482  24.525  1.00  0.00     0.031 A 
ATOM     10  C   UNL A   1      30.118  23.656  26.690  1.00  0.00     0.046 C 
ATOM     11  C   UNL A   1      30.657  24.167  25.390  1.00  0.00    -0.032 A 
ATOM     12  C   UNL A   1      30.377  25.491  24.904  1.00  0.00     0.029 A 
ATOM     13  C   UNL A   1      31.035  25.803  23.729  1.00  0.00     0.093 A 
ATOM     14  S   UNL A   1      31.997  24.493  23.234  1.00  0.00    -0.130 S 
BRANCH  13  15
ATOM     15  C   UNL A   1      31.106  27.125  23.110  1.00  0.00     0.264 C 
ATOM     16  O   UNL A   1      30.585  27.322  22.008  1.00  0.00    -0.268 OA
BRANCH  15  17
ATOM     17  N   UNL A   1      31.679  28.198  23.781  1.00  0.00    -0.335 N 
ATOM     18  C   UNL A   1      30.851  29.327  24.145  1.00  0.00     0.120 C 
ATOM     19  C   UNL A   1      33.069  28.430  24.193  1.00  0.00     0.082 C 
ATOM     20  C   UNL A   1      31.509  29.822  25.418  1.00  0.00     0.024 C 
ATOM     21  C   UNL A   1      32.995  29.663  25.112  1.00  0.00     0.026 C 
ATOM     22  C   UNL A   1      33.971  28.693  22.990  1.00  0.00     0.031 C 
ENDBRANCH  15  17
ENDBRANCH  13  15
ENDBRANCH   8   9
ENDBRANCH   4   7
ENDBRANCH   2   3
ENDBRANCH   1   2
BRANCH   1  23
ATOM     23  C   UNL A   1      38.129  19.987  24.941  1.00  0.00     0.023 C 
BRANCH  23  24
ATOM     24  C   UNL A   1      39.361  20.274  25.792  1.00  0.00     0.116 C 
BRANCH  24  25
ATOM     25  N   UNL A   1      40.288  19.154  25.860  1.00  0.00    -0.352 N 
ATOM     26  C   UNL A   1      41.639  19.181  26.114  1.00  0.00     0.251 C 
ATOM     27  H   UNL A   1      39.898  18.264  25.707  1.00  0.00     0.163 HD
ATOM     28  O   UNL A   1      42.308  18.161  26.042  1.00  0.00    -0.269 OA
BRANCH  26  29
ATOM     29  C   UNL A   1      42.282  20.473  26.431  1.00  0.00     0.039 A 
ATOM     30  C   UNL A   1      42.790  21.244  25.383  1.00  0.00     0.014 A 
ATOM     31  C   UNL A   1      42.337  20.939  27.747  1.00  0.00     0.014 A 
ATOM     32  C   UNL A   1      43.291  22.519  25.648  1.00  0.00     0.010 A 
ATOM     33  C   UNL A   1      42.773  22.235  27.999  1.00  0.00     0.010 A 
ATOM     34  C   UNL A   1      43.249  23.038  26.952  1.00  0.00    -0.014 A 
BRANCH  34  35
ATOM     35  C   UNL A   1      43.691  24.424  27.244  1.00  0.00     0.031 A 
ATOM     36  C   UNL A   1      42.706  25.434  27.756  1.00  0.00     0.074 A 
ATOM     37  C   UNL A   1      44.959  24.789  26.971  1.00  0.00     0.049 A 
ATOM     38  N   UNL A   1      42.876  26.711  27.990  1.00  0.00    -0.248 NA
ATOM     39  C   UNL A   1      41.340  24.952  28.013  1.00  0.00     0.031 C 
ATOM     40  C   UNL A   1      45.992  23.910  26.421  1.00  0.00     0.029 A 
ATOM     41  N   UNL A   1      45.590  25.999  27.107  1.00  0.00    -0.354 N 
ATOM     42  C   UNL A   1      41.638  27.186  28.401  1.00  0.00     0.074 A 
ATOM     43  C   UNL A   1      40.715  26.073  28.339  1.00  0.00     0.031 C 
ATOM     44  C   UNL A   1      47.133  24.605  26.284  1.00  0.00     0.029 A 
ATOM     45  C   UNL A   1      46.902  25.985  26.703  1.00  0.00     0.049 A 
ATOM     46  H   UNL A   1      45.144  26.802  27.460  1.00  0.00     0.167 HD
ATOM     47  C   UNL A   1      41.307  28.432  28.816  1.00  0.00     0.037 A 
ATOM     48  C   UNL A   1      47.815  26.975  26.669  1.00  0.00     0.037 A 
ATOM     49  C   UNL A   1      42.237  29.527  28.906  1.00  0.00     0.049 A 
ATOM     50  C   UNL A   1      47.424  28.347  27.147  1.00  0.00     0.074 A 
ATOM     51  C   UNL A   1      42.015  30.810  29.372  1.00  0.00     0.029 A 
ATOM     52  N   UNL A   1      43.568  29.464  28.520  1.00  0.00    -0.354 N 
ATOM     53  N   UNL A   1      46.269  28.768  27.600  1.00  0.00    -0.248 NA
ATOM     54  C   UNL A   1      48.469  29.381  27.115  1.00  0.00     0.031 C 
ATOM     55  C   UNL A   1      43.203  31.536  29.234  1.00  0.00     0.029 A 
ATOM     56  C   UNL A   1      44.177  30.692  28.725  1.00  0.00     0.049 A 
ATOM     57  H   UNL A   1      44.014  28.666  28.156  1.00  0.00     0.167 HD
ATOM     58  C   UNL A   1      46.454  30.102  27.936  1.00  0.00     0.074 A 
ATOM     59  C   UNL A   1      47.836  30.419  27.644  1.00  0.00     0.031 C 
ATOM     60  C   UNL A   1      45.559  30.984  28.443  1.00  0.00     0.037 A 
BRANCH  47  61
ATOM     61  C   UNL A   1      39.881  28.675  29.210  1.00  0.00     0.064 A 
ATOM     62  C   UNL A   1      39.432  28.446  30.520  1.00  0.00     0.173 A 
ATOM     63  C   UNL A   1      38.959  29.174  28.278  1.00  0.00     0.173 A 
ATOM     64  F   UNL A   1      40.272  27.957  31.445  1.00  0.00    -0.203 F 
ATOM     65  C   UNL A   1      38.106  28.680  30.874  1.00  0.00     0.198 A 
ATOM     66  C   UNL A   1      37.640  29.435  28.645  1.00  0.00     0.198 A 
ATOM     67  F   UNL A   1      39.337  29.415  27.014  1.00  0.00    -0.203 F 
ATOM     68  F   UNL A   1      37.689  28.407  32.118  1.00  0.00    -0.200 F 
ATOM     69  C   UNL A   1      37.214  29.181  29.939  1.00  0.00     0.200 A 
ATOM     70  F   UNL A   1      36.782  29.930  27.742  1.00  0.00    -0.200 F 
ATOM     71  F   UNL A   1      35.939  29.412  30.284  1.00  0.00    -0.200 F 
ENDBRANCH  47  61
BRANCH  48  72
ATOM     72  C   UNL A   1      49.195  26.696  26.196  1.00  0.00     0.064 A 
ATOM     73  C   UNL A   1      49.559  26.938  24.864  1.00  0.00     0.173 A 
ATOM     74  C   UNL A   1      50.175  26.184  27.058  1.00  0.00     0.173 A 
ATOM     75  F   UNL A   1      48.649  27.409  23.998  1.00  0.00    -0.203 F 
ATOM     76  C   UNL A   1      50.844  26.660  24.406  1.00  0.00     0.198 A 
ATOM     77  C   UNL A   1      51.468  25.931  26.606  1.00  0.00     0.198 A 
ATOM     78  F   UNL A   1      49.878  25.941  28.343  1.00  0.00    -0.203 F 
ATOM     79  F   UNL A   1      51.153  26.860  23.118  1.00  0.00    -0.200 F 
ATOM     80  C   UNL A   1      51.799  26.161  25.279  1.00  0.00     0.200 A 
ATOM     81  F   UNL A   1      52.392  25.462  27.455  1.00  0.00    -0.200 F 
ATOM     82  F   UNL A   1      53.038  25.897  24.840  1.00  0.00    -0.200 F 
ENDBRANCH  48  72
BRANCH  60  83
ATOM     83  C   UNL A   1      46.054  32.365  28.756  1.00  0.00     0.064 A 
ATOM     84  C   UNL A   1      45.995  33.400  27.812  1.00  0.00     0.173 A 
ATOM     85  C   UNL A   1      46.548  32.665  30.035  1.00  0.00     0.173 A 
ATOM     86  F   UNL A   1      45.544  33.158  26.572  1.00  0.00    -0.203 F 
ATOM     87  C   UNL A   1      46.431  34.683  28.131  1.00  0.00     0.198 A 
ATOM     88  C   UNL A   1      46.957  33.955  30.358  1.00  0.00     0.198 A 
ATOM     89  F   UNL A   1      46.619  31.711  30.974  1.00  0.00    -0.203 F 
ATOM     90  F   UNL A   1      46.403  35.648  27.203  1.00  0.00    -0.200 F 
ATOM     91  C   UNL A   1      46.904  34.962  29.406  1.00  0.00     0.200 A 
ATOM     92  F   UNL A   1      47.403  34.225  31.593  1.00  0.00    -0.200 F 
ATOM     93  F   UNL A   1      47.314  36.199  29.714  1.00  0.00    -0.200 F 
ENDBRANCH  60  83
ENDBRANCH  34  35
ENDBRANCH  26  29
ENDBRANCH  24  25
ENDBRANCH  23  24
ENDBRANCH   1  23
TORSDOF 14
ENDMDL
MODEL 3
REMARK VINA RESULT:     -12.3      1.118      7.380
REMARK SMILES Cc1cc(C(=O)N2CCC[C@@H]2C)sc1/C=C/C(=O)NCCCCNC(=O)c1ccc(-c2c3nc(c(-c4c(F)c(F)c(F)c(F)c4F)c4ccc([nH]4)c(-c4c(F)c(F)c(F)c(F)c4F)c4nc(c(-c5c(F)c(F)c(F)c(F)c5F)c5ccc2[nH]5)C=C4)C=C3)cc1
REMARK SMILES IDX 21 1 20 2 19 3 17 4 18 5 16 7 15 8 14 9 1 10 2 11 3 12 4 13
REMARK SMILES IDX 13 14 5 15 6 16 7 17 8 18 11 19 9 20 10 21 12 22 22 23 23 24
REMARK SMILES IDX 24 25 25 26 26 28 27 29 28 30 89 31 29 32 88 33 30 34 31 35
REMARK SMILES IDX 32 36 82 37 33 38 87 39 81 40 83 41 34 42 86 43 80 44 79 45
REMARK SMILES IDX 35 47 67 48 47 49 66 50 48 51 51 52 65 53 84 54 49 55 50 56
REMARK SMILES IDX 64 58 85 59 52 60 36 61 37 62 45 63 38 64 39 65 43 66 46 67
REMARK SMILES IDX 40 68 41 69 44 70 42 71 68 72 69 73 77 74 70 75 71 76 75 77
REMARK SMILES IDX 78 78 72 79 73 80 76 81 74 82 53 83 54 84 62 85 55 86 56 87
REMARK SMILES IDX 60 88 63 89 57 90 58 91 61 92 59 93
REMARK H PARENT 19 6 24 27 83 46 51 57
REMARK Flexibility Score: inf
ROOT
ATOM      1  C   UNL A   1      31.877  30.487  26.764  1.00  0.00     0.023 C 
ENDROOT
BRANCH   1   2
ATOM      2  C   UNL A   1      32.229  30.070  25.336  1.00  0.00     0.116 C 
BRANCH   2   3
ATOM      3  N   UNL A   1      31.046  30.049  24.498  1.00  0.00    -0.353 N 
ATOM      4  C   UNL A   1      30.528  29.042  23.745  1.00  0.00     0.244 C 
ATOM      5  O   UNL A   1      29.458  29.200  23.165  1.00  0.00    -0.270 OA
ATOM      6  H   UNL A   1      30.540  30.893  24.470  1.00  0.00     0.163 HD
BRANCH   4   7
ATOM      7  C   UNL A   1      31.196  27.724  23.698  1.00  0.00     0.072 C 
ATOM      8  C   UNL A   1      31.448  27.054  22.563  1.00  0.00     0.025 C 
BRANCH   8   9
ATOM      9  C   UNL A   1      32.102  25.787  22.546  1.00  0.00     0.031 A 
ATOM     10  C   UNL A   1      32.566  25.512  20.027  1.00  0.00     0.046 C 
ATOM     11  C   UNL A   1      32.557  25.058  21.453  1.00  0.00    -0.032 A 
ATOM     12  C   UNL A   1      33.081  23.782  21.860  1.00  0.00     0.029 A 
ATOM     13  C   UNL A   1      33.060  23.582  23.228  1.00  0.00     0.093 A 
ATOM     14  S   UNL A   1      32.420  24.951  24.007  1.00  0.00    -0.130 S 
BRANCH  13  15
ATOM     15  C   UNL A   1      33.701  22.482  23.945  1.00  0.00     0.264 C 
ATOM     16  O   UNL A   1      33.268  21.332  23.832  1.00  0.00    -0.268 OA
BRANCH  15  17
ATOM     17  N   UNL A   1      34.853  22.693  24.694  1.00  0.00    -0.335 N 
ATOM     18  C   UNL A   1      36.095  22.089  24.262  1.00  0.00     0.120 C 
ATOM     19  C   UNL A   1      35.055  23.441  25.940  1.00  0.00     0.082 C 
ATOM     20  C   UNL A   1      37.131  23.086  24.743  1.00  0.00     0.024 C 
ATOM     21  C   UNL A   1      36.585  23.510  26.103  1.00  0.00     0.026 C 
ATOM     22  C   UNL A   1      34.407  22.732  27.127  1.00  0.00     0.031 C 
ENDBRANCH  15  17
ENDBRANCH  13  15
ENDBRANCH   8   9
ENDBRANCH   4   7
ENDBRANCH   2   3
ENDBRANCH   1   2
BRANCH   1  23
ATOM     23  C   UNL A   1      31.586  31.980  26.929  1.00  0.00     0.023 C 
BRANCH  23  24
ATOM     24  C   UNL A   1      32.777  32.819  27.381  1.00  0.00     0.116 C 
BRANCH  24  25
ATOM     25  N   UNL A   1      32.432  34.204  27.665  1.00  0.00    -0.352 N 
ATOM     26  C   UNL A   1      33.013  35.058  28.573  1.00  0.00     0.251 C 
ATOM     27  H   UNL A   1      31.689  34.577  27.140  1.00  0.00     0.163 HD
ATOM     28  O   UNL A   1      32.547  36.170  28.770  1.00  0.00    -0.269 OA
BRANCH  26  29
ATOM     29  C   UNL A   1      34.184  34.592  29.344  1.00  0.00     0.039 A 
ATOM     30  C   UNL A   1      33.980  34.068  30.622  1.00  0.00     0.014 A 
ATOM     31  C   UNL A   1      35.465  34.631  28.788  1.00  0.00     0.014 A 
ATOM     32  C   UNL A   1      35.056  33.512  31.316  1.00  0.00     0.010 A 
ATOM     33  C   UNL A   1      36.521  34.017  29.452  1.00  0.00     0.010 A 
ATOM     34  C   UNL A   1      36.325  33.449  30.720  1.00  0.00    -0.014 A 
BRANCH  34  35
ATOM     35  C   UNL A   1      37.463  32.782  31.400  1.00  0.00     0.031 A 
ATOM     36  C   UNL A   1      38.161  31.628  30.741  1.00  0.00     0.074 A 
ATOM     37  C   UNL A   1      37.813  33.168  32.642  1.00  0.00     0.049 A 
ATOM     38  N   UNL A   1      39.116  30.863  31.206  1.00  0.00    -0.248 NA
ATOM     39  C   UNL A   1      37.705  31.266  29.389  1.00  0.00     0.031 C 
ATOM     40  C   UNL A   1      37.174  34.241  33.406  1.00  0.00     0.029 A 
ATOM     41  N   UNL A   1      38.783  32.691  33.487  1.00  0.00    -0.354 N 
ATOM     42  C   UNL A   1      39.360  29.922  30.215  1.00  0.00     0.074 A 
ATOM     43  C   UNL A   1      38.421  30.180  29.145  1.00  0.00     0.031 C 
ATOM     44  C   UNL A   1      37.782  34.353  34.598  1.00  0.00     0.029 A 
ATOM     45  C   UNL A   1      38.828  33.339  34.697  1.00  0.00     0.049 A 
ATOM     46  H   UNL A   1      39.390  31.953  33.248  1.00  0.00     0.167 HD
ATOM     47  C   UNL A   1      40.299  28.945  30.192  1.00  0.00     0.037 A 
ATOM     48  C   UNL A   1      39.619  33.133  35.767  1.00  0.00     0.037 A 
ATOM     49  C   UNL A   1      41.250  28.714  31.246  1.00  0.00     0.049 A 
ATOM     50  C   UNL A   1      40.661  32.050  35.709  1.00  0.00     0.074 A 
ATOM     51  C   UNL A   1      42.281  27.791  31.290  1.00  0.00     0.029 A 
ATOM     52  N   UNL A   1      41.287  29.415  32.443  1.00  0.00    -0.354 N 
ATOM     53  N   UNL A   1      40.930  31.210  34.739  1.00  0.00    -0.248 NA
ATOM     54  C   UNL A   1      41.516  31.891  36.895  1.00  0.00     0.031 C 
ATOM     55  C   UNL A   1      42.918  27.908  32.531  1.00  0.00     0.029 A 
ATOM     56  C   UNL A   1      42.314  28.934  33.240  1.00  0.00     0.049 A 
ATOM     57  H   UNL A   1      40.674  30.145  32.689  1.00  0.00     0.167 HD
ATOM     58  C   UNL A   1      42.002  30.446  35.182  1.00  0.00     0.074 A 
ATOM     59  C   UNL A   1      42.341  30.928  36.504  1.00  0.00     0.031 C 
ATOM     60  C   UNL A   1      42.647  29.438  34.547  1.00  0.00     0.037 A 
BRANCH  47  61
ATOM     61  C   UNL A   1      40.344  28.059  28.983  1.00  0.00     0.064 A 
ATOM     62  C   UNL A   1      39.638  26.847  28.934  1.00  0.00     0.173 A 
ATOM     63  C   UNL A   1      41.074  28.440  27.847  1.00  0.00     0.173 A 
ATOM     64  F   UNL A   1      38.935  26.432  29.999  1.00  0.00    -0.203 F 
ATOM     65  C   UNL A   1      39.684  26.036  27.803  1.00  0.00     0.198 A 
ATOM     66  C   UNL A   1      41.093  27.640  26.707  1.00  0.00     0.198 A 
ATOM     67  F   UNL A   1      41.762  29.591  27.840  1.00  0.00    -0.203 F 
ATOM     68  F   UNL A   1      39.042  24.860  27.798  1.00  0.00    -0.200 F 
ATOM     69  C   UNL A   1      40.405  26.437  26.689  1.00  0.00     0.200 A 
ATOM     70  F   UNL A   1      41.781  28.034  25.626  1.00  0.00    -0.200 F 
ATOM     71  F   UNL A   1      40.443  25.657  25.599  1.00  0.00    -0.200 F 
ENDBRANCH  47  61
BRANCH  48  72
ATOM     72  C   UNL A   1      39.479  33.993  36.969  1.00  0.00     0.064 A 
ATOM     73  C   UNL A   1      38.737  33.560  38.078  1.00  0.00     0.173 A 
ATOM     74  C   UNL A   1      40.077  35.259  37.039  1.00  0.00     0.173 A 
ATOM     75  F   UNL A   1      38.130  32.364  38.050  1.00  0.00    -0.203 F 
ATOM     76  C   UNL A   1      38.582  34.368  39.201  1.00  0.00     0.198 A 
ATOM     77  C   UNL A   1      39.943  36.056  38.174  1.00  0.00     0.198 A 
ATOM     78  F   UNL A   1      40.801  35.717  36.007  1.00  0.00    -0.203 F 
ATOM     79  F   UNL A   1      37.833  33.947  40.229  1.00  0.00    -0.200 F 
ATOM     80  C   UNL A   1      39.190  35.613  39.251  1.00  0.00     0.200 A 
ATOM     81  F   UNL A   1      40.543  37.253  38.223  1.00  0.00    -0.200 F 
ATOM     82  F   UNL A   1      39.044  36.390  40.334  1.00  0.00    -0.200 F 
ENDBRANCH  48  72
BRANCH  60  83
ATOM     83  C   UNL A   1      43.813  28.814  35.255  1.00  0.00     0.064 A 
ATOM     84  C   UNL A   1      45.120  29.292  35.086  1.00  0.00     0.173 A 
ATOM     85  C   UNL A   1      43.609  27.754  36.153  1.00  0.00     0.173 A 
ATOM     86  F   UNL A   1      45.366  30.293  34.228  1.00  0.00    -0.203 F 
ATOM     87  C   UNL A   1      46.184  28.720  35.776  1.00  0.00     0.198 A 
ATOM     88  C   UNL A   1      44.672  27.203  36.861  1.00  0.00     0.198 A 
ATOM     89  F   UNL A   1      42.377  27.265  36.354  1.00  0.00    -0.203 F 
ATOM     90  F   UNL A   1      47.431  29.166  35.570  1.00  0.00    -0.200 F 
ATOM     91  C   UNL A   1      45.960  27.681  36.668  1.00  0.00     0.200 A 
ATOM     92  F   UNL A   1      44.452  26.208  37.732  1.00  0.00    -0.200 F 
ATOM     93  F   UNL A   1      46.984  27.139  37.339  1.00  0.00    -0.200 F 
ENDBRANCH  60  83
ENDBRANCH  34  35
ENDBRANCH  26  29
ENDBRANCH  24  25
ENDBRANCH  23  24
ENDBRANCH   1  23
TORSDOF 14
ENDMDL
