MODEL 1
REMARK VINA RESULT:     -11.9      0.000      0.000
REMARK SMILES CC[C@@H](C)N(C)c1ccc(/C=C/C(=O)NCCCCNC(=O)c2ccc(-c3c4nc(c(-c5c(F)c(F)c(F)c(F)c5F)c5ccc([nH]5)c(-c5c(F)c(F)c(F)c(F)c5F)c5nc(c(-c6c(F)c(F)c(F)c(F)c6F)c6ccc3[nH]6)C=C5)C=C4)cc2)cc1F
REMARK SMILES IDX 16 1 15 2 13 3 14 4 12 6 11 7 10 8 7 9 8 10 87 11 9 12 86 13
REMARK SMILES IDX 88 14 5 15 6 16 3 17 4 18 2 19 1 20 17 21 18 22 19 23 20 24
REMARK SMILES IDX 21 25 22 27 23 28 24 29 85 30 25 31 84 32 26 33 27 34 28 35
REMARK SMILES IDX 78 36 29 37 83 38 77 39 79 40 30 41 82 42 76 43 75 44 31 46
REMARK SMILES IDX 63 47 43 48 62 49 44 50 47 51 61 52 80 53 45 54 46 55 60 57
REMARK SMILES IDX 81 58 48 59 32 60 33 61 41 62 34 63 35 64 39 65 42 66 36 67
REMARK SMILES IDX 37 68 40 69 38 70 64 71 65 72 73 73 66 74 67 75 71 76 74 77
REMARK SMILES IDX 68 78 69 79 72 80 70 81 49 82 50 83 58 84 51 85 52 86 56 87
REMARK SMILES IDX 59 88 53 89 54 90 57 91 55 92
REMARK H PARENT 15 5 20 26 79 45 47 56
REMARK Flexibility Score: inf
ROOT
ATOM      1  C   UNL A   1      32.274  29.878  25.386  1.00  0.00     0.116 C 
ENDROOT
BRANCH   1   2
ATOM      2  N   UNL A   1      31.221  29.792  24.389  1.00  0.00    -0.353 N 
ATOM      3  C   UNL A   1      30.627  28.697  23.835  1.00  0.00     0.243 C 
ATOM      4  O   UNL A   1      29.666  28.832  23.085  1.00  0.00    -0.270 OA
ATOM      5  H   UNL A   1      30.883  30.657  24.063  1.00  0.00     0.163 HD
BRANCH   3   6
ATOM      6  C   UNL A   1      31.082  27.339  24.209  1.00  0.00     0.072 C 
ATOM      7  C   UNL A   1      32.354  26.939  24.059  1.00  0.00     0.014 C 
BRANCH   7   8
ATOM      8  C   UNL A   1      32.869  25.627  24.464  1.00  0.00    -0.022 A 
ATOM      9  C   UNL A   1      33.718  23.025  25.277  1.00  0.00     0.073 A 
ATOM     10  C   UNL A   1      34.452  24.178  25.605  1.00  0.00     0.029 A 
ATOM     11  C   UNL A   1      32.540  23.227  24.542  1.00  0.00     0.147 A 
ATOM     12  C   UNL A   1      34.038  25.460  25.209  1.00  0.00     0.010 A 
ATOM     13  C   UNL A   1      32.121  24.495  24.138  1.00  0.00     0.049 A 
ATOM     14  F   UNL A   1      31.727  22.199  24.253  1.00  0.00    -0.205 F 
BRANCH   9  15
ATOM     15  N   UNL A   1      34.130  21.764  25.704  1.00  0.00    -0.370 N 
ATOM     16  C   UNL A   1      34.388  21.597  27.130  1.00  0.00     0.144 C 
BRANCH  15  17
ATOM     17  C   UNL A   1      34.738  20.784  24.775  1.00  0.00     0.078 C 
ATOM     18  C   UNL A   1      33.993  19.447  24.808  1.00  0.00     0.031 C 
BRANCH  17  19
ATOM     19  C   UNL A   1      36.250  20.631  25.001  1.00  0.00     0.021 C 
ATOM     20  C   UNL A   1      37.071  21.765  24.401  1.00  0.00     0.006 C 
ENDBRANCH  17  19
ENDBRANCH  15  17
ENDBRANCH   9  15
ENDBRANCH   7   8
ENDBRANCH   3   6
ENDBRANCH   1   2
BRANCH   1  21
ATOM     21  C   UNL A   1      31.744  30.430  26.710  1.00  0.00     0.023 C 
BRANCH  21  22
ATOM     22  C   UNL A   1      31.566  31.951  26.739  1.00  0.00     0.023 C 
BRANCH  22  23
ATOM     23  C   UNL A   1      32.730  32.729  27.342  1.00  0.00     0.116 C 
BRANCH  23  24
ATOM     24  N   UNL A   1      32.411  34.117  27.633  1.00  0.00    -0.352 N 
ATOM     25  C   UNL A   1      32.995  34.956  28.553  1.00  0.00     0.251 C 
ATOM     26  H   UNL A   1      31.679  34.508  27.103  1.00  0.00     0.163 HD
ATOM     27  O   UNL A   1      32.545  36.077  28.749  1.00  0.00    -0.269 OA
BRANCH  25  28
ATOM     28  C   UNL A   1      34.150  34.473  29.338  1.00  0.00     0.039 A 
ATOM     29  C   UNL A   1      33.911  33.846  30.564  1.00  0.00     0.014 A 
ATOM     30  C   UNL A   1      35.454  34.607  28.854  1.00  0.00     0.014 A 
ATOM     31  C   UNL A   1      34.977  33.286  31.271  1.00  0.00     0.010 A 
ATOM     32  C   UNL A   1      36.505  33.993  29.527  1.00  0.00     0.010 A 
ATOM     33  C   UNL A   1      36.276  33.322  30.738  1.00  0.00    -0.014 A 
BRANCH  33  34
ATOM     34  C   UNL A   1      37.406  32.649  31.424  1.00  0.00     0.031 A 
ATOM     35  C   UNL A   1      38.107  31.495  30.769  1.00  0.00     0.074 A 
ATOM     36  C   UNL A   1      37.756  33.038  32.665  1.00  0.00     0.049 A 
ATOM     37  N   UNL A   1      39.063  30.733  31.239  1.00  0.00    -0.248 NA
ATOM     38  C   UNL A   1      37.661  31.131  29.414  1.00  0.00     0.031 C 
ATOM     39  C   UNL A   1      37.121  34.119  33.421  1.00  0.00     0.029 A 
ATOM     40  N   UNL A   1      38.727  32.566  33.513  1.00  0.00    -0.354 N 
ATOM     41  C   UNL A   1      39.321  29.798  30.247  1.00  0.00     0.074 A 
ATOM     42  C   UNL A   1      38.391  30.053  29.169  1.00  0.00     0.031 C 
ATOM     43  C   UNL A   1      37.737  34.246  34.607  1.00  0.00     0.029 A 
ATOM     44  C   UNL A   1      38.784  33.233  34.711  1.00  0.00     0.049 A 
ATOM     45  H   UNL A   1      39.326  31.819  33.282  1.00  0.00     0.167 HD
ATOM     46  C   UNL A   1      40.268  28.830  30.229  1.00  0.00     0.037 A 
ATOM     47  C   UNL A   1      39.588  33.048  35.776  1.00  0.00     0.037 A 
ATOM     48  C   UNL A   1      41.211  28.600  31.291  1.00  0.00     0.049 A 
ATOM     49  C   UNL A   1      40.627  31.962  35.733  1.00  0.00     0.074 A 
ATOM     50  C   UNL A   1      42.242  27.677  31.340  1.00  0.00     0.029 A 
ATOM     51  N   UNL A   1      41.241  29.301  32.486  1.00  0.00    -0.354 N 
ATOM     52  N   UNL A   1      40.895  31.114  34.769  1.00  0.00    -0.248 NA
ATOM     53  C   UNL A   1      41.478  31.807  36.921  1.00  0.00     0.031 C 
ATOM     54  C   UNL A   1      42.872  27.795  32.583  1.00  0.00     0.029 A 
ATOM     55  C   UNL A   1      42.263  28.820  33.289  1.00  0.00     0.049 A 
ATOM     56  H   UNL A   1      40.628  30.032  32.729  1.00  0.00     0.167 HD
ATOM     57  C   UNL A   1      41.955  30.342  35.224  1.00  0.00     0.074 A 
ATOM     58  C   UNL A   1      42.291  30.829  36.545  1.00  0.00     0.031 C 
ATOM     59  C   UNL A   1      42.591  29.321  34.599  1.00  0.00     0.037 A 
BRANCH  46  60
ATOM     60  C   UNL A   1      40.347  27.954  29.015  1.00  0.00     0.064 A 
ATOM     61  C   UNL A   1      41.082  28.358  27.889  1.00  0.00     0.173 A 
ATOM     62  C   UNL A   1      39.643  26.743  28.940  1.00  0.00     0.173 A 
ATOM     63  F   UNL A   1      41.769  29.510  27.907  1.00  0.00    -0.203 F 
ATOM     64  C   UNL A   1      41.098  27.586  26.731  1.00  0.00     0.198 A 
ATOM     65  C   UNL A   1      39.684  25.960  27.789  1.00  0.00     0.198 A 
ATOM     66  F   UNL A   1      38.935  26.307  29.994  1.00  0.00    -0.203 F 
ATOM     67  F   UNL A   1      41.783  28.005  25.658  1.00  0.00    -0.200 F 
ATOM     68  C   UNL A   1      40.404  26.386  26.683  1.00  0.00     0.200 A 
ATOM     69  F   UNL A   1      39.032  24.789  27.754  1.00  0.00    -0.200 F 
ATOM     70  F   UNL A   1      40.430  25.639  25.571  1.00  0.00    -0.200 F 
ENDBRANCH  46  60
BRANCH  47  71
ATOM     71  C   UNL A   1      39.464  33.943  36.954  1.00  0.00     0.064 A 
ATOM     72  C   UNL A   1      40.093  35.196  36.994  1.00  0.00     0.173 A 
ATOM     73  C   UNL A   1      38.733  33.543  38.082  1.00  0.00     0.173 A 
ATOM     74  F   UNL A   1      40.808  35.622  35.942  1.00  0.00    -0.203 F 
ATOM     75  C   UNL A   1      40.010  36.006  38.124  1.00  0.00     0.198 A 
ATOM     76  C   UNL A   1      38.631  34.364  39.202  1.00  0.00     0.198 A 
ATOM     77  F   UNL A   1      38.098  32.361  38.082  1.00  0.00    -0.203 F 
ATOM     78  F   UNL A   1      40.647  37.185  38.150  1.00  0.00    -0.200 F 
ATOM     79  C   UNL A   1      39.276  35.591  39.226  1.00  0.00     0.200 A 
ATOM     80  F   UNL A   1      37.903  33.968  40.255  1.00  0.00    -0.200 F 
ATOM     81  F   UNL A   1      39.189  36.375  40.309  1.00  0.00    -0.200 F 
ENDBRANCH  47  71
BRANCH  59  82
ATOM     82  C   UNL A   1      43.731  28.667  35.319  1.00  0.00     0.064 A 
ATOM     83  C   UNL A   1      45.053  29.062  35.061  1.00  0.00     0.173 A 
ATOM     84  C   UNL A   1      43.524  27.594  36.197  1.00  0.00     0.173 A 
ATOM     85  F   UNL A   1      45.303  30.079  34.223  1.00  0.00    -0.203 F 
ATOM     86  C   UNL A   1      46.127  28.393  35.641  1.00  0.00     0.198 A 
ATOM     87  C   UNL A   1      44.599  26.943  36.796  1.00  0.00     0.198 A 
ATOM     88  F   UNL A   1      42.278  27.188  36.484  1.00  0.00    -0.203 F 
ATOM     89  F   UNL A   1      47.381  28.763  35.351  1.00  0.00    -0.200 F 
ATOM     90  C   UNL A   1      45.898  27.336  36.509  1.00  0.00     0.200 A 
ATOM     91  F   UNL A   1      44.378  25.935  37.651  1.00  0.00    -0.200 F 
ATOM     92  F   UNL A   1      46.933  26.695  37.071  1.00  0.00    -0.200 F 
ENDBRANCH  59  82
ENDBRANCH  33  34
ENDBRANCH  25  28
ENDBRANCH  23  24
ENDBRANCH  22  23
ENDBRANCH  21  22
ENDBRANCH   1  21
TORSDOF 15
ENDMDL
MODEL 2
REMARK VINA RESULT:     -11.9      0.874      1.995
REMARK SMILES CC[C@@H](C)N(C)c1ccc(/C=C/C(=O)NCCCCNC(=O)c2ccc(-c3c4nc(c(-c5c(F)c(F)c(F)c(F)c5F)c5ccc([nH]5)c(-c5c(F)c(F)c(F)c(F)c5F)c5nc(c(-c6c(F)c(F)c(F)c(F)c6F)c6ccc3[nH]6)C=C5)C=C4)cc2)cc1F
REMARK SMILES IDX 16 1 15 2 13 3 14 4 12 6 11 7 10 8 7 9 8 10 87 11 9 12 86 13
REMARK SMILES IDX 88 14 5 15 6 16 3 17 4 18 2 19 1 20 17 21 18 22 19 23 20 24
REMARK SMILES IDX 21 25 22 27 23 28 24 29 85 30 25 31 84 32 26 33 27 34 28 35
REMARK SMILES IDX 78 36 29 37 83 38 77 39 79 40 30 41 82 42 76 43 75 44 31 46
REMARK SMILES IDX 63 47 43 48 62 49 44 50 47 51 61 52 80 53 45 54 46 55 60 57
REMARK SMILES IDX 81 58 48 59 32 60 33 61 41 62 34 63 35 64 39 65 42 66 36 67
REMARK SMILES IDX 37 68 40 69 38 70 64 71 65 72 73 73 66 74 67 75 71 76 74 77
REMARK SMILES IDX 68 78 69 79 72 80 70 81 49 82 50 83 58 84 51 85 52 86 56 87
REMARK SMILES IDX 59 88 53 89 54 90 57 91 55 92
REMARK H PARENT 15 5 20 26 79 45 47 56
REMARK Flexibility Score: inf
ROOT
ATOM      1  C   UNL A   1      32.268  29.913  25.464  1.00  0.00     0.116 C 
ENDROOT
BRANCH   1   2
ATOM      2  N   UNL A   1      31.203  30.114  24.497  1.00  0.00    -0.353 N 
ATOM      3  C   UNL A   1      30.505  29.203  23.762  1.00  0.00     0.243 C 
ATOM      4  O   UNL A   1      29.554  29.565  23.076  1.00  0.00    -0.270 OA
ATOM      5  H   UNL A   1      30.944  31.052  24.350  1.00  0.00     0.163 HD
BRANCH   3   6
ATOM      6  C   UNL A   1      30.834  27.763  23.859  1.00  0.00     0.072 C 
ATOM      7  C   UNL A   1      31.132  27.018  22.784  1.00  0.00     0.014 C 
BRANCH   7   8
ATOM      8  C   UNL A   1      31.519  25.605  22.828  1.00  0.00    -0.022 A 
ATOM      9  C   UNL A   1      32.241  22.853  23.077  1.00  0.00     0.073 A 
ATOM     10  C   UNL A   1      32.929  23.723  22.213  1.00  0.00     0.029 A 
ATOM     11  C   UNL A   1      31.192  23.417  23.819  1.00  0.00     0.147 A 
ATOM     12  C   UNL A   1      32.579  25.077  22.089  1.00  0.00     0.010 A 
ATOM     13  C   UNL A   1      30.831  24.760  23.700  1.00  0.00     0.049 A 
ATOM     14  F   UNL A   1      30.530  22.690  24.732  1.00  0.00    -0.205 F 
BRANCH   9  15
ATOM     15  N   UNL A   1      32.621  21.519  23.208  1.00  0.00    -0.370 N 
ATOM     16  C   UNL A   1      32.018  20.563  22.286  1.00  0.00     0.144 C 
BRANCH  15  17
ATOM     17  C   UNL A   1      33.202  20.991  24.464  1.00  0.00     0.078 C 
ATOM     18  C   UNL A   1      34.656  21.438  24.638  1.00  0.00     0.031 C 
BRANCH  17  19
ATOM     19  C   UNL A   1      33.026  19.470  24.590  1.00  0.00     0.021 C 
ATOM     20  C   UNL A   1      34.341  18.702  24.560  1.00  0.00     0.006 C 
ENDBRANCH  17  19
ENDBRANCH  15  17
ENDBRANCH   9  15
ENDBRANCH   7   8
ENDBRANCH   3   6
ENDBRANCH   1   2
BRANCH   1  21
ATOM     21  C   UNL A   1      31.876  30.447  26.843  1.00  0.00     0.023 C 
BRANCH  21  22
ATOM     22  C   UNL A   1      31.626  31.957  26.893  1.00  0.00     0.023 C 
BRANCH  22  23
ATOM     23  C   UNL A   1      32.812  32.796  27.354  1.00  0.00     0.116 C 
BRANCH  23  24
ATOM     24  N   UNL A   1      32.457  34.166  27.691  1.00  0.00    -0.352 N 
ATOM     25  C   UNL A   1      33.024  34.990  28.634  1.00  0.00     0.251 C 
ATOM     26  H   UNL A   1      31.711  34.553  27.177  1.00  0.00     0.163 HD
ATOM     27  O   UNL A   1      32.544  36.092  28.868  1.00  0.00    -0.269 OA
BRANCH  25  28
ATOM     28  C   UNL A   1      34.195  34.514  29.398  1.00  0.00     0.039 A 
ATOM     29  C   UNL A   1      33.987  33.940  30.654  1.00  0.00     0.014 A 
ATOM     30  C   UNL A   1      35.484  34.602  28.864  1.00  0.00     0.014 A 
ATOM     31  C   UNL A   1      35.066  33.386  31.346  1.00  0.00     0.010 A 
ATOM     32  C   UNL A   1      36.545  33.992  29.524  1.00  0.00     0.010 A 
ATOM     33  C   UNL A   1      36.346  33.374  30.768  1.00  0.00    -0.014 A 
BRANCH  33  34
ATOM     34  C   UNL A   1      37.486  32.705  31.442  1.00  0.00     0.031 A 
ATOM     35  C   UNL A   1      38.197  31.567  30.768  1.00  0.00     0.074 A 
ATOM     36  C   UNL A   1      37.837  33.082  32.686  1.00  0.00     0.049 A 
ATOM     37  N   UNL A   1      39.163  30.810  31.226  1.00  0.00    -0.248 NA
ATOM     38  C   UNL A   1      37.750  31.216  29.411  1.00  0.00     0.031 C 
ATOM     39  C   UNL A   1      37.193  34.146  33.458  1.00  0.00     0.029 A 
ATOM     40  N   UNL A   1      38.816  32.609  33.524  1.00  0.00    -0.354 N 
ATOM     41  C   UNL A   1      39.428  29.891  30.220  1.00  0.00     0.074 A 
ATOM     42  C   UNL A   1      38.491  30.150  29.150  1.00  0.00     0.031 C 
ATOM     43  C   UNL A   1      37.812  34.264  34.643  1.00  0.00     0.029 A 
ATOM     44  C   UNL A   1      38.871  33.262  34.730  1.00  0.00     0.049 A 
ATOM     45  H   UNL A   1      39.422  31.872  33.282  1.00  0.00     0.167 HD
ATOM     46  C   UNL A   1      40.385  28.934  30.187  1.00  0.00     0.037 A 
ATOM     47  C   UNL A   1      39.681  33.072  35.790  1.00  0.00     0.037 A 
ATOM     48  C   UNL A   1      41.335  28.700  31.241  1.00  0.00     0.049 A 
ATOM     49  C   UNL A   1      40.731  31.998  35.729  1.00  0.00     0.074 A 
ATOM     50  C   UNL A   1      42.376  27.788  31.275  1.00  0.00     0.029 A 
ATOM     51  N   UNL A   1      41.362  29.386  32.446  1.00  0.00    -0.354 N 
ATOM     52  N   UNL A   1      41.005  31.166  34.753  1.00  0.00    -0.248 NA
ATOM     53  C   UNL A   1      41.588  31.837  36.912  1.00  0.00     0.031 C 
ATOM     54  C   UNL A   1      43.009  27.896  32.518  1.00  0.00     0.029 A 
ATOM     55  C   UNL A   1      42.392  28.906  33.239  1.00  0.00     0.049 A 
ATOM     56  H   UNL A   1      40.742  30.107  32.701  1.00  0.00     0.167 HD
ATOM     57  C   UNL A   1      42.074  30.399  35.194  1.00  0.00     0.074 A 
ATOM     58  C   UNL A   1      42.411  30.873  36.521  1.00  0.00     0.031 C 
ATOM     59  C   UNL A   1      42.719  29.393  34.554  1.00  0.00     0.037 A 
BRANCH  46  60
ATOM     60  C   UNL A   1      40.469  28.074  28.961  1.00  0.00     0.064 A 
ATOM     61  C   UNL A   1      41.235  28.477  27.856  1.00  0.00     0.173 A 
ATOM     62  C   UNL A   1      39.739  26.881  28.853  1.00  0.00     0.173 A 
ATOM     63  F   UNL A   1      41.947  29.613  27.906  1.00  0.00    -0.203 F 
ATOM     64  C   UNL A   1      41.257  27.723  26.687  1.00  0.00     0.198 A 
ATOM     65  C   UNL A   1      39.786  26.114  27.692  1.00  0.00     0.198 A 
ATOM     66  F   UNL A   1      39.001  26.445  29.886  1.00  0.00    -0.203 F 
ATOM     67  F   UNL A   1      41.974  28.142  25.635  1.00  0.00    -0.200 F 
ATOM     68  C   UNL A   1      40.538  26.540  26.607  1.00  0.00     0.200 A 
ATOM     69  F   UNL A   1      39.109  24.960  27.625  1.00  0.00    -0.200 F 
ATOM     70  F   UNL A   1      40.570  25.809  25.484  1.00  0.00    -0.200 F 
ENDBRANCH  46  60
BRANCH  47  71
ATOM     71  C   UNL A   1      39.551  33.950  36.980  1.00  0.00     0.064 A 
ATOM     72  C   UNL A   1      38.798  33.564  38.098  1.00  0.00     0.173 A 
ATOM     73  C   UNL A   1      40.157  35.214  37.005  1.00  0.00     0.173 A 
ATOM     74  F   UNL A   1      38.194  32.367  38.121  1.00  0.00    -0.203 F 
ATOM     75  C   UNL A   1      38.642  34.416  39.189  1.00  0.00     0.198 A 
ATOM     76  C   UNL A   1      40.021  36.056  38.107  1.00  0.00     0.198 A 
ATOM     77  F   UNL A   1      40.903  35.619  35.967  1.00  0.00    -0.203 F 
ATOM     78  F   UNL A   1      37.892  34.037  40.232  1.00  0.00    -0.200 F 
ATOM     79  C   UNL A   1      39.257  35.660  39.194  1.00  0.00     0.200 A 
ATOM     80  F   UNL A   1      40.634  37.247  38.116  1.00  0.00    -0.200 F 
ATOM     81  F   UNL A   1      39.115  36.476  40.248  1.00  0.00    -0.200 F 
ENDBRANCH  47  71
BRANCH  59  82
ATOM     82  C   UNL A   1      43.870  28.743  35.261  1.00  0.00     0.064 A 
ATOM     83  C   UNL A   1      43.650  27.659  36.125  1.00  0.00     0.173 A 
ATOM     84  C   UNL A   1      45.174  29.247  35.155  1.00  0.00     0.173 A 
ATOM     85  F   UNL A   1      42.419  27.147  36.267  1.00  0.00    -0.203 F 
ATOM     86  C   UNL A   1      44.693  27.115  36.870  1.00  0.00     0.198 A 
ATOM     87  C   UNL A   1      46.219  28.684  35.881  1.00  0.00     0.198 A 
ATOM     88  F   UNL A   1      45.434  30.274  34.333  1.00  0.00    -0.203 F 
ATOM     89  F   UNL A   1      44.453  26.104  37.716  1.00  0.00    -0.200 F 
ATOM     90  C   UNL A   1      45.976  27.626  36.746  1.00  0.00     0.200 A 
ATOM     91  F   UNL A   1      47.462  29.165  35.745  1.00  0.00    -0.200 F 
ATOM     92  F   UNL A   1      46.979  27.099  37.460  1.00  0.00    -0.200 F 
ENDBRANCH  59  82
ENDBRANCH  33  34
ENDBRANCH  25  28
ENDBRANCH  23  24
ENDBRANCH  22  23
ENDBRANCH  21  22
ENDBRANCH   1  21
TORSDOF 15
ENDMDL
MODEL 3
REMARK VINA RESULT:     -11.9      4.463     10.805
REMARK SMILES CC[C@@H](C)N(C)c1ccc(/C=C/C(=O)NCCCCNC(=O)c2ccc(-c3c4nc(c(-c5c(F)c(F)c(F)c(F)c5F)c5ccc([nH]5)c(-c5c(F)c(F)c(F)c(F)c5F)c5nc(c(-c6c(F)c(F)c(F)c(F)c6F)c6ccc3[nH]6)C=C5)C=C4)cc2)cc1F
REMARK SMILES IDX 16 1 15 2 13 3 14 4 12 6 11 7 10 8 7 9 8 10 87 11 9 12 86 13
REMARK SMILES IDX 88 14 5 15 6 16 3 17 4 18 2 19 1 20 17 21 18 22 19 23 20 24
REMARK SMILES IDX 21 25 22 27 23 28 24 29 85 30 25 31 84 32 26 33 27 34 28 35
REMARK SMILES IDX 78 36 29 37 83 38 77 39 79 40 30 41 82 42 76 43 75 44 31 46
REMARK SMILES IDX 63 47 43 48 62 49 44 50 47 51 61 52 80 53 45 54 46 55 60 57
REMARK SMILES IDX 81 58 48 59 32 60 33 61 41 62 34 63 35 64 39 65 42 66 36 67
REMARK SMILES IDX 37 68 40 69 38 70 64 71 65 72 73 73 66 74 67 75 71 76 74 77
REMARK SMILES IDX 68 78 69 79 72 80 70 81 49 82 50 83 58 84 51 85 52 86 56 87
REMARK SMILES IDX 59 88 53 89 54 90 57 91 55 92
REMARK H PARENT 15 5 20 26 79 45 47 56
REMARK Flexibility Score: inf
ROOT
ATOM      1  C   UNL A   1      33.463  35.934  29.121  1.00  0.00     0.116 C 
ENDROOT
BRANCH   1   2
ATOM      2  N   UNL A   1      32.548  36.358  30.167  1.00  0.00    -0.353 N 
ATOM      3  C   UNL A   1      32.676  36.290  31.522  1.00  0.00     0.243 C 
ATOM      4  O   UNL A   1      31.833  36.812  32.246  1.00  0.00    -0.270 OA
ATOM      5  H   UNL A   1      31.707  36.757  29.848  1.00  0.00     0.163 HD
BRANCH   3   6
ATOM      6  C   UNL A   1      33.876  35.667  32.123  1.00  0.00     0.072 C 
ATOM      7  C   UNL A   1      33.813  34.555  32.871  1.00  0.00     0.014 C 
BRANCH   7   8
ATOM      8  C   UNL A   1      34.974  33.866  33.442  1.00  0.00    -0.022 A 
ATOM      9  C   UNL A   1      37.174  32.382  34.497  1.00  0.00     0.073 A 
ATOM     10  C   UNL A   1      36.614  33.468  35.191  1.00  0.00     0.029 A 
ATOM     11  C   UNL A   1      36.582  32.061  33.266  1.00  0.00     0.147 A 
ATOM     12  C   UNL A   1      35.530  34.199  34.678  1.00  0.00     0.010 A 
ATOM     13  C   UNL A   1      35.509  32.783  32.742  1.00  0.00     0.049 A 
ATOM     14  F   UNL A   1      36.990  30.990  32.567  1.00  0.00    -0.205 F 
BRANCH   9  15
ATOM     15  N   UNL A   1      38.230  31.650  35.035  1.00  0.00    -0.370 N 
ATOM     16  C   UNL A   1      38.272  31.514  36.487  1.00  0.00     0.144 C 
BRANCH  15  17
ATOM     17  C   UNL A   1      39.488  31.426  34.287  1.00  0.00     0.078 C 
ATOM     18  C   UNL A   1      39.867  29.943  34.263  1.00  0.00     0.031 C 
BRANCH  17  19
ATOM     19  C   UNL A   1      40.629  32.325  34.787  1.00  0.00     0.021 C 
ATOM     20  C   UNL A   1      40.508  33.773  34.327  1.00  0.00     0.006 C 
ENDBRANCH  17  19
ENDBRANCH  15  17
ENDBRANCH   9  15
ENDBRANCH   7   8
ENDBRANCH   3   6
ENDBRANCH   1   2
BRANCH   1  21
ATOM     21  C   UNL A   1      33.192  34.490  28.695  1.00  0.00     0.023 C 
BRANCH  21  22
ATOM     22  C   UNL A   1      34.174  33.463  29.265  1.00  0.00     0.023 C 
BRANCH  22  23
ATOM     23  C   UNL A   1      34.878  32.595  28.229  1.00  0.00     0.116 C 
BRANCH  23  24
ATOM     24  N   UNL A   1      34.197  31.336  27.968  1.00  0.00    -0.352 N 
ATOM     25  C   UNL A   1      34.728  30.068  27.925  1.00  0.00     0.251 C 
ATOM     26  H   UNL A   1      33.230  31.402  27.798  1.00  0.00     0.163 HD
ATOM     27  O   UNL A   1      34.036  29.115  27.593  1.00  0.00    -0.269 OA
BRANCH  25  28
ATOM     28  C   UNL A   1      36.157  29.873  28.242  1.00  0.00     0.039 A 
ATOM     29  C   UNL A   1      36.516  29.563  29.556  1.00  0.00     0.014 A 
ATOM     30  C   UNL A   1      37.132  29.961  27.244  1.00  0.00     0.014 A 
ATOM     31  C   UNL A   1      37.847  29.268  29.856  1.00  0.00     0.010 A 
ATOM     32  C   UNL A   1      38.445  29.604  27.532  1.00  0.00     0.010 A 
ATOM     33  C   UNL A   1      38.814  29.249  28.838  1.00  0.00    -0.014 A 
BRANCH  33  34
ATOM     34  C   UNL A   1      40.214  28.844  29.117  1.00  0.00     0.031 A 
ATOM     35  C   UNL A   1      41.135  29.772  29.853  1.00  0.00     0.074 A 
ATOM     36  C   UNL A   1      40.671  27.667  28.647  1.00  0.00     0.049 A 
ATOM     37  N   UNL A   1      42.408  29.630  30.125  1.00  0.00    -0.248 NA
ATOM     38  C   UNL A   1      40.558  31.040  30.329  1.00  0.00     0.031 C 
ATOM     39  C   UNL A   1      39.882  26.700  27.882  1.00  0.00     0.029 A 
ATOM     40  N   UNL A   1      41.911  27.085  28.739  1.00  0.00    -0.354 N 
ATOM     41  C   UNL A   1      42.783  30.789  30.789  1.00  0.00     0.074 A 
ATOM     42  C   UNL A   1      41.619  31.647  30.837  1.00  0.00     0.031 C 
ATOM     43  C   UNL A   1      40.648  25.635  27.599  1.00  0.00     0.029 A 
ATOM     44  C   UNL A   1      41.990  25.858  28.130  1.00  0.00     0.049 A 
ATOM     45  H   UNL A   1      42.671  27.509  29.199  1.00  0.00     0.167 HD
ATOM     46  C   UNL A   1      43.984  31.097  31.331  1.00  0.00     0.037 A 
ATOM     47  C   UNL A   1      43.029  25.009  28.009  1.00  0.00     0.037 A 
ATOM     48  C   UNL A   1      45.130  30.228  31.309  1.00  0.00     0.049 A 
ATOM     49  C   UNL A   1      44.354  25.378  28.615  1.00  0.00     0.074 A 
ATOM     50  C   UNL A   1      46.376  30.430  31.878  1.00  0.00     0.029 A 
ATOM     51  N   UNL A   1      45.169  28.989  30.687  1.00  0.00    -0.354 N 
ATOM     52  N   UNL A   1      44.685  26.456  29.284  1.00  0.00    -0.248 NA
ATOM     53  C   UNL A   1      45.451  24.412  28.455  1.00  0.00     0.031 C 
ATOM     54  C   UNL A   1      47.181  29.330  31.568  1.00  0.00     0.029 A 
ATOM     55  C   UNL A   1      46.424  28.422  30.844  1.00  0.00     0.049 A 
ATOM     56  H   UNL A   1      44.418  28.574  30.205  1.00  0.00     0.167 HD
ATOM     57  C   UNL A   1      46.016  26.291  29.641  1.00  0.00     0.074 A 
ATOM     58  C   UNL A   1      46.431  25.003  29.127  1.00  0.00     0.031 C 
ATOM     59  C   UNL A   1      46.820  27.135  30.333  1.00  0.00     0.037 A 
BRANCH  46  60
ATOM     60  C   UNL A   1      44.122  32.424  32.016  1.00  0.00     0.064 A 
ATOM     61  C   UNL A   1      44.004  32.525  33.410  1.00  0.00     0.173 A 
ATOM     62  C   UNL A   1      44.306  33.608  31.285  1.00  0.00     0.173 A 
ATOM     63  F   UNL A   1      43.821  31.424  34.155  1.00  0.00    -0.203 F 
ATOM     64  C   UNL A   1      44.054  33.763  34.045  1.00  0.00     0.198 A 
ATOM     65  C   UNL A   1      44.385  34.841  31.926  1.00  0.00     0.198 A 
ATOM     66  F   UNL A   1      44.437  33.564  29.950  1.00  0.00    -0.203 F 
ATOM     67  F   UNL A   1      43.911  33.838  35.376  1.00  0.00    -0.200 F 
ATOM     68  C   UNL A   1      44.249  34.918  33.304  1.00  0.00     0.200 A 
ATOM     69  F   UNL A   1      44.597  35.954  31.210  1.00  0.00    -0.200 F 
ATOM     70  F   UNL A   1      44.309  36.108  33.919  1.00  0.00    -0.200 F 
ENDBRANCH  46  60
BRANCH  47  71
ATOM     71  C   UNL A   1      42.837  23.709  27.318  1.00  0.00     0.064 A 
ATOM     72  C   UNL A   1      42.300  22.597  27.982  1.00  0.00     0.173 A 
ATOM     73  C   UNL A   1      43.222  23.547  25.979  1.00  0.00     0.173 A 
ATOM     74  F   UNL A   1      41.921  22.699  29.264  1.00  0.00    -0.203 F 
ATOM     75  C   UNL A   1      42.170  21.368  27.338  1.00  0.00     0.198 A 
ATOM     76  C   UNL A   1      43.070  22.325  25.329  1.00  0.00     0.198 A 
ATOM     77  F   UNL A   1      43.723  24.588  25.298  1.00  0.00    -0.203 F 
ATOM     78  F   UNL A   1      41.683  20.312  28.003  1.00  0.00    -0.200 F 
ATOM     79  C   UNL A   1      42.553  21.234  26.011  1.00  0.00     0.200 A 
ATOM     80  F   UNL A   1      43.420  22.207  24.041  1.00  0.00    -0.200 F 
ATOM     81  F   UNL A   1      42.419  20.055  25.389  1.00  0.00    -0.200 F 
ENDBRANCH  47  71
BRANCH  59  82
ATOM     82  C   UNL A   1      48.226  26.691  30.601  1.00  0.00     0.064 A 
ATOM     83  C   UNL A   1      48.528  25.945  31.751  1.00  0.00     0.173 A 
ATOM     84  C   UNL A   1      49.287  27.079  29.771  1.00  0.00     0.173 A 
ATOM     85  F   UNL A   1      47.549  25.557  32.581  1.00  0.00    -0.203 F 
ATOM     86  C   UNL A   1      49.844  25.619  32.067  1.00  0.00     0.198 A 
ATOM     87  C   UNL A   1      50.599  26.729  30.076  1.00  0.00     0.198 A 
ATOM     88  F   UNL A   1      49.046  27.783  28.655  1.00  0.00    -0.203 F 
ATOM     89  F   UNL A   1      50.112  24.937  33.189  1.00  0.00    -0.200 F 
ATOM     90  C   UNL A   1      50.877  26.009  31.229  1.00  0.00     0.200 A 
ATOM     91  F   UNL A   1      51.595  27.088  29.255  1.00  0.00    -0.200 F 
ATOM     92  F   UNL A   1      52.143  25.690  31.533  1.00  0.00    -0.200 F 
ENDBRANCH  59  82
ENDBRANCH  33  34
ENDBRANCH  25  28
ENDBRANCH  23  24
ENDBRANCH  22  23
ENDBRANCH  21  22
ENDBRANCH   1  21
TORSDOF 15
ENDMDL
