MODEL 1
REMARK VINA RESULT:     -13.0      0.000      0.000
REMARK SMILES C[C@@H](C(=O)NCCCCNC(=O)c1ccc(-c2c3nc(c(-c4c(F)c(F)c(F)c(F)c4F)c4ccc([nH]4)c(-c4c(F)c(F)c(F)c(F)c4F)c4nc(c(-c5c(F)c(F)c(F)c(F)c5F)c5ccc2[nH]5)C=C4)C=C3)cc1)c1ccc(C[C@H]2CCCC2=O)c(-c2ccc(F)cc2)c1
REMARK SMILES IDX 7 1 6 2 5 3 3 4 4 5 2 7 1 8 76 9 77 10 95 11 78 12 87 13
REMARK SMILES IDX 79 14 88 15 89 16 94 17 90 18 93 19 91 20 92 21 80 22 81 23
REMARK SMILES IDX 82 24 85 25 83 26 84 27 86 28 8 29 9 30 10 31 11 32 12 34
REMARK SMILES IDX 13 35 14 36 75 37 15 38 74 39 16 40 17 41 18 42 68 43 19 44
REMARK SMILES IDX 73 45 67 46 69 47 20 48 72 49 66 50 65 51 21 53 53 54 33 55
REMARK SMILES IDX 52 56 34 57 37 58 51 59 70 60 35 61 36 62 50 64 71 65 38 66
REMARK SMILES IDX 22 67 23 68 31 69 24 70 25 71 29 72 32 73 26 74 27 75 30 76
REMARK SMILES IDX 28 77 54 78 55 79 63 80 56 81 57 82 61 83 64 84 58 85 59 86
REMARK SMILES IDX 62 87 60 88 39 89 40 90 48 91 41 92 42 93 46 94 49 95 43 96
REMARK SMILES IDX 44 97 47 98 45 99
REMARK H PARENT 5 6 10 33 69 52 37 63
REMARK Flexibility Score: inf
ROOT
ATOM      1  C   UNL A   1      31.071  31.490  25.728  1.00  0.00     0.023 C 
ENDROOT
BRANCH   1   2
ATOM      2  C   UNL A   1      30.961  30.102  25.092  1.00  0.00     0.116 C 
BRANCH   2   3
ATOM      3  N   UNL A   1      32.134  29.786  24.305  1.00  0.00    -0.356 N 
ATOM      4  C   UNL A   1      33.257  29.079  24.624  1.00  0.00     0.227 C 
ATOM      5  O   UNL A   1      34.120  29.013  23.748  1.00  0.00    -0.274 OA
ATOM      6  H   UNL A   1      32.120  30.140  23.385  1.00  0.00     0.163 HD
BRANCH   4   7
ATOM      7  C   UNL A   1      33.376  28.393  25.997  1.00  0.00     0.105 C 
ATOM      8  C   UNL A   1      34.779  28.516  26.599  1.00  0.00     0.023 C 
BRANCH   7   9
ATOM      9  C   UNL A   1      33.010  26.911  25.982  1.00  0.00    -0.035 A 
ATOM     10  C   UNL A   1      31.748  26.491  26.402  1.00  0.00     0.005 A 
ATOM     11  C   UNL A   1      33.955  25.930  25.638  1.00  0.00     0.013 A 
ATOM     12  C   UNL A   1      31.461  25.131  26.515  1.00  0.00     0.004 A 
ATOM     13  C   UNL A   1      33.693  24.548  25.742  1.00  0.00    -0.015 A 
ATOM     14  C   UNL A   1      32.430  24.146  26.232  1.00  0.00    -0.039 A 
BRANCH  13  15
ATOM     15  C   UNL A   1      34.762  23.613  25.334  1.00  0.00    -0.018 A 
ATOM     16  C   UNL A   1      35.479  23.802  24.138  1.00  0.00     0.012 A 
ATOM     17  C   UNL A   1      35.130  22.536  26.163  1.00  0.00     0.012 A 
ATOM     18  C   UNL A   1      36.495  22.919  23.762  1.00  0.00     0.040 A 
ATOM     19  C   UNL A   1      36.156  21.663  25.797  1.00  0.00     0.040 A 
ATOM     20  C   UNL A   1      36.823  21.858  24.594  1.00  0.00     0.123 A 
ATOM     21  F   UNL A   1      37.799  21.014  24.237  1.00  0.00    -0.207 F 
ENDBRANCH  13  15
BRANCH  14  22
ATOM     22  C   UNL A   1      32.065  22.701  26.523  1.00  0.00     0.047 C 
BRANCH  22  23
ATOM     23  C   UNL A   1      31.375  21.922  25.394  1.00  0.00     0.060 C 
ATOM     24  C   UNL A   1      31.144  22.667  24.077  1.00  0.00     0.012 C 
ATOM     25  C   UNL A   1      32.171  20.720  24.940  1.00  0.00     0.136 C 
ATOM     26  C   UNL A   1      32.285  22.262  23.153  1.00  0.00     0.009 C 
ATOM     27  C   UNL A   1      32.576  20.806  23.493  1.00  0.00     0.076 C 
ATOM     28  O   UNL A   1      32.440  19.767  25.662  1.00  0.00    -0.299 OA
ENDBRANCH  22  23
ENDBRANCH  14  22
ENDBRANCH   7   9
ENDBRANCH   4   7
ENDBRANCH   2   3
ENDBRANCH   1   2
BRANCH   1  29
ATOM     29  C   UNL A   1      31.737  31.518  27.107  1.00  0.00     0.023 C 
BRANCH  29  30
ATOM     30  C   UNL A   1      32.910  32.481  27.249  1.00  0.00     0.116 C 
BRANCH  30  31
ATOM     31  N   UNL A   1      32.493  33.843  27.547  1.00  0.00    -0.352 N 
ATOM     32  C   UNL A   1      32.999  34.726  28.469  1.00  0.00     0.251 C 
ATOM     33  H   UNL A   1      31.741  34.180  27.008  1.00  0.00     0.163 HD
ATOM     34  O   UNL A   1      32.438  35.799  28.672  1.00  0.00    -0.269 OA
BRANCH  32  35
ATOM     35  C   UNL A   1      34.197  34.362  29.252  1.00  0.00     0.039 A 
ATOM     36  C   UNL A   1      34.026  33.741  30.493  1.00  0.00     0.014 A 
ATOM     37  C   UNL A   1      35.481  34.594  28.750  1.00  0.00     0.014 A 
ATOM     38  C   UNL A   1      35.140  33.264  31.185  1.00  0.00     0.010 A 
ATOM     39  C   UNL A   1      36.586  34.065  29.413  1.00  0.00     0.010 A 
ATOM     40  C   UNL A   1      36.423  33.375  30.625  1.00  0.00    -0.014 A 
BRANCH  40  41
ATOM     41  C   UNL A   1      37.595  32.712  31.251  1.00  0.00     0.031 A 
ATOM     42  C   UNL A   1      38.237  31.523  30.600  1.00  0.00     0.074 A 
ATOM     43  C   UNL A   1      38.015  33.131  32.462  1.00  0.00     0.049 A 
ATOM     44  N   UNL A   1      39.197  30.753  31.048  1.00  0.00    -0.248 NA
ATOM     45  C   UNL A   1      37.722  31.130  29.278  1.00  0.00     0.031 C 
ATOM     46  C   UNL A   1      37.436  34.243  33.220  1.00  0.00     0.029 A 
ATOM     47  N   UNL A   1      39.011  32.657  33.281  1.00  0.00    -0.354 N 
ATOM     48  C   UNL A   1      39.390  29.781  30.076  1.00  0.00     0.074 A 
ATOM     49  C   UNL A   1      38.425  30.034  29.027  1.00  0.00     0.031 C 
ATOM     50  C   UNL A   1      38.086  34.366  34.387  1.00  0.00     0.029 A 
ATOM     51  C   UNL A   1      39.098  33.319  34.481  1.00  0.00     0.049 A 
ATOM     52  H   UNL A   1      39.604  31.912  33.031  1.00  0.00     0.167 HD
ATOM     53  C   UNL A   1      40.300  28.780  30.059  1.00  0.00     0.037 A 
ATOM     54  C   UNL A   1      39.888  33.093  35.549  1.00  0.00     0.037 A 
ATOM     55  C   UNL A   1      41.278  28.552  31.090  1.00  0.00     0.049 A 
ATOM     56  C   UNL A   1      40.878  31.962  35.502  1.00  0.00     0.074 A 
ATOM     57  C   UNL A   1      42.305  27.623  31.112  1.00  0.00     0.029 A 
ATOM     58  N   UNL A   1      41.346  29.251  32.285  1.00  0.00    -0.354 N 
ATOM     59  N   UNL A   1      41.114  31.108  34.536  1.00  0.00    -0.248 NA
ATOM     60  C   UNL A   1      41.712  31.761  36.697  1.00  0.00     0.031 C 
ATOM     61  C   UNL A   1      42.960  27.724  32.343  1.00  0.00     0.029 A 
ATOM     62  C   UNL A   1      42.372  28.747  33.068  1.00  0.00     0.049 A 
ATOM     63  H   UNL A   1      40.753  29.994  32.539  1.00  0.00     0.167 HD
ATOM     64  C   UNL A   1      42.129  30.282  34.998  1.00  0.00     0.074 A 
ATOM     65  C   UNL A   1      42.484  30.752  36.320  1.00  0.00     0.031 C 
ATOM     66  C   UNL A   1      42.712  29.224  34.383  1.00  0.00     0.037 A 
BRANCH  53  67
ATOM     67  C   UNL A   1      40.299  27.846  28.885  1.00  0.00     0.064 A 
ATOM     68  C   UNL A   1      41.065  28.107  27.739  1.00  0.00     0.173 A 
ATOM     69  C   UNL A   1      39.595  26.634  28.945  1.00  0.00     0.173 A 
ATOM     70  F   UNL A   1      41.749  29.254  27.631  1.00  0.00    -0.203 F 
ATOM     71  C   UNL A   1      41.118  27.191  26.692  1.00  0.00     0.198 A 
ATOM     72  C   UNL A   1      39.671  25.710  27.907  1.00  0.00     0.198 A 
ATOM     73  F   UNL A   1      38.853  26.335  30.022  1.00  0.00    -0.203 F 
ATOM     74  F   UNL A   1      41.836  27.470  25.596  1.00  0.00    -0.200 F 
ATOM     75  C   UNL A   1      40.430  25.989  26.780  1.00  0.00     0.200 A 
ATOM     76  F   UNL A   1      39.016  24.544  28.000  1.00  0.00    -0.200 F 
ATOM     77  F   UNL A   1      40.499  25.101  25.780  1.00  0.00    -0.200 F 
ENDBRANCH  53  67
BRANCH  54  78
ATOM     78  C   UNL A   1      39.768  33.944  36.762  1.00  0.00     0.064 A 
ATOM     79  C   UNL A   1      38.949  33.563  37.833  1.00  0.00     0.173 A 
ATOM     80  C   UNL A   1      40.443  35.170  36.862  1.00  0.00     0.173 A 
ATOM     81  F   UNL A   1      38.265  32.410  37.775  1.00  0.00    -0.203 F 
ATOM     82  C   UNL A   1      38.785  34.388  38.945  1.00  0.00     0.198 A 
ATOM     83  C   UNL A   1      40.303  35.980  37.987  1.00  0.00     0.198 A 
ATOM     84  F   UNL A   1      41.243  35.580  35.866  1.00  0.00    -0.203 F 
ATOM     85  F   UNL A   1      37.950  34.025  39.928  1.00  0.00    -0.200 F 
ATOM     86  C   UNL A   1      39.465  35.593  39.022  1.00  0.00     0.200 A 
ATOM     87  F   UNL A   1      40.974  37.137  38.064  1.00  0.00    -0.200 F 
ATOM     88  F   UNL A   1      39.305  36.388  40.089  1.00  0.00    -0.200 F 
ENDBRANCH  54  78
BRANCH  66  89
ATOM     89  C   UNL A   1      43.799  28.509  35.130  1.00  0.00     0.064 A 
ATOM     90  C   UNL A   1      43.508  27.473  36.030  1.00  0.00     0.173 A 
ATOM     91  C   UNL A   1      45.147  28.834  34.914  1.00  0.00     0.173 A 
ATOM     92  F   UNL A   1      42.234  27.138  36.284  1.00  0.00    -0.203 F 
ATOM     93  C   UNL A   1      44.526  26.803  36.702  1.00  0.00     0.198 A 
ATOM     94  C   UNL A   1      46.163  28.143  35.564  1.00  0.00     0.198 A 
ATOM     95  F   UNL A   1      45.478  29.814  34.059  1.00  0.00    -0.203 F 
ATOM     96  F   UNL A   1      44.224  25.847  37.591  1.00  0.00    -0.200 F 
ATOM     97  C   UNL A   1      45.853  27.131  36.463  1.00  0.00     0.200 A 
ATOM     98  F   UNL A   1      47.444  28.452  35.323  1.00  0.00    -0.200 F 
ATOM     99  F   UNL A   1      46.832  26.479  37.104  1.00  0.00    -0.200 F 
ENDBRANCH  66  89
ENDBRANCH  40  41
ENDBRANCH  32  35
ENDBRANCH  30  31
ENDBRANCH  29  30
ENDBRANCH   1  29
TORSDOF 15
ENDMDL
MODEL 2
REMARK VINA RESULT:     -12.9      0.411      7.079
REMARK SMILES C[C@@H](C(=O)NCCCCNC(=O)c1ccc(-c2c3nc(c(-c4c(F)c(F)c(F)c(F)c4F)c4ccc([nH]4)c(-c4c(F)c(F)c(F)c(F)c4F)c4nc(c(-c5c(F)c(F)c(F)c(F)c5F)c5ccc2[nH]5)C=C4)C=C3)cc1)c1ccc(C[C@H]2CCCC2=O)c(-c2ccc(F)cc2)c1
REMARK SMILES IDX 7 1 6 2 5 3 3 4 4 5 2 7 1 8 76 9 77 10 95 11 78 12 87 13
REMARK SMILES IDX 79 14 88 15 89 16 94 17 90 18 93 19 91 20 92 21 80 22 81 23
REMARK SMILES IDX 82 24 85 25 83 26 84 27 86 28 8 29 9 30 10 31 11 32 12 34
REMARK SMILES IDX 13 35 14 36 75 37 15 38 74 39 16 40 17 41 18 42 68 43 19 44
REMARK SMILES IDX 73 45 67 46 69 47 20 48 72 49 66 50 65 51 21 53 53 54 33 55
REMARK SMILES IDX 52 56 34 57 37 58 51 59 70 60 35 61 36 62 50 64 71 65 38 66
REMARK SMILES IDX 22 67 23 68 31 69 24 70 25 71 29 72 32 73 26 74 27 75 30 76
REMARK SMILES IDX 28 77 54 78 55 79 63 80 56 81 57 82 61 83 64 84 58 85 59 86
REMARK SMILES IDX 62 87 60 88 39 89 40 90 48 91 41 92 42 93 46 94 49 95 43 96
REMARK SMILES IDX 44 97 47 98 45 99
REMARK H PARENT 5 6 10 33 69 52 37 63
REMARK Flexibility Score: inf
ROOT
ATOM      1  C   UNL A   1      31.508  30.682  26.402  1.00  0.00     0.023 C 
ENDROOT
BRANCH   1   2
ATOM      2  C   UNL A   1      31.055  30.115  25.054  1.00  0.00     0.116 C 
BRANCH   2   3
ATOM      3  N   UNL A   1      32.185  29.722  24.239  1.00  0.00    -0.356 N 
ATOM      4  C   UNL A   1      33.277  28.958  24.538  1.00  0.00     0.227 C 
ATOM      5  O   UNL A   1      34.108  28.831  23.639  1.00  0.00    -0.274 OA
ATOM      6  H   UNL A   1      32.163  30.062  23.314  1.00  0.00     0.163 HD
BRANCH   4   7
ATOM      7  C   UNL A   1      33.398  28.288  25.919  1.00  0.00     0.105 C 
ATOM      8  C   UNL A   1      34.801  28.422  26.519  1.00  0.00     0.023 C 
BRANCH   7   9
ATOM      9  C   UNL A   1      33.036  26.805  25.921  1.00  0.00    -0.035 A 
ATOM     10  C   UNL A   1      31.782  26.385  26.365  1.00  0.00     0.005 A 
ATOM     11  C   UNL A   1      33.978  25.824  25.568  1.00  0.00     0.013 A 
ATOM     12  C   UNL A   1      31.502  25.025  26.493  1.00  0.00     0.004 A 
ATOM     13  C   UNL A   1      33.722  24.442  25.685  1.00  0.00    -0.015 A 
ATOM     14  C   UNL A   1      32.468  24.041  26.201  1.00  0.00    -0.039 A 
BRANCH  13  15
ATOM     15  C   UNL A   1      34.786  23.508  25.266  1.00  0.00    -0.018 A 
ATOM     16  C   UNL A   1      35.425  23.642  24.019  1.00  0.00     0.012 A 
ATOM     17  C   UNL A   1      35.229  22.488  26.130  1.00  0.00     0.012 A 
ATOM     18  C   UNL A   1      36.437  22.761  23.632  1.00  0.00     0.040 A 
ATOM     19  C   UNL A   1      36.252  21.617  25.751  1.00  0.00     0.040 A 
ATOM     20  C   UNL A   1      36.840  21.756  24.501  1.00  0.00     0.123 A 
ATOM     21  F   UNL A   1      37.813  20.913  24.132  1.00  0.00    -0.207 F 
ENDBRANCH  13  15
BRANCH  14  22
ATOM     22  C   UNL A   1      32.113  22.597  26.509  1.00  0.00     0.047 C 
BRANCH  22  23
ATOM     23  C   UNL A   1      31.398  21.810  25.400  1.00  0.00     0.060 C 
ATOM     24  C   UNL A   1      31.155  22.540  24.076  1.00  0.00     0.012 C 
ATOM     25  C   UNL A   1      32.174  20.594  24.951  1.00  0.00     0.136 C 
ATOM     26  C   UNL A   1      32.279  22.110  23.142  1.00  0.00     0.009 C 
ATOM     27  C   UNL A   1      32.559  20.656  23.497  1.00  0.00     0.076 C 
ATOM     28  O   UNL A   1      32.443  19.647  25.682  1.00  0.00    -0.299 OA
ENDBRANCH  22  23
ENDBRANCH  14  22
ENDBRANCH   7   9
ENDBRANCH   4   7
ENDBRANCH   2   3
ENDBRANCH   1   2
BRANCH   1  29
ATOM     29  C   UNL A   1      31.427  32.207  26.522  1.00  0.00     0.023 C 
BRANCH  29  30
ATOM     30  C   UNL A   1      32.556  32.863  27.308  1.00  0.00     0.116 C 
BRANCH  30  31
ATOM     31  N   UNL A   1      32.294  34.261  27.616  1.00  0.00    -0.352 N 
ATOM     32  C   UNL A   1      32.903  35.078  28.538  1.00  0.00     0.251 C 
ATOM     33  H   UNL A   1      31.578  34.682  27.087  1.00  0.00     0.163 HD
ATOM     34  O   UNL A   1      32.465  36.204  28.751  1.00  0.00    -0.269 OA
BRANCH  32  35
ATOM     35  C   UNL A   1      34.061  34.579  29.307  1.00  0.00     0.039 A 
ATOM     36  C   UNL A   1      33.854  34.117  30.610  1.00  0.00     0.014 A 
ATOM     37  C   UNL A   1      35.336  34.530  28.734  1.00  0.00     0.014 A 
ATOM     38  C   UNL A   1      34.905  33.515  31.304  1.00  0.00     0.010 A 
ATOM     39  C   UNL A   1      36.367  33.876  29.405  1.00  0.00     0.010 A 
ATOM     40  C   UNL A   1      36.155  33.342  30.685  1.00  0.00    -0.014 A 
BRANCH  40  41
ATOM     41  C   UNL A   1      37.226  32.541  31.330  1.00  0.00     0.031 A 
ATOM     42  C   UNL A   1      37.772  32.935  32.671  1.00  0.00     0.074 A 
ATOM     43  C   UNL A   1      37.771  31.510  30.652  1.00  0.00     0.049 A 
ATOM     44  N   UNL A   1      38.775  32.421  33.337  1.00  0.00    -0.248 NA
ATOM     45  C   UNL A   1      37.122  34.070  33.346  1.00  0.00     0.031 C 
ATOM     46  C   UNL A   1      37.361  31.064  29.319  1.00  0.00     0.029 A 
ATOM     47  N   UNL A   1      38.803  30.665  30.980  1.00  0.00    -0.354 N 
ATOM     48  C   UNL A   1      38.885  33.175  34.498  1.00  0.00     0.074 A 
ATOM     49  C   UNL A   1      37.871  34.205  34.431  1.00  0.00     0.031 C 
ATOM     50  C   UNL A   1      38.129  30.029  28.945  1.00  0.00     0.029 A 
ATOM     51  C   UNL A   1      39.112  29.765  29.989  1.00  0.00     0.049 A 
ATOM     52  H   UNL A   1      39.276  30.703  31.842  1.00  0.00     0.167 HD
ATOM     53  C   UNL A   1      39.747  33.009  35.528  1.00  0.00     0.037 A 
ATOM     54  C   UNL A   1      40.094  28.845  29.920  1.00  0.00     0.037 A 
ATOM     55  C   UNL A   1      40.734  31.964  35.603  1.00  0.00     0.049 A 
ATOM     56  C   UNL A   1      41.045  28.698  31.076  1.00  0.00     0.074 A 
ATOM     57  C   UNL A   1      41.585  31.658  36.651  1.00  0.00     0.029 A 
ATOM     58  N   UNL A   1      41.010  31.063  34.588  1.00  0.00    -0.354 N 
ATOM     59  N   UNL A   1      41.078  29.357  32.209  1.00  0.00    -0.248 NA
ATOM     60  C   UNL A   1      42.098  27.680  30.944  1.00  0.00     0.031 C 
ATOM     61  C   UNL A   1      42.412  30.605  36.251  1.00  0.00     0.029 A 
ATOM     62  C   UNL A   1      42.045  30.224  34.970  1.00  0.00     0.049 A 
ATOM     63  H   UNL A   1      40.541  31.023  33.723  1.00  0.00     0.167 HD
ATOM     64  C   UNL A   1      42.139  28.825  32.928  1.00  0.00     0.074 A 
ATOM     65  C   UNL A   1      42.710  27.771  32.116  1.00  0.00     0.031 C 
ATOM     66  C   UNL A   1      42.604  29.181  34.150  1.00  0.00     0.037 A 
BRANCH  53  67
ATOM     67  C   UNL A   1      39.669  33.974  36.675  1.00  0.00     0.064 A 
ATOM     68  C   UNL A   1      38.899  33.697  37.814  1.00  0.00     0.173 A 
ATOM     69  C   UNL A   1      40.443  35.143  36.672  1.00  0.00     0.173 A 
ATOM     70  F   UNL A   1      38.136  32.596  37.862  1.00  0.00    -0.203 F 
ATOM     71  C   UNL A   1      38.901  34.563  38.905  1.00  0.00     0.198 A 
ATOM     72  C   UNL A   1      40.462  35.993  37.774  1.00  0.00     0.198 A 
ATOM     73  F   UNL A   1      41.201  35.449  35.607  1.00  0.00    -0.203 F 
ATOM     74  F   UNL A   1      38.140  34.292  39.974  1.00  0.00    -0.200 F 
ATOM     75  C   UNL A   1      39.690  35.704  38.888  1.00  0.00     0.200 A 
ATOM     76  F   UNL A   1      41.235  37.088  37.761  1.00  0.00    -0.200 F 
ATOM     77  F   UNL A   1      39.705  36.524  39.948  1.00  0.00    -0.200 F 
ENDBRANCH  53  67
BRANCH  54  78
ATOM     78  C   UNL A   1      40.243  27.998  28.707  1.00  0.00     0.064 A 
ATOM     79  C   UNL A   1      39.638  26.736  28.628  1.00  0.00     0.173 A 
ATOM     80  C   UNL A   1      41.018  28.419  27.616  1.00  0.00     0.173 A 
ATOM     81  F   UNL A   1      38.906  26.281  29.656  1.00  0.00    -0.203 F 
ATOM     82  C   UNL A   1      39.828  25.914  27.519  1.00  0.00     0.198 A 
ATOM     83  C   UNL A   1      41.182  27.609  26.494  1.00  0.00     0.198 A 
ATOM     84  F   UNL A   1      41.615  29.619  27.639  1.00  0.00    -0.203 F 
ATOM     85  F   UNL A   1      39.286  24.689  27.495  1.00  0.00    -0.200 F 
ATOM     86  C   UNL A   1      40.596  26.353  26.451  1.00  0.00     0.200 A 
ATOM     87  F   UNL A   1      41.914  28.043  25.459  1.00  0.00    -0.200 F 
ATOM     88  F   UNL A   1      40.781  25.562  25.386  1.00  0.00    -0.200 F 
ENDBRANCH  54  78
BRANCH  66  89
ATOM     89  C   UNL A   1      43.780  28.421  34.687  1.00  0.00     0.064 A 
ATOM     90  C   UNL A   1      43.614  27.220  35.394  1.00  0.00     0.173 A 
ATOM     91  C   UNL A   1      45.088  28.873  34.457  1.00  0.00     0.173 A 
ATOM     92  F   UNL A   1      42.382  26.756  35.653  1.00  0.00    -0.203 F 
ATOM     93  C   UNL A   1      44.713  26.512  35.869  1.00  0.00     0.198 A 
ATOM     94  C   UNL A   1      46.186  28.148  34.908  1.00  0.00     0.198 A 
ATOM     95  F   UNL A   1      45.301  30.013  33.782  1.00  0.00    -0.203 F 
ATOM     96  F   UNL A   1      44.530  25.391  36.580  1.00  0.00    -0.200 F 
ATOM     97  C   UNL A   1      45.998  26.971  35.619  1.00  0.00     0.200 A 
ATOM     98  F   UNL A   1      47.427  28.585  34.655  1.00  0.00    -0.200 F 
ATOM     99  F   UNL A   1      47.056  26.283  36.070  1.00  0.00    -0.200 F 
ENDBRANCH  66  89
ENDBRANCH  40  41
ENDBRANCH  32  35
ENDBRANCH  30  31
ENDBRANCH  29  30
ENDBRANCH   1  29
TORSDOF 15
ENDMDL
MODEL 3
REMARK VINA RESULT:     -12.8      3.679      8.526
REMARK SMILES C[C@@H](C(=O)NCCCCNC(=O)c1ccc(-c2c3nc(c(-c4c(F)c(F)c(F)c(F)c4F)c4ccc([nH]4)c(-c4c(F)c(F)c(F)c(F)c4F)c4nc(c(-c5c(F)c(F)c(F)c(F)c5F)c5ccc2[nH]5)C=C4)C=C3)cc1)c1ccc(C[C@H]2CCCC2=O)c(-c2ccc(F)cc2)c1
REMARK SMILES IDX 7 1 6 2 5 3 3 4 4 5 2 7 1 8 76 9 77 10 95 11 78 12 87 13
REMARK SMILES IDX 79 14 88 15 89 16 94 17 90 18 93 19 91 20 92 21 80 22 81 23
REMARK SMILES IDX 82 24 85 25 83 26 84 27 86 28 8 29 9 30 10 31 11 32 12 34
REMARK SMILES IDX 13 35 14 36 75 37 15 38 74 39 16 40 17 41 18 42 68 43 19 44
REMARK SMILES IDX 73 45 67 46 69 47 20 48 72 49 66 50 65 51 21 53 53 54 33 55
REMARK SMILES IDX 52 56 34 57 37 58 51 59 70 60 35 61 36 62 50 64 71 65 38 66
REMARK SMILES IDX 22 67 23 68 31 69 24 70 25 71 29 72 32 73 26 74 27 75 30 76
REMARK SMILES IDX 28 77 54 78 55 79 63 80 56 81 57 82 61 83 64 84 58 85 59 86
REMARK SMILES IDX 62 87 60 88 39 89 40 90 48 91 41 92 42 93 46 94 49 95 43 96
REMARK SMILES IDX 44 97 47 98 45 99
REMARK H PARENT 5 6 10 33 69 52 37 63
REMARK Flexibility Score: inf
ROOT
ATOM      1  C   UNL A   1      31.817  27.738  25.506  1.00  0.00     0.023 C 
ENDROOT
BRANCH   1   2
ATOM      2  C   UNL A   1      32.435  26.430  25.006  1.00  0.00     0.116 C 
BRANCH   2   3
ATOM      3  N   UNL A   1      33.110  26.614  23.740  1.00  0.00    -0.356 N 
ATOM      4  C   UNL A   1      33.071  25.874  22.593  1.00  0.00     0.227 C 
ATOM      5  O   UNL A   1      33.799  26.258  21.678  1.00  0.00    -0.274 OA
ATOM      6  H   UNL A   1      33.695  27.406  23.697  1.00  0.00     0.163 HD
BRANCH   4   7
ATOM      7  C   UNL A   1      32.131  24.659  22.488  1.00  0.00     0.105 C 
ATOM      8  C   UNL A   1      30.795  24.883  23.203  1.00  0.00     0.023 C 
BRANCH   7   9
ATOM      9  C   UNL A   1      32.730  23.363  23.028  1.00  0.00    -0.035 A 
ATOM     10  C   UNL A   1      31.989  22.182  23.012  1.00  0.00     0.005 A 
ATOM     11  C   UNL A   1      33.997  23.344  23.636  1.00  0.00     0.013 A 
ATOM     12  C   UNL A   1      32.485  21.033  23.627  1.00  0.00     0.004 A 
ATOM     13  C   UNL A   1      34.525  22.197  24.264  1.00  0.00    -0.015 A 
ATOM     14  C   UNL A   1      33.728  21.029  24.293  1.00  0.00    -0.039 A 
BRANCH  13  15
ATOM     15  C   UNL A   1      35.876  22.296  24.852  1.00  0.00    -0.018 A 
ATOM     16  C   UNL A   1      36.824  21.271  24.680  1.00  0.00     0.012 A 
ATOM     17  C   UNL A   1      36.269  23.450  25.558  1.00  0.00     0.012 A 
ATOM     18  C   UNL A   1      38.103  21.375  25.232  1.00  0.00     0.040 A 
ATOM     19  C   UNL A   1      37.553  23.562  26.096  1.00  0.00     0.040 A 
ATOM     20  C   UNL A   1      38.455  22.519  25.936  1.00  0.00     0.123 A 
ATOM     21  F   UNL A   1      39.682  22.621  26.462  1.00  0.00    -0.207 F 
ENDBRANCH  13  15
BRANCH  14  22
ATOM     22  C   UNL A   1      34.113  19.772  25.051  1.00  0.00     0.047 C 
BRANCH  22  23
ATOM     23  C   UNL A   1      33.926  18.437  24.315  1.00  0.00     0.060 C 
ATOM     24  C   UNL A   1      35.152  17.526  24.205  1.00  0.00     0.012 C 
ATOM     25  C   UNL A   1      32.922  17.531  24.991  1.00  0.00     0.136 C 
ATOM     26  C   UNL A   1      35.022  16.501  25.324  1.00  0.00     0.009 C 
ATOM     27  C   UNL A   1      33.528  16.231  25.447  1.00  0.00     0.076 C 
ATOM     28  O   UNL A   1      31.737  17.811  25.134  1.00  0.00    -0.299 OA
ENDBRANCH  22  23
ENDBRANCH  14  22
ENDBRANCH   7   9
ENDBRANCH   4   7
ENDBRANCH   2   3
ENDBRANCH   1   2
BRANCH   1  29
ATOM     29  C   UNL A   1      32.175  28.113  26.947  1.00  0.00     0.023 C 
BRANCH  29  30
ATOM     30  C   UNL A   1      33.587  28.650  27.152  1.00  0.00     0.116 C 
BRANCH  30  31
ATOM     31  N   UNL A   1      33.608  30.037  27.594  1.00  0.00    -0.352 N 
ATOM     32  C   UNL A   1      34.603  30.730  28.239  1.00  0.00     0.251 C 
ATOM     33  H   UNL A   1      32.791  30.552  27.402  1.00  0.00     0.163 HD
ATOM     34  O   UNL A   1      34.398  31.867  28.650  1.00  0.00    -0.269 OA
BRANCH  32  35
ATOM     35  C   UNL A   1      35.911  30.084  28.477  1.00  0.00     0.039 A 
ATOM     36  C   UNL A   1      36.879  30.139  27.471  1.00  0.00     0.014 A 
ATOM     37  C   UNL A   1      36.193  29.463  29.697  1.00  0.00     0.014 A 
ATOM     38  C   UNL A   1      38.165  29.657  27.725  1.00  0.00     0.010 A 
ATOM     39  C   UNL A   1      37.491  29.037  29.969  1.00  0.00     0.010 A 
ATOM     40  C   UNL A   1      38.495  29.153  28.993  1.00  0.00    -0.014 A 
BRANCH  40  41
ATOM     41  C   UNL A   1      39.897  28.811  29.343  1.00  0.00     0.031 A 
ATOM     42  C   UNL A   1      40.760  29.792  30.081  1.00  0.00     0.074 A 
ATOM     43  C   UNL A   1      40.416  27.647  28.906  1.00  0.00     0.049 A 
ATOM     44  N   UNL A   1      42.032  29.712  30.379  1.00  0.00    -0.248 NA
ATOM     45  C   UNL A   1      40.118  31.039  30.526  1.00  0.00     0.031 C 
ATOM     46  C   UNL A   1      39.692  26.635  28.133  1.00  0.00     0.029 A 
ATOM     47  N   UNL A   1      41.682  27.126  29.025  1.00  0.00    -0.354 N 
ATOM     48  C   UNL A   1      42.345  30.897  31.030  1.00  0.00     0.074 A 
ATOM     49  C   UNL A   1      41.140  31.698  31.055  1.00  0.00     0.031 C 
ATOM     50  C   UNL A   1      40.521  25.618  27.852  1.00  0.00     0.029 A 
ATOM     51  C   UNL A   1      41.844  25.922  28.384  1.00  0.00     0.049 A 
ATOM     52  H   UNL A   1      42.403  27.575  29.522  1.00  0.00     0.167 HD
ATOM     53  C   UNL A   1      43.529  31.272  31.569  1.00  0.00     0.037 A 
ATOM     54  C   UNL A   1      42.943  25.159  28.223  1.00  0.00     0.037 A 
ATOM     55  C   UNL A   1      44.717  30.459  31.569  1.00  0.00     0.049 A 
ATOM     56  C   UNL A   1      44.246  25.613  28.821  1.00  0.00     0.074 A 
ATOM     57  C   UNL A   1      45.934  30.715  32.177  1.00  0.00     0.029 A 
ATOM     58  N   UNL A   1      44.840  29.240  30.922  1.00  0.00    -0.354 N 
ATOM     59  N   UNL A   1      44.505  26.694  29.516  1.00  0.00    -0.248 NA
ATOM     60  C   UNL A   1      45.412  24.742  28.610  1.00  0.00     0.031 C 
ATOM     61  C   UNL A   1      46.811  29.675  31.854  1.00  0.00     0.029 A 
ATOM     62  C   UNL A   1      46.127  28.749  31.084  1.00  0.00     0.049 A 
ATOM     63  H   UNL A   1      44.122  28.789  30.422  1.00  0.00     0.167 HD
ATOM     64  C   UNL A   1      45.853  26.625  29.838  1.00  0.00     0.074 A 
ATOM     65  C   UNL A   1      46.355  25.385  29.285  1.00  0.00     0.031 C 
ATOM     66  C   UNL A   1      46.611  27.514  30.526  1.00  0.00     0.037 A 
BRANCH  53  67
ATOM     67  C   UNL A   1      43.612  32.623  32.218  1.00  0.00     0.064 A 
ATOM     68  C   UNL A   1      43.942  33.771  31.482  1.00  0.00     0.173 A 
ATOM     69  C   UNL A   1      43.269  32.782  33.569  1.00  0.00     0.173 A 
ATOM     70  F   UNL A   1      44.285  33.669  30.190  1.00  0.00    -0.203 F 
ATOM     71  C   UNL A   1      43.935  35.028  32.080  1.00  0.00     0.198 A 
ATOM     72  C   UNL A   1      43.238  34.044  34.155  1.00  0.00     0.198 A 
ATOM     73  F   UNL A   1      42.939  31.715  34.313  1.00  0.00    -0.203 F 
ATOM     74  F   UNL A   1      44.277  36.109  31.366  1.00  0.00    -0.200 F 
ATOM     75  C   UNL A   1      43.573  35.165  33.412  1.00  0.00     0.200 A 
ATOM     76  F   UNL A   1      42.875  34.176  35.439  1.00  0.00    -0.200 F 
ATOM     77  F   UNL A   1      43.548  36.379  33.979  1.00  0.00    -0.200 F 
ENDBRANCH  53  67
BRANCH  54  78
ATOM     78  C   UNL A   1      42.868  23.892  27.447  1.00  0.00     0.064 A 
ATOM     79  C   UNL A   1      42.517  22.686  28.068  1.00  0.00     0.173 A 
ATOM     80  C   UNL A   1      43.177  23.857  26.080  1.00  0.00     0.173 A 
ATOM     81  F   UNL A   1      42.234  22.666  29.379  1.00  0.00    -0.203 F 
ATOM     82  C   UNL A   1      42.507  21.487  27.358  1.00  0.00     0.198 A 
ATOM     83  C   UNL A   1      43.137  22.662  25.363  1.00  0.00     0.198 A 
ATOM     84  F   UNL A   1      43.516  24.984  25.437  1.00  0.00    -0.203 F 
ATOM     85  F   UNL A   1      42.224  20.339  27.989  1.00  0.00    -0.200 F 
ATOM     86  C   UNL A   1      42.813  21.476  26.005  1.00  0.00     0.200 A 
ATOM     87  F   UNL A   1      43.420  22.659  24.053  1.00  0.00    -0.200 F 
ATOM     88  F   UNL A   1      42.807  20.323  25.324  1.00  0.00    -0.200 F 
ENDBRANCH  54  78
BRANCH  66  89
ATOM     89  C   UNL A   1      48.058  27.173  30.727  1.00  0.00     0.064 A 
ATOM     90  C   UNL A   1      48.478  26.370  31.798  1.00  0.00     0.173 A 
ATOM     91  C   UNL A   1      49.030  27.617  29.817  1.00  0.00     0.173 A 
ATOM     92  F   UNL A   1      47.588  25.935  32.704  1.00  0.00    -0.203 F 
ATOM     93  C   UNL A   1      49.820  26.043  31.963  1.00  0.00     0.198 A 
ATOM     94  C   UNL A   1      50.366  27.263  29.968  1.00  0.00     0.198 A 
ATOM     95  F   UNL A   1      48.679  28.383  28.773  1.00  0.00    -0.203 F 
ATOM     96  F   UNL A   1      50.205  25.312  33.019  1.00  0.00    -0.200 F 
ATOM     97  C   UNL A   1      50.762  26.481  31.044  1.00  0.00     0.200 A 
ATOM     98  F   UNL A   1      51.273  27.677  29.073  1.00  0.00    -0.200 F 
ATOM     99  F   UNL A   1      52.053  26.158  31.200  1.00  0.00    -0.200 F 
ENDBRANCH  66  89
ENDBRANCH  40  41
ENDBRANCH  32  35
ENDBRANCH  30  31
ENDBRANCH  29  30
ENDBRANCH   1  29
TORSDOF 15
ENDMDL
