MODEL 1
REMARK VINA RESULT:     -11.8      0.000      0.000
REMARK SMILES CC(C)(C)OC(=O)c1ccc(C[C@H]([NH3+])C(=O)NCCCCNC(=O)c2ccc(-c3c4nc(c(-c5c(F)c(F)c(F)c(F)c5F)c5ccc([nH]5)c(-c5c(F)c(F)c(F)c(F)c5F)c5nc(c(-c6c(F)c(F)c(F)c(F)c6F)c6ccc3[nH]6)C=C5)C=C4)cc2)cc1
REMARK SMILES IDX 18 1 17 2 15 3 16 4 13 6 12 7 11 8 8 9 9 10 89 11 10 12
REMARK SMILES IDX 88 13 6 14 7 15 5 16 2 17 1 18 3 19 4 20 14 21 19 25 20 26
REMARK SMILES IDX 21 27 22 28 23 29 24 31 25 32 26 33 87 34 27 35 86 36 28 37
REMARK SMILES IDX 29 38 30 39 80 40 31 41 85 42 79 43 81 44 32 45 84 46 78 47
REMARK SMILES IDX 77 48 33 50 65 51 45 52 64 53 46 54 49 55 63 56 82 57 47 58
REMARK SMILES IDX 48 59 62 61 83 62 50 63 34 64 35 65 43 66 36 67 37 68 41 69
REMARK SMILES IDX 44 70 38 71 39 72 42 73 40 74 66 75 67 76 75 77 68 78 69 79
REMARK SMILES IDX 73 80 76 81 70 82 71 83 74 84 72 85 51 86 52 87 60 88 53 89
REMARK SMILES IDX 54 90 58 91 61 92 55 93 56 94 59 95 57 96
REMARK H PARENT 17 5 14 22 14 23 14 24 22 30 81 49 49 60
REMARK Flexibility Score: inf
ROOT
ATOM      1  C   UNL A   1      32.123  29.560  25.493  1.00  0.00     0.116 C 
ENDROOT
BRANCH   1   2
ATOM      2  N   UNL A   1      31.089  30.080  24.618  1.00  0.00    -0.351 N 
ATOM      3  C   UNL A   1      30.242  29.439  23.760  1.00  0.00     0.278 C 
ATOM      4  O   UNL A   1      29.428  30.128  23.141  1.00  0.00    -0.268 OA
ATOM      5  H   UNL A   1      30.981  31.058  24.648  1.00  0.00     0.163 HD
BRANCH   3   6
ATOM      6  C   UNL A   1      30.312  27.912  23.554  1.00  0.00     0.275 C 
BRANCH   6   7
ATOM      7  C   UNL A   1      31.222  27.546  22.362  1.00  0.00     0.111 C 
BRANCH   7   8
ATOM      8  C   UNL A   1      32.189  26.416  22.639  1.00  0.00    -0.041 A 
ATOM      9  C   UNL A   1      33.982  24.329  23.170  1.00  0.00     0.060 A 
ATOM     10  C   UNL A   1      33.001  24.175  22.186  1.00  0.00     0.016 A 
ATOM     11  C   UNL A   1      34.059  25.515  23.906  1.00  0.00     0.016 A 
ATOM     12  C   UNL A   1      32.096  25.206  21.936  1.00  0.00     0.005 A 
ATOM     13  C   UNL A   1      33.166  26.555  23.637  1.00  0.00     0.005 A 
BRANCH   9  14
ATOM     14  C   UNL A   1      34.945  23.230  23.372  1.00  0.00     0.338 C 
ATOM     15  O   UNL A   1      36.102  23.284  22.981  1.00  0.00    -0.246 OA
BRANCH  14  16
ATOM     16  O   UNL A   1      34.324  22.187  23.968  1.00  0.00    -0.456 OA
BRANCH  16  17
ATOM     17  C   UNL A   1      34.812  21.687  25.240  1.00  0.00     0.104 C 
ATOM     18  C   UNL A   1      33.618  20.949  25.863  1.00  0.00     0.056 C 
ATOM     19  C   UNL A   1      35.209  22.849  26.156  1.00  0.00     0.056 C 
ATOM     20  C   UNL A   1      35.957  20.681  25.058  1.00  0.00     0.056 C 
ENDBRANCH  16  17
ENDBRANCH  14  16
ENDBRANCH   9  14
ENDBRANCH   7   8
ENDBRANCH   6   7
BRANCH   6  21
ATOM     21  N   UNL A   1      28.943  27.350  23.454  1.00  0.00    -0.347 N 
ATOM     22  H   UNL A   1      28.261  28.085  23.642  1.00  0.00     0.345 HD
ATOM     23  H   UNL A   1      28.832  26.601  24.137  1.00  0.00     0.345 HD
ATOM     24  H   UNL A   1      28.795  26.979  22.516  1.00  0.00     0.345 HD
ENDBRANCH   6  21
ENDBRANCH   3   6
ENDBRANCH   1   2
BRANCH   1  25
ATOM     25  C   UNL A   1      32.091  30.220  26.868  1.00  0.00     0.023 C 
BRANCH  25  26
ATOM     26  C   UNL A   1      31.805  31.722  26.849  1.00  0.00     0.023 C 
BRANCH  26  27
ATOM     27  C   UNL A   1      32.923  32.607  27.392  1.00  0.00     0.116 C 
BRANCH  27  28
ATOM     28  N   UNL A   1      32.495  33.974  27.654  1.00  0.00    -0.352 N 
ATOM     29  C   UNL A   1      33.000  34.882  28.555  1.00  0.00     0.251 C 
ATOM     30  H   UNL A   1      31.739  34.293  27.110  1.00  0.00     0.163 HD
ATOM     31  O   UNL A   1      32.447  35.961  28.730  1.00  0.00    -0.269 OA
BRANCH  29  32
ATOM     32  C   UNL A   1      34.196  34.526  29.345  1.00  0.00     0.039 A 
ATOM     33  C   UNL A   1      34.024  34.005  30.631  1.00  0.00     0.014 A 
ATOM     34  C   UNL A   1      35.474  34.652  28.796  1.00  0.00     0.014 A 
ATOM     35  C   UNL A   1      35.129  33.516  31.328  1.00  0.00     0.010 A 
ATOM     36  C   UNL A   1      36.565  34.108  29.466  1.00  0.00     0.010 A 
ATOM     37  C   UNL A   1      36.399  33.515  30.728  1.00  0.00    -0.014 A 
BRANCH  37  38
ATOM     38  C   UNL A   1      37.560  32.852  31.372  1.00  0.00     0.031 A 
ATOM     39  C   UNL A   1      38.208  31.665  30.723  1.00  0.00     0.074 A 
ATOM     40  C   UNL A   1      37.961  33.262  32.591  1.00  0.00     0.049 A 
ATOM     41  N   UNL A   1      39.141  30.875  31.190  1.00  0.00    -0.248 NA
ATOM     42  C   UNL A   1      37.723  31.300  29.384  1.00  0.00     0.031 C 
ATOM     43  C   UNL A   1      37.382  34.377  33.342  1.00  0.00     0.029 A 
ATOM     44  N   UNL A   1      38.936  32.771  33.425  1.00  0.00    -0.354 N 
ATOM     45  C   UNL A   1      39.344  29.913  30.211  1.00  0.00     0.074 A 
ATOM     46  C   UNL A   1      38.409  30.192  29.141  1.00  0.00     0.031 C 
ATOM     47  C   UNL A   1      38.016  34.491  34.520  1.00  0.00     0.029 A 
ATOM     48  C   UNL A   1      39.015  33.433  34.626  1.00  0.00     0.049 A 
ATOM     49  H   UNL A   1      39.521  32.017  33.185  1.00  0.00     0.167 HD
ATOM     50  C   UNL A   1      40.243  28.900  30.200  1.00  0.00     0.037 A 
ATOM     51  C   UNL A   1      39.792  33.199  35.702  1.00  0.00     0.037 A 
ATOM     52  C   UNL A   1      41.189  28.642  31.253  1.00  0.00     0.049 A 
ATOM     53  C   UNL A   1      40.762  32.051  35.672  1.00  0.00     0.074 A 
ATOM     54  C   UNL A   1      42.194  27.692  31.295  1.00  0.00     0.029 A 
ATOM     55  N   UNL A   1      41.242  29.336  32.452  1.00  0.00    -0.354 N 
ATOM     56  N   UNL A   1      40.994  31.190  34.712  1.00  0.00    -0.248 NA
ATOM     57  C   UNL A   1      41.576  31.840  36.878  1.00  0.00     0.031 C 
ATOM     58  C   UNL A   1      42.827  27.781  32.540  1.00  0.00     0.029 A 
ATOM     59  C   UNL A   1      42.244  28.813  33.255  1.00  0.00     0.049 A 
ATOM     60  H   UNL A   1      40.657  30.089  32.696  1.00  0.00     0.167 HD
ATOM     61  C   UNL A   1      41.989  30.346  35.188  1.00  0.00     0.074 A 
ATOM     62  C   UNL A   1      42.328  30.808  36.518  1.00  0.00     0.031 C 
ATOM     63  C   UNL A   1      42.566  29.284  34.578  1.00  0.00     0.037 A 
BRANCH  50  64
ATOM     64  C   UNL A   1      40.249  27.992  29.006  1.00  0.00     0.064 A 
ATOM     65  C   UNL A   1      40.986  28.300  27.853  1.00  0.00     0.173 A 
ATOM     66  C   UNL A   1      39.545  26.778  29.032  1.00  0.00     0.173 A 
ATOM     67  F   UNL A   1      41.667  29.453  27.776  1.00  0.00    -0.203 F 
ATOM     68  C   UNL A   1      40.998  27.438  26.759  1.00  0.00     0.198 A 
ATOM     69  C   UNL A   1      39.580  25.907  27.947  1.00  0.00     0.198 A 
ATOM     70  F   UNL A   1      38.828  26.435  30.113  1.00  0.00    -0.203 F 
ATOM     71  F   UNL A   1      41.676  27.773  25.653  1.00  0.00    -0.200 F 
ATOM     72  C   UNL A   1      40.302  26.240  26.810  1.00  0.00     0.200 A 
ATOM     73  F   UNL A   1      38.916  24.744  28.001  1.00  0.00    -0.200 F 
ATOM     74  F   UNL A   1      40.321  25.408  25.759  1.00  0.00    -0.200 F 
ENDBRANCH  50  64
BRANCH  51  75
ATOM     75  C   UNL A   1      39.682  34.072  36.898  1.00  0.00     0.064 A 
ATOM     76  C   UNL A   1      40.384  35.283  36.967  1.00  0.00     0.173 A 
ATOM     77  C   UNL A   1      38.877  33.719  37.991  1.00  0.00     0.173 A 
ATOM     78  F   UNL A   1      41.183  35.652  35.956  1.00  0.00    -0.203 F 
ATOM     79  C   UNL A   1      40.296  36.102  38.091  1.00  0.00     0.198 A 
ATOM     80  C   UNL A   1      38.770  34.550  39.103  1.00  0.00     0.198 A 
ATOM     81  F   UNL A   1      38.183  32.571  37.971  1.00  0.00    -0.203 F 
ATOM     82  F   UNL A   1      41.006  37.236  38.148  1.00  0.00    -0.200 F 
ATOM     83  C   UNL A   1      39.485  35.738  39.156  1.00  0.00     0.200 A 
ATOM     84  F   UNL A   1      37.976  34.201  40.124  1.00  0.00    -0.200 F 
ATOM     85  F   UNL A   1      39.396  36.528  40.234  1.00  0.00    -0.200 F 
ENDBRANCH  51  75
BRANCH  63  86
ATOM     86  C   UNL A   1      43.633  28.552  35.336  1.00  0.00     0.064 A 
ATOM     87  C   UNL A   1      43.317  27.514  36.223  1.00  0.00     0.173 A 
ATOM     88  C   UNL A   1      44.988  28.858  35.134  1.00  0.00     0.173 A 
ATOM     89  F   UNL A   1      42.035  27.197  36.462  1.00  0.00    -0.203 F 
ATOM     90  C   UNL A   1      44.319  26.816  36.892  1.00  0.00     0.198 A 
ATOM     91  C   UNL A   1      45.988  28.141  35.785  1.00  0.00     0.198 A 
ATOM     92  F   UNL A   1      45.340  29.842  34.293  1.00  0.00    -0.203 F 
ATOM     93  F   UNL A   1      43.993  25.849  37.761  1.00  0.00    -0.200 F 
ATOM     94  C   UNL A   1      45.652  27.124  36.666  1.00  0.00     0.200 A 
ATOM     95  F   UNL A   1      47.275  28.434  35.557  1.00  0.00    -0.200 F 
ATOM     96  F   UNL A   1      46.615  26.443  37.301  1.00  0.00    -0.200 F 
ENDBRANCH  63  86
ENDBRANCH  37  38
ENDBRANCH  29  32
ENDBRANCH  27  28
ENDBRANCH  26  27
ENDBRANCH  25  26
ENDBRANCH   1  25
TORSDOF 17
ENDMDL
MODEL 2
REMARK VINA RESULT:     -11.8      2.278      4.717
REMARK SMILES CC(C)(C)OC(=O)c1ccc(C[C@H]([NH3+])C(=O)NCCCCNC(=O)c2ccc(-c3c4nc(c(-c5c(F)c(F)c(F)c(F)c5F)c5ccc([nH]5)c(-c5c(F)c(F)c(F)c(F)c5F)c5nc(c(-c6c(F)c(F)c(F)c(F)c6F)c6ccc3[nH]6)C=C5)C=C4)cc2)cc1
REMARK SMILES IDX 18 1 17 2 15 3 16 4 13 6 12 7 11 8 8 9 9 10 89 11 10 12
REMARK SMILES IDX 88 13 6 14 7 15 5 16 2 17 1 18 3 19 4 20 14 21 19 25 20 26
REMARK SMILES IDX 21 27 22 28 23 29 24 31 25 32 26 33 87 34 27 35 86 36 28 37
REMARK SMILES IDX 29 38 30 39 80 40 31 41 85 42 79 43 81 44 32 45 84 46 78 47
REMARK SMILES IDX 77 48 33 50 65 51 45 52 64 53 46 54 49 55 63 56 82 57 47 58
REMARK SMILES IDX 48 59 62 61 83 62 50 63 34 64 35 65 43 66 36 67 37 68 41 69
REMARK SMILES IDX 44 70 38 71 39 72 42 73 40 74 66 75 67 76 75 77 68 78 69 79
REMARK SMILES IDX 73 80 76 81 70 82 71 83 74 84 72 85 51 86 52 87 60 88 53 89
REMARK SMILES IDX 54 90 58 91 61 92 55 93 56 94 59 95 57 96
REMARK H PARENT 17 5 14 22 14 23 14 24 22 30 81 49 49 60
REMARK Flexibility Score: inf
ROOT
ATOM      1  C   UNL A   1      33.661  26.249  25.597  1.00  0.00     0.116 C 
ENDROOT
BRANCH   1   2
ATOM      2  N   UNL A   1      32.660  25.625  26.443  1.00  0.00    -0.351 N 
ATOM      3  C   UNL A   1      31.923  24.491  26.263  1.00  0.00     0.278 C 
ATOM      4  O   UNL A   1      31.145  24.167  27.164  1.00  0.00    -0.268 OA
ATOM      5  H   UNL A   1      32.484  26.101  27.287  1.00  0.00     0.163 HD
BRANCH   3   6
ATOM      6  C   UNL A   1      32.038  23.654  24.973  1.00  0.00     0.275 C 
BRANCH   6   7
ATOM      7  C   UNL A   1      30.782  23.805  24.089  1.00  0.00     0.111 C 
BRANCH   7   8
ATOM      8  C   UNL A   1      30.532  25.212  23.594  1.00  0.00    -0.041 A 
ATOM      9  C   UNL A   1      30.076  27.815  22.661  1.00  0.00     0.060 A 
ATOM     10  C   UNL A   1      29.236  27.263  23.633  1.00  0.00     0.016 A 
ATOM     11  C   UNL A   1      31.134  27.065  22.139  1.00  0.00     0.016 A 
ATOM     12  C   UNL A   1      29.450  25.961  24.081  1.00  0.00     0.005 A 
ATOM     13  C   UNL A   1      31.360  25.769  22.608  1.00  0.00     0.005 A 
BRANCH   9  14
ATOM     14  C   UNL A   1      29.839  29.211  22.247  1.00  0.00     0.338 C 
ATOM     15  O   UNL A   1      30.608  29.825  21.523  1.00  0.00    -0.246 OA
BRANCH  14  16
ATOM     16  O   UNL A   1      28.717  29.676  22.842  1.00  0.00    -0.456 OA
BRANCH  16  17
ATOM     17  C   UNL A   1      28.630  31.071  23.229  1.00  0.00     0.104 C 
ATOM     18  C   UNL A   1      27.227  31.230  23.836  1.00  0.00     0.056 C 
ATOM     19  C   UNL A   1      28.741  31.976  21.998  1.00  0.00     0.056 C 
ATOM     20  C   UNL A   1      29.663  31.433  24.305  1.00  0.00     0.056 C 
ENDBRANCH  16  17
ENDBRANCH  14  16
ENDBRANCH   9  14
ENDBRANCH   7   8
ENDBRANCH   6   7
BRANCH   6  21
ATOM     21  N   UNL A   1      32.366  22.248  25.308  1.00  0.00    -0.347 N 
ATOM     22  H   UNL A   1      31.780  21.938  26.083  1.00  0.00     0.345 HD
ATOM     23  H   UNL A   1      33.348  22.181  25.577  1.00  0.00     0.345 HD
ATOM     24  H   UNL A   1      32.196  21.655  24.495  1.00  0.00     0.345 HD
ENDBRANCH   6  21
ENDBRANCH   3   6
ENDBRANCH   1   2
BRANCH   1  25
ATOM     25  C   UNL A   1      33.311  27.698  25.271  1.00  0.00     0.023 C 
BRANCH  25  26
ATOM     26  C   UNL A   1      32.084  28.239  26.007  1.00  0.00     0.023 C 
BRANCH  26  27
ATOM     27  C   UNL A   1      32.382  29.065  27.254  1.00  0.00     0.116 C 
BRANCH  27  28
ATOM     28  N   UNL A   1      32.244  30.498  27.038  1.00  0.00    -0.352 N 
ATOM     29  C   UNL A   1      33.152  31.502  27.282  1.00  0.00     0.251 C 
ATOM     30  H   UNL A   1      31.381  30.790  26.665  1.00  0.00     0.163 HD
ATOM     31  O   UNL A   1      32.833  32.678  27.148  1.00  0.00    -0.269 OA
BRANCH  29  32
ATOM     32  C   UNL A   1      34.508  31.152  27.749  1.00  0.00     0.039 A 
ATOM     33  C   UNL A   1      35.439  32.176  27.944  1.00  0.00     0.014 A 
ATOM     34  C   UNL A   1      34.837  29.828  28.050  1.00  0.00     0.014 A 
ATOM     35  C   UNL A   1      36.669  31.884  28.535  1.00  0.00     0.010 A 
ATOM     36  C   UNL A   1      36.037  29.549  28.695  1.00  0.00     0.010 A 
ATOM     37  C   UNL A   1      36.954  30.577  28.964  1.00  0.00    -0.014 A 
BRANCH  37  38
ATOM     38  C   UNL A   1      38.177  30.267  29.744  1.00  0.00     0.031 A 
ATOM     39  C   UNL A   1      39.191  29.300  29.209  1.00  0.00     0.074 A 
ATOM     40  C   UNL A   1      38.319  30.783  30.981  1.00  0.00     0.049 A 
ATOM     41  N   UNL A   1      40.250  28.803  29.796  1.00  0.00    -0.248 NA
ATOM     42  C   UNL A   1      38.969  28.803  27.843  1.00  0.00     0.031 C 
ATOM     43  C   UNL A   1      37.381  31.701  31.628  1.00  0.00     0.029 A 
ATOM     44  N   UNL A   1      39.297  30.588  31.926  1.00  0.00    -0.354 N 
ATOM     45  C   UNL A   1      40.811  27.926  28.879  1.00  0.00     0.074 A 
ATOM     46  C   UNL A   1      39.955  27.925  27.712  1.00  0.00     0.031 C 
ATOM     47  C   UNL A   1      37.830  31.997  32.858  1.00  0.00     0.029 A 
ATOM     48  C   UNL A   1      39.064  31.257  33.103  1.00  0.00     0.049 A 
ATOM     49  H   UNL A   1      40.089  30.024  31.774  1.00  0.00     0.167 HD
ATOM     50  C   UNL A   1      41.950  27.202  28.996  1.00  0.00     0.037 A 
ATOM     51  C   UNL A   1      39.757  31.257  34.258  1.00  0.00     0.037 A 
ATOM     52  C   UNL A   1      42.814  27.225  30.146  1.00  0.00     0.049 A 
ATOM     53  C   UNL A   1      41.002  30.423  34.369  1.00  0.00     0.074 A 
ATOM     54  C   UNL A   1      44.030  26.590  30.325  1.00  0.00     0.029 A 
ATOM     55  N   UNL A   1      42.547  27.918  31.317  1.00  0.00    -0.354 N 
ATOM     56  N   UNL A   1      41.562  29.651  33.470  1.00  0.00    -0.248 NA
ATOM     57  C   UNL A   1      41.710  30.456  35.657  1.00  0.00     0.031 C 
ATOM     58  C   UNL A   1      44.479  26.863  31.621  1.00  0.00     0.029 A 
ATOM     59  C   UNL A   1      43.562  27.700  32.236  1.00  0.00     0.049 A 
ATOM     60  H   UNL A   1      41.755  28.481  31.474  1.00  0.00     0.167 HD
ATOM     61  C   UNL A   1      42.693  29.120  34.074  1.00  0.00     0.074 A 
ATOM     62  C   UNL A   1      42.750  29.670  35.413  1.00  0.00     0.031 C 
ATOM     63  C   UNL A   1      43.601  28.253  33.566  1.00  0.00     0.037 A 
BRANCH  50  64
ATOM     64  C   UNL A   1      42.331  26.320  27.843  1.00  0.00     0.064 A 
ATOM     65  C   UNL A   1      41.762  25.049  27.673  1.00  0.00     0.173 A 
ATOM     66  C   UNL A   1      43.240  26.769  26.874  1.00  0.00     0.173 A 
ATOM     67  F   UNL A   1      40.896  24.571  28.578  1.00  0.00    -0.203 F 
ATOM     68  C   UNL A   1      42.110  24.249  26.588  1.00  0.00     0.198 A 
ATOM     69  C   UNL A   1      43.566  25.977  25.776  1.00  0.00     0.198 A 
ATOM     70  F   UNL A   1      43.808  27.980  26.988  1.00  0.00    -0.203 F 
ATOM     71  F   UNL A   1      41.586  23.021  26.468  1.00  0.00    -0.200 F 
ATOM     72  C   UNL A   1      43.006  24.716  25.637  1.00  0.00     0.200 A 
ATOM     73  F   UNL A   1      44.423  26.434  24.853  1.00  0.00    -0.200 F 
ATOM     74  F   UNL A   1      43.334  23.947  24.589  1.00  0.00    -0.200 F 
ENDBRANCH  50  64
BRANCH  51  75
ATOM     75  C   UNL A   1      39.286  32.077  35.404  1.00  0.00     0.064 A 
ATOM     76  C   UNL A   1      38.464  31.519  36.393  1.00  0.00     0.173 A 
ATOM     77  C   UNL A   1      39.645  33.426  35.535  1.00  0.00     0.173 A 
ATOM     78  F   UNL A   1      38.077  30.239  36.299  1.00  0.00    -0.203 F 
ATOM     79  C   UNL A   1      38.009  32.286  37.464  1.00  0.00     0.198 A 
ATOM     80  C   UNL A   1      39.209  34.184  36.619  1.00  0.00     0.198 A 
ATOM     81  F   UNL A   1      40.432  34.004  34.615  1.00  0.00    -0.203 F 
ATOM     82  F   UNL A   1      37.194  31.739  38.377  1.00  0.00    -0.200 F 
ATOM     83  C   UNL A   1      38.385  33.615  37.580  1.00  0.00     0.200 A 
ATOM     84  F   UNL A   1      39.586  35.464  36.733  1.00  0.00    -0.200 F 
ATOM     85  F   UNL A   1      37.951  34.349  38.613  1.00  0.00    -0.200 F 
ENDBRANCH  51  75
BRANCH  63  86
ATOM     86  C   UNL A   1      44.741  27.852  34.453  1.00  0.00     0.064 A 
ATOM     87  C   UNL A   1      45.934  28.588  34.487  1.00  0.00     0.173 A 
ATOM     88  C   UNL A   1      44.621  26.751  35.315  1.00  0.00     0.173 A 
ATOM     89  F   UNL A   1      46.102  29.638  33.668  1.00  0.00    -0.203 F 
ATOM     90  C   UNL A   1      46.971  28.229  35.343  1.00  0.00     0.198 A 
ATOM     91  C   UNL A   1      45.650  26.410  36.187  1.00  0.00     0.198 A 
ATOM     92  F   UNL A   1      43.498  26.017  35.320  1.00  0.00    -0.203 F 
ATOM     93  F   UNL A   1      48.116  28.927  35.335  1.00  0.00    -0.200 F 
ATOM     94  C   UNL A   1      46.825  27.147  36.198  1.00  0.00     0.200 A 
ATOM     95  F   UNL A   1      45.503  25.371  37.020  1.00  0.00    -0.200 F 
ATOM     96  F   UNL A   1      47.820  26.810  37.030  1.00  0.00    -0.200 F 
ENDBRANCH  63  86
ENDBRANCH  37  38
ENDBRANCH  29  32
ENDBRANCH  27  28
ENDBRANCH  26  27
ENDBRANCH  25  26
ENDBRANCH   1  25
TORSDOF 17
ENDMDL
MODEL 3
REMARK VINA RESULT:     -11.7      5.849     11.421
REMARK SMILES CC(C)(C)OC(=O)c1ccc(C[C@H]([NH3+])C(=O)NCCCCNC(=O)c2ccc(-c3c4nc(c(-c5c(F)c(F)c(F)c(F)c5F)c5ccc([nH]5)c(-c5c(F)c(F)c(F)c(F)c5F)c5nc(c(-c6c(F)c(F)c(F)c(F)c6F)c6ccc3[nH]6)C=C5)C=C4)cc2)cc1
REMARK SMILES IDX 18 1 17 2 15 3 16 4 13 6 12 7 11 8 8 9 9 10 89 11 10 12
REMARK SMILES IDX 88 13 6 14 7 15 5 16 2 17 1 18 3 19 4 20 14 21 19 25 20 26
REMARK SMILES IDX 21 27 22 28 23 29 24 31 25 32 26 33 87 34 27 35 86 36 28 37
REMARK SMILES IDX 29 38 30 39 80 40 31 41 85 42 79 43 81 44 32 45 84 46 78 47
REMARK SMILES IDX 77 48 33 50 65 51 45 52 64 53 46 54 49 55 63 56 82 57 47 58
REMARK SMILES IDX 48 59 62 61 83 62 50 63 34 64 35 65 43 66 36 67 37 68 41 69
REMARK SMILES IDX 44 70 38 71 39 72 42 73 40 74 66 75 67 76 75 77 68 78 69 79
REMARK SMILES IDX 73 80 76 81 70 82 71 83 74 84 72 85 51 86 52 87 60 88 53 89
REMARK SMILES IDX 54 90 58 91 61 92 55 93 56 94 59 95 57 96
REMARK H PARENT 17 5 14 22 14 23 14 24 22 30 81 49 49 60
REMARK Flexibility Score: inf
ROOT
ATOM      1  C   UNL A   1      35.609  21.392  25.643  1.00  0.00     0.116 C 
ENDROOT
BRANCH   1   2
ATOM      2  N   UNL A   1      34.946  20.145  25.304  1.00  0.00    -0.351 N 
ATOM      3  C   UNL A   1      33.766  19.911  24.658  1.00  0.00     0.278 C 
ATOM      4  O   UNL A   1      33.441  18.735  24.475  1.00  0.00    -0.268 OA
ATOM      5  H   UNL A   1      35.429  19.335  25.586  1.00  0.00     0.163 HD
BRANCH   3   6
ATOM      6  C   UNL A   1      32.861  21.069  24.193  1.00  0.00     0.275 C 
BRANCH   6   7
ATOM      7  C   UNL A   1      31.812  21.431  25.266  1.00  0.00     0.111 C 
BRANCH   7   8
ATOM      8  C   UNL A   1      31.713  22.909  25.569  1.00  0.00    -0.041 A 
ATOM      9  C   UNL A   1      31.549  25.649  26.136  1.00  0.00     0.060 A 
ATOM     10  C   UNL A   1      30.685  25.075  25.198  1.00  0.00     0.016 A 
ATOM     11  C   UNL A   1      32.509  24.863  26.780  1.00  0.00     0.016 A 
ATOM     12  C   UNL A   1      30.781  23.717  24.901  1.00  0.00     0.005 A 
ATOM     13  C   UNL A   1      32.587  23.497  26.498  1.00  0.00     0.005 A 
BRANCH   9  14
ATOM     14  C   UNL A   1      31.384  27.081  26.451  1.00  0.00     0.338 C 
ATOM     15  O   UNL A   1      31.029  27.480  27.550  1.00  0.00    -0.246 OA
BRANCH  14  16
ATOM     16  O   UNL A   1      31.615  27.818  25.340  1.00  0.00    -0.456 OA
BRANCH  16  17
ATOM     17  C   UNL A   1      32.654  28.830  25.349  1.00  0.00     0.104 C 
ATOM     18  C   UNL A   1      33.107  28.949  23.886  1.00  0.00     0.056 C 
ATOM     19  C   UNL A   1      33.842  28.371  26.200  1.00  0.00     0.056 C 
ATOM     20  C   UNL A   1      32.117  30.196  25.799  1.00  0.00     0.056 C 
ENDBRANCH  16  17
ENDBRANCH  14  16
ENDBRANCH   9  14
ENDBRANCH   7   8
ENDBRANCH   6   7
BRANCH   6  21
ATOM     21  N   UNL A   1      32.275  20.754  22.868  1.00  0.00    -0.347 N 
ATOM     22  H   UNL A   1      31.685  21.529  22.565  1.00  0.00     0.345 HD
ATOM     23  H   UNL A   1      31.712  19.906  22.938  1.00  0.00     0.345 HD
ATOM     24  H   UNL A   1      33.022  20.610  22.190  1.00  0.00     0.345 HD
ENDBRANCH   6  21
ENDBRANCH   3   6
ENDBRANCH   1   2
BRANCH   1  25
ATOM     25  C   UNL A   1      36.936  21.550  24.906  1.00  0.00     0.023 C 
BRANCH  25  26
ATOM     26  C   UNL A   1      37.870  20.344  25.006  1.00  0.00     0.023 C 
BRANCH  26  27
ATOM     27  C   UNL A   1      39.154  20.574  25.795  1.00  0.00     0.116 C 
BRANCH  27  28
ATOM     28  N   UNL A   1      40.005  19.395  25.864  1.00  0.00    -0.352 N 
ATOM     29  C   UNL A   1      41.357  19.314  26.100  1.00  0.00     0.251 C 
ATOM     30  H   UNL A   1      39.548  18.534  25.722  1.00  0.00     0.163 HD
ATOM     31  O   UNL A   1      41.943  18.241  26.012  1.00  0.00    -0.269 OA
BRANCH  29  32
ATOM     32  C   UNL A   1      42.109  20.544  26.421  1.00  0.00     0.039 A 
ATOM     33  C   UNL A   1      42.617  21.316  25.373  1.00  0.00     0.014 A 
ATOM     34  C   UNL A   1      42.258  20.960  27.746  1.00  0.00     0.014 A 
ATOM     35  C   UNL A   1      43.188  22.558  25.648  1.00  0.00     0.010 A 
ATOM     36  C   UNL A   1      42.771  22.225  28.014  1.00  0.00     0.010 A 
ATOM     37  C   UNL A   1      43.220  23.045  26.966  1.00  0.00    -0.014 A 
BRANCH  37  38
ATOM     38  C   UNL A   1      43.666  24.427  27.271  1.00  0.00     0.031 A 
ATOM     39  C   UNL A   1      42.680  25.449  27.753  1.00  0.00     0.074 A 
ATOM     40  C   UNL A   1      44.940  24.781  27.014  1.00  0.00     0.049 A 
ATOM     41  N   UNL A   1      42.848  26.733  27.946  1.00  0.00    -0.248 NA
ATOM     42  C   UNL A   1      41.317  24.971  28.030  1.00  0.00     0.031 C 
ATOM     43  C   UNL A   1      45.980  23.888  26.503  1.00  0.00     0.029 A 
ATOM     44  N   UNL A   1      45.571  25.996  27.125  1.00  0.00    -0.354 N 
ATOM     45  C   UNL A   1      41.612  27.218  28.350  1.00  0.00     0.074 A 
ATOM     46  C   UNL A   1      40.692  26.100  28.336  1.00  0.00     0.031 C 
ATOM     47  C   UNL A   1      47.121  24.580  26.352  1.00  0.00     0.029 A 
ATOM     48  C   UNL A   1      46.881  25.973  26.714  1.00  0.00     0.049 A 
ATOM     49  H   UNL A   1      45.127  26.805  27.466  1.00  0.00     0.167 HD
ATOM     50  C   UNL A   1      41.282  28.479  28.717  1.00  0.00     0.037 A 
ATOM     51  C   UNL A   1      47.784  26.969  26.618  1.00  0.00     0.037 A 
ATOM     52  C   UNL A   1      42.206  29.582  28.756  1.00  0.00     0.049 A 
ATOM     53  C   UNL A   1      47.382  28.365  27.008  1.00  0.00     0.074 A 
ATOM     54  C   UNL A   1      41.985  30.876  29.193  1.00  0.00     0.029 A 
ATOM     55  N   UNL A   1      43.525  29.519  28.337  1.00  0.00    -0.354 N 
ATOM     56  N   UNL A   1      46.229  28.798  27.454  1.00  0.00    -0.248 NA
ATOM     57  C   UNL A   1      48.406  29.411  26.874  1.00  0.00     0.031 C 
ATOM     58  C   UNL A   1      43.160  31.610  28.996  1.00  0.00     0.029 A 
ATOM     59  C   UNL A   1      44.124  30.762  28.475  1.00  0.00     0.049 A 
ATOM     60  H   UNL A   1      43.972  28.712  27.992  1.00  0.00     0.167 HD
ATOM     61  C   UNL A   1      46.391  30.160  27.672  1.00  0.00     0.074 A 
ATOM     62  C   UNL A   1      47.760  30.479  27.322  1.00  0.00     0.031 C 
ATOM     63  C   UNL A   1      45.487  31.064  28.118  1.00  0.00     0.037 A 
BRANCH  50  64
ATOM     64  C   UNL A   1      39.857  28.735  29.110  1.00  0.00     0.064 A 
ATOM     65  C   UNL A   1      38.895  29.126  28.168  1.00  0.00     0.173 A 
ATOM     66  C   UNL A   1      39.440  28.543  30.436  1.00  0.00     0.173 A 
ATOM     67  F   UNL A   1      39.247  29.332  26.890  1.00  0.00    -0.203 F 
ATOM     68  C   UNL A   1      37.572  29.341  28.543  1.00  0.00     0.198 A 
ATOM     69  C   UNL A   1      38.110  28.734  30.803  1.00  0.00     0.198 A 
ATOM     70  F   UNL A   1      40.320  28.165  31.375  1.00  0.00    -0.203 F 
ATOM     71  F   UNL A   1      36.679  29.755  27.633  1.00  0.00    -0.200 F 
ATOM     72  C   UNL A   1      37.179  29.139  29.857  1.00  0.00     0.200 A 
ATOM     73  F   UNL A   1      37.730  28.528  32.071  1.00  0.00    -0.200 F 
ATOM     74  F   UNL A   1      35.903  29.339  30.215  1.00  0.00    -0.200 F 
ENDBRANCH  50  64
BRANCH  51  75
ATOM     75  C   UNL A   1      49.157  26.680  26.134  1.00  0.00     0.064 A 
ATOM     76  C   UNL A   1      50.148  26.229  27.017  1.00  0.00     0.173 A 
ATOM     77  C   UNL A   1      49.508  26.845  24.786  1.00  0.00     0.173 A 
ATOM     78  F   UNL A   1      49.865  26.076  28.318  1.00  0.00    -0.203 F 
ATOM     79  C   UNL A   1      51.442  25.966  26.572  1.00  0.00     0.198 A 
ATOM     80  C   UNL A   1      50.795  26.559  24.338  1.00  0.00     0.198 A 
ATOM     81  F   UNL A   1      48.594  27.273  23.902  1.00  0.00    -0.203 F 
ATOM     82  F   UNL A   1      52.380  25.572  27.444  1.00  0.00    -0.200 F 
ATOM     83  C   UNL A   1      51.764  26.126  25.233  1.00  0.00     0.200 A 
ATOM     84  F   UNL A   1      51.098  26.703  23.041  1.00  0.00    -0.200 F 
ATOM     85  F   UNL A   1      53.007  25.869  24.805  1.00  0.00    -0.200 F 
ENDBRANCH  51  75
BRANCH  63  86
ATOM     86  C   UNL A   1      45.947  32.482  28.266  1.00  0.00     0.064 A 
ATOM     87  C   UNL A   1      45.794  33.412  27.228  1.00  0.00     0.173 A 
ATOM     88  C   UNL A   1      46.501  32.930  29.475  1.00  0.00     0.173 A 
ATOM     89  F   UNL A   1      45.285  33.026  26.047  1.00  0.00    -0.203 F 
ATOM     90  C   UNL A   1      46.189  34.736  27.390  1.00  0.00     0.198 A 
ATOM     91  C   UNL A   1      46.872  34.261  29.643  1.00  0.00     0.198 A 
ATOM     92  F   UNL A   1      46.666  32.078  30.499  1.00  0.00    -0.203 F 
ATOM     93  F   UNL A   1      46.064  35.601  26.373  1.00  0.00    -0.200 F 
ATOM     94  C   UNL A   1      46.720  35.161  28.599  1.00  0.00     0.200 A 
ATOM     95  F   UNL A   1      47.375  34.671  30.815  1.00  0.00    -0.200 F 
ATOM     96  F   UNL A   1      47.089  36.440  28.758  1.00  0.00    -0.200 F 
ENDBRANCH  63  86
ENDBRANCH  37  38
ENDBRANCH  29  32
ENDBRANCH  27  28
ENDBRANCH  26  27
ENDBRANCH  25  26
ENDBRANCH   1  25
TORSDOF 17
ENDMDL
