MODEL 1
REMARK VINA RESULT:     -12.2      0.000      0.000
REMARK SMILES Cn1ccc(Nc2nccc(C(=O)NCCCCNC(=O)c3ccc(-c4c5nc(c(-c6c(F)c(F)c(F)c(F)c6F)c6ccc([nH]6)c(-c6c(F)c(F)c(F)c(F)c6F)c6nc(c(-c7c(F)c(F)c(F)c(F)c7F)c7ccc4[nH]7)C=C6)C=C5)cc3)c2N)n1
REMARK SMILES IDX 16 1 15 2 14 3 12 4 13 5 11 7 7 8 8 9 85 10 9 11 10 12 6 13
REMARK SMILES IDX 5 15 1 16 2 17 3 18 87 19 4 20 86 21 17 24 18 25 19 26 20 27
REMARK SMILES IDX 21 29 22 30 23 31 84 32 24 33 83 34 25 35 26 36 27 37 77 38
REMARK SMILES IDX 28 39 82 40 76 41 78 42 29 43 81 44 75 45 74 46 30 48 62 49
REMARK SMILES IDX 42 50 61 51 43 52 46 53 60 54 79 55 44 56 45 57 59 59 80 60
REMARK SMILES IDX 47 61 31 62 32 63 40 64 33 65 34 66 38 67 41 68 35 69 36 70
REMARK SMILES IDX 39 71 37 72 63 73 64 74 72 75 65 76 66 77 70 78 73 79 67 80
REMARK SMILES IDX 68 81 71 82 69 83 48 84 49 85 57 86 50 87 51 88 55 89 58 90
REMARK SMILES IDX 52 91 53 92 56 93 54 94
REMARK H PARENT 14 6 6 14 86 22 86 23 19 28 78 47 46 58
REMARK Flexibility Score: inf
ROOT
ATOM      1  C   UNL A   1      32.173  27.532  26.839  1.00  0.00     0.023 C 
ENDROOT
BRANCH   1   2
ATOM      2  C   UNL A   1      30.998  26.638  27.251  1.00  0.00     0.116 C 
BRANCH   2   3
ATOM      3  N   UNL A   1      31.011  25.415  26.472  1.00  0.00    -0.352 N 
ATOM      4  C   UNL A   1      30.690  25.164  25.161  1.00  0.00     0.253 C 
ATOM      5  O   UNL A   1      30.706  23.980  24.809  1.00  0.00    -0.269 OA
ATOM      6  H   UNL A   1      31.301  24.621  26.976  1.00  0.00     0.163 HD
BRANCH   4   7
ATOM      7  C   UNL A   1      30.432  26.208  24.122  1.00  0.00     0.068 A 
ATOM      8  C   UNL A   1      29.241  27.915  22.903  1.00  0.00     0.155 A 
ATOM      9  N   UNL A   1      30.299  28.191  22.113  1.00  0.00    -0.237 NA
ATOM     10  C   UNL A   1      29.223  26.859  23.852  1.00  0.00     0.088 A 
ATOM     11  C   UNL A   1      31.426  27.495  22.349  1.00  0.00     0.114 A 
ATOM     12  C   UNL A   1      31.550  26.544  23.345  1.00  0.00     0.036 A 
BRANCH   8  13
ATOM     13  N   UNL A   1      28.123  28.771  22.776  1.00  0.00    -0.322 N 
ATOM     14  H   UNL A   1      27.230  28.381  22.918  1.00  0.00     0.170 HD
BRANCH  13  15
ATOM     15  C   UNL A   1      28.195  30.092  22.473  1.00  0.00     0.153 A 
ATOM     16  C   UNL A   1      29.112  33.390  23.126  1.00  0.00     0.173 C 
ATOM     17  N   UNL A   1      28.597  32.171  22.551  1.00  0.00    -0.274 N 
ATOM     18  C   UNL A   1      28.271  31.943  21.249  1.00  0.00     0.110 A 
ATOM     19  N   UNL A   1      28.464  31.085  23.326  1.00  0.00    -0.155 NA
ATOM     20  C   UNL A   1      28.028  30.591  21.160  1.00  0.00     0.068 A 
ENDBRANCH  13  15
ENDBRANCH   8  13
BRANCH  10  21
ATOM     21  N   UNL A   1      27.965  26.329  24.219  1.00  0.00    -0.395 N 
ATOM     22  H   UNL A   1      27.139  26.758  23.900  1.00  0.00     0.156 HD
ATOM     23  H   UNL A   1      27.917  25.532  24.795  1.00  0.00     0.156 HD
ENDBRANCH  10  21
ENDBRANCH   4   7
ENDBRANCH   2   3
ENDBRANCH   1   2
BRANCH   1  24
ATOM     24  C   UNL A   1      31.781  28.895  26.279  1.00  0.00     0.023 C 
BRANCH  24  25
ATOM     25  C   UNL A   1      32.952  29.834  26.034  1.00  0.00     0.116 C 
BRANCH  25  26
ATOM     26  N   UNL A   1      32.699  31.205  26.452  1.00  0.00    -0.352 N 
ATOM     27  C   UNL A   1      33.428  31.992  27.313  1.00  0.00     0.251 C 
ATOM     28  H   UNL A   1      31.898  31.626  26.067  1.00  0.00     0.163 HD
ATOM     29  O   UNL A   1      33.033  33.104  27.626  1.00  0.00    -0.269 OA
BRANCH  27  30
ATOM     30  C   UNL A   1      34.679  31.456  27.892  1.00  0.00     0.039 A 
ATOM     31  C   UNL A   1      35.767  32.317  28.043  1.00  0.00     0.014 A 
ATOM     32  C   UNL A   1      34.763  30.129  28.319  1.00  0.00     0.014 A 
ATOM     33  C   UNL A   1      36.919  31.860  28.685  1.00  0.00     0.010 A 
ATOM     34  C   UNL A   1      35.873  29.703  29.035  1.00  0.00     0.010 A 
ATOM     35  C   UNL A   1      36.966  30.562  29.219  1.00  0.00    -0.014 A 
BRANCH  35  36
ATOM     36  C   UNL A   1      38.156  30.089  29.965  1.00  0.00     0.031 A 
ATOM     37  C   UNL A   1      38.395  30.548  31.376  1.00  0.00     0.074 A 
ATOM     38  C   UNL A   1      39.047  29.287  29.353  1.00  0.00     0.049 A 
ATOM     39  N   UNL A   1      39.378  30.254  32.188  1.00  0.00    -0.248 NA
ATOM     40  C   UNL A   1      37.413  31.489  31.943  1.00  0.00     0.031 C 
ATOM     41  C   UNL A   1      38.963  28.834  27.962  1.00  0.00     0.029 A 
ATOM     42  N   UNL A   1      40.202  28.711  29.819  1.00  0.00    -0.354 N 
ATOM     43  C   UNL A   1      39.140  30.978  33.348  1.00  0.00     0.074 A 
ATOM     44  C   UNL A   1      37.956  31.775  33.116  1.00  0.00     0.031 C 
ATOM     45  C   UNL A   1      39.999  28.023  27.700  1.00  0.00     0.029 A 
ATOM     46  C   UNL A   1      40.837  27.922  28.891  1.00  0.00     0.049 A 
ATOM     47  H   UNL A   1      40.542  28.848  30.733  1.00  0.00     0.167 HD
ATOM     48  C   UNL A   1      39.829  30.956  34.514  1.00  0.00     0.037 A 
ATOM     49  C   UNL A   1      41.964  27.194  28.995  1.00  0.00     0.037 A 
ATOM     50  C   UNL A   1      40.990  30.138  34.748  1.00  0.00     0.049 A 
ATOM     51  C   UNL A   1      42.696  27.166  30.310  1.00  0.00     0.074 A 
ATOM     52  C   UNL A   1      41.721  29.990  35.913  1.00  0.00     0.029 A 
ATOM     53  N   UNL A   1      41.588  29.329  33.794  1.00  0.00    -0.354 N 
ATOM     54  N   UNL A   1      42.412  27.786  31.429  1.00  0.00    -0.248 NA
ATOM     55  C   UNL A   1      43.899  26.325  30.378  1.00  0.00     0.031 C 
ATOM     56  C   UNL A   1      42.788  29.124  35.652  1.00  0.00     0.029 A 
ATOM     57  C   UNL A   1      42.692  28.693  34.338  1.00  0.00     0.049 A 
ATOM     58  H   UNL A   1      41.275  29.221  32.867  1.00  0.00     0.167 HD
ATOM     59  C   UNL A   1      43.381  27.392  32.340  1.00  0.00     0.074 A 
ATOM     60  C   UNL A   1      44.250  26.463  31.648  1.00  0.00     0.031 C 
ATOM     61  C   UNL A   1      43.542  27.767  33.633  1.00  0.00     0.037 A 
BRANCH  48  62
ATOM     62  C   UNL A   1      39.337  31.834  35.627  1.00  0.00     0.064 A 
ATOM     63  C   UNL A   1      39.752  33.170  35.749  1.00  0.00     0.173 A 
ATOM     64  C   UNL A   1      38.416  31.346  36.566  1.00  0.00     0.173 A 
ATOM     65  F   UNL A   1      40.642  33.682  34.886  1.00  0.00    -0.203 F 
ATOM     66  C   UNL A   1      39.285  33.975  36.786  1.00  0.00     0.198 A 
ATOM     67  C   UNL A   1      37.928  32.163  37.583  1.00  0.00     0.198 A 
ATOM     68  F   UNL A   1      37.984  30.078  36.494  1.00  0.00    -0.203 F 
ATOM     69  F   UNL A   1      39.735  35.230  36.910  1.00  0.00    -0.200 F 
ATOM     70  C   UNL A   1      38.368  33.473  37.696  1.00  0.00     0.200 A 
ATOM     71  F   UNL A   1      37.032  31.681  38.456  1.00  0.00    -0.200 F 
ATOM     72  F   UNL A   1      37.915  34.251  38.689  1.00  0.00    -0.200 F 
ENDBRANCH  48  62
BRANCH  49  73
ATOM     73  C   UNL A   1      42.445  26.398  27.836  1.00  0.00     0.064 A 
ATOM     74  C   UNL A   1      43.408  26.915  26.957  1.00  0.00     0.173 A 
ATOM     75  C   UNL A   1      41.952  25.111  27.577  1.00  0.00     0.173 A 
ATOM     76  F   UNL A   1      43.897  28.149  27.152  1.00  0.00    -0.203 F 
ATOM     77  C   UNL A   1      43.841  26.187  25.852  1.00  0.00     0.198 A 
ATOM     78  C   UNL A   1      42.406  24.371  26.488  1.00  0.00     0.198 A 
ATOM     79  F   UNL A   1      41.035  24.567  28.391  1.00  0.00    -0.203 F 
ATOM     80  F   UNL A   1      44.726  26.725  25.002  1.00  0.00    -0.200 F 
ATOM     81  C   UNL A   1      43.343  24.914  25.620  1.00  0.00     0.200 A 
ATOM     82  F   UNL A   1      41.934  23.136  26.276  1.00  0.00    -0.200 F 
ATOM     83  F   UNL A   1      43.761  24.212  24.558  1.00  0.00    -0.200 F 
ENDBRANCH  49  73
BRANCH  61  84
ATOM     84  C   UNL A   1      44.682  27.150  34.388  1.00  0.00     0.064 A 
ATOM     85  C   UNL A   1      45.944  27.761  34.446  1.00  0.00     0.173 A 
ATOM     86  C   UNL A   1      44.503  25.943  35.082  1.00  0.00     0.173 A 
ATOM     87  F   UNL A   1      46.169  28.907  33.787  1.00  0.00    -0.203 F 
ATOM     88  C   UNL A   1      46.993  27.169  35.144  1.00  0.00     0.198 A 
ATOM     89  C   UNL A   1      45.546  25.371  35.805  1.00  0.00     0.198 A 
ATOM     90  F   UNL A   1      43.315  25.323  35.064  1.00  0.00    -0.203 F 
ATOM     91  F   UNL A   1      48.205  27.743  35.139  1.00  0.00    -0.200 F 
ATOM     92  C   UNL A   1      46.792  25.979  35.827  1.00  0.00     0.200 A 
ATOM     93  F   UNL A   1      45.347  24.229  36.476  1.00  0.00    -0.200 F 
ATOM     94  F   UNL A   1      47.803  25.414  36.501  1.00  0.00    -0.200 F 
ENDBRANCH  61  84
ENDBRANCH  35  36
ENDBRANCH  27  30
ENDBRANCH  25  26
ENDBRANCH  24  25
ENDBRANCH   1  24
TORSDOF 14
ENDMDL
MODEL 2
REMARK VINA RESULT:     -12.1      1.862      3.188
REMARK SMILES Cn1ccc(Nc2nccc(C(=O)NCCCCNC(=O)c3ccc(-c4c5nc(c(-c6c(F)c(F)c(F)c(F)c6F)c6ccc([nH]6)c(-c6c(F)c(F)c(F)c(F)c6F)c6nc(c(-c7c(F)c(F)c(F)c(F)c7F)c7ccc4[nH]7)C=C6)C=C5)cc3)c2N)n1
REMARK SMILES IDX 16 1 15 2 14 3 12 4 13 5 11 7 7 8 8 9 85 10 9 11 10 12 6 13
REMARK SMILES IDX 5 15 1 16 2 17 3 18 87 19 4 20 86 21 17 24 18 25 19 26 20 27
REMARK SMILES IDX 21 29 22 30 23 31 84 32 24 33 83 34 25 35 26 36 27 37 77 38
REMARK SMILES IDX 28 39 82 40 76 41 78 42 29 43 81 44 75 45 74 46 30 48 62 49
REMARK SMILES IDX 42 50 61 51 43 52 46 53 60 54 79 55 44 56 45 57 59 59 80 60
REMARK SMILES IDX 47 61 31 62 32 63 40 64 33 65 34 66 38 67 41 68 35 69 36 70
REMARK SMILES IDX 39 71 37 72 63 73 64 74 72 75 65 76 66 77 70 78 73 79 67 80
REMARK SMILES IDX 68 81 71 82 69 83 48 84 49 85 57 86 50 87 51 88 55 89 58 90
REMARK SMILES IDX 52 91 53 92 56 93 54 94
REMARK H PARENT 14 6 6 14 86 22 86 23 19 28 78 47 46 58
REMARK Flexibility Score: inf
ROOT
ATOM      1  C   UNL A   1      31.812  30.489  26.909  1.00  0.00     0.023 C 
ENDROOT
BRANCH   1   2
ATOM      2  C   UNL A   1      33.248  30.111  27.293  1.00  0.00     0.116 C 
BRANCH   2   3
ATOM      3  N   UNL A   1      33.399  28.669  27.282  1.00  0.00    -0.352 N 
ATOM      4  C   UNL A   1      33.113  27.728  26.324  1.00  0.00     0.253 C 
ATOM      5  O   UNL A   1      33.261  26.547  26.654  1.00  0.00    -0.269 OA
ATOM      6  H   UNL A   1      33.773  28.297  28.114  1.00  0.00     0.163 HD
BRANCH   4   7
ATOM      7  C   UNL A   1      32.746  28.027  24.906  1.00  0.00     0.068 A 
ATOM      8  C   UNL A   1      31.339  28.387  22.980  1.00  0.00     0.155 A 
ATOM      9  N   UNL A   1      32.380  28.732  22.194  1.00  0.00    -0.237 NA
ATOM     10  C   UNL A   1      31.482  27.922  24.314  1.00  0.00     0.088 A 
ATOM     11  C   UNL A   1      33.593  28.751  22.773  1.00  0.00     0.114 A 
ATOM     12  C   UNL A   1      33.816  28.452  24.105  1.00  0.00     0.036 A 
BRANCH   8  13
ATOM     13  N   UNL A   1      30.050  28.545  22.421  1.00  0.00    -0.322 N 
ATOM     14  H   UNL A   1      29.579  27.734  22.120  1.00  0.00     0.170 HD
BRANCH  13  15
ATOM     15  C   UNL A   1      29.417  29.736  22.271  1.00  0.00     0.153 A 
ATOM     16  C   UNL A   1      27.848  32.211  20.385  1.00  0.00     0.173 C 
ATOM     17  N   UNL A   1      28.426  31.415  21.440  1.00  0.00    -0.274 N 
ATOM     18  C   UNL A   1      28.195  31.520  22.778  1.00  0.00     0.110 A 
ATOM     19  N   UNL A   1      29.241  30.399  21.123  1.00  0.00    -0.155 NA
ATOM     20  C   UNL A   1      28.807  30.425  23.345  1.00  0.00     0.068 A 
ENDBRANCH  13  15
ENDBRANCH   8  13
BRANCH  10  21
ATOM     21  N   UNL A   1      30.451  27.112  24.841  1.00  0.00    -0.395 N 
ATOM     22  H   UNL A   1      29.566  27.501  25.025  1.00  0.00     0.156 HD
ATOM     23  H   UNL A   1      30.619  26.160  25.024  1.00  0.00     0.156 HD
ENDBRANCH  10  21
ENDBRANCH   4   7
ENDBRANCH   2   3
ENDBRANCH   1   2
BRANCH   1  24
ATOM     24  C   UNL A   1      31.528  31.986  26.871  1.00  0.00     0.023 C 
BRANCH  24  25
ATOM     25  C   UNL A   1      32.739  32.863  27.151  1.00  0.00     0.116 C 
BRANCH  25  26
ATOM     26  N   UNL A   1      32.398  34.195  27.626  1.00  0.00    -0.352 N 
ATOM     27  C   UNL A   1      32.993  34.933  28.622  1.00  0.00     0.251 C 
ATOM     28  H   UNL A   1      31.639  34.627  27.174  1.00  0.00     0.163 HD
ATOM     29  O   UNL A   1      32.532  36.013  28.959  1.00  0.00    -0.269 OA
BRANCH  27  30
ATOM     30  C   UNL A   1      34.178  34.383  29.315  1.00  0.00     0.039 A 
ATOM     31  C   UNL A   1      33.982  33.583  30.442  1.00  0.00     0.014 A 
ATOM     32  C   UNL A   1      35.467  34.620  28.834  1.00  0.00     0.014 A 
ATOM     33  C   UNL A   1      35.078  32.967  31.046  1.00  0.00     0.010 A 
ATOM     34  C   UNL A   1      36.546  33.937  29.380  1.00  0.00     0.010 A 
ATOM     35  C   UNL A   1      36.363  33.109  30.497  1.00  0.00    -0.014 A 
BRANCH  35  36
ATOM     36  C   UNL A   1      37.525  32.402  31.087  1.00  0.00     0.031 A 
ATOM     37  C   UNL A   1      38.014  32.767  32.460  1.00  0.00     0.074 A 
ATOM     38  C   UNL A   1      38.169  31.468  30.362  1.00  0.00     0.049 A 
ATOM     39  N   UNL A   1      39.015  32.272  33.141  1.00  0.00    -0.248 NA
ATOM     40  C   UNL A   1      37.301  33.854  33.151  1.00  0.00     0.031 C 
ATOM     41  C   UNL A   1      37.835  31.081  28.990  1.00  0.00     0.029 A 
ATOM     42  N   UNL A   1      39.244  30.675  30.677  1.00  0.00    -0.354 N 
ATOM     43  C   UNL A   1      39.059  32.991  34.327  1.00  0.00     0.074 A 
ATOM     44  C   UNL A   1      38.025  34.000  34.249  1.00  0.00     0.031 C 
ATOM     45  C   UNL A   1      38.662  30.101  28.595  1.00  0.00     0.029 A 
ATOM     46  C   UNL A   1      39.604  29.811  29.672  1.00  0.00     0.049 A 
ATOM     47  H   UNL A   1      39.712  30.720  31.542  1.00  0.00     0.167 HD
ATOM     48  C   UNL A   1      39.868  32.808  35.398  1.00  0.00     0.037 A 
ATOM     49  C   UNL A   1      40.579  28.884  29.630  1.00  0.00     0.037 A 
ATOM     50  C   UNL A   1      40.875  31.783  35.480  1.00  0.00     0.049 A 
ATOM     51  C   UNL A   1      41.446  28.682  30.843  1.00  0.00     0.074 A 
ATOM     52  C   UNL A   1      41.701  31.467  36.544  1.00  0.00     0.029 A 
ATOM     53  N   UNL A   1      41.191  30.906  34.453  1.00  0.00    -0.354 N 
ATOM     54  N   UNL A   1      41.420  29.310  31.993  1.00  0.00    -0.248 NA
ATOM     55  C   UNL A   1      42.470  27.632  30.755  1.00  0.00     0.031 C 
ATOM     56  C   UNL A   1      42.547  30.427  36.146  1.00  0.00     0.029 A 
ATOM     57  C   UNL A   1      42.215  30.061  34.852  1.00  0.00     0.049 A 
ATOM     58  H   UNL A   1      40.754  30.886  33.571  1.00  0.00     0.167 HD
ATOM     59  C   UNL A   1      42.402  28.716  32.774  1.00  0.00     0.074 A 
ATOM     60  C   UNL A   1      42.992  27.664  31.973  1.00  0.00     0.031 C 
ATOM     61  C   UNL A   1      42.785  29.016  34.040  1.00  0.00     0.037 A 
BRANCH  48  62
ATOM     62  C   UNL A   1      39.686  33.727  36.570  1.00  0.00     0.064 A 
ATOM     63  C   UNL A   1      38.870  33.379  37.658  1.00  0.00     0.173 A 
ATOM     64  C   UNL A   1      40.358  34.957  36.622  1.00  0.00     0.173 A 
ATOM     65  F   UNL A   1      38.195  32.221  37.652  1.00  0.00    -0.203 F 
ATOM     66  C   UNL A   1      38.712  34.241  38.741  1.00  0.00     0.198 A 
ATOM     67  C   UNL A   1      40.222  35.802  37.721  1.00  0.00     0.198 A 
ATOM     68  F   UNL A   1      41.153  35.338  35.610  1.00  0.00    -0.203 F 
ATOM     69  F   UNL A   1      37.889  33.908  39.744  1.00  0.00    -0.200 F 
ATOM     70  C   UNL A   1      39.394  35.447  38.775  1.00  0.00     0.200 A 
ATOM     71  F   UNL A   1      40.890  36.964  37.758  1.00  0.00    -0.200 F 
ATOM     72  F   UNL A   1      39.247  36.272  39.821  1.00  0.00    -0.200 F 
ENDBRANCH  48  62
BRANCH  49  73
ATOM     73  C   UNL A   1      40.759  28.049  28.414  1.00  0.00     0.064 A 
ATOM     74  C   UNL A   1      40.137  26.797  28.302  1.00  0.00     0.173 A 
ATOM     75  C   UNL A   1      41.559  28.477  27.344  1.00  0.00     0.173 A 
ATOM     76  F   UNL A   1      39.376  26.336  29.307  1.00  0.00    -0.203 F 
ATOM     77  C   UNL A   1      40.325  25.996  27.179  1.00  0.00     0.198 A 
ATOM     78  C   UNL A   1      41.724  27.687  26.209  1.00  0.00     0.198 A 
ATOM     79  F   UNL A   1      42.171  29.669  27.398  1.00  0.00    -0.203 F 
ATOM     80  F   UNL A   1      39.757  24.784  27.120  1.00  0.00    -0.200 F 
ATOM     81  C   UNL A   1      41.115  26.443  26.131  1.00  0.00     0.200 A 
ATOM     82  F   UNL A   1      42.476  28.129  25.192  1.00  0.00    -0.200 F 
ATOM     83  F   UNL A   1      41.295  25.674  25.048  1.00  0.00    -0.200 F 
ENDBRANCH  49  73
BRANCH  61  84
ATOM     84  C   UNL A   1      43.872  28.176  34.643  1.00  0.00     0.064 A 
ATOM     85  C   UNL A   1      43.593  26.961  35.287  1.00  0.00     0.173 A 
ATOM     86  C   UNL A   1      45.213  28.581  34.555  1.00  0.00     0.173 A 
ATOM     87  F   UNL A   1      42.325  26.539  35.410  1.00  0.00    -0.203 F 
ATOM     88  C   UNL A   1      44.613  26.199  35.849  1.00  0.00     0.198 A 
ATOM     89  C   UNL A   1      46.233  27.800  35.090  1.00  0.00     0.198 A 
ATOM     90  F   UNL A   1      45.534  29.730  33.943  1.00  0.00    -0.203 F 
ATOM     91  F   UNL A   1      44.316  25.070  36.508  1.00  0.00    -0.200 F 
ATOM     92  C   UNL A   1      45.931  26.616  35.745  1.00  0.00     0.200 A 
ATOM     93  F   UNL A   1      47.508  28.196  34.977  1.00  0.00    -0.200 F 
ATOM     94  F   UNL A   1      46.912  25.878  36.284  1.00  0.00    -0.200 F 
ENDBRANCH  61  84
ENDBRANCH  35  36
ENDBRANCH  27  30
ENDBRANCH  25  26
ENDBRANCH  24  25
ENDBRANCH   1  24
TORSDOF 14
ENDMDL
MODEL 3
REMARK VINA RESULT:     -12.1      2.188      3.889
REMARK SMILES Cn1ccc(Nc2nccc(C(=O)NCCCCNC(=O)c3ccc(-c4c5nc(c(-c6c(F)c(F)c(F)c(F)c6F)c6ccc([nH]6)c(-c6c(F)c(F)c(F)c(F)c6F)c6nc(c(-c7c(F)c(F)c(F)c(F)c7F)c7ccc4[nH]7)C=C6)C=C5)cc3)c2N)n1
REMARK SMILES IDX 16 1 15 2 14 3 12 4 13 5 11 7 7 8 8 9 85 10 9 11 10 12 6 13
REMARK SMILES IDX 5 15 1 16 2 17 3 18 87 19 4 20 86 21 17 24 18 25 19 26 20 27
REMARK SMILES IDX 21 29 22 30 23 31 84 32 24 33 83 34 25 35 26 36 27 37 77 38
REMARK SMILES IDX 28 39 82 40 76 41 78 42 29 43 81 44 75 45 74 46 30 48 62 49
REMARK SMILES IDX 42 50 61 51 43 52 46 53 60 54 79 55 44 56 45 57 59 59 80 60
REMARK SMILES IDX 47 61 31 62 32 63 40 64 33 65 34 66 38 67 41 68 35 69 36 70
REMARK SMILES IDX 39 71 37 72 63 73 64 74 72 75 65 76 66 77 70 78 73 79 67 80
REMARK SMILES IDX 68 81 71 82 69 83 48 84 49 85 57 86 50 87 51 88 55 89 58 90
REMARK SMILES IDX 52 91 53 92 56 93 54 94
REMARK H PARENT 14 6 6 14 86 22 86 23 19 28 78 47 46 58
REMARK Flexibility Score: inf
ROOT
ATOM      1  C   UNL A   1      31.788  29.925  26.297  1.00  0.00     0.023 C 
ENDROOT
BRANCH   1   2
ATOM      2  C   UNL A   1      32.524  29.484  25.026  1.00  0.00     0.116 C 
BRANCH   2   3
ATOM      3  N   UNL A   1      31.663  29.658  23.872  1.00  0.00    -0.352 N 
ATOM      4  C   UNL A   1      31.047  28.750  23.047  1.00  0.00     0.253 C 
ATOM      5  O   UNL A   1      30.449  29.213  22.071  1.00  0.00    -0.269 OA
ATOM      6  H   UNL A   1      31.490  30.599  23.637  1.00  0.00     0.163 HD
BRANCH   4   7
ATOM      7  C   UNL A   1      30.961  27.279  23.298  1.00  0.00     0.068 A 
ATOM      8  C   UNL A   1      31.383  24.922  23.001  1.00  0.00     0.155 A 
ATOM      9  N   UNL A   1      30.675  24.583  24.099  1.00  0.00    -0.237 NA
ATOM     10  C   UNL A   1      31.466  26.247  22.498  1.00  0.00     0.088 A 
ATOM     11  C   UNL A   1      30.139  25.593  24.807  1.00  0.00     0.114 A 
ATOM     12  C   UNL A   1      30.285  26.929  24.476  1.00  0.00     0.036 A 
BRANCH   8  13
ATOM     13  N   UNL A   1      32.095  23.879  22.366  1.00  0.00    -0.322 N 
ATOM     14  H   UNL A   1      31.763  23.562  21.495  1.00  0.00     0.170 HD
BRANCH  13  15
ATOM     15  C   UNL A   1      33.205  23.285  22.874  1.00  0.00     0.153 A 
ATOM     16  C   UNL A   1      36.597  23.185  23.665  1.00  0.00     0.173 C 
ATOM     17  N   UNL A   1      35.196  22.894  23.485  1.00  0.00    -0.274 N 
ATOM     18  C   UNL A   1      34.458  21.947  24.129  1.00  0.00     0.110 A 
ATOM     19  N   UNL A   1      34.470  23.650  22.648  1.00  0.00    -0.155 NA
ATOM     20  C   UNL A   1      33.151  22.192  23.771  1.00  0.00     0.068 A 
ENDBRANCH  13  15
ENDBRANCH   8  13
BRANCH  10  21
ATOM     21  N   UNL A   1      31.753  26.411  21.124  1.00  0.00    -0.395 N 
ATOM     22  H   UNL A   1      31.347  27.153  20.622  1.00  0.00     0.156 HD
ATOM     23  H   UNL A   1      32.359  25.781  20.670  1.00  0.00     0.156 HD
ENDBRANCH  10  21
ENDBRANCH   4   7
ENDBRANCH   2   3
ENDBRANCH   1   2
BRANCH   1  24
ATOM     24  C   UNL A   1      31.575  31.430  26.429  1.00  0.00     0.023 C 
BRANCH  24  25
ATOM     25  C   UNL A   1      32.739  32.176  27.062  1.00  0.00     0.116 C 
BRANCH  25  26
ATOM     26  N   UNL A   1      32.427  33.552  27.417  1.00  0.00    -0.352 N 
ATOM     27  C   UNL A   1      33.049  34.368  28.332  1.00  0.00     0.251 C 
ATOM     28  H   UNL A   1      31.668  33.954  26.937  1.00  0.00     0.163 HD
ATOM     29  O   UNL A   1      32.610  35.482  28.574  1.00  0.00    -0.269 OA
BRANCH  27  30
ATOM     30  C   UNL A   1      34.235  33.863  29.057  1.00  0.00     0.039 A 
ATOM     31  C   UNL A   1      34.046  32.945  30.091  1.00  0.00     0.014 A 
ATOM     32  C   UNL A   1      35.523  34.262  28.693  1.00  0.00     0.014 A 
ATOM     33  C   UNL A   1      35.156  32.375  30.715  1.00  0.00     0.010 A 
ATOM     34  C   UNL A   1      36.626  33.630  29.253  1.00  0.00     0.010 A 
ATOM     35  C   UNL A   1      36.453  32.685  30.275  1.00  0.00    -0.014 A 
BRANCH  35  36
ATOM     36  C   UNL A   1      37.638  32.033  30.882  1.00  0.00     0.031 A 
ATOM     37  C   UNL A   1      38.099  32.431  32.256  1.00  0.00     0.074 A 
ATOM     38  C   UNL A   1      38.328  31.120  30.173  1.00  0.00     0.049 A 
ATOM     39  N   UNL A   1      39.114  31.985  32.950  1.00  0.00    -0.248 NA
ATOM     40  C   UNL A   1      37.336  33.495  32.929  1.00  0.00     0.031 C 
ATOM     41  C   UNL A   1      38.021  30.706  28.801  1.00  0.00     0.029 A 
ATOM     42  N   UNL A   1      39.431  30.375  30.504  1.00  0.00    -0.354 N 
ATOM     43  C   UNL A   1      39.118  32.718  34.129  1.00  0.00     0.074 A 
ATOM     44  C   UNL A   1      38.044  33.681  34.032  1.00  0.00     0.031 C 
ATOM     45  C   UNL A   1      38.892  29.757  28.423  1.00  0.00     0.029 A 
ATOM     46  C   UNL A   1      39.836  29.517  29.511  1.00  0.00     0.049 A 
ATOM     47  H   UNL A   1      39.889  30.448  31.373  1.00  0.00     0.167 HD
ATOM     48  C   UNL A   1      39.924  32.579  35.208  1.00  0.00     0.037 A 
ATOM     49  C   UNL A   1      40.849  28.632  29.487  1.00  0.00     0.037 A 
ATOM     50  C   UNL A   1      40.972  31.597  35.310  1.00  0.00     0.049 A 
ATOM     51  C   UNL A   1      41.713  28.478  30.709  1.00  0.00     0.074 A 
ATOM     52  C   UNL A   1      41.801  31.327  36.383  1.00  0.00     0.029 A 
ATOM     53  N   UNL A   1      41.334  30.724  34.294  1.00  0.00    -0.354 N 
ATOM     54  N   UNL A   1      41.651  29.115  31.852  1.00  0.00    -0.248 NA
ATOM     55  C   UNL A   1      42.780  27.470  30.641  1.00  0.00     0.031 C 
ATOM     56  C   UNL A   1      42.693  30.319  36.003  1.00  0.00     0.029 A 
ATOM     57  C   UNL A   1      42.388  29.927  34.710  1.00  0.00     0.049 A 
ATOM     58  H   UNL A   1      40.905  30.677  33.409  1.00  0.00     0.167 HD
ATOM     59  C   UNL A   1      42.649  28.570  32.648  1.00  0.00     0.074 A 
ATOM     60  C   UNL A   1      43.289  27.536  31.862  1.00  0.00     0.031 C 
ATOM     61  C   UNL A   1      43.008  28.899  33.914  1.00  0.00     0.037 A 
BRANCH  48  62
ATOM     62  C   UNL A   1      39.694  33.501  36.369  1.00  0.00     0.064 A 
ATOM     63  C   UNL A   1      40.312  34.759  36.442  1.00  0.00     0.173 A 
ATOM     64  C   UNL A   1      38.822  33.139  37.407  1.00  0.00     0.173 A 
ATOM     65  F   UNL A   1      41.166  35.149  35.484  1.00  0.00    -0.203 F 
ATOM     66  C   UNL A   1      40.088  35.608  37.525  1.00  0.00     0.198 A 
ATOM     67  C   UNL A   1      38.576  34.002  38.471  1.00  0.00     0.198 A 
ATOM     68  F   UNL A   1      38.202  31.949  37.385  1.00  0.00    -0.203 F 
ATOM     69  F   UNL A   1      40.730  36.781  37.597  1.00  0.00    -0.200 F 
ATOM     70  C   UNL A   1      39.215  35.231  38.534  1.00  0.00     0.200 A 
ATOM     71  F   UNL A   1      37.723  33.643  39.441  1.00  0.00    -0.200 F 
ATOM     72  F   UNL A   1      38.995  36.052  39.570  1.00  0.00    -0.200 F 
ENDBRANCH  48  62
BRANCH  49  73
ATOM     73  C   UNL A   1      41.075  27.793  28.281  1.00  0.00     0.064 A 
ATOM     74  C   UNL A   1      40.457  26.540  28.150  1.00  0.00     0.173 A 
ATOM     75  C   UNL A   1      41.913  28.218  27.241  1.00  0.00     0.173 A 
ATOM     76  F   UNL A   1      39.661  26.082  29.127  1.00  0.00    -0.203 F 
ATOM     77  C   UNL A   1      40.688  25.735  27.037  1.00  0.00     0.198 A 
ATOM     78  C   UNL A   1      42.121  27.425  26.114  1.00  0.00     0.198 A 
ATOM     79  F   UNL A   1      42.522  29.410  27.314  1.00  0.00    -0.203 F 
ATOM     80  F   UNL A   1      40.123  24.524  26.961  1.00  0.00    -0.200 F 
ATOM     81  C   UNL A   1      41.515  26.180  26.018  1.00  0.00     0.200 A 
ATOM     82  F   UNL A   1      42.910  27.864  25.124  1.00  0.00    -0.200 F 
ATOM     83  F   UNL A   1      41.736  25.408  24.945  1.00  0.00    -0.200 F 
ENDBRANCH  49  73
BRANCH  61  84
ATOM     84  C   UNL A   1      44.124  28.111  34.534  1.00  0.00     0.064 A 
ATOM     85  C   UNL A   1      45.460  28.532  34.448  1.00  0.00     0.173 A 
ATOM     86  C   UNL A   1      43.851  26.932  35.244  1.00  0.00     0.173 A 
ATOM     87  F   UNL A   1      45.773  29.645  33.767  1.00  0.00    -0.203 F 
ATOM     88  C   UNL A   1      46.484  27.784  35.022  1.00  0.00     0.198 A 
ATOM     89  C   UNL A   1      44.874  26.204  35.844  1.00  0.00     0.198 A 
ATOM     90  F   UNL A   1      42.590  26.490  35.363  1.00  0.00    -0.203 F 
ATOM     91  F   UNL A   1      47.757  28.176  34.879  1.00  0.00    -0.200 F 
ATOM     92  C   UNL A   1      46.190  26.625  35.724  1.00  0.00     0.200 A 
ATOM     93  F   UNL A   1      44.588  25.091  36.534  1.00  0.00    -0.200 F 
ATOM     94  F   UNL A   1      47.177  25.909  36.278  1.00  0.00    -0.200 F 
ENDBRANCH  61  84
ENDBRANCH  35  36
ENDBRANCH  27  30
ENDBRANCH  25  26
ENDBRANCH  24  25
ENDBRANCH   1  24
TORSDOF 14
ENDMDL
