MODEL 1
REMARK VINA RESULT:     -13.2      0.000      0.000
REMARK SMILES Cc1ccc(Cl)cc1S(=O)(=O)N1CC[C@@H](C(=O)NCCCCNC(=O)c2ccc(-c3c4nc(c(-c5c(F)c(F)c(F)c(F)c5F)c5ccc([nH]5)c(-c5c(F)c(F)c(F)c(F)c5F)c5nc(c(-c6c(F)c(F)c(F)c(F)c6F)c6ccc3[nH]6)C=C5)C=C4)cc2)[C@@H]1C
REMARK SMILES IDX 20 1 19 2 18 3 16 4 17 5 15 7 12 8 13 9 89 10 14 11 90 12
REMARK SMILES IDX 9 13 10 14 11 15 8 16 1 17 2 18 3 19 4 20 7 21 5 22 6 23
REMARK SMILES IDX 21 24 22 25 23 26 24 27 25 29 26 30 27 31 88 32 28 33 87 34
REMARK SMILES IDX 29 35 30 36 31 37 81 38 32 39 86 40 80 41 82 42 33 43 85 44
REMARK SMILES IDX 79 45 78 46 34 48 66 49 46 50 65 51 47 52 50 53 64 54 83 55
REMARK SMILES IDX 48 56 49 57 63 59 84 60 51 61 35 62 36 63 44 64 37 65 38 66
REMARK SMILES IDX 42 67 45 68 39 69 40 70 43 71 41 72 67 73 68 74 76 75 69 76
REMARK SMILES IDX 70 77 74 78 77 79 71 80 72 81 75 82 73 83 52 84 53 85 61 86
REMARK SMILES IDX 54 87 55 88 59 89 62 90 56 91 57 92 60 93 58 94
REMARK H PARENT 18 6 23 28 82 47 50 58
REMARK Flexibility Score: inf
ROOT
ATOM      1  C   UNL A   1      31.041  27.789  26.875  1.00  0.00     0.023 C 
ENDROOT
BRANCH   1   2
ATOM      2  C   UNL A   1      31.931  26.599  26.515  1.00  0.00     0.116 C 
BRANCH   2   3
ATOM      3  N   UNL A   1      31.304  25.299  26.684  1.00  0.00    -0.356 N 
ATOM      4  C   UNL A   1      31.910  24.081  26.795  1.00  0.00     0.224 C 
ATOM      5  O   UNL A   1      31.465  23.330  27.672  1.00  0.00    -0.275 OA
ATOM      6  H   UNL A   1      30.321  25.296  26.723  1.00  0.00     0.163 HD
BRANCH   4   7
ATOM      7  C   UNL A   1      32.967  23.551  25.818  1.00  0.00     0.098 C 
ATOM      8  N   UNL A   1      33.164  24.717  23.814  1.00  0.00    -0.194 NA
ATOM      9  C   UNL A   1      34.452  24.982  24.446  1.00  0.00     0.104 C 
ATOM     10  C   UNL A   1      32.623  23.448  24.336  1.00  0.00     0.082 C 
ATOM     11  C   UNL A   1      34.276  24.385  25.851  1.00  0.00     0.032 C 
ATOM     12  C   UNL A   1      33.324  22.238  23.704  1.00  0.00     0.026 C 
BRANCH   8  13
ATOM     13  S   UNL A   1      32.627  25.492  22.449  1.00  0.00     0.243 S 
ATOM     14  O   UNL A   1      31.526  24.697  21.941  1.00  0.00    -0.207 OA
ATOM     15  O   UNL A   1      33.777  25.810  21.631  1.00  0.00    -0.207 OA
BRANCH  13  16
ATOM     16  C   UNL A   1      31.881  27.086  22.883  1.00  0.00     0.087 A 
ATOM     17  C   UNL A   1      34.009  28.536  23.221  1.00  0.00     0.046 C 
ATOM     18  C   UNL A   1      32.535  28.291  23.221  1.00  0.00    -0.031 A 
ATOM     19  C   UNL A   1      31.748  29.418  23.550  1.00  0.00     0.006 A 
ATOM     20  C   UNL A   1      30.358  29.373  23.530  1.00  0.00     0.021 A 
ATOM     21  C   UNL A   1      30.469  27.056  22.874  1.00  0.00     0.042 A 
ATOM     22  C   UNL A   1      29.723  28.193  23.178  1.00  0.00     0.042 A 
ATOM     23  Cl  UNL A   1      28.009  28.159  23.086  1.00  0.00    -0.084 Cl
ENDBRANCH  13  16
ENDBRANCH   8  13
ENDBRANCH   4   7
ENDBRANCH   2   3
ENDBRANCH   1   2
BRANCH   1  24
ATOM     24  C   UNL A   1      31.783  28.929  27.574  1.00  0.00     0.023 C 
BRANCH  24  25
ATOM     25  C   UNL A   1      32.591  29.852  26.661  1.00  0.00     0.116 C 
BRANCH  25  26
ATOM     26  N   UNL A   1      32.415  31.270  26.927  1.00  0.00    -0.352 N 
ATOM     27  C   UNL A   1      33.328  32.148  27.477  1.00  0.00     0.251 C 
ATOM     28  H   UNL A   1      31.540  31.651  26.686  1.00  0.00     0.163 HD
ATOM     29  O   UNL A   1      33.005  33.298  27.755  1.00  0.00    -0.269 OA
BRANCH  27  30
ATOM     30  C   UNL A   1      34.690  31.664  27.807  1.00  0.00     0.039 A 
ATOM     31  C   UNL A   1      35.720  32.601  27.928  1.00  0.00     0.014 A 
ATOM     32  C   UNL A   1      34.926  30.318  28.099  1.00  0.00     0.014 A 
ATOM     33  C   UNL A   1      36.947  32.214  28.472  1.00  0.00     0.010 A 
ATOM     34  C   UNL A   1      36.126  29.946  28.700  1.00  0.00     0.010 A 
ATOM     35  C   UNL A   1      37.131  30.899  28.929  1.00  0.00    -0.014 A 
BRANCH  35  36
ATOM     36  C   UNL A   1      38.324  30.516  29.728  1.00  0.00     0.031 A 
ATOM     37  C   UNL A   1      39.307  29.517  29.197  1.00  0.00     0.074 A 
ATOM     38  C   UNL A   1      38.448  30.978  30.988  1.00  0.00     0.049 A 
ATOM     39  N   UNL A   1      40.323  28.953  29.800  1.00  0.00    -0.248 NA
ATOM     40  C   UNL A   1      39.103  29.071  27.811  1.00  0.00     0.031 C 
ATOM     41  C   UNL A   1      37.528  31.911  31.640  1.00  0.00     0.029 A 
ATOM     42  N   UNL A   1      39.385  30.706  31.956  1.00  0.00    -0.354 N 
ATOM     43  C   UNL A   1      40.865  28.068  28.878  1.00  0.00     0.074 A 
ATOM     44  C   UNL A   1      40.043  28.144  27.688  1.00  0.00     0.031 C 
ATOM     45  C   UNL A   1      37.945  32.137  32.896  1.00  0.00     0.029 A 
ATOM     46  C   UNL A   1      39.141  31.337  33.151  1.00  0.00     0.049 A 
ATOM     47  H   UNL A   1      40.157  30.115  31.807  1.00  0.00     0.167 HD
ATOM     48  C   UNL A   1      41.954  27.275  29.011  1.00  0.00     0.037 A 
ATOM     49  C   UNL A   1      39.793  31.269  34.327  1.00  0.00     0.037 A 
ATOM     50  C   UNL A   1      42.783  27.221  30.187  1.00  0.00     0.049 A 
ATOM     51  C   UNL A   1      41.012  30.398  34.444  1.00  0.00     0.074 A 
ATOM     52  C   UNL A   1      43.944  26.497  30.392  1.00  0.00     0.029 A 
ATOM     53  N   UNL A   1      42.534  27.919  31.360  1.00  0.00    -0.354 N 
ATOM     54  N   UNL A   1      41.553  29.614  33.545  1.00  0.00    -0.248 NA
ATOM     55  C   UNL A   1      41.715  30.405  35.736  1.00  0.00     0.031 C 
ATOM     56  C   UNL A   1      44.379  26.729  31.702  1.00  0.00     0.029 A 
ATOM     57  C   UNL A   1      43.511  27.631  32.298  1.00  0.00     0.049 A 
ATOM     58  H   UNL A   1      41.775  28.529  31.504  1.00  0.00     0.167 HD
ATOM     59  C   UNL A   1      42.673  29.058  34.146  1.00  0.00     0.074 A 
ATOM     60  C   UNL A   1      42.736  29.595  35.490  1.00  0.00     0.031 C 
ATOM     61  C   UNL A   1      43.571  28.186  33.627  1.00  0.00     0.037 A 
BRANCH  48  62
ATOM     62  C   UNL A   1      42.305  26.390  27.852  1.00  0.00     0.064 A 
ATOM     63  C   UNL A   1      43.251  26.776  26.891  1.00  0.00     0.173 A 
ATOM     64  C   UNL A   1      41.695  25.136  27.705  1.00  0.00     0.173 A 
ATOM     65  F   UNL A   1      43.853  27.973  26.981  1.00  0.00    -0.203 F 
ATOM     66  C   UNL A   1      43.548  25.955  25.807  1.00  0.00     0.198 A 
ATOM     67  C   UNL A   1      42.016  24.303  26.635  1.00  0.00     0.198 A 
ATOM     68  F   UNL A   1      40.788  24.715  28.599  1.00  0.00    -0.203 F 
ATOM     69  F   UNL A   1      44.414  26.370  24.872  1.00  0.00    -0.200 F 
ATOM     70  C   UNL A   1      42.934  24.719  25.682  1.00  0.00     0.200 A 
ATOM     71  F   UNL A   1      41.429  23.104  26.521  1.00  0.00    -0.200 F 
ATOM     72  F   UNL A   1      43.218  23.930  24.636  1.00  0.00    -0.200 F 
ENDBRANCH  48  62
BRANCH  49  73
ATOM     73  C   UNL A   1      39.313  32.075  35.479  1.00  0.00     0.064 A 
ATOM     74  C   UNL A   1      38.469  31.512  36.446  1.00  0.00     0.173 A 
ATOM     75  C   UNL A   1      39.711  33.408  35.652  1.00  0.00     0.173 A 
ATOM     76  F   UNL A   1      38.048  30.247  36.310  1.00  0.00    -0.203 F 
ATOM     77  C   UNL A   1      38.036  32.255  37.542  1.00  0.00     0.198 A 
ATOM     78  C   UNL A   1      39.295  34.143  36.761  1.00  0.00     0.198 A 
ATOM     79  F   UNL A   1      40.523  33.990  34.757  1.00  0.00    -0.203 F 
ATOM     80  F   UNL A   1      37.209  31.702  38.438  1.00  0.00    -0.200 F 
ATOM     81  C   UNL A   1      38.455  33.567  37.702  1.00  0.00     0.200 A 
ATOM     82  F   UNL A   1      39.713  35.407  36.920  1.00  0.00    -0.200 F 
ATOM     83  F   UNL A   1      38.047  34.277  38.763  1.00  0.00    -0.200 F 
ENDBRANCH  49  73
BRANCH  61  84
ATOM     84  C   UNL A   1      44.727  27.784  34.493  1.00  0.00     0.064 A 
ATOM     85  C   UNL A   1      44.681  26.638  35.297  1.00  0.00     0.173 A 
ATOM     86  C   UNL A   1      45.921  28.521  34.461  1.00  0.00     0.173 A 
ATOM     87  F   UNL A   1      43.556  25.911  35.372  1.00  0.00    -0.203 F 
ATOM     88  C   UNL A   1      45.787  26.247  36.046  1.00  0.00     0.198 A 
ATOM     89  C   UNL A   1      47.032  28.115  35.193  1.00  0.00     0.198 A 
ATOM     90  F   UNL A   1      46.014  29.625  33.703  1.00  0.00    -0.203 F 
ATOM     91  F   UNL A   1      45.715  25.161  36.829  1.00  0.00    -0.200 F 
ATOM     92  C   UNL A   1      46.964  26.979  35.986  1.00  0.00     0.200 A 
ATOM     93  F   UNL A   1      48.171  28.818  35.126  1.00  0.00    -0.200 F 
ATOM     94  F   UNL A   1      48.033  26.592  36.697  1.00  0.00    -0.200 F 
ENDBRANCH  61  84
ENDBRANCH  35  36
ENDBRANCH  27  30
ENDBRANCH  25  26
ENDBRANCH  24  25
ENDBRANCH   1  24
TORSDOF 13
ENDMDL
MODEL 2
REMARK VINA RESULT:     -13.2      3.347      7.912
REMARK SMILES Cc1ccc(Cl)cc1S(=O)(=O)N1CC[C@@H](C(=O)NCCCCNC(=O)c2ccc(-c3c4nc(c(-c5c(F)c(F)c(F)c(F)c5F)c5ccc([nH]5)c(-c5c(F)c(F)c(F)c(F)c5F)c5nc(c(-c6c(F)c(F)c(F)c(F)c6F)c6ccc3[nH]6)C=C5)C=C4)cc2)[C@@H]1C
REMARK SMILES IDX 20 1 19 2 18 3 16 4 17 5 15 7 12 8 13 9 89 10 14 11 90 12
REMARK SMILES IDX 9 13 10 14 11 15 8 16 1 17 2 18 3 19 4 20 7 21 5 22 6 23
REMARK SMILES IDX 21 24 22 25 23 26 24 27 25 29 26 30 27 31 88 32 28 33 87 34
REMARK SMILES IDX 29 35 30 36 31 37 81 38 32 39 86 40 80 41 82 42 33 43 85 44
REMARK SMILES IDX 79 45 78 46 34 48 66 49 46 50 65 51 47 52 50 53 64 54 83 55
REMARK SMILES IDX 48 56 49 57 63 59 84 60 51 61 35 62 36 63 44 64 37 65 38 66
REMARK SMILES IDX 42 67 45 68 39 69 40 70 43 71 41 72 67 73 68 74 76 75 69 76
REMARK SMILES IDX 70 77 74 78 77 79 71 80 72 81 75 82 73 83 52 84 53 85 61 86
REMARK SMILES IDX 54 87 55 88 59 89 62 90 56 91 57 92 60 93 58 94
REMARK H PARENT 18 6 23 28 82 47 50 58
REMARK Flexibility Score: inf
ROOT
ATOM      1  C   UNL A   1      31.465  27.121  26.330  1.00  0.00     0.023 C 
ENDROOT
BRANCH   1   2
ATOM      2  C   UNL A   1      31.931  25.679  26.531  1.00  0.00     0.116 C 
BRANCH   2   3
ATOM      3  N   UNL A   1      30.865  24.690  26.529  1.00  0.00    -0.356 N 
ATOM      4  C   UNL A   1      30.915  23.399  26.966  1.00  0.00     0.224 C 
ATOM      5  O   UNL A   1      29.952  23.015  27.642  1.00  0.00    -0.275 OA
ATOM      6  H   UNL A   1      29.999  24.990  26.169  1.00  0.00     0.163 HD
BRANCH   4   7
ATOM      7  C   UNL A   1      31.985  22.385  26.541  1.00  0.00     0.098 C 
ATOM      8  N   UNL A   1      33.296  23.005  24.721  1.00  0.00    -0.194 NA
ATOM      9  C   UNL A   1      34.272  22.986  25.805  1.00  0.00     0.104 C 
ATOM     10  C   UNL A   1      32.185  22.095  25.057  1.00  0.00     0.082 C 
ATOM     11  C   UNL A   1      33.400  22.768  27.051  1.00  0.00     0.032 C 
ATOM     12  C   UNL A   1      32.580  20.628  24.844  1.00  0.00     0.026 C 
BRANCH   8  13
ATOM     13  S   UNL A   1      33.604  23.616  23.210  1.00  0.00     0.243 S 
ATOM     14  O   UNL A   1      32.966  22.713  22.273  1.00  0.00    -0.207 OA
ATOM     15  O   UNL A   1      35.016  23.922  23.129  1.00  0.00    -0.207 OA
BRANCH  13  16
ATOM     16  C   UNL A   1      32.748  25.196  22.982  1.00  0.00     0.087 A 
ATOM     17  C   UNL A   1      30.272  24.426  23.114  1.00  0.00     0.046 C 
ATOM     18  C   UNL A   1      31.358  25.434  22.923  1.00  0.00    -0.031 A 
ATOM     19  C   UNL A   1      30.906  26.757  22.713  1.00  0.00     0.006 A 
ATOM     20  C   UNL A   1      31.791  27.822  22.584  1.00  0.00     0.021 A 
ATOM     21  C   UNL A   1      33.634  26.289  22.843  1.00  0.00     0.042 A 
ATOM     22  C   UNL A   1      33.154  27.585  22.663  1.00  0.00     0.042 A 
ATOM     23  Cl  UNL A   1      34.242  28.910  22.574  1.00  0.00    -0.084 Cl
ENDBRANCH  13  16
ENDBRANCH   8  13
ENDBRANCH   4   7
ENDBRANCH   2   3
ENDBRANCH   1   2
BRANCH   1  24
ATOM     24  C   UNL A   1      31.914  28.078  27.436  1.00  0.00     0.023 C 
BRANCH  24  25
ATOM     25  C   UNL A   1      33.259  28.770  27.207  1.00  0.00     0.116 C 
BRANCH  25  26
ATOM     26  N   UNL A   1      33.310  30.153  27.653  1.00  0.00    -0.352 N 
ATOM     27  C   UNL A   1      34.375  30.819  28.225  1.00  0.00     0.251 C 
ATOM     28  H   UNL A   1      32.486  30.677  27.533  1.00  0.00     0.163 HD
ATOM     29  O   UNL A   1      34.243  31.956  28.664  1.00  0.00    -0.269 OA
BRANCH  27  30
ATOM     30  C   UNL A   1      35.670  30.114  28.381  1.00  0.00     0.039 A 
ATOM     31  C   UNL A   1      36.560  30.106  27.302  1.00  0.00     0.014 A 
ATOM     32  C   UNL A   1      36.048  29.561  29.607  1.00  0.00     0.014 A 
ATOM     33  C   UNL A   1      37.873  29.670  27.491  1.00  0.00     0.010 A 
ATOM     34  C   UNL A   1      37.374  29.185  29.812  1.00  0.00     0.010 A 
ATOM     35  C   UNL A   1      38.307  29.275  28.767  1.00  0.00    -0.014 A 
BRANCH  35  36
ATOM     36  C   UNL A   1      39.745  29.040  29.058  1.00  0.00     0.031 A 
ATOM     37  C   UNL A   1      40.581  30.115  29.684  1.00  0.00     0.074 A 
ATOM     38  C   UNL A   1      40.322  27.896  28.639  1.00  0.00     0.049 A 
ATOM     39  N   UNL A   1      41.875  30.149  29.880  1.00  0.00    -0.248 NA
ATOM     40  C   UNL A   1      39.871  31.326  30.119  1.00  0.00     0.031 C 
ATOM     41  C   UNL A   1      39.628  26.796  27.968  1.00  0.00     0.029 A 
ATOM     42  N   UNL A   1      41.631  27.479  28.691  1.00  0.00    -0.354 N 
ATOM     43  C   UNL A   1      42.138  31.392  30.440  1.00  0.00     0.074 A 
ATOM     44  C   UNL A   1      40.875  32.095  30.517  1.00  0.00     0.031 C 
ATOM     45  C   UNL A   1      40.514  25.830  27.674  1.00  0.00     0.029 A 
ATOM     46  C   UNL A   1      41.843  26.257  28.102  1.00  0.00     0.049 A 
ATOM     47  H   UNL A   1      42.347  28.007  29.111  1.00  0.00     0.167 HD
ATOM     48  C   UNL A   1      43.324  31.893  30.859  1.00  0.00     0.037 A 
ATOM     49  C   UNL A   1      42.981  25.562  27.911  1.00  0.00     0.037 A 
ATOM     50  C   UNL A   1      44.574  31.181  30.803  1.00  0.00     0.049 A 
ATOM     51  C   UNL A   1      44.282  26.130  28.404  1.00  0.00     0.074 A 
ATOM     52  C   UNL A   1      45.817  31.580  31.263  1.00  0.00     0.029 A 
ATOM     53  N   UNL A   1      44.739  29.919  30.249  1.00  0.00    -0.354 N 
ATOM     54  N   UNL A   1      44.510  27.279  28.990  1.00  0.00    -0.248 NA
ATOM     55  C   UNL A   1      45.484  25.303  28.216  1.00  0.00     0.031 C 
ATOM     56  C   UNL A   1      46.741  30.575  30.955  1.00  0.00     0.029 A 
ATOM     57  C   UNL A   1      46.066  29.532  30.341  1.00  0.00     0.049 A 
ATOM     58  H   UNL A   1      44.019  29.379  29.849  1.00  0.00     0.167 HD
ATOM     59  C   UNL A   1      45.869  27.304  29.268  1.00  0.00     0.074 A 
ATOM     60  C   UNL A   1      46.418  26.052  28.786  1.00  0.00     0.031 C 
ATOM     61  C   UNL A   1      46.594  28.275  29.873  1.00  0.00     0.037 A 
BRANCH  48  62
ATOM     62  C   UNL A   1      43.325  33.289  31.408  1.00  0.00     0.064 A 
ATOM     63  C   UNL A   1      43.252  33.538  32.786  1.00  0.00     0.173 A 
ATOM     64  C   UNL A   1      43.410  34.392  30.545  1.00  0.00     0.173 A 
ATOM     65  F   UNL A   1      43.157  32.517  33.652  1.00  0.00    -0.203 F 
ATOM     66  C   UNL A   1      43.228  34.840  33.279  1.00  0.00     0.198 A 
ATOM     67  C   UNL A   1      43.415  35.693  31.043  1.00  0.00     0.198 A 
ATOM     68  F   UNL A   1      43.487  34.210  29.218  1.00  0.00    -0.203 F 
ATOM     69  F   UNL A   1      43.101  35.053  34.596  1.00  0.00    -0.200 F 
ATOM     70  C   UNL A   1      43.313  35.915  32.408  1.00  0.00     0.200 A 
ATOM     71  F   UNL A   1      43.508  36.731  30.201  1.00  0.00    -0.200 F 
ATOM     72  F   UNL A   1      43.287  37.168  32.884  1.00  0.00    -0.200 F 
ENDBRANCH  48  62
BRANCH  49  73
ATOM     73  C   UNL A   1      42.927  24.238  27.240  1.00  0.00     0.064 A 
ATOM     74  C   UNL A   1      43.253  24.108  25.884  1.00  0.00     0.173 A 
ATOM     75  C   UNL A   1      42.579  23.078  27.945  1.00  0.00     0.173 A 
ATOM     76  F   UNL A   1      43.573  25.194  25.166  1.00  0.00    -0.203 F 
ATOM     77  C   UNL A   1      43.229  22.865  25.255  1.00  0.00     0.198 A 
ATOM     78  C   UNL A   1      42.577  21.832  27.320  1.00  0.00     0.198 A 
ATOM     79  F   UNL A   1      42.264  23.150  29.247  1.00  0.00    -0.203 F 
ATOM     80  F   UNL A   1      43.520  22.771  23.951  1.00  0.00    -0.200 F 
ATOM     81  C   UNL A   1      42.898  21.727  25.976  1.00  0.00     0.200 A 
ATOM     82  F   UNL A   1      42.270  20.733  28.023  1.00  0.00    -0.200 F 
ATOM     83  F   UNL A   1      42.886  20.531  25.373  1.00  0.00    -0.200 F 
ENDBRANCH  49  73
BRANCH  61  84
ATOM     84  C   UNL A   1      48.054  28.015  30.093  1.00  0.00     0.064 A 
ATOM     85  C   UNL A   1      48.530  27.447  31.282  1.00  0.00     0.173 A 
ATOM     86  C   UNL A   1      48.979  28.274  29.069  1.00  0.00     0.173 A 
ATOM     87  F   UNL A   1      47.686  27.195  32.294  1.00  0.00    -0.203 F 
ATOM     88  C   UNL A   1      49.882  27.154  31.442  1.00  0.00     0.198 A 
ATOM     89  C   UNL A   1      50.325  27.961  29.224  1.00  0.00     0.198 A 
ATOM     90  F   UNL A   1      48.570  28.815  27.911  1.00  0.00    -0.203 F 
ATOM     91  F   UNL A   1      50.320  26.634  32.597  1.00  0.00    -0.200 F 
ATOM     92  C   UNL A   1      50.775  27.402  30.411  1.00  0.00     0.200 A 
ATOM     93  F   UNL A   1      51.185  28.192  28.223  1.00  0.00    -0.200 F 
ATOM     94  F   UNL A   1      52.074  27.107  30.562  1.00  0.00    -0.200 F 
ENDBRANCH  61  84
ENDBRANCH  35  36
ENDBRANCH  27  30
ENDBRANCH  25  26
ENDBRANCH  24  25
ENDBRANCH   1  24
TORSDOF 13
ENDMDL
MODEL 3
REMARK VINA RESULT:     -13.1      2.150      3.931
REMARK SMILES Cc1ccc(Cl)cc1S(=O)(=O)N1CC[C@@H](C(=O)NCCCCNC(=O)c2ccc(-c3c4nc(c(-c5c(F)c(F)c(F)c(F)c5F)c5ccc([nH]5)c(-c5c(F)c(F)c(F)c(F)c5F)c5nc(c(-c6c(F)c(F)c(F)c(F)c6F)c6ccc3[nH]6)C=C5)C=C4)cc2)[C@@H]1C
REMARK SMILES IDX 20 1 19 2 18 3 16 4 17 5 15 7 12 8 13 9 89 10 14 11 90 12
REMARK SMILES IDX 9 13 10 14 11 15 8 16 1 17 2 18 3 19 4 20 7 21 5 22 6 23
REMARK SMILES IDX 21 24 22 25 23 26 24 27 25 29 26 30 27 31 88 32 28 33 87 34
REMARK SMILES IDX 29 35 30 36 31 37 81 38 32 39 86 40 80 41 82 42 33 43 85 44
REMARK SMILES IDX 79 45 78 46 34 48 66 49 46 50 65 51 47 52 50 53 64 54 83 55
REMARK SMILES IDX 48 56 49 57 63 59 84 60 51 61 35 62 36 63 44 64 37 65 38 66
REMARK SMILES IDX 42 67 45 68 39 69 40 70 43 71 41 72 67 73 68 74 76 75 69 76
REMARK SMILES IDX 70 77 74 78 77 79 71 80 72 81 75 82 73 83 52 84 53 85 61 86
REMARK SMILES IDX 54 87 55 88 59 89 62 90 56 91 57 92 60 93 58 94
REMARK H PARENT 18 6 23 28 82 47 50 58
REMARK Flexibility Score: inf
ROOT
ATOM      1  C   UNL A   1      32.580  30.134  25.815  1.00  0.00     0.023 C 
ENDROOT
BRANCH   1   2
ATOM      2  C   UNL A   1      31.402  29.508  25.069  1.00  0.00     0.116 C 
BRANCH   2   3
ATOM      3  N   UNL A   1      31.476  29.611  23.621  1.00  0.00    -0.356 N 
ATOM      4  C   UNL A   1      30.720  28.957  22.691  1.00  0.00     0.224 C 
ATOM      5  O   UNL A   1      30.304  29.642  21.749  1.00  0.00    -0.275 OA
ATOM      6  H   UNL A   1      32.154  30.229  23.267  1.00  0.00     0.163 HD
BRANCH   4   7
ATOM      7  C   UNL A   1      30.506  27.438  22.668  1.00  0.00     0.098 C 
ATOM      8  N   UNL A   1      31.349  26.271  24.496  1.00  0.00    -0.194 NA
ATOM      9  C   UNL A   1      29.911  26.075  24.648  1.00  0.00     0.104 C 
ATOM     10  C   UNL A   1      31.654  26.520  23.075  1.00  0.00     0.082 C 
ATOM     11  C   UNL A   1      29.321  26.992  23.566  1.00  0.00     0.032 C 
ATOM     12  C   UNL A   1      31.618  25.221  22.259  1.00  0.00     0.026 C 
BRANCH   8  13
ATOM     13  S   UNL A   1      32.465  25.862  25.653  1.00  0.00     0.243 S 
ATOM     14  O   UNL A   1      31.717  25.649  26.876  1.00  0.00    -0.207 OA
ATOM     15  O   UNL A   1      33.554  26.813  25.583  1.00  0.00    -0.207 OA
BRANCH  13  16
ATOM     16  C   UNL A   1      33.201  24.250  25.277  1.00  0.00     0.087 A 
ATOM     17  C   UNL A   1      31.100  22.727  25.376  1.00  0.00     0.046 C 
ATOM     18  C   UNL A   1      32.561  22.993  25.215  1.00  0.00    -0.031 A 
ATOM     19  C   UNL A   1      33.341  21.851  24.924  1.00  0.00     0.006 A 
ATOM     20  C   UNL A   1      34.708  21.939  24.681  1.00  0.00     0.021 A 
ATOM     21  C   UNL A   1      34.591  24.321  25.033  1.00  0.00     0.042 A 
ATOM     22  C   UNL A   1      35.326  23.179  24.723  1.00  0.00     0.042 A 
ATOM     23  Cl  UNL A   1      36.999  23.294  24.353  1.00  0.00    -0.084 Cl
ENDBRANCH  13  16
ENDBRANCH   8  13
ENDBRANCH   4   7
ENDBRANCH   2   3
ENDBRANCH   1   2
BRANCH   1  24
ATOM     24  C   UNL A   1      32.171  30.981  27.021  1.00  0.00     0.023 C 
BRANCH  24  25
ATOM     25  C   UNL A   1      33.182  32.043  27.458  1.00  0.00     0.116 C 
BRANCH  25  26
ATOM     26  N   UNL A   1      32.644  33.391  27.539  1.00  0.00    -0.352 N 
ATOM     27  C   UNL A   1      33.075  34.428  28.344  1.00  0.00     0.251 C 
ATOM     28  H   UNL A   1      31.881  33.590  26.950  1.00  0.00     0.163 HD
ATOM     29  O   UNL A   1      32.453  35.482  28.397  1.00  0.00    -0.269 OA
BRANCH  27  30
ATOM     30  C   UNL A   1      34.260  34.225  29.212  1.00  0.00     0.039 A 
ATOM     31  C   UNL A   1      34.074  33.643  30.469  1.00  0.00     0.014 A 
ATOM     32  C   UNL A   1      35.548  34.507  28.752  1.00  0.00     0.014 A 
ATOM     33  C   UNL A   1      35.182  33.217  31.205  1.00  0.00     0.010 A 
ATOM     34  C   UNL A   1      36.650  34.026  29.456  1.00  0.00     0.010 A 
ATOM     35  C   UNL A   1      36.474  33.340  30.668  1.00  0.00    -0.014 A 
BRANCH  35  36
ATOM     36  C   UNL A   1      37.645  32.685  31.306  1.00  0.00     0.031 A 
ATOM     37  C   UNL A   1      38.322  31.525  30.642  1.00  0.00     0.074 A 
ATOM     38  C   UNL A   1      38.013  33.060  32.547  1.00  0.00     0.049 A 
ATOM     39  N   UNL A   1      39.260  30.737  31.106  1.00  0.00    -0.248 NA
ATOM     40  C   UNL A   1      37.865  31.187  29.287  1.00  0.00     0.031 C 
ATOM     41  C   UNL A   1      37.396  34.138  33.322  1.00  0.00     0.029 A 
ATOM     42  N   UNL A   1      38.979  32.559  33.387  1.00  0.00    -0.354 N 
ATOM     43  C   UNL A   1      39.488  29.796  30.111  1.00  0.00     0.074 A 
ATOM     44  C   UNL A   1      38.565  30.090  29.034  1.00  0.00     0.031 C 
ATOM     45  C   UNL A   1      37.999  34.220  34.519  1.00  0.00     0.029 A 
ATOM     46  C   UNL A   1      39.018  33.179  34.611  1.00  0.00     0.049 A 
ATOM     47  H   UNL A   1      39.584  31.826  33.134  1.00  0.00     0.167 HD
ATOM     48  C   UNL A   1      40.391  28.788  30.096  1.00  0.00     0.037 A 
ATOM     49  C   UNL A   1      39.777  32.929  35.696  1.00  0.00     0.037 A 
ATOM     50  C   UNL A   1      41.323  28.514  31.159  1.00  0.00     0.049 A 
ATOM     51  C   UNL A   1      40.788  31.818  35.648  1.00  0.00     0.074 A 
ATOM     52  C   UNL A   1      42.321  27.556  31.207  1.00  0.00     0.029 A 
ATOM     53  N   UNL A   1      41.370  29.202  32.363  1.00  0.00    -0.354 N 
ATOM     54  N   UNL A   1      41.039  30.975  34.677  1.00  0.00    -0.248 NA
ATOM     55  C   UNL A   1      41.625  31.625  36.841  1.00  0.00     0.031 C 
ATOM     56  C   UNL A   1      42.947  27.640  32.455  1.00  0.00     0.029 A 
ATOM     57  C   UNL A   1      42.369  28.678  33.168  1.00  0.00     0.049 A 
ATOM     58  H   UNL A   1      40.781  29.951  32.609  1.00  0.00     0.167 HD
ATOM     59  C   UNL A   1      42.079  30.173  35.126  1.00  0.00     0.074 A 
ATOM     60  C   UNL A   1      42.414  30.631  36.459  1.00  0.00     0.031 C 
ATOM     61  C   UNL A   1      42.702  29.155  34.487  1.00  0.00     0.037 A 
BRANCH  48  62
ATOM     62  C   UNL A   1      40.406  27.897  28.889  1.00  0.00     0.064 A 
ATOM     63  C   UNL A   1      41.173  28.204  27.756  1.00  0.00     0.173 A 
ATOM     64  C   UNL A   1      39.651  26.714  28.870  1.00  0.00     0.173 A 
ATOM     65  F   UNL A   1      41.903  29.330  27.721  1.00  0.00    -0.203 F 
ATOM     66  C   UNL A   1      41.157  27.380  26.634  1.00  0.00     0.198 A 
ATOM     67  C   UNL A   1      39.659  25.877  27.757  1.00  0.00     0.198 A 
ATOM     68  F   UNL A   1      38.904  26.370  29.930  1.00  0.00    -0.203 F 
ATOM     69  F   UNL A   1      41.854  27.724  25.543  1.00  0.00    -0.200 F 
ATOM     70  C   UNL A   1      40.404  26.216  26.637  1.00  0.00     0.200 A 
ATOM     71  F   UNL A   1      38.939  24.747  27.765  1.00  0.00    -0.200 F 
ATOM     72  F   UNL A   1      40.386  25.425  25.555  1.00  0.00    -0.200 F 
ENDBRANCH  48  62
BRANCH  49  73
ATOM     73  C   UNL A   1      39.620  33.770  36.910  1.00  0.00     0.064 A 
ATOM     74  C   UNL A   1      40.283  35.000  37.020  1.00  0.00     0.173 A 
ATOM     75  C   UNL A   1      38.784  33.380  37.965  1.00  0.00     0.173 A 
ATOM     76  F   UNL A   1      41.107  35.405  36.043  1.00  0.00    -0.203 F 
ATOM     77  C   UNL A   1      40.120  35.807  38.145  1.00  0.00     0.198 A 
ATOM     78  C   UNL A   1      38.605  34.197  39.079  1.00  0.00     0.198 A 
ATOM     79  F   UNL A   1      38.124  32.214  37.904  1.00  0.00    -0.203 F 
ATOM     80  F   UNL A   1      40.785  36.965  38.237  1.00  0.00    -0.200 F 
ATOM     81  C   UNL A   1      39.275  35.407  39.170  1.00  0.00     0.200 A 
ATOM     82  F   UNL A   1      37.777  33.815  40.062  1.00  0.00    -0.200 F 
ATOM     83  F   UNL A   1      39.110  36.189  40.246  1.00  0.00    -0.200 F 
ENDBRANCH  49  73
BRANCH  61  84
ATOM     84  C   UNL A   1      43.841  28.486  35.196  1.00  0.00     0.064 A 
ATOM     85  C   UNL A   1      45.154  28.965  35.095  1.00  0.00     0.173 A 
ATOM     86  C   UNL A   1      43.600  27.392  36.042  1.00  0.00     0.173 A 
ATOM     87  F   UNL A   1      45.435  29.998  34.287  1.00  0.00    -0.203 F 
ATOM     88  C   UNL A   1      46.188  28.368  35.811  1.00  0.00     0.198 A 
ATOM     89  C   UNL A   1      44.632  26.812  36.773  1.00  0.00     0.198 A 
ATOM     90  F   UNL A   1      42.359  26.900  36.173  1.00  0.00    -0.203 F 
ATOM     91  F   UNL A   1      47.441  28.825  35.682  1.00  0.00    -0.200 F 
ATOM     92  C   UNL A   1      45.925  27.299  36.655  1.00  0.00     0.200 A 
ATOM     93  F   UNL A   1      44.375  25.786  37.595  1.00  0.00    -0.200 F 
ATOM     94  F   UNL A   1      46.920  26.735  37.355  1.00  0.00    -0.200 F 
ENDBRANCH  61  84
ENDBRANCH  35  36
ENDBRANCH  27  30
ENDBRANCH  25  26
ENDBRANCH  24  25
ENDBRANCH   1  24
TORSDOF 13
ENDMDL
