MODEL 1
REMARK VINA RESULT:     -12.6      0.000      0.000
REMARK SMILES CCc1cc(/C=C/C(=O)NCCCCNC(=O)c2ccc(-c3c4nc(c(-c5c(F)c(F)c(F)c(F)c5F)c5ccc([nH]5)c(-c5c(F)c(F)c(F)c(F)c5F)c5nc(c(-c6c(F)c(F)c(F)c(F)c6F)c6ccc3[nH]6)C=C5)C=C4)cc2)cc(C(=O)c2ccccc2)c1
REMARK SMILES IDX 12 1 11 2 10 3 8 4 9 5 7 7 6 8 5 9 3 10 4 11 91 12 82 13
REMARK SMILES IDX 81 14 2 15 1 16 83 17 84 18 85 19 86 20 90 21 87 22 89 23
REMARK SMILES IDX 88 24 13 25 14 26 15 27 16 28 17 30 18 31 19 32 80 33 20 34
REMARK SMILES IDX 79 35 21 36 22 37 23 38 73 39 24 40 78 41 72 42 74 43 25 44
REMARK SMILES IDX 77 45 71 46 70 47 26 49 58 50 38 51 57 52 39 53 42 54 56 55
REMARK SMILES IDX 75 56 40 57 41 58 55 60 76 61 43 62 27 63 28 64 36 65 29 66
REMARK SMILES IDX 30 67 34 68 37 69 31 70 32 71 35 72 33 73 59 74 60 75 68 76
REMARK SMILES IDX 61 77 62 78 66 79 69 80 63 81 64 82 67 83 65 84 44 85 45 86
REMARK SMILES IDX 53 87 46 88 47 89 51 90 54 91 48 92 49 93 52 94 50 95
REMARK H PARENT 10 6 15 29 74 48 42 59
REMARK Flexibility Score: inf
ROOT
ATOM      1  C   UNL A   1      32.154  27.722  25.379  1.00  0.00     0.023 C 
ENDROOT
BRANCH   1   2
ATOM      2  C   UNL A   1      33.443  27.991  24.602  1.00  0.00     0.116 C 
BRANCH   2   3
ATOM      3  N   UNL A   1      33.293  27.644  23.203  1.00  0.00    -0.353 N 
ATOM      4  C   UNL A   1      33.432  26.450  22.570  1.00  0.00     0.243 C 
ATOM      5  O   UNL A   1      33.159  26.365  21.374  1.00  0.00    -0.270 OA
ATOM      6  H   UNL A   1      33.052  28.396  22.615  1.00  0.00     0.163 HD
BRANCH   4   7
ATOM      7  C   UNL A   1      33.838  25.225  23.300  1.00  0.00     0.072 C 
ATOM      8  C   UNL A   1      34.556  24.219  22.777  1.00  0.00     0.014 C 
BRANCH   8   9
ATOM      9  C   UNL A   1      34.866  22.964  23.470  1.00  0.00    -0.024 A 
ATOM     10  C   UNL A   1      36.431  21.543  24.691  1.00  0.00    -0.047 A 
ATOM     11  C   UNL A   1      36.163  22.675  23.909  1.00  0.00     0.011 A 
ATOM     12  C   UNL A   1      35.380  20.661  24.987  1.00  0.00     0.016 A 
ATOM     13  C   UNL A   1      34.073  20.942  24.568  1.00  0.00     0.023 A 
ATOM     14  C   UNL A   1      33.825  22.092  23.808  1.00  0.00     0.020 A 
BRANCH  10  15
ATOM     15  C   UNL A   1      37.824  21.261  25.204  1.00  0.00     0.032 C 
ATOM     16  C   UNL A   1      38.451  22.442  25.938  1.00  0.00     0.009 C 
ENDBRANCH  10  15
BRANCH  13  17
ATOM     17  C   UNL A   1      32.925  20.046  24.882  1.00  0.00     0.193 C 
ATOM     18  O   UNL A   1      31.842  20.533  25.201  1.00  0.00    -0.289 OA
BRANCH  17  19
ATOM     19  C   UNL A   1      33.042  18.571  24.805  1.00  0.00     0.022 A 
ATOM     20  C   UNL A   1      33.525  18.002  23.622  1.00  0.00     0.012 A 
ATOM     21  C   UNL A   1      32.650  17.750  25.870  1.00  0.00     0.012 A 
ATOM     22  C   UNL A   1      33.662  16.617  23.521  1.00  0.00     0.001 A 
ATOM     23  C   UNL A   1      32.788  16.365  25.763  1.00  0.00     0.001 A 
ATOM     24  C   UNL A   1      33.302  15.801  24.594  1.00  0.00     0.000 A 
ENDBRANCH  17  19
ENDBRANCH  13  17
ENDBRANCH   8   9
ENDBRANCH   4   7
ENDBRANCH   2   3
ENDBRANCH   1   2
BRANCH   1  25
ATOM     25  C   UNL A   1      32.220  28.080  26.866  1.00  0.00     0.023 C 
BRANCH  25  26
ATOM     26  C   UNL A   1      33.566  28.612  27.345  1.00  0.00     0.116 C 
BRANCH  26  27
ATOM     27  N   UNL A   1      33.547  30.026  27.680  1.00  0.00    -0.352 N 
ATOM     28  C   UNL A   1      34.556  30.789  28.220  1.00  0.00     0.251 C 
ATOM     29  H   UNL A   1      32.702  30.499  27.499  1.00  0.00     0.163 HD
ATOM     30  O   UNL A   1      34.365  31.953  28.534  1.00  0.00    -0.269 OA
BRANCH  28  31
ATOM     31  C   UNL A   1      35.869  30.159  28.465  1.00  0.00     0.039 A 
ATOM     32  C   UNL A   1      36.832  30.207  27.453  1.00  0.00     0.014 A 
ATOM     33  C   UNL A   1      36.164  29.580  29.700  1.00  0.00     0.014 A 
ATOM     34  C   UNL A   1      38.122  29.746  27.711  1.00  0.00     0.010 A 
ATOM     35  C   UNL A   1      37.466  29.179  29.978  1.00  0.00     0.010 A 
ATOM     36  C   UNL A   1      38.459  29.273  28.990  1.00  0.00    -0.014 A 
BRANCH  36  37
ATOM     37  C   UNL A   1      39.856  28.908  29.328  1.00  0.00     0.031 A 
ATOM     38  C   UNL A   1      40.723  29.862  30.095  1.00  0.00     0.074 A 
ATOM     39  C   UNL A   1      40.364  27.748  28.867  1.00  0.00     0.049 A 
ATOM     40  N   UNL A   1      41.988  29.757  30.413  1.00  0.00    -0.248 NA
ATOM     41  C   UNL A   1      40.092  31.114  30.541  1.00  0.00     0.031 C 
ATOM     42  C   UNL A   1      39.632  26.766  28.064  1.00  0.00     0.029 A 
ATOM     43  N   UNL A   1      41.617  27.207  28.993  1.00  0.00    -0.354 N 
ATOM     44  C   UNL A   1      42.306  30.929  31.084  1.00  0.00     0.074 A 
ATOM     45  C   UNL A   1      41.117  31.754  31.085  1.00  0.00     0.031 C 
ATOM     46  C   UNL A   1      40.445  25.735  27.785  1.00  0.00     0.029 A 
ATOM     47  C   UNL A   1      41.761  25.998  28.358  1.00  0.00     0.049 A 
ATOM     48  H   UNL A   1      42.345  27.643  29.494  1.00  0.00     0.167 HD
ATOM     49  C   UNL A   1      43.480  31.276  31.664  1.00  0.00     0.037 A 
ATOM     50  C   UNL A   1      42.838  25.199  28.241  1.00  0.00     0.037 A 
ATOM     51  C   UNL A   1      44.653  30.441  31.678  1.00  0.00     0.049 A 
ATOM     52  C   UNL A   1      44.129  25.608  28.894  1.00  0.00     0.074 A 
ATOM     53  C   UNL A   1      45.869  30.673  32.297  1.00  0.00     0.029 A 
ATOM     54  N   UNL A   1      44.757  29.214  31.039  1.00  0.00    -0.354 N 
ATOM     55  N   UNL A   1      44.399  26.686  29.588  1.00  0.00    -0.248 NA
ATOM     56  C   UNL A   1      45.265  24.687  28.749  1.00  0.00     0.031 C 
ATOM     57  C   UNL A   1      46.723  29.605  31.998  1.00  0.00     0.029 A 
ATOM     58  C   UNL A   1      46.024  28.688  31.231  1.00  0.00     0.049 A 
ATOM     59  H   UNL A   1      44.036  28.782  30.527  1.00  0.00     0.167 HD
ATOM     60  C   UNL A   1      45.724  26.565  29.982  1.00  0.00     0.074 A 
ATOM     61  C   UNL A   1      46.199  25.300  29.462  1.00  0.00     0.031 C 
ATOM     62  C   UNL A   1      46.479  27.425  30.707  1.00  0.00     0.037 A 
BRANCH  49  63
ATOM     63  C   UNL A   1      43.552  32.615  32.337  1.00  0.00     0.064 A 
ATOM     64  C   UNL A   1      43.232  32.772  33.694  1.00  0.00     0.173 A 
ATOM     65  C   UNL A   1      43.978  33.747  31.627  1.00  0.00     0.173 A 
ATOM     66  F   UNL A   1      42.808  31.723  34.413  1.00  0.00    -0.203 F 
ATOM     67  C   UNL A   1      43.313  34.018  34.308  1.00  0.00     0.198 A 
ATOM     68  C   UNL A   1      44.085  34.986  32.252  1.00  0.00     0.198 A 
ATOM     69  F   UNL A   1      44.299  33.650  30.327  1.00  0.00    -0.203 F 
ATOM     70  F   UNL A   1      42.959  34.154  35.595  1.00  0.00    -0.200 F 
ATOM     71  C   UNL A   1      43.745  35.123  33.590  1.00  0.00     0.200 A 
ATOM     72  F   UNL A   1      44.513  36.050  31.559  1.00  0.00    -0.200 F 
ATOM     73  F   UNL A   1      43.828  36.321  34.185  1.00  0.00    -0.200 F 
ENDBRANCH  49  63
BRANCH  50  74
ATOM     74  C   UNL A   1      42.733  23.918  27.496  1.00  0.00     0.064 A 
ATOM     75  C   UNL A   1      43.040  23.854  26.130  1.00  0.00     0.173 A 
ATOM     76  C   UNL A   1      42.325  22.734  28.129  1.00  0.00     0.173 A 
ATOM     77  F   UNL A   1      43.414  24.965  25.477  1.00  0.00    -0.203 F 
ATOM     78  C   UNL A   1      42.926  22.661  25.421  1.00  0.00     0.198 A 
ATOM     79  C   UNL A   1      42.238  21.536  27.425  1.00  0.00     0.198 A 
ATOM     80  F   UNL A   1      42.025  22.741  29.436  1.00  0.00    -0.203 F 
ATOM     81  F   UNL A   1      43.186  22.638  24.106  1.00  0.00    -0.200 F 
ATOM     82  C   UNL A   1      42.530  21.502  26.070  1.00  0.00     0.200 A 
ATOM     83  F   UNL A   1      41.867  20.415  28.059  1.00  0.00    -0.200 F 
ATOM     84  F   UNL A   1      42.425  20.353  25.389  1.00  0.00    -0.200 F 
ENDBRANCH  50  74
BRANCH  62  85
ATOM     85  C   UNL A   1      47.892  27.015  31.000  1.00  0.00     0.064 A 
ATOM     86  C   UNL A   1      48.962  27.444  30.201  1.00  0.00     0.173 A 
ATOM     87  C   UNL A   1      48.183  26.213  32.114  1.00  0.00     0.173 A 
ATOM     88  F   UNL A   1      48.733  28.198  29.115  1.00  0.00    -0.203 F 
ATOM     89  C   UNL A   1      50.270  27.064  30.493  1.00  0.00     0.198 A 
ATOM     90  C   UNL A   1      49.493  25.858  32.418  1.00  0.00     0.198 A 
ATOM     91  F   UNL A   1      47.195  25.781  32.912  1.00  0.00    -0.203 F 
ATOM     92  F   UNL A   1      51.272  27.449  29.690  1.00  0.00    -0.200 F 
ATOM     93  C   UNL A   1      50.535  26.279  31.605  1.00  0.00     0.200 A 
ATOM     94  F   UNL A   1      49.750  25.110  33.500  1.00  0.00    -0.200 F 
ATOM     95  F   UNL A   1      51.795  25.920  31.888  1.00  0.00    -0.200 F 
ENDBRANCH  62  85
ENDBRANCH  36  37
ENDBRANCH  28  31
ENDBRANCH  26  27
ENDBRANCH  25  26
ENDBRANCH   1  25
TORSDOF 15
ENDMDL
MODEL 2
REMARK VINA RESULT:     -12.6      2.811      7.602
REMARK SMILES CCc1cc(/C=C/C(=O)NCCCCNC(=O)c2ccc(-c3c4nc(c(-c5c(F)c(F)c(F)c(F)c5F)c5ccc([nH]5)c(-c5c(F)c(F)c(F)c(F)c5F)c5nc(c(-c6c(F)c(F)c(F)c(F)c6F)c6ccc3[nH]6)C=C5)C=C4)cc2)cc(C(=O)c2ccccc2)c1
REMARK SMILES IDX 12 1 11 2 10 3 8 4 9 5 7 7 6 8 5 9 3 10 4 11 91 12 82 13
REMARK SMILES IDX 81 14 2 15 1 16 83 17 84 18 85 19 86 20 90 21 87 22 89 23
REMARK SMILES IDX 88 24 13 25 14 26 15 27 16 28 17 30 18 31 19 32 80 33 20 34
REMARK SMILES IDX 79 35 21 36 22 37 23 38 73 39 24 40 78 41 72 42 74 43 25 44
REMARK SMILES IDX 77 45 71 46 70 47 26 49 58 50 38 51 57 52 39 53 42 54 56 55
REMARK SMILES IDX 75 56 40 57 41 58 55 60 76 61 43 62 27 63 28 64 36 65 29 66
REMARK SMILES IDX 30 67 34 68 37 69 31 70 32 71 35 72 33 73 59 74 60 75 68 76
REMARK SMILES IDX 61 77 62 78 66 79 69 80 63 81 64 82 67 83 65 84 44 85 45 86
REMARK SMILES IDX 53 87 46 88 47 89 51 90 54 91 48 92 49 93 52 94 50 95
REMARK H PARENT 10 6 15 29 74 48 42 59
REMARK Flexibility Score: inf
ROOT
ATOM      1  C   UNL A   1      31.617  27.808  24.800  1.00  0.00     0.023 C 
ENDROOT
BRANCH   1   2
ATOM      2  C   UNL A   1      32.838  27.594  23.906  1.00  0.00     0.116 C 
BRANCH   2   3
ATOM      3  N   UNL A   1      32.444  27.200  22.568  1.00  0.00    -0.353 N 
ATOM      4  C   UNL A   1      32.397  25.974  21.986  1.00  0.00     0.243 C 
ATOM      5  O   UNL A   1      31.932  25.861  20.853  1.00  0.00    -0.270 OA
ATOM      6  H   UNL A   1      32.167  27.944  21.985  1.00  0.00     0.163 HD
BRANCH   4   7
ATOM      7  C   UNL A   1      32.827  24.752  22.708  1.00  0.00     0.072 C 
ATOM      8  C   UNL A   1      34.101  24.386  22.912  1.00  0.00     0.014 C 
BRANCH   8   9
ATOM      9  C   UNL A   1      34.521  23.127  23.535  1.00  0.00    -0.024 A 
ATOM     10  C   UNL A   1      36.222  21.766  24.637  1.00  0.00    -0.047 A 
ATOM     11  C   UNL A   1      35.850  22.910  23.918  1.00  0.00     0.011 A 
ATOM     12  C   UNL A   1      35.246  20.800  24.925  1.00  0.00     0.016 A 
ATOM     13  C   UNL A   1      33.908  21.007  24.562  1.00  0.00     0.023 A 
ATOM     14  C   UNL A   1      33.555  22.170  23.865  1.00  0.00     0.020 A 
BRANCH  10  15
ATOM     15  C   UNL A   1      37.649  21.560  25.091  1.00  0.00     0.032 C 
ATOM     16  C   UNL A   1      38.216  22.746  25.865  1.00  0.00     0.009 C 
ENDBRANCH  10  15
BRANCH  13  17
ATOM     17  C   UNL A   1      32.836  20.020  24.870  1.00  0.00     0.193 C 
ATOM     18  O   UNL A   1      31.730  20.416  25.234  1.00  0.00    -0.289 OA
BRANCH  17  19
ATOM     19  C   UNL A   1      33.056  18.560  24.736  1.00  0.00     0.022 A 
ATOM     20  C   UNL A   1      32.674  17.730  25.795  1.00  0.00     0.012 A 
ATOM     21  C   UNL A   1      33.660  18.014  23.598  1.00  0.00     0.012 A 
ATOM     22  C   UNL A   1      32.852  16.350  25.696  1.00  0.00     0.001 A 
ATOM     23  C   UNL A   1      33.837  16.632  23.504  1.00  0.00     0.001 A 
ATOM     24  C   UNL A   1      33.426  15.802  24.549  1.00  0.00     0.000 A 
ENDBRANCH  17  19
ENDBRANCH  13  17
ENDBRANCH   8   9
ENDBRANCH   4   7
ENDBRANCH   2   3
ENDBRANCH   1   2
BRANCH   1  25
ATOM     25  C   UNL A   1      31.873  28.684  26.029  1.00  0.00     0.023 C 
BRANCH  25  26
ATOM     26  C   UNL A   1      32.976  29.723  25.865  1.00  0.00     0.116 C 
BRANCH  26  27
ATOM     27  N   UNL A   1      32.606  31.046  26.342  1.00  0.00    -0.352 N 
ATOM     28  C   UNL A   1      33.282  31.855  27.226  1.00  0.00     0.251 C 
ATOM     29  H   UNL A   1      31.763  31.409  25.986  1.00  0.00     0.163 HD
ATOM     30  O   UNL A   1      32.801  32.911  27.604  1.00  0.00    -0.269 OA
BRANCH  28  31
ATOM     31  C   UNL A   1      34.583  31.398  27.754  1.00  0.00     0.039 A 
ATOM     32  C   UNL A   1      35.615  32.331  27.884  1.00  0.00     0.014 A 
ATOM     33  C   UNL A   1      34.759  30.078  28.171  1.00  0.00     0.014 A 
ATOM     34  C   UNL A   1      36.803  31.956  28.511  1.00  0.00     0.010 A 
ATOM     35  C   UNL A   1      35.919  29.722  28.852  1.00  0.00     0.010 A 
ATOM     36  C   UNL A   1      36.943  30.662  29.041  1.00  0.00    -0.014 A 
BRANCH  36  37
ATOM     37  C   UNL A   1      38.139  30.285  29.832  1.00  0.00     0.031 A 
ATOM     38  C   UNL A   1      39.134  29.307  29.281  1.00  0.00     0.074 A 
ATOM     39  C   UNL A   1      38.279  30.766  31.083  1.00  0.00     0.049 A 
ATOM     40  N   UNL A   1      40.195  28.796  29.853  1.00  0.00    -0.248 NA
ATOM     41  C   UNL A   1      38.892  28.818  27.915  1.00  0.00     0.031 C 
ATOM     42  C   UNL A   1      37.347  31.681  31.746  1.00  0.00     0.029 A 
ATOM     43  N   UNL A   1      39.249  30.541  32.026  1.00  0.00    -0.354 N 
ATOM     44  C   UNL A   1      40.737  27.919  28.925  1.00  0.00     0.074 A 
ATOM     45  C   UNL A   1      39.863  27.930  27.770  1.00  0.00     0.031 C 
ATOM     46  C   UNL A   1      37.800  31.951  32.980  1.00  0.00     0.029 A 
ATOM     47  C   UNL A   1      39.033  31.204  33.208  1.00  0.00     0.049 A 
ATOM     48  H   UNL A   1      40.028  29.959  31.869  1.00  0.00     0.167 HD
ATOM     49  C   UNL A   1      41.873  27.188  29.020  1.00  0.00     0.037 A 
ATOM     50  C   UNL A   1      39.743  31.200  34.351  1.00  0.00     0.037 A 
ATOM     51  C   UNL A   1      42.749  27.199  30.162  1.00  0.00     0.049 A 
ATOM     52  C   UNL A   1      41.000  30.378  34.431  1.00  0.00     0.074 A 
ATOM     53  C   UNL A   1      43.958  26.545  30.329  1.00  0.00     0.029 A 
ATOM     54  N   UNL A   1      42.507  27.898  31.336  1.00  0.00    -0.354 N 
ATOM     55  N   UNL A   1      41.543  29.607  33.520  1.00  0.00    -0.248 NA
ATOM     56  C   UNL A   1      41.744  30.427  35.697  1.00  0.00     0.031 C 
ATOM     57  C   UNL A   1      44.427  26.815  31.619  1.00  0.00     0.029 A 
ATOM     58  C   UNL A   1      43.533  27.672  32.239  1.00  0.00     0.049 A 
ATOM     59  H   UNL A   1      41.723  28.468  31.501  1.00  0.00     0.167 HD
ATOM     60  C   UNL A   1      42.701  29.099  34.091  1.00  0.00     0.074 A 
ATOM     61  C   UNL A   1      42.791  29.662  35.422  1.00  0.00     0.031 C 
ATOM     62  C   UNL A   1      43.606  28.242  33.561  1.00  0.00     0.037 A 
BRANCH  49  63
ATOM     63  C   UNL A   1      42.236  26.316  27.854  1.00  0.00     0.064 A 
ATOM     64  C   UNL A   1      41.671  25.043  27.687  1.00  0.00     0.173 A 
ATOM     65  C   UNL A   1      43.130  26.772  26.874  1.00  0.00     0.173 A 
ATOM     66  F   UNL A   1      40.820  24.556  28.602  1.00  0.00    -0.203 F 
ATOM     67  C   UNL A   1      42.008  24.248  26.595  1.00  0.00     0.198 A 
ATOM     68  C   UNL A   1      43.442  25.986  25.768  1.00  0.00     0.198 A 
ATOM     69  F   UNL A   1      43.694  27.984  26.985  1.00  0.00    -0.203 F 
ATOM     70  F   UNL A   1      41.490  23.016  26.479  1.00  0.00    -0.200 F 
ATOM     71  C   UNL A   1      42.887  24.722  25.633  1.00  0.00     0.200 A 
ATOM     72  F   UNL A   1      44.284  26.450  24.835  1.00  0.00    -0.200 F 
ATOM     73  F   UNL A   1      43.206  23.958  24.578  1.00  0.00    -0.200 F 
ENDBRANCH  49  63
BRANCH  50  74
ATOM     74  C   UNL A   1      39.296  32.022  35.505  1.00  0.00     0.064 A 
ATOM     75  C   UNL A   1      38.461  31.480  36.493  1.00  0.00     0.173 A 
ATOM     76  C   UNL A   1      39.690  33.360  35.647  1.00  0.00     0.173 A 
ATOM     77  F   UNL A   1      38.041  30.210  36.388  1.00  0.00    -0.203 F 
ATOM     78  C   UNL A   1      38.023  32.250  37.567  1.00  0.00     0.198 A 
ATOM     79  C   UNL A   1      39.273  34.122  36.736  1.00  0.00     0.198 A 
ATOM     80  F   UNL A   1      40.492  33.925  34.732  1.00  0.00    -0.203 F 
ATOM     81  F   UNL A   1      37.191  31.718  38.474  1.00  0.00    -0.200 F 
ATOM     82  C   UNL A   1      38.433  33.568  37.691  1.00  0.00     0.200 A 
ATOM     83  F   UNL A   1      39.682  35.392  36.859  1.00  0.00    -0.200 F 
ATOM     84  F   UNL A   1      38.015  34.308  38.727  1.00  0.00    -0.200 F 
ENDBRANCH  50  74
BRANCH  62  85
ATOM     85  C   UNL A   1      44.786  27.879  34.414  1.00  0.00     0.064 A 
ATOM     86  C   UNL A   1      45.956  28.651  34.415  1.00  0.00     0.173 A 
ATOM     87  C   UNL A   1      44.731  26.766  35.267  1.00  0.00     0.173 A 
ATOM     88  F   UNL A   1      46.063  29.715  33.604  1.00  0.00    -0.203 F 
ATOM     89  C   UNL A   1      47.038  28.309  35.222  1.00  0.00     0.198 A 
ATOM     90  C   UNL A   1      45.803  26.443  36.092  1.00  0.00     0.198 A 
ATOM     91  F   UNL A   1      43.631  25.998  35.306  1.00  0.00    -0.203 F 
ATOM     92  F   UNL A   1      48.163  29.035  35.174  1.00  0.00    -0.200 F 
ATOM     93  C   UNL A   1      46.958  27.211  36.065  1.00  0.00     0.200 A 
ATOM     94  F   UNL A   1      45.720  25.388  36.916  1.00  0.00    -0.200 F 
ATOM     95  F   UNL A   1      47.998  26.886  36.845  1.00  0.00    -0.200 F 
ENDBRANCH  62  85
ENDBRANCH  36  37
ENDBRANCH  28  31
ENDBRANCH  26  27
ENDBRANCH  25  26
ENDBRANCH   1  25
TORSDOF 15
ENDMDL
MODEL 3
REMARK VINA RESULT:     -12.5      3.827      8.478
REMARK SMILES CCc1cc(/C=C/C(=O)NCCCCNC(=O)c2ccc(-c3c4nc(c(-c5c(F)c(F)c(F)c(F)c5F)c5ccc([nH]5)c(-c5c(F)c(F)c(F)c(F)c5F)c5nc(c(-c6c(F)c(F)c(F)c(F)c6F)c6ccc3[nH]6)C=C5)C=C4)cc2)cc(C(=O)c2ccccc2)c1
REMARK SMILES IDX 12 1 11 2 10 3 8 4 9 5 7 7 6 8 5 9 3 10 4 11 91 12 82 13
REMARK SMILES IDX 81 14 2 15 1 16 83 17 84 18 85 19 86 20 90 21 87 22 89 23
REMARK SMILES IDX 88 24 13 25 14 26 15 27 16 28 17 30 18 31 19 32 80 33 20 34
REMARK SMILES IDX 79 35 21 36 22 37 23 38 73 39 24 40 78 41 72 42 74 43 25 44
REMARK SMILES IDX 77 45 71 46 70 47 26 49 58 50 38 51 57 52 39 53 42 54 56 55
REMARK SMILES IDX 75 56 40 57 41 58 55 60 76 61 43 62 27 63 28 64 36 65 29 66
REMARK SMILES IDX 30 67 34 68 37 69 31 70 32 71 35 72 33 73 59 74 60 75 68 76
REMARK SMILES IDX 61 77 62 78 66 79 69 80 63 81 64 82 67 83 65 84 44 85 45 86
REMARK SMILES IDX 53 87 46 88 47 89 51 90 54 91 48 92 49 93 52 94 50 95
REMARK H PARENT 10 6 15 29 74 48 42 59
REMARK Flexibility Score: inf
ROOT
ATOM      1  C   UNL A   1      37.037  21.490  24.707  1.00  0.00     0.023 C 
ENDROOT
BRANCH   1   2
ATOM      2  C   UNL A   1      35.901  21.717  25.705  1.00  0.00     0.116 C 
BRANCH   2   3
ATOM      3  N   UNL A   1      34.689  21.047  25.277  1.00  0.00    -0.353 N 
ATOM      4  C   UNL A   1      33.475  21.552  24.932  1.00  0.00     0.243 C 
ATOM      5  O   UNL A   1      32.607  20.795  24.502  1.00  0.00    -0.270 OA
ATOM      6  H   UNL A   1      34.755  20.066  25.230  1.00  0.00     0.163 HD
BRANCH   4   7
ATOM      7  C   UNL A   1      33.192  23.006  24.994  1.00  0.00     0.072 C 
ATOM      8  C   UNL A   1      32.037  23.548  25.407  1.00  0.00     0.014 C 
BRANCH   8   9
ATOM      9  C   UNL A   1      31.723  24.981  25.368  1.00  0.00    -0.024 A 
ATOM     10  C   UNL A   1      31.818  27.204  26.372  1.00  0.00    -0.047 A 
ATOM     11  C   UNL A   1      31.988  25.815  26.460  1.00  0.00     0.011 A 
ATOM     12  C   UNL A   1      31.321  27.751  25.179  1.00  0.00     0.016 A 
ATOM     13  C   UNL A   1      31.064  26.933  24.071  1.00  0.00     0.023 A 
ATOM     14  C   UNL A   1      31.264  25.549  24.174  1.00  0.00     0.020 A 
BRANCH  10  15
ATOM     15  C   UNL A   1      32.153  28.105  27.538  1.00  0.00     0.032 C 
ATOM     16  C   UNL A   1      33.312  29.056  27.257  1.00  0.00     0.009 C 
ENDBRANCH  10  15
BRANCH  13  17
ATOM     17  C   UNL A   1      30.559  27.475  22.779  1.00  0.00     0.193 C 
ATOM     18  O   UNL A   1      30.958  26.995  21.720  1.00  0.00    -0.289 OA
BRANCH  17  19
ATOM     19  C   UNL A   1      29.568  28.575  22.727  1.00  0.00     0.022 A 
ATOM     20  C   UNL A   1      28.254  28.307  23.126  1.00  0.00     0.012 A 
ATOM     21  C   UNL A   1      29.914  29.849  22.262  1.00  0.00     0.012 A 
ATOM     22  C   UNL A   1      27.300  29.324  23.105  1.00  0.00     0.001 A 
ATOM     23  C   UNL A   1      28.955  30.863  22.242  1.00  0.00     0.001 A 
ATOM     24  C   UNL A   1      27.652  30.602  22.671  1.00  0.00     0.000 A 
ENDBRANCH  17  19
ENDBRANCH  13  17
ENDBRANCH   8   9
ENDBRANCH   4   7
ENDBRANCH   2   3
ENDBRANCH   1   2
BRANCH   1  25
ATOM     25  C   UNL A   1      37.883  20.243  24.978  1.00  0.00     0.023 C 
BRANCH  25  26
ATOM     26  C   UNL A   1      39.160  20.486  25.773  1.00  0.00     0.116 C 
BRANCH  26  27
ATOM     27  N   UNL A   1      40.021  19.318  25.865  1.00  0.00    -0.352 N 
ATOM     28  C   UNL A   1      41.372  19.271  26.126  1.00  0.00     0.251 C 
ATOM     29  H   UNL A   1      39.582  18.449  25.719  1.00  0.00     0.163 HD
ATOM     30  O   UNL A   1      41.983  18.216  26.082  1.00  0.00    -0.269 OA
BRANCH  28  31
ATOM     31  C   UNL A   1      42.084  20.533  26.410  1.00  0.00     0.039 A 
ATOM     32  C   UNL A   1      42.507  21.318  25.334  1.00  0.00     0.014 A 
ATOM     33  C   UNL A   1      42.278  20.962  27.724  1.00  0.00     0.014 A 
ATOM     34  C   UNL A   1      43.052  22.578  25.578  1.00  0.00     0.010 A 
ATOM     35  C   UNL A   1      42.763  22.243  27.964  1.00  0.00     0.010 A 
ATOM     36  C   UNL A   1      43.140  23.066  26.891  1.00  0.00    -0.014 A 
BRANCH  36  37
ATOM     37  C   UNL A   1      43.587  24.455  27.163  1.00  0.00     0.031 A 
ATOM     38  C   UNL A   1      42.609  25.483  27.648  1.00  0.00     0.074 A 
ATOM     39  C   UNL A   1      44.860  24.802  26.891  1.00  0.00     0.049 A 
ATOM     40  N   UNL A   1      42.792  26.761  27.863  1.00  0.00    -0.248 NA
ATOM     41  C   UNL A   1      41.235  25.020  27.900  1.00  0.00     0.031 C 
ATOM     42  C   UNL A   1      45.887  23.901  26.363  1.00  0.00     0.029 A 
ATOM     43  N   UNL A   1      45.502  26.008  27.004  1.00  0.00    -0.354 N 
ATOM     44  C   UNL A   1      41.558  27.255  28.262  1.00  0.00     0.074 A 
ATOM     45  C   UNL A   1      40.622  26.152  28.214  1.00  0.00     0.031 C 
ATOM     46  C   UNL A   1      47.034  24.581  26.216  1.00  0.00     0.029 A 
ATOM     47  C   UNL A   1      46.816  25.971  26.603  1.00  0.00     0.049 A 
ATOM     48  H   UNL A   1      45.064  26.823  27.341  1.00  0.00     0.167 HD
ATOM     49  C   UNL A   1      41.241  28.513  28.655  1.00  0.00     0.037 A 
ATOM     50  C   UNL A   1      47.735  26.953  26.545  1.00  0.00     0.037 A 
ATOM     51  C   UNL A   1      42.182  29.600  28.722  1.00  0.00     0.049 A 
ATOM     52  C   UNL A   1      47.356  28.339  26.984  1.00  0.00     0.074 A 
ATOM     53  C   UNL A   1      41.974  30.894  29.170  1.00  0.00     0.029 A 
ATOM     54  N   UNL A   1      43.509  29.522  28.326  1.00  0.00    -0.354 N 
ATOM     55  N   UNL A   1      46.205  28.781  27.429  1.00  0.00    -0.248 NA
ATOM     56  C   UNL A   1      48.407  29.365  26.916  1.00  0.00     0.031 C 
ATOM     57  C   UNL A   1      43.165  31.609  29.006  1.00  0.00     0.029 A 
ATOM     58  C   UNL A   1      44.126  30.751  28.498  1.00  0.00     0.049 A 
ATOM     59  H   UNL A   1      43.946  28.714  27.975  1.00  0.00     0.167 HD
ATOM     60  C   UNL A   1      46.396  30.125  27.716  1.00  0.00     0.074 A 
ATOM     61  C   UNL A   1      47.780  30.424  27.409  1.00  0.00     0.031 C 
ATOM     62  C   UNL A   1      45.505  31.030  28.188  1.00  0.00     0.037 A 
BRANCH  49  63
ATOM     63  C   UNL A   1      39.817  28.778  29.046  1.00  0.00     0.064 A 
ATOM     64  C   UNL A   1      39.377  28.614  30.368  1.00  0.00     0.173 A 
ATOM     65  C   UNL A   1      38.891  29.235  28.097  1.00  0.00     0.173 A 
ATOM     66  F   UNL A   1      40.221  28.167  31.310  1.00  0.00    -0.203 F 
ATOM     67  C   UNL A   1      38.056  28.873  30.720  1.00  0.00     0.198 A 
ATOM     68  C   UNL A   1      37.577  29.521  28.460  1.00  0.00     0.198 A 
ATOM     69  F   UNL A   1      39.262  29.413  26.820  1.00  0.00    -0.203 F 
ATOM     70  F   UNL A   1      37.647  28.667  31.980  1.00  0.00    -0.200 F 
ATOM     71  C   UNL A   1      37.159  29.333  29.768  1.00  0.00     0.200 A 
ATOM     72  F   UNL A   1      36.714  29.975  27.540  1.00  0.00    -0.200 F 
ATOM     73  F   UNL A   1      35.888  29.589  30.110  1.00  0.00    -0.200 F 
ENDBRANCH  49  63
BRANCH  50  74
ATOM     74  C   UNL A   1      49.112  26.651  26.074  1.00  0.00     0.064 A 
ATOM     75  C   UNL A   1      50.072  26.126  26.950  1.00  0.00     0.173 A 
ATOM     76  C   UNL A   1      49.496  26.880  24.745  1.00  0.00     0.173 A 
ATOM     77  F   UNL A   1      49.756  25.911  28.236  1.00  0.00    -0.203 F 
ATOM     78  C   UNL A   1      51.369  25.858  26.520  1.00  0.00     0.198 A 
ATOM     79  C   UNL A   1      50.787  26.586  24.309  1.00  0.00     0.198 A 
ATOM     80  F   UNL A   1      48.613  27.376  23.866  1.00  0.00    -0.203 F 
ATOM     81  F   UNL A   1      52.279  25.396  27.389  1.00  0.00    -0.200 F 
ATOM     82  C   UNL A   1      51.724  26.083  25.198  1.00  0.00     0.200 A 
ATOM     83  F   UNL A   1      51.122  26.793  23.028  1.00  0.00    -0.200 F 
ATOM     84  F   UNL A   1      52.970  25.822  24.783  1.00  0.00    -0.200 F 
ENDBRANCH  50  74
BRANCH  62  85
ATOM     85  C   UNL A   1      46.007  32.424  28.424  1.00  0.00     0.064 A 
ATOM     86  C   UNL A   1      45.904  33.417  27.439  1.00  0.00     0.173 A 
ATOM     87  C   UNL A   1      46.563  32.779  29.662  1.00  0.00     0.173 A 
ATOM     88  F   UNL A   1      45.395  33.122  26.234  1.00  0.00    -0.203 F 
ATOM     89  C   UNL A   1      46.363  34.710  27.677  1.00  0.00     0.198 A 
ATOM     90  C   UNL A   1      46.995  34.079  29.906  1.00  0.00     0.198 A 
ATOM     91  F   UNL A   1      46.679  31.866  30.638  1.00  0.00    -0.203 F 
ATOM     92  F   UNL A   1      46.296  35.632  26.707  1.00  0.00    -0.200 F 
ATOM     93  C   UNL A   1      46.901  35.041  28.912  1.00  0.00     0.200 A 
ATOM     94  F   UNL A   1      47.503  34.402  31.104  1.00  0.00    -0.200 F 
ATOM     95  F   UNL A   1      47.336  36.288  29.141  1.00  0.00    -0.200 F 
ENDBRANCH  62  85
ENDBRANCH  36  37
ENDBRANCH  28  31
ENDBRANCH  26  27
ENDBRANCH  25  26
ENDBRANCH   1  25
TORSDOF 15
ENDMDL
