MODEL 1
REMARK VINA RESULT:     -13.7      0.000      0.000
REMARK SMILES Cc1nn(Cc2ccc(Cl)cc2Cl)c(C)c1NC(=O)c1c(C(=O)NCCCCNC(=O)c2ccc(-c3c4nc(c(-c5c(F)c(F)c(F)c(F)c5F)c5ccc([nH]5)c(-c5c(F)c(F)c(F)c(F)c5F)c5nc(c(-c6c(F)c(F)c(F)c(F)c6F)c6ccc3[nH]6)C=C5)C=C4)cc2)cnn1C
REMARK SMILES IDX 25 1 24 2 22 3 23 4 21 6 20 7 97 8 95 9 96 10 98 11 18 12
REMARK SMILES IDX 17 13 19 15 16 16 1 17 2 18 3 19 4 20 14 21 15 22 5 23 6 24
REMARK SMILES IDX 7 25 12 26 8 27 11 28 13 29 9 30 10 31 26 32 27 33 28 34
REMARK SMILES IDX 29 35 30 36 31 38 32 39 33 40 94 41 34 42 93 43 35 44 36 45
REMARK SMILES IDX 37 46 87 47 38 48 92 49 86 50 88 51 39 52 91 53 85 54 84 55
REMARK SMILES IDX 40 57 72 58 52 59 71 60 53 61 56 62 70 63 89 64 54 65 55 66
REMARK SMILES IDX 69 68 90 69 57 70 41 71 42 72 50 73 43 74 44 75 48 76 51 77
REMARK SMILES IDX 45 78 46 79 49 80 47 81 73 82 74 83 82 84 75 85 76 86 80 87
REMARK SMILES IDX 83 88 77 89 78 90 81 91 79 92 58 93 59 94 67 95 60 96 61 97
REMARK SMILES IDX 65 98 68 99 62 100 63 101 66 102 64 103
REMARK H PARENT 24 5 17 14 29 37 88 56 56 67
REMARK Flexibility Score: inf
ROOT
ATOM      1  C   UNL A   1      36.517  21.630  24.285  1.00  0.00     0.116 C 
ENDROOT
BRANCH   1   2
ATOM      2  N   UNL A   1      35.193  21.304  24.796  1.00  0.00    -0.352 N 
ATOM      3  C   UNL A   1      33.929  21.761  24.466  1.00  0.00     0.255 C 
ATOM      4  O   UNL A   1      32.976  21.156  24.959  1.00  0.00    -0.269 OA
ATOM      5  H   UNL A   1      35.198  20.631  25.514  1.00  0.00     0.163 HD
BRANCH   3   6
ATOM      6  C   UNL A   1      33.728  22.923  23.613  1.00  0.00     0.090 A 
ATOM      7  C   UNL A   1      34.010  24.256  23.946  1.00  0.00     0.138 A 
ATOM      8  N   UNL A   1      33.705  24.989  22.821  1.00  0.00    -0.262 N 
ATOM      9  C   UNL A   1      33.151  23.021  22.326  1.00  0.00     0.149 A 
ATOM     10  N   UNL A   1      33.191  24.251  21.820  1.00  0.00    -0.180 NA
ATOM     11  C   UNL A   1      34.032  26.373  22.548  1.00  0.00     0.174 C 
BRANCH   7  12
ATOM     12  C   UNL A   1      34.463  24.879  25.169  1.00  0.00     0.274 C 
ATOM     13  N   UNL A   1      33.797  25.917  25.776  1.00  0.00    -0.317 N 
ATOM     14  H   UNL A   1      34.299  26.336  26.512  1.00  0.00     0.170 HD
ATOM     15  O   UNL A   1      35.492  24.488  25.729  1.00  0.00    -0.267 OA
BRANCH  13  16
ATOM     16  C   UNL A   1      32.560  26.482  25.551  1.00  0.00     0.085 A 
ATOM     17  C   UNL A   1      33.118  28.979  26.102  1.00  0.00     0.071 C 
ATOM     18  C   UNL A   1      32.256  27.874  25.614  1.00  0.00     0.083 A 
ATOM     19  N   UNL A   1      31.029  28.132  25.143  1.00  0.00    -0.175 NA
ATOM     20  N   UNL A   1      30.541  26.910  24.861  1.00  0.00    -0.263 N 
ATOM     21  C   UNL A   1      31.333  25.893  25.340  1.00  0.00     0.060 A 
ATOM     22  C   UNL A   1      30.807  24.528  25.550  1.00  0.00     0.069 C 
BRANCH  20  23
ATOM     23  C   UNL A   1      29.497  26.759  23.852  1.00  0.00     0.181 C 
BRANCH  23  24
ATOM     24  C   UNL A   1      29.156  28.031  23.128  1.00  0.00    -0.008 A 
ATOM     25  C   UNL A   1      30.180  28.658  22.396  1.00  0.00     0.009 A 
ATOM     26  C   UNL A   1      27.878  28.621  23.125  1.00  0.00     0.047 A 
ATOM     27  C   UNL A   1      29.944  29.854  21.719  1.00  0.00     0.021 A 
ATOM     28  C   UNL A   1      27.651  29.831  22.469  1.00  0.00     0.041 A 
ATOM     29  Cl  UNL A   1      26.494  27.908  23.876  1.00  0.00    -0.084 Cl
ATOM     30  C   UNL A   1      28.685  30.444  21.775  1.00  0.00     0.042 A 
ATOM     31  Cl  UNL A   1      28.402  31.939  20.976  1.00  0.00    -0.084 Cl
ENDBRANCH  23  24
ENDBRANCH  20  23
ENDBRANCH  13  16
ENDBRANCH   7  12
ENDBRANCH   3   6
ENDBRANCH   1   2
BRANCH   1  32
ATOM     32  C   UNL A   1      37.710  21.391  25.224  1.00  0.00     0.023 C 
BRANCH  32  33
ATOM     33  C   UNL A   1      38.594  20.157  25.026  1.00  0.00     0.023 C 
BRANCH  33  34
ATOM     34  C   UNL A   1      39.557  19.926  26.176  1.00  0.00     0.116 C 
BRANCH  34  35
ATOM     35  N   UNL A   1      40.741  19.163  25.758  1.00  0.00    -0.352 N 
ATOM     36  C   UNL A   1      42.052  19.579  25.652  1.00  0.00     0.251 C 
ATOM     37  H   UNL A   1      40.575  18.223  25.518  1.00  0.00     0.163 HD
ATOM     38  O   UNL A   1      42.877  18.944  25.001  1.00  0.00    -0.269 OA
BRANCH  36  39
ATOM     39  C   UNL A   1      42.441  20.809  26.348  1.00  0.00     0.039 A 
ATOM     40  C   UNL A   1      42.852  21.950  25.654  1.00  0.00     0.014 A 
ATOM     41  C   UNL A   1      42.268  20.821  27.726  1.00  0.00     0.014 A 
ATOM     42  C   UNL A   1      42.987  23.142  26.359  1.00  0.00     0.010 A 
ATOM     43  C   UNL A   1      42.198  22.023  28.369  1.00  0.00     0.010 A 
ATOM     44  C   UNL A   1      42.626  23.173  27.714  1.00  0.00    -0.014 A 
BRANCH  44  45
ATOM     45  C   UNL A   1      42.571  24.424  28.460  1.00  0.00     0.031 A 
ATOM     46  C   UNL A   1      41.372  25.260  28.172  1.00  0.00     0.074 A 
ATOM     47  C   UNL A   1      43.397  24.660  29.503  1.00  0.00     0.049 A 
ATOM     48  N   UNL A   1      41.335  26.428  27.622  1.00  0.00    -0.248 NA
ATOM     49  C   UNL A   1      40.040  24.669  28.393  1.00  0.00     0.031 C 
ATOM     50  C   UNL A   1      44.395  23.757  30.095  1.00  0.00     0.029 A 
ATOM     51  N   UNL A   1      43.437  25.726  30.344  1.00  0.00    -0.354 N 
ATOM     52  C   UNL A   1      39.996  26.812  27.623  1.00  0.00     0.074 A 
ATOM     53  C   UNL A   1      39.239  25.624  27.914  1.00  0.00     0.031 C 
ATOM     54  C   UNL A   1      44.747  24.203  31.320  1.00  0.00     0.029 A 
ATOM     55  C   UNL A   1      44.153  25.510  31.517  1.00  0.00     0.049 A 
ATOM     56  H   UNL A   1      42.995  26.582  30.141  1.00  0.00     0.167 HD
ATOM     57  C   UNL A   1      39.650  28.130  27.658  1.00  0.00     0.037 A 
ATOM     58  C   UNL A   1      44.227  26.341  32.585  1.00  0.00     0.037 A 
ATOM     59  C   UNL A   1      40.776  28.959  27.304  1.00  0.00     0.049 A 
ATOM     60  C   UNL A   1      43.794  27.683  32.122  1.00  0.00     0.074 A 
ATOM     61  C   UNL A   1      41.580  29.091  26.189  1.00  0.00     0.029 A 
ATOM     62  N   UNL A   1      41.461  29.561  28.330  1.00  0.00    -0.354 N 
ATOM     63  N   UNL A   1      44.465  28.406  31.269  1.00  0.00    -0.248 NA
ATOM     64  C   UNL A   1      42.383  28.011  32.248  1.00  0.00     0.031 C 
ATOM     65  C   UNL A   1      42.890  29.326  26.705  1.00  0.00     0.029 A 
ATOM     66  C   UNL A   1      42.800  29.402  28.096  1.00  0.00     0.049 A 
ATOM     67  H   UNL A   1      41.060  30.026  29.100  1.00  0.00     0.167 HD
ATOM     68  C   UNL A   1      43.499  28.966  30.447  1.00  0.00     0.074 A 
ATOM     69  C   UNL A   1      42.235  28.763  31.154  1.00  0.00     0.031 C 
ATOM     70  C   UNL A   1      43.782  29.271  29.146  1.00  0.00     0.037 A 
BRANCH  57  71
ATOM     71  C   UNL A   1      38.462  28.693  28.411  1.00  0.00     0.064 A 
ATOM     72  C   UNL A   1      37.700  29.715  27.803  1.00  0.00     0.173 A 
ATOM     73  C   UNL A   1      38.237  28.520  29.795  1.00  0.00     0.173 A 
ATOM     74  F   UNL A   1      37.826  29.974  26.493  1.00  0.00    -0.203 F 
ATOM     75  C   UNL A   1      36.873  30.564  28.544  1.00  0.00     0.198 A 
ATOM     76  C   UNL A   1      37.370  29.336  30.520  1.00  0.00     0.198 A 
ATOM     77  F   UNL A   1      38.922  27.638  30.530  1.00  0.00    -0.203 F 
ATOM     78  F   UNL A   1      36.288  31.611  27.944  1.00  0.00    -0.200 F 
ATOM     79  C   UNL A   1      36.719  30.382  29.904  1.00  0.00     0.200 A 
ATOM     80  F   UNL A   1      37.245  29.150  31.842  1.00  0.00    -0.200 F 
ATOM     81  F   UNL A   1      35.986  31.238  30.629  1.00  0.00    -0.200 F 
ENDBRANCH  57  71
BRANCH  58  82
ATOM     82  C   UNL A   1      44.346  25.998  34.021  1.00  0.00     0.064 A 
ATOM     83  C   UNL A   1      43.211  25.675  34.782  1.00  0.00     0.173 A 
ATOM     84  C   UNL A   1      45.595  25.700  34.600  1.00  0.00     0.173 A 
ATOM     85  F   UNL A   1      41.984  25.886  34.285  1.00  0.00    -0.203 F 
ATOM     86  C   UNL A   1      43.319  25.061  36.036  1.00  0.00     0.198 A 
ATOM     87  C   UNL A   1      45.701  25.093  35.853  1.00  0.00     0.198 A 
ATOM     88  F   UNL A   1      46.732  25.903  33.919  1.00  0.00    -0.203 F 
ATOM     89  F   UNL A   1      42.212  24.708  36.705  1.00  0.00    -0.200 F 
ATOM     90  C   UNL A   1      44.563  24.761  36.565  1.00  0.00     0.200 A 
ATOM     91  F   UNL A   1      46.910  24.772  36.336  1.00  0.00    -0.200 F 
ATOM     92  F   UNL A   1      44.665  24.114  37.734  1.00  0.00    -0.200 F 
ENDBRANCH  58  82
BRANCH  70  93
ATOM     93  C   UNL A   1      45.225  29.260  28.723  1.00  0.00     0.064 A 
ATOM     94  C   UNL A   1      46.128  30.314  28.947  1.00  0.00     0.173 A 
ATOM     95  C   UNL A   1      45.745  28.071  28.197  1.00  0.00     0.173 A 
ATOM     96  F   UNL A   1      45.733  31.450  29.534  1.00  0.00    -0.203 F 
ATOM     97  C   UNL A   1      47.478  30.193  28.620  1.00  0.00     0.198 A 
ATOM     98  C   UNL A   1      47.099  27.938  27.907  1.00  0.00     0.198 A 
ATOM     99  F   UNL A   1      44.941  27.011  28.012  1.00  0.00    -0.203 F 
ATOM    100  F   UNL A   1      48.318  31.218  28.834  1.00  0.00    -0.200 F 
ATOM    101  C   UNL A   1      47.963  29.002  28.108  1.00  0.00     0.200 A 
ATOM    102  F   UNL A   1      47.571  26.767  27.458  1.00  0.00    -0.200 F 
ATOM    103  F   UNL A   1      49.269  28.868  27.833  1.00  0.00    -0.200 F 
ENDBRANCH  70  93
ENDBRANCH  44  45
ENDBRANCH  36  39
ENDBRANCH  34  35
ENDBRANCH  33  34
ENDBRANCH  32  33
ENDBRANCH   1  32
TORSDOF 15
ENDMDL
MODEL 2
REMARK VINA RESULT:     -13.7      2.399      6.814
REMARK SMILES Cc1nn(Cc2ccc(Cl)cc2Cl)c(C)c1NC(=O)c1c(C(=O)NCCCCNC(=O)c2ccc(-c3c4nc(c(-c5c(F)c(F)c(F)c(F)c5F)c5ccc([nH]5)c(-c5c(F)c(F)c(F)c(F)c5F)c5nc(c(-c6c(F)c(F)c(F)c(F)c6F)c6ccc3[nH]6)C=C5)C=C4)cc2)cnn1C
REMARK SMILES IDX 25 1 24 2 22 3 23 4 21 6 20 7 97 8 95 9 96 10 98 11 18 12
REMARK SMILES IDX 17 13 19 15 16 16 1 17 2 18 3 19 4 20 14 21 15 22 5 23 6 24
REMARK SMILES IDX 7 25 12 26 8 27 11 28 13 29 9 30 10 31 26 32 27 33 28 34
REMARK SMILES IDX 29 35 30 36 31 38 32 39 33 40 94 41 34 42 93 43 35 44 36 45
REMARK SMILES IDX 37 46 87 47 38 48 92 49 86 50 88 51 39 52 91 53 85 54 84 55
REMARK SMILES IDX 40 57 72 58 52 59 71 60 53 61 56 62 70 63 89 64 54 65 55 66
REMARK SMILES IDX 69 68 90 69 57 70 41 71 42 72 50 73 43 74 44 75 48 76 51 77
REMARK SMILES IDX 45 78 46 79 49 80 47 81 73 82 74 83 82 84 75 85 76 86 80 87
REMARK SMILES IDX 83 88 77 89 78 90 81 91 79 92 58 93 59 94 67 95 60 96 61 97
REMARK SMILES IDX 65 98 68 99 62 100 63 101 66 102 64 103
REMARK H PARENT 24 5 17 14 29 37 88 56 56 67
REMARK Flexibility Score: inf
ROOT
ATOM      1  C   UNL A   1      35.719  21.275  25.615  1.00  0.00     0.116 C 
ENDROOT
BRANCH   1   2
ATOM      2  N   UNL A   1      34.668  21.083  24.625  1.00  0.00    -0.352 N 
ATOM      3  C   UNL A   1      33.468  21.736  24.402  1.00  0.00     0.255 C 
ATOM      4  O   UNL A   1      32.872  21.455  23.361  1.00  0.00    -0.269 OA
ATOM      5  H   UNL A   1      34.845  20.348  23.995  1.00  0.00     0.163 HD
BRANCH   3   6
ATOM      6  C   UNL A   1      32.912  22.677  25.363  1.00  0.00     0.090 A 
ATOM      7  C   UNL A   1      33.312  24.008  25.547  1.00  0.00     0.138 A 
ATOM      8  N   UNL A   1      32.479  24.511  26.522  1.00  0.00    -0.262 N 
ATOM      9  C   UNL A   1      31.935  22.485  26.365  1.00  0.00     0.149 A 
ATOM     10  N   UNL A   1      31.626  23.600  27.024  1.00  0.00    -0.180 NA
ATOM     11  C   UNL A   1      32.309  25.893  26.918  1.00  0.00     0.174 C 
BRANCH   7  12
ATOM     12  C   UNL A   1      34.377  24.794  24.966  1.00  0.00     0.274 C 
ATOM     13  N   UNL A   1      34.175  25.706  23.959  1.00  0.00    -0.317 N 
ATOM     14  H   UNL A   1      35.007  26.053  23.562  1.00  0.00     0.170 HD
ATOM     15  O   UNL A   1      35.538  24.671  25.368  1.00  0.00    -0.267 OA
BRANCH  13  16
ATOM     16  C   UNL A   1      33.030  26.230  23.397  1.00  0.00     0.085 A 
ATOM     17  C   UNL A   1      32.842  24.696  21.286  1.00  0.00     0.071 C 
ATOM     18  C   UNL A   1      32.369  25.732  22.236  1.00  0.00     0.083 A 
ATOM     19  N   UNL A   1      31.176  26.315  22.061  1.00  0.00    -0.175 NA
ATOM     20  N   UNL A   1      31.123  27.220  23.056  1.00  0.00    -0.263 N 
ATOM     21  C   UNL A   1      32.325  27.371  23.706  1.00  0.00     0.060 A 
ATOM     22  C   UNL A   1      32.635  28.579  24.499  1.00  0.00     0.069 C 
BRANCH  20  23
ATOM     23  C   UNL A   1      29.829  27.671  23.561  1.00  0.00     0.181 C 
BRANCH  23  24
ATOM     24  C   UNL A   1      29.254  28.841  22.815  1.00  0.00    -0.008 A 
ATOM     25  C   UNL A   1      30.136  29.620  22.046  1.00  0.00     0.009 A 
ATOM     26  C   UNL A   1      27.891  29.193  22.827  1.00  0.00     0.047 A 
ATOM     27  C   UNL A   1      29.678  30.736  21.346  1.00  0.00     0.021 A 
ATOM     28  C   UNL A   1      27.440  30.326  22.148  1.00  0.00     0.041 A 
ATOM     29  Cl  UNL A   1      26.671  28.266  23.624  1.00  0.00    -0.084 Cl
ATOM     30  C   UNL A   1      28.336  31.094  21.416  1.00  0.00     0.042 A 
ATOM     31  Cl  UNL A   1      27.776  32.493  20.588  1.00  0.00    -0.084 Cl
ENDBRANCH  23  24
ENDBRANCH  20  23
ENDBRANCH  13  16
ENDBRANCH   7  12
ENDBRANCH   3   6
ENDBRANCH   1   2
BRANCH   1  32
ATOM     32  C   UNL A   1      37.163  21.001  25.168  1.00  0.00     0.023 C 
BRANCH  32  33
ATOM     33  C   UNL A   1      38.238  22.070  25.383  1.00  0.00     0.023 C 
BRANCH  33  34
ATOM     34  C   UNL A   1      39.282  21.664  26.407  1.00  0.00     0.116 C 
BRANCH  34  35
ATOM     35  N   UNL A   1      40.634  21.636  25.833  1.00  0.00    -0.352 N 
ATOM     36  C   UNL A   1      41.603  22.617  25.838  1.00  0.00     0.251 C 
ATOM     37  H   UNL A   1      40.883  20.798  25.379  1.00  0.00     0.163 HD
ATOM     38  O   UNL A   1      42.556  22.584  25.064  1.00  0.00    -0.269 OA
BRANCH  36  39
ATOM     39  C   UNL A   1      41.468  23.711  26.806  1.00  0.00     0.039 A 
ATOM     40  C   UNL A   1      42.292  23.804  27.930  1.00  0.00     0.014 A 
ATOM     41  C   UNL A   1      40.560  24.712  26.486  1.00  0.00     0.014 A 
ATOM     42  C   UNL A   1      42.263  24.978  28.677  1.00  0.00     0.010 A 
ATOM     43  C   UNL A   1      40.685  25.929  27.090  1.00  0.00     0.010 A 
ATOM     44  C   UNL A   1      41.476  26.049  28.227  1.00  0.00    -0.014 A 
BRANCH  44  45
ATOM     45  C   UNL A   1      41.541  27.360  28.859  1.00  0.00     0.031 A 
ATOM     46  C   UNL A   1      42.685  28.203  28.411  1.00  0.00     0.074 A 
ATOM     47  C   UNL A   1      40.506  27.850  29.577  1.00  0.00     0.049 A 
ATOM     48  N   UNL A   1      43.685  28.618  29.114  1.00  0.00    -0.248 NA
ATOM     49  C   UNL A   1      42.806  28.508  26.974  1.00  0.00     0.031 C 
ATOM     50  C   UNL A   1      39.186  27.242  29.799  1.00  0.00     0.029 A 
ATOM     51  N   UNL A   1      40.367  29.065  30.169  1.00  0.00    -0.354 N 
ATOM     52  C   UNL A   1      44.451  29.413  28.263  1.00  0.00     0.074 A 
ATOM     53  C   UNL A   1      43.981  29.141  26.931  1.00  0.00     0.031 C 
ATOM     54  C   UNL A   1      38.320  28.177  30.245  1.00  0.00     0.029 A 
ATOM     55  C   UNL A   1      39.062  29.391  30.521  1.00  0.00     0.049 A 
ATOM     56  H   UNL A   1      41.129  29.666  30.334  1.00  0.00     0.167 HD
ATOM     57  C   UNL A   1      45.214  30.427  28.758  1.00  0.00     0.037 A 
ATOM     58  C   UNL A   1      38.622  30.587  30.983  1.00  0.00     0.037 A 
ATOM     59  C   UNL A   1      45.399  30.276  30.181  1.00  0.00     0.049 A 
ATOM     60  C   UNL A   1      39.813  31.331  31.462  1.00  0.00     0.074 A 
ATOM     61  C   UNL A   1      45.961  29.314  30.996  1.00  0.00     0.029 A 
ATOM     62  N   UNL A   1      44.615  31.047  31.002  1.00  0.00    -0.354 N 
ATOM     63  N   UNL A   1      40.522  30.974  32.497  1.00  0.00    -0.248 NA
ATOM     64  C   UNL A   1      40.488  32.199  30.511  1.00  0.00     0.031 C 
ATOM     65  C   UNL A   1      45.116  29.265  32.146  1.00  0.00     0.029 A 
ATOM     66  C   UNL A   1      44.136  30.248  32.005  1.00  0.00     0.049 A 
ATOM     67  H   UNL A   1      44.430  32.008  30.891  1.00  0.00     0.167 HD
ATOM     68  C   UNL A   1      41.836  31.199  32.118  1.00  0.00     0.074 A 
ATOM     69  C   UNL A   1      41.748  32.039  30.924  1.00  0.00     0.031 C 
ATOM     70  C   UNL A   1      42.850  30.441  32.631  1.00  0.00     0.037 A 
BRANCH  57  71
ATOM     71  C   UNL A   1      45.430  31.762  28.073  1.00  0.00     0.064 A 
ATOM     72  C   UNL A   1      44.299  32.518  27.696  1.00  0.00     0.173 A 
ATOM     73  C   UNL A   1      46.648  32.172  27.487  1.00  0.00     0.173 A 
ATOM     74  F   UNL A   1      43.085  32.224  28.186  1.00  0.00    -0.203 F 
ATOM     75  C   UNL A   1      44.367  33.522  26.725  1.00  0.00     0.198 A 
ATOM     76  C   UNL A   1      46.720  33.210  26.559  1.00  0.00     0.198 A 
ATOM     77  F   UNL A   1      47.799  31.524  27.693  1.00  0.00    -0.203 F 
ATOM     78  F   UNL A   1      43.241  34.107  26.294  1.00  0.00    -0.200 F 
ATOM     79  C   UNL A   1      45.576  33.858  26.149  1.00  0.00     0.200 A 
ATOM     80  F   UNL A   1      47.902  33.512  26.002  1.00  0.00    -0.200 F 
ATOM     81  F   UNL A   1      45.635  34.767  25.167  1.00  0.00    -0.200 F 
ENDBRANCH  57  71
BRANCH  58  82
ATOM     82  C   UNL A   1      37.314  31.243  30.758  1.00  0.00     0.064 A 
ATOM     83  C   UNL A   1      36.435  31.485  31.826  1.00  0.00     0.173 A 
ATOM     84  C   UNL A   1      37.025  31.901  29.547  1.00  0.00     0.173 A 
ATOM     85  F   UNL A   1      36.664  30.931  33.025  1.00  0.00    -0.203 F 
ATOM     86  C   UNL A   1      35.348  32.359  31.699  1.00  0.00     0.198 A 
ATOM     87  C   UNL A   1      35.938  32.768  29.420  1.00  0.00     0.198 A 
ATOM     88  F   UNL A   1      37.848  31.791  28.494  1.00  0.00    -0.203 F 
ATOM     89  F   UNL A   1      34.569  32.615  32.759  1.00  0.00    -0.200 F 
ATOM     90  C   UNL A   1      35.108  33.008  30.500  1.00  0.00     0.200 A 
ATOM     91  F   UNL A   1      35.739  33.420  28.265  1.00  0.00    -0.200 F 
ATOM     92  F   UNL A   1      34.108  33.894  30.396  1.00  0.00    -0.200 F 
ENDBRANCH  58  82
BRANCH  70  93
ATOM     93  C   UNL A   1      42.541  29.573  33.820  1.00  0.00     0.064 A 
ATOM     94  C   UNL A   1      42.015  28.271  33.739  1.00  0.00     0.173 A 
ATOM     95  C   UNL A   1      42.931  30.031  35.084  1.00  0.00     0.173 A 
ATOM     96  F   UNL A   1      41.708  27.721  32.559  1.00  0.00    -0.203 F 
ATOM     97  C   UNL A   1      41.851  27.485  34.880  1.00  0.00     0.198 A 
ATOM     98  C   UNL A   1      42.802  29.231  36.215  1.00  0.00     0.198 A 
ATOM     99  F   UNL A   1      43.488  31.246  35.215  1.00  0.00    -0.203 F 
ATOM    100  F   UNL A   1      41.337  26.250  34.778  1.00  0.00    -0.200 F 
ATOM    101  C   UNL A   1      42.253  27.963  36.115  1.00  0.00     0.200 A 
ATOM    102  F   UNL A   1      43.237  29.681  37.401  1.00  0.00    -0.200 F 
ATOM    103  F   UNL A   1      42.136  27.194  37.207  1.00  0.00    -0.200 F 
ENDBRANCH  70  93
ENDBRANCH  44  45
ENDBRANCH  36  39
ENDBRANCH  34  35
ENDBRANCH  33  34
ENDBRANCH  32  33
ENDBRANCH   1  32
TORSDOF 15
ENDMDL
MODEL 3
REMARK VINA RESULT:     -13.7      2.416      6.695
REMARK SMILES Cc1nn(Cc2ccc(Cl)cc2Cl)c(C)c1NC(=O)c1c(C(=O)NCCCCNC(=O)c2ccc(-c3c4nc(c(-c5c(F)c(F)c(F)c(F)c5F)c5ccc([nH]5)c(-c5c(F)c(F)c(F)c(F)c5F)c5nc(c(-c6c(F)c(F)c(F)c(F)c6F)c6ccc3[nH]6)C=C5)C=C4)cc2)cnn1C
REMARK SMILES IDX 25 1 24 2 22 3 23 4 21 6 20 7 97 8 95 9 96 10 98 11 18 12
REMARK SMILES IDX 17 13 19 15 16 16 1 17 2 18 3 19 4 20 14 21 15 22 5 23 6 24
REMARK SMILES IDX 7 25 12 26 8 27 11 28 13 29 9 30 10 31 26 32 27 33 28 34
REMARK SMILES IDX 29 35 30 36 31 38 32 39 33 40 94 41 34 42 93 43 35 44 36 45
REMARK SMILES IDX 37 46 87 47 38 48 92 49 86 50 88 51 39 52 91 53 85 54 84 55
REMARK SMILES IDX 40 57 72 58 52 59 71 60 53 61 56 62 70 63 89 64 54 65 55 66
REMARK SMILES IDX 69 68 90 69 57 70 41 71 42 72 50 73 43 74 44 75 48 76 51 77
REMARK SMILES IDX 45 78 46 79 49 80 47 81 73 82 74 83 82 84 75 85 76 86 80 87
REMARK SMILES IDX 83 88 77 89 78 90 81 91 79 92 58 93 59 94 67 95 60 96 61 97
REMARK SMILES IDX 65 98 68 99 62 100 63 101 66 102 64 103
REMARK H PARENT 24 5 17 14 29 37 88 56 56 67
REMARK Flexibility Score: inf
ROOT
ATOM      1  C   UNL A   1      35.110  20.042  24.741  1.00  0.00     0.116 C 
ENDROOT
BRANCH   1   2
ATOM      2  N   UNL A   1      33.758  20.259  25.237  1.00  0.00    -0.352 N 
ATOM      3  C   UNL A   1      32.777  21.174  24.897  1.00  0.00     0.255 C 
ATOM      4  O   UNL A   1      31.658  20.989  25.377  1.00  0.00    -0.269 OA
ATOM      5  H   UNL A   1      33.491  19.636  25.951  1.00  0.00     0.163 HD
BRANCH   3   6
ATOM      6  C   UNL A   1      33.056  22.324  24.048  1.00  0.00     0.090 A 
ATOM      7  C   UNL A   1      33.564  23.562  24.469  1.00  0.00     0.138 A 
ATOM      8  N   UNL A   1      33.704  24.310  23.322  1.00  0.00    -0.262 N 
ATOM      9  C   UNL A   1      32.827  22.514  22.667  1.00  0.00     0.149 A 
ATOM     10  N   UNL A   1      33.271  23.684  22.213  1.00  0.00    -0.180 NA
ATOM     11  C   UNL A   1      34.403  25.569  23.164  1.00  0.00     0.174 C 
BRANCH   7  12
ATOM     12  C   UNL A   1      33.861  24.098  25.778  1.00  0.00     0.274 C 
ATOM     13  N   UNL A   1      33.280  25.241  26.272  1.00  0.00    -0.317 N 
ATOM     14  H   UNL A   1      33.688  25.567  27.107  1.00  0.00     0.170 HD
ATOM     15  O   UNL A   1      34.668  23.530  26.520  1.00  0.00    -0.267 OA
BRANCH  13  16
ATOM     16  C   UNL A   1      32.236  26.020  25.822  1.00  0.00     0.085 A 
ATOM     17  C   UNL A   1      33.338  28.384  26.020  1.00  0.00     0.071 C 
ATOM     18  C   UNL A   1      32.272  27.431  25.625  1.00  0.00     0.083 A 
ATOM     19  N   UNL A   1      31.180  27.868  24.984  1.00  0.00    -0.175 NA
ATOM     20  N   UNL A   1      30.433  26.756  24.850  1.00  0.00    -0.263 N 
ATOM     21  C   UNL A   1      30.921  25.693  25.574  1.00  0.00     0.060 A 
ATOM     22  C   UNL A   1      30.067  24.544  25.941  1.00  0.00     0.069 C 
BRANCH  20  23
ATOM     23  C   UNL A   1      29.457  26.662  23.769  1.00  0.00     0.181 C 
BRANCH  23  24
ATOM     24  C   UNL A   1      29.126  27.979  23.125  1.00  0.00    -0.008 A 
ATOM     25  C   UNL A   1      30.153  28.639  22.428  1.00  0.00     0.009 A 
ATOM     26  C   UNL A   1      27.854  28.581  23.165  1.00  0.00     0.047 A 
ATOM     27  C   UNL A   1      29.927  29.876  21.825  1.00  0.00     0.021 A 
ATOM     28  C   UNL A   1      27.637  29.831  22.585  1.00  0.00     0.041 A 
ATOM     29  Cl  UNL A   1      26.467  27.838  23.878  1.00  0.00    -0.084 Cl
ATOM     30  C   UNL A   1      28.675  30.474  21.924  1.00  0.00     0.042 A 
ATOM     31  Cl  UNL A   1      28.403  32.019  21.219  1.00  0.00    -0.084 Cl
ENDBRANCH  23  24
ENDBRANCH  20  23
ENDBRANCH  13  16
ENDBRANCH   7  12
ENDBRANCH   3   6
ENDBRANCH   1   2
BRANCH   1  32
ATOM     32  C   UNL A   1      36.233  20.875  25.378  1.00  0.00     0.023 C 
BRANCH  32  33
ATOM     33  C   UNL A   1      36.998  21.891  24.525  1.00  0.00     0.023 C 
BRANCH  33  34
ATOM     34  C   UNL A   1      37.966  22.736  25.334  1.00  0.00     0.116 C 
BRANCH  34  35
ATOM     35  N   UNL A   1      38.722  21.931  26.302  1.00  0.00    -0.352 N 
ATOM     36  C   UNL A   1      39.795  22.296  27.088  1.00  0.00     0.251 C 
ATOM     37  H   UNL A   1      38.422  20.998  26.403  1.00  0.00     0.163 HD
ATOM     38  O   UNL A   1      40.523  21.458  27.613  1.00  0.00    -0.269 OA
BRANCH  36  39
ATOM     39  C   UNL A   1      40.044  23.727  27.289  1.00  0.00     0.039 A 
ATOM     40  C   UNL A   1      39.034  24.679  27.132  1.00  0.00     0.014 A 
ATOM     41  C   UNL A   1      41.304  24.075  27.759  1.00  0.00     0.014 A 
ATOM     42  C   UNL A   1      39.280  25.982  27.556  1.00  0.00     0.010 A 
ATOM     43  C   UNL A   1      41.468  25.290  28.360  1.00  0.00     0.010 A 
ATOM     44  C   UNL A   1      40.494  26.268  28.199  1.00  0.00    -0.014 A 
BRANCH  44  45
ATOM     45  C   UNL A   1      40.737  27.561  28.825  1.00  0.00     0.031 A 
ATOM     46  C   UNL A   1      41.871  28.328  28.236  1.00  0.00     0.074 A 
ATOM     47  C   UNL A   1      39.844  28.111  29.677  1.00  0.00     0.049 A 
ATOM     48  N   UNL A   1      42.982  28.658  28.804  1.00  0.00    -0.248 NA
ATOM     49  C   UNL A   1      41.824  28.646  26.798  1.00  0.00     0.031 C 
ATOM     50  C   UNL A   1      38.523  27.596  30.068  1.00  0.00     0.029 A 
ATOM     51  N   UNL A   1      39.873  29.323  30.291  1.00  0.00    -0.354 N 
ATOM     52  C   UNL A   1      43.685  29.410  27.865  1.00  0.00     0.074 A 
ATOM     53  C   UNL A   1      43.025  29.195  26.605  1.00  0.00     0.031 C 
ATOM     54  C   UNL A   1      37.794  28.583  30.631  1.00  0.00     0.029 A 
ATOM     55  C   UNL A   1      38.652  29.735  30.815  1.00  0.00     0.049 A 
ATOM     56  H   UNL A   1      40.691  29.866  30.358  1.00  0.00     0.167 HD
ATOM     57  C   UNL A   1      44.579  30.359  28.262  1.00  0.00     0.037 A 
ATOM     58  C   UNL A   1      38.365  30.952  31.339  1.00  0.00     0.037 A 
ATOM     59  C   UNL A   1      44.937  30.171  29.646  1.00  0.00     0.049 A 
ATOM     60  C   UNL A   1      39.660  31.601  31.662  1.00  0.00     0.074 A 
ATOM     61  C   UNL A   1      45.530  29.158  30.373  1.00  0.00     0.029 A 
ATOM     62  N   UNL A   1      44.326  30.983  30.570  1.00  0.00    -0.354 N 
ATOM     63  N   UNL A   1      40.471  31.178  32.592  1.00  0.00    -0.248 NA
ATOM     64  C   UNL A   1      40.265  32.434  30.636  1.00  0.00     0.031 C 
ATOM     65  C   UNL A   1      44.842  29.151  31.624  1.00  0.00     0.029 A 
ATOM     66  C   UNL A   1      43.927  30.204  31.621  1.00  0.00     0.049 A 
ATOM     67  H   UNL A   1      44.199  31.957  30.490  1.00  0.00     0.167 HD
ATOM     68  C   UNL A   1      41.737  31.314  32.043  1.00  0.00     0.074 A 
ATOM     69  C   UNL A   1      41.554  32.178  30.878  1.00  0.00     0.031 C 
ATOM     70  C   UNL A   1      42.751  30.477  32.413  1.00  0.00     0.037 A 
BRANCH  57  71
ATOM     71  C   UNL A   1      44.800  31.686  27.563  1.00  0.00     0.064 A 
ATOM     72  C   UNL A   1      46.032  31.909  26.910  1.00  0.00     0.173 A 
ATOM     73  C   UNL A   1      44.018  32.843  27.779  1.00  0.00     0.173 A 
ATOM     74  F   UNL A   1      46.862  30.887  26.650  1.00  0.00    -0.203 F 
ATOM     75  C   UNL A   1      46.489  33.194  26.605  1.00  0.00     0.198 A 
ATOM     76  C   UNL A   1      44.455  34.118  27.424  1.00  0.00     0.198 A 
ATOM     77  F   UNL A   1      42.855  32.813  28.437  1.00  0.00    -0.203 F 
ATOM     78  F   UNL A   1      47.728  33.361  26.121  1.00  0.00    -0.200 F 
ATOM     79  C   UNL A   1      45.706  34.299  26.875  1.00  0.00     0.200 A 
ATOM     80  F   UNL A   1      43.684  35.178  27.706  1.00  0.00    -0.200 F 
ATOM     81  F   UNL A   1      46.170  35.535  26.652  1.00  0.00    -0.200 F 
ENDBRANCH  57  71
BRANCH  58  82
ATOM     82  C   UNL A   1      37.090  31.703  31.294  1.00  0.00     0.064 A 
ATOM     83  C   UNL A   1      36.344  31.931  32.462  1.00  0.00     0.173 A 
ATOM     84  C   UNL A   1      36.726  32.456  30.161  1.00  0.00     0.173 A 
ATOM     85  F   UNL A   1      36.656  31.286  33.595  1.00  0.00    -0.203 F 
ATOM     86  C   UNL A   1      35.315  32.879  32.503  1.00  0.00     0.198 A 
ATOM     87  C   UNL A   1      35.695  33.398  30.201  1.00  0.00     0.198 A 
ATOM     88  F   UNL A   1      37.427  32.363  29.021  1.00  0.00    -0.203 F 
ATOM     89  F   UNL A   1      34.668  33.114  33.653  1.00  0.00    -0.200 F 
ATOM     90  C   UNL A   1      34.999  33.618  31.376  1.00  0.00     0.200 A 
ATOM     91  F   UNL A   1      35.425  34.135  29.114  1.00  0.00    -0.200 F 
ATOM     92  F   UNL A   1      34.059  34.572  31.431  1.00  0.00    -0.200 F 
ENDBRANCH  58  82
BRANCH  70  93
ATOM     93  C   UNL A   1      42.538  29.614  33.626  1.00  0.00     0.064 A 
ATOM     94  C   UNL A   1      41.943  28.340  33.602  1.00  0.00     0.173 A 
ATOM     95  C   UNL A   1      43.093  30.040  34.839  1.00  0.00     0.173 A 
ATOM     96  F   UNL A   1      41.475  27.817  32.462  1.00  0.00    -0.203 F 
ATOM     97  C   UNL A   1      41.873  27.552  34.750  1.00  0.00     0.198 A 
ATOM     98  C   UNL A   1      43.056  29.237  35.974  1.00  0.00     0.198 A 
ATOM     99  F   UNL A   1      43.721  31.225  34.910  1.00  0.00    -0.203 F 
ATOM    100  F   UNL A   1      41.290  26.344  34.703  1.00  0.00    -0.200 F 
ATOM    101  C   UNL A   1      42.437  27.998  35.933  1.00  0.00     0.200 A 
ATOM    102  F   UNL A   1      43.646  29.654  37.103  1.00  0.00    -0.200 F 
ATOM    103  F   UNL A   1      42.408  27.225  37.028  1.00  0.00    -0.200 F 
ENDBRANCH  70  93
ENDBRANCH  44  45
ENDBRANCH  36  39
ENDBRANCH  34  35
ENDBRANCH  33  34
ENDBRANCH  32  33
ENDBRANCH   1  32
TORSDOF 15
ENDMDL
