MODEL 1
REMARK VINA RESULT:     -14.0      0.000      0.000
REMARK SMILES O=C(N/N=C\c1ccccc1C(=O)NCCCCNC(=O)c1ccc(-c2c3nc(c(-c4c(F)c(F)c(F)c(F)c4F)c4ccc([nH]4)c(-c4c(F)c(F)c(F)c(F)c4F)c4nc(c(-c5c(F)c(F)c(F)c(F)c5F)c5ccc2[nH]5)C=C4)C=C3)cc1)C(=O)N1CCCCC1
REMARK SMILES IDX 16 1 15 2 14 3 12 4 13 5 11 7 6 8 7 9 8 10 10 11 9 12 5 13
REMARK SMILES IDX 4 14 3 15 1 16 2 17 85 19 86 20 87 21 88 22 92 23 89 24
REMARK SMILES IDX 91 25 90 26 17 27 18 28 19 29 20 30 21 32 22 33 23 34 84 35
REMARK SMILES IDX 24 36 83 37 25 38 26 39 27 40 77 41 28 42 82 43 76 44 78 45
REMARK SMILES IDX 29 46 81 47 75 48 74 49 30 51 62 52 42 53 61 54 43 55 46 56
REMARK SMILES IDX 60 57 79 58 44 59 45 60 59 62 80 63 47 64 31 65 32 66 40 67
REMARK SMILES IDX 33 68 34 69 38 70 41 71 35 72 36 73 39 74 37 75 63 76 64 77
REMARK SMILES IDX 72 78 65 79 66 80 70 81 73 82 67 83 68 84 71 85 69 86 48 87
REMARK SMILES IDX 49 88 57 89 50 90 51 91 55 92 58 93 52 94 53 95 56 96 54 97
REMARK H PARENT 14 6 3 18 19 31 78 50 46 61
REMARK Flexibility Score: inf
ROOT
ATOM      1  C   UNL A   1      32.618  30.284  27.087  1.00  0.00     0.023 C 
ENDROOT
BRANCH   1   2
ATOM      2  C   UNL A   1      31.871  29.337  26.174  1.00  0.00     0.116 C 
BRANCH   2   3
ATOM      3  N   UNL A   1      31.465  28.109  26.775  1.00  0.00    -0.352 N 
ATOM      4  C   UNL A   1      31.558  26.861  26.241  1.00  0.00     0.251 C 
ATOM      5  O   UNL A   1      31.132  25.911  26.894  1.00  0.00    -0.269 OA
ATOM      6  H   UNL A   1      31.075  28.171  27.678  1.00  0.00     0.163 HD
BRANCH   4   7
ATOM      7  C   UNL A   1      32.110  26.599  24.894  1.00  0.00     0.048 A 
ATOM      8  C   UNL A   1      33.642  25.713  24.463  1.00  0.00     0.007 A 
ATOM      9  C   UNL A   1      33.903  25.058  22.753  1.00  0.00     0.010 A 
ATOM     10  C   UNL A   1      32.707  25.450  21.463  1.00  0.00     0.001 A 
ATOM     11  C   UNL A   1      30.887  26.896  23.595  1.00  0.00     0.014 A 
ATOM     12  C   UNL A   1      31.216  26.387  21.857  1.00  0.00     0.001 A 
BRANCH   8  13
ATOM     13  C   UNL A   1      34.624  25.196  25.373  1.00  0.00     0.142 C 
ATOM     14  N   UNL A   1      34.321  24.141  26.020  1.00  0.00    -0.180 NA
BRANCH  14  15
ATOM     15  N   UNL A   1      33.085  23.665  25.746  1.00  0.00    -0.239 N 
ATOM     16  O   UNL A   1      31.306  22.519  25.317  1.00  0.00    -0.262 OA
ATOM     17  C   UNL A   1      32.478  22.393  25.724  1.00  0.00     0.329 C 
ATOM     18  H   UNL A   1      32.455  24.381  25.500  1.00  0.00     0.194 HD
BRANCH  17  19
ATOM     19  C   UNL A   1      33.033  20.755  26.042  1.00  0.00     0.313 C 
ATOM     20  O   UNL A   1      33.643  21.081  27.125  1.00  0.00    -0.263 OA
ATOM     21  N   UNL A   1      32.787  18.958  25.187  1.00  0.00    -0.334 N 
ATOM     22  C   UNL A   1      32.791  17.363  25.820  1.00  0.00     0.120 C 
ATOM     23  C   UNL A   1      32.432  18.464  23.578  1.00  0.00     0.120 C 
ATOM     24  C   UNL A   1      33.811  16.424  25.158  1.00  0.00     0.022 C 
ATOM     25  C   UNL A   1      33.515  17.554  22.985  1.00  0.00     0.022 C 
ATOM     26  C   UNL A   1      33.549  16.216  23.684  1.00  0.00     0.004 C 
ENDBRANCH  17  19
ENDBRANCH  14  15
ENDBRANCH   8  13
ENDBRANCH   4   7
ENDBRANCH   2   3
ENDBRANCH   1   2
BRANCH   1  27
ATOM     27  C   UNL A   1      32.104  31.707  27.042  1.00  0.00     0.023 C 
BRANCH  27  28
ATOM     28  C   UNL A   1      33.105  32.779  27.448  1.00  0.00     0.116 C 
BRANCH  28  29
ATOM     29  N   UNL A   1      32.536  34.100  27.674  1.00  0.00    -0.352 N 
ATOM     30  C   UNL A   1      32.985  35.035  28.585  1.00  0.00     0.251 C 
ATOM     31  H   UNL A   1      31.757  34.350  27.126  1.00  0.00     0.163 HD
ATOM     32  O   UNL A   1      32.419  36.109  28.742  1.00  0.00    -0.269 OA
BRANCH  30  33
ATOM     33  C   UNL A   1      34.146  34.657  29.417  1.00  0.00     0.039 A 
ATOM     34  C   UNL A   1      33.929  33.849  30.532  1.00  0.00     0.014 A 
ATOM     35  C   UNL A   1      35.438  34.896  28.938  1.00  0.00     0.014 A 
ATOM     36  C   UNL A   1      35.016  33.207  31.126  1.00  0.00     0.010 A 
ATOM     37  C   UNL A   1      36.497  34.162  29.460  1.00  0.00     0.010 A 
ATOM     38  C   UNL A   1      36.300  33.313  30.562  1.00  0.00    -0.014 A 
BRANCH  38  39
ATOM     39  C   UNL A   1      37.449  32.555  31.124  1.00  0.00     0.031 A 
ATOM     40  C   UNL A   1      37.967  32.901  32.493  1.00  0.00     0.074 A 
ATOM     41  C   UNL A   1      38.051  31.589  30.401  1.00  0.00     0.049 A 
ATOM     42  N   UNL A   1      38.970  32.382  33.157  1.00  0.00    -0.248 NA
ATOM     43  C   UNL A   1      37.286  33.997  33.201  1.00  0.00     0.031 C 
ATOM     44  C   UNL A   1      37.678  31.190  29.041  1.00  0.00     0.029 A 
ATOM     45  N   UNL A   1      39.105  30.764  30.708  1.00  0.00    -0.354 N 
ATOM     46  C   UNL A   1      39.038  33.091  34.348  1.00  0.00     0.074 A 
ATOM     47  C   UNL A   1      38.035  34.130  34.284  1.00  0.00     0.031 C 
ATOM     48  C   UNL A   1      38.460  30.170  28.652  1.00  0.00     0.029 A 
ATOM     49  C   UNL A   1      39.420  29.872  29.710  1.00  0.00     0.049 A 
ATOM     50  H   UNL A   1      39.590  30.807  31.564  1.00  0.00     0.167 HD
ATOM     51  C   UNL A   1      39.838  32.876  35.419  1.00  0.00     0.037 A 
ATOM     52  C   UNL A   1      40.377  28.924  29.656  1.00  0.00     0.037 A 
ATOM     53  C   UNL A   1      40.829  31.836  35.486  1.00  0.00     0.049 A 
ATOM     54  C   UNL A   1      41.287  28.733  30.843  1.00  0.00     0.074 A 
ATOM     55  C   UNL A   1      41.663  31.506  36.539  1.00  0.00     0.029 A 
ATOM     56  N   UNL A   1      41.127  30.962  34.449  1.00  0.00    -0.354 N 
ATOM     57  N   UNL A   1      41.290  29.360  31.996  1.00  0.00    -0.248 NA
ATOM     58  C   UNL A   1      42.323  27.699  30.723  1.00  0.00     0.031 C 
ATOM     59  C   UNL A   1      42.509  30.477  36.119  1.00  0.00     0.029 A 
ATOM     60  C   UNL A   1      42.154  30.114  34.829  1.00  0.00     0.049 A 
ATOM     61  H   UNL A   1      40.675  30.947  33.575  1.00  0.00     0.167 HD
ATOM     62  C   UNL A   1      42.299  28.773  32.748  1.00  0.00     0.074 A 
ATOM     63  C   UNL A   1      42.876  27.729  31.926  1.00  0.00     0.031 C 
ATOM     64  C   UNL A   1      42.711  29.071  34.005  1.00  0.00     0.037 A 
BRANCH  51  65
ATOM     65  C   UNL A   1      39.671  33.790  36.600  1.00  0.00     0.064 A 
ATOM     66  C   UNL A   1      38.862  33.441  37.694  1.00  0.00     0.173 A 
ATOM     67  C   UNL A   1      40.339  35.022  36.649  1.00  0.00     0.173 A 
ATOM     68  F   UNL A   1      38.189  32.279  37.694  1.00  0.00    -0.203 F 
ATOM     69  C   UNL A   1      38.695  34.309  38.770  1.00  0.00     0.198 A 
ATOM     70  C   UNL A   1      40.201  35.870  37.745  1.00  0.00     0.198 A 
ATOM     71  F   UNL A   1      41.128  35.405  35.634  1.00  0.00    -0.203 F 
ATOM     72  F   UNL A   1      37.863  33.982  39.769  1.00  0.00    -0.200 F 
ATOM     73  C   UNL A   1      39.371  35.519  38.798  1.00  0.00     0.200 A 
ATOM     74  F   UNL A   1      40.869  37.032  37.777  1.00  0.00    -0.200 F 
ATOM     75  F   UNL A   1      39.215  36.351  39.836  1.00  0.00    -0.200 F 
ENDBRANCH  51  65
BRANCH  52  76
ATOM     76  C   UNL A   1      40.515  28.062  28.449  1.00  0.00     0.064 A 
ATOM     77  C   UNL A   1      39.900  26.802  28.388  1.00  0.00     0.173 A 
ATOM     78  C   UNL A   1      41.281  28.464  27.346  1.00  0.00     0.173 A 
ATOM     79  F   UNL A   1      39.174  26.361  29.426  1.00  0.00    -0.203 F 
ATOM     80  C   UNL A   1      40.068  25.970  27.284  1.00  0.00     0.198 A 
ATOM     81  C   UNL A   1      41.421  27.646  26.227  1.00  0.00     0.198 A 
ATOM     82  F   UNL A   1      41.888  29.660  27.349  1.00  0.00    -0.203 F 
ATOM     83  F   UNL A   1      39.515  24.749  27.276  1.00  0.00    -0.200 F 
ATOM     84  C   UNL A   1      40.823  26.395  26.201  1.00  0.00     0.200 A 
ATOM     85  F   UNL A   1      42.137  28.067  25.176  1.00  0.00    -0.200 F 
ATOM     86  F   UNL A   1      40.983  25.596  25.137  1.00  0.00    -0.200 F 
ENDBRANCH  52  76
BRANCH  64  87
ATOM     87  C   UNL A   1      43.808  28.228  34.594  1.00  0.00     0.064 A 
ATOM     88  C   UNL A   1      45.156  28.612  34.531  1.00  0.00     0.173 A 
ATOM     89  C   UNL A   1      43.497  27.038  35.272  1.00  0.00     0.173 A 
ATOM     90  F   UNL A   1      45.509  29.734  33.884  1.00  0.00    -0.203 F 
ATOM     91  C   UNL A   1      46.153  27.823  35.098  1.00  0.00     0.198 A 
ATOM     92  C   UNL A   1      44.493  26.272  35.870  1.00  0.00     0.198 A 
ATOM     93  F   UNL A   1      42.224  26.628  35.370  1.00  0.00    -0.203 F 
ATOM     94  F   UNL A   1      47.438  28.182  34.976  1.00  0.00    -0.200 F 
ATOM     95  C   UNL A   1      45.820  26.659  35.775  1.00  0.00     0.200 A 
ATOM     96  F   UNL A   1      44.166  25.158  36.541  1.00  0.00    -0.200 F 
ATOM     97  F   UNL A   1      46.781  25.907  36.329  1.00  0.00    -0.200 F 
ENDBRANCH  64  87
ENDBRANCH  38  39
ENDBRANCH  30  33
ENDBRANCH  28  29
ENDBRANCH  27  28
ENDBRANCH   1  27
TORSDOF 14
ENDMDL
MODEL 2
REMARK VINA RESULT:     -13.8      4.522      9.811
REMARK SMILES O=C(N/N=C\c1ccccc1C(=O)NCCCCNC(=O)c1ccc(-c2c3nc(c(-c4c(F)c(F)c(F)c(F)c4F)c4ccc([nH]4)c(-c4c(F)c(F)c(F)c(F)c4F)c4nc(c(-c5c(F)c(F)c(F)c(F)c5F)c5ccc2[nH]5)C=C4)C=C3)cc1)C(=O)N1CCCCC1
REMARK SMILES IDX 16 1 15 2 14 3 12 4 13 5 11 7 6 8 7 9 8 10 10 11 9 12 5 13
REMARK SMILES IDX 4 14 3 15 1 16 2 17 85 19 86 20 87 21 88 22 92 23 89 24
REMARK SMILES IDX 91 25 90 26 17 27 18 28 19 29 20 30 21 32 22 33 23 34 84 35
REMARK SMILES IDX 24 36 83 37 25 38 26 39 27 40 77 41 28 42 82 43 76 44 78 45
REMARK SMILES IDX 29 46 81 47 75 48 74 49 30 51 62 52 42 53 61 54 43 55 46 56
REMARK SMILES IDX 60 57 79 58 44 59 45 60 59 62 80 63 47 64 31 65 32 66 40 67
REMARK SMILES IDX 33 68 34 69 38 70 41 71 35 72 36 73 39 74 37 75 63 76 64 77
REMARK SMILES IDX 72 78 65 79 66 80 70 81 73 82 67 83 68 84 71 85 69 86 48 87
REMARK SMILES IDX 49 88 57 89 50 90 51 91 55 92 58 93 52 94 53 95 56 96 54 97
REMARK H PARENT 14 6 3 18 19 31 78 50 46 61
REMARK Flexibility Score: inf
ROOT
ATOM      1  C   UNL A   1      35.889  23.632  23.898  1.00  0.00     0.023 C 
ENDROOT
BRANCH   1   2
ATOM      2  C   UNL A   1      34.570  24.086  24.486  1.00  0.00     0.116 C 
BRANCH   2   3
ATOM      3  N   UNL A   1      34.664  25.141  25.440  1.00  0.00    -0.352 N 
ATOM      4  C   UNL A   1      33.821  26.199  25.582  1.00  0.00     0.251 C 
ATOM      5  O   UNL A   1      34.070  27.035  26.448  1.00  0.00    -0.269 OA
ATOM      6  H   UNL A   1      35.424  25.100  26.065  1.00  0.00     0.163 HD
BRANCH   4   7
ATOM      7  C   UNL A   1      32.640  26.412  24.717  1.00  0.00     0.048 A 
ATOM      8  C   UNL A   1      30.918  25.900  25.023  1.00  0.00     0.007 A 
ATOM      9  C   UNL A   1      29.524  26.679  24.091  1.00  0.00     0.010 A 
ATOM     10  C   UNL A   1      29.887  27.828  22.751  1.00  0.00     0.001 A 
ATOM     11  C   UNL A   1      32.963  27.636  23.426  1.00  0.00     0.014 A 
ATOM     12  C   UNL A   1      31.592  28.293  22.387  1.00  0.00     0.001 A 
BRANCH   8  13
ATOM     13  C   UNL A   1      30.435  25.118  26.125  1.00  0.00     0.142 C 
ATOM     14  N   UNL A   1      30.413  23.853  25.977  1.00  0.00    -0.180 NA
BRANCH  14  15
ATOM     15  N   UNL A   1      30.853  23.435  24.768  1.00  0.00    -0.239 N 
ATOM     16  O   UNL A   1      31.787  22.484  23.069  1.00  0.00    -0.262 OA
ATOM     17  C   UNL A   1      31.595  22.335  24.292  1.00  0.00     0.329 C 
ATOM     18  H   UNL A   1      30.591  24.047  24.043  1.00  0.00     0.194 HD
BRANCH  17  19
ATOM     19  C   UNL A   1      32.344  20.933  25.044  1.00  0.00     0.313 C 
ATOM     20  O   UNL A   1      32.707  21.583  26.092  1.00  0.00    -0.263 OA
ATOM     21  N   UNL A   1      32.530  18.986  24.602  1.00  0.00    -0.334 N 
ATOM     22  C   UNL A   1      32.682  17.585  25.579  1.00  0.00     0.120 C 
ATOM     23  C   UNL A   1      32.527  18.117  23.117  1.00  0.00     0.120 C 
ATOM     24  C   UNL A   1      33.933  16.742  25.284  1.00  0.00     0.022 C 
ATOM     25  C   UNL A   1      33.823  17.328  22.890  1.00  0.00     0.022 C 
ATOM     26  C   UNL A   1      33.954  16.193  23.876  1.00  0.00     0.004 C 
ENDBRANCH  17  19
ENDBRANCH  14  15
ENDBRANCH   8  13
ENDBRANCH   4   7
ENDBRANCH   2   3
ENDBRANCH   1   2
BRANCH   1  27
ATOM     27  C   UNL A   1      36.255  22.206  24.252  1.00  0.00     0.023 C 
BRANCH  27  28
ATOM     28  C   UNL A   1      36.988  22.025  25.572  1.00  0.00     0.116 C 
BRANCH  28  29
ATOM     29  N   UNL A   1      38.064  21.045  25.551  1.00  0.00    -0.352 N 
ATOM     30  C   UNL A   1      39.326  21.207  26.089  1.00  0.00     0.251 C 
ATOM     31  H   UNL A   1      37.875  20.184  25.112  1.00  0.00     0.163 HD
ATOM     32  O   UNL A   1      40.188  20.344  25.988  1.00  0.00    -0.269 OA
BRANCH  30  33
ATOM     33  C   UNL A   1      39.616  22.502  26.738  1.00  0.00     0.039 A 
ATOM     34  C   UNL A   1      40.635  22.556  27.687  1.00  0.00     0.014 A 
ATOM     35  C   UNL A   1      39.052  23.671  26.216  1.00  0.00     0.014 A 
ATOM     36  C   UNL A   1      41.152  23.797  28.058  1.00  0.00     0.010 A 
ATOM     37  C   UNL A   1      39.649  24.893  26.501  1.00  0.00     0.010 A 
ATOM     38  C   UNL A   1      40.702  24.972  27.428  1.00  0.00    -0.014 A 
BRANCH  38  39
ATOM     39  C   UNL A   1      41.313  26.291  27.741  1.00  0.00     0.031 A 
ATOM     40  C   UNL A   1      42.719  26.582  27.294  1.00  0.00     0.074 A 
ATOM     41  C   UNL A   1      40.629  27.210  28.452  1.00  0.00     0.049 A 
ATOM     42  N   UNL A   1      43.445  27.656  27.483  1.00  0.00    -0.248 NA
ATOM     43  C   UNL A   1      43.416  25.512  26.562  1.00  0.00     0.031 C 
ATOM     44  C   UNL A   1      39.277  27.035  28.987  1.00  0.00     0.029 A 
ATOM     45  N   UNL A   1      40.977  28.479  28.848  1.00  0.00    -0.354 N 
ATOM     46  C   UNL A   1      44.675  27.384  26.900  1.00  0.00     0.074 A 
ATOM     47  C   UNL A   1      44.630  26.019  26.426  1.00  0.00     0.031 C 
ATOM     48  C   UNL A   1      38.895  28.167  29.601  1.00  0.00     0.029 A 
ATOM     49  C   UNL A   1      39.989  29.132  29.545  1.00  0.00     0.049 A 
ATOM     50  H   UNL A   1      41.853  28.882  28.650  1.00  0.00     0.167 HD
ATOM     51  C   UNL A   1      45.737  28.207  26.738  1.00  0.00     0.037 A 
ATOM     52  C   UNL A   1      39.970  30.370  30.081  1.00  0.00     0.037 A 
ATOM     53  C   UNL A   1      45.777  29.568  27.200  1.00  0.00     0.049 A 
ATOM     54  C   UNL A   1      41.183  31.252  29.928  1.00  0.00     0.074 A 
ATOM     55  C   UNL A   1      46.788  30.500  27.051  1.00  0.00     0.029 A 
ATOM     56  N   UNL A   1      44.762  30.190  27.914  1.00  0.00    -0.354 N 
ATOM     57  N   UNL A   1      42.312  31.010  29.306  1.00  0.00    -0.248 NA
ATOM     58  C   UNL A   1      41.115  32.583  30.547  1.00  0.00     0.031 C 
ATOM     59  C   UNL A   1      46.413  31.663  27.729  1.00  0.00     0.029 A 
ATOM     60  C   UNL A   1      45.137  31.483  28.239  1.00  0.00     0.049 A 
ATOM     61  H   UNL A   1      43.903  29.772  28.154  1.00  0.00     0.167 HD
ATOM     62  C   UNL A   1      43.071  32.167  29.428  1.00  0.00     0.074 A 
ATOM     63  C   UNL A   1      42.267  33.116  30.169  1.00  0.00     0.031 C 
ATOM     64  C   UNL A   1      44.321  32.421  28.968  1.00  0.00     0.037 A 
BRANCH  51  65
ATOM     65  C   UNL A   1      46.942  27.650  26.033  1.00  0.00     0.064 A 
ATOM     66  C   UNL A   1      47.060  27.688  24.633  1.00  0.00     0.173 A 
ATOM     67  C   UNL A   1      47.998  27.086  26.762  1.00  0.00     0.173 A 
ATOM     68  F   UNL A   1      46.073  28.203  23.885  1.00  0.00    -0.203 F 
ATOM     69  C   UNL A   1      48.170  27.142  23.992  1.00  0.00     0.198 A 
ATOM     70  C   UNL A   1      49.124  26.578  26.119  1.00  0.00     0.198 A 
ATOM     71  F   UNL A   1      47.940  27.028  28.102  1.00  0.00    -0.203 F 
ATOM     72  F   UNL A   1      48.226  27.129  22.653  1.00  0.00    -0.200 F 
ATOM     73  C   UNL A   1      49.204  26.596  24.735  1.00  0.00     0.200 A 
ATOM     74  F   UNL A   1      50.131  26.065  26.841  1.00  0.00    -0.200 F 
ATOM     75  F   UNL A   1      50.274  26.078  24.117  1.00  0.00    -0.200 F 
ENDBRANCH  51  65
BRANCH  52  76
ATOM     76  C   UNL A   1      38.758  30.863  30.793  1.00  0.00     0.064 A 
ATOM     77  C   UNL A   1      37.707  31.471  30.091  1.00  0.00     0.173 A 
ATOM     78  C   UNL A   1      38.634  30.761  32.186  1.00  0.00     0.173 A 
ATOM     79  F   UNL A   1      37.785  31.613  28.760  1.00  0.00    -0.203 F 
ATOM     80  C   UNL A   1      36.594  31.982  30.756  1.00  0.00     0.198 A 
ATOM     81  C   UNL A   1      37.506  31.241  32.848  1.00  0.00     0.198 A 
ATOM     82  F   UNL A   1      39.608  30.185  32.907  1.00  0.00    -0.203 F 
ATOM     83  F   UNL A   1      35.632  32.608  30.066  1.00  0.00    -0.200 F 
ATOM     84  C   UNL A   1      36.492  31.860  32.134  1.00  0.00     0.200 A 
ATOM     85  F   UNL A   1      37.403  31.106  34.177  1.00  0.00    -0.200 F 
ATOM     86  F   UNL A   1      35.421  32.348  32.774  1.00  0.00    -0.200 F 
ENDBRANCH  52  76
BRANCH  64  87
ATOM     87  C   UNL A   1      44.883  33.795  29.206  1.00  0.00     0.064 A 
ATOM     88  C   UNL A   1      45.664  34.092  30.333  1.00  0.00     0.173 A 
ATOM     89  C   UNL A   1      44.673  34.817  28.267  1.00  0.00     0.173 A 
ATOM     90  F   UNL A   1      45.885  33.155  31.268  1.00  0.00    -0.203 F 
ATOM     91  C   UNL A   1      46.187  35.369  30.526  1.00  0.00     0.198 A 
ATOM     92  C   UNL A   1      45.229  36.080  28.443  1.00  0.00     0.198 A 
ATOM     93  F   UNL A   1      43.941  34.585  27.167  1.00  0.00    -0.203 F 
ATOM     94  F   UNL A   1      46.882  35.644  31.637  1.00  0.00    -0.200 F 
ATOM     95  C   UNL A   1      45.978  36.358  29.577  1.00  0.00     0.200 A 
ATOM     96  F   UNL A   1      45.042  37.029  27.515  1.00  0.00    -0.200 F 
ATOM     97  F   UNL A   1      46.492  37.582  29.758  1.00  0.00    -0.200 F 
ENDBRANCH  64  87
ENDBRANCH  38  39
ENDBRANCH  30  33
ENDBRANCH  28  29
ENDBRANCH  27  28
ENDBRANCH   1  27
TORSDOF 14
ENDMDL
MODEL 3
REMARK VINA RESULT:     -13.8      1.192      2.111
REMARK SMILES O=C(N/N=C\c1ccccc1C(=O)NCCCCNC(=O)c1ccc(-c2c3nc(c(-c4c(F)c(F)c(F)c(F)c4F)c4ccc([nH]4)c(-c4c(F)c(F)c(F)c(F)c4F)c4nc(c(-c5c(F)c(F)c(F)c(F)c5F)c5ccc2[nH]5)C=C4)C=C3)cc1)C(=O)N1CCCCC1
REMARK SMILES IDX 16 1 15 2 14 3 12 4 13 5 11 7 6 8 7 9 8 10 10 11 9 12 5 13
REMARK SMILES IDX 4 14 3 15 1 16 2 17 85 19 86 20 87 21 88 22 92 23 89 24
REMARK SMILES IDX 91 25 90 26 17 27 18 28 19 29 20 30 21 32 22 33 23 34 84 35
REMARK SMILES IDX 24 36 83 37 25 38 26 39 27 40 77 41 28 42 82 43 76 44 78 45
REMARK SMILES IDX 29 46 81 47 75 48 74 49 30 51 62 52 42 53 61 54 43 55 46 56
REMARK SMILES IDX 60 57 79 58 44 59 45 60 59 62 80 63 47 64 31 65 32 66 40 67
REMARK SMILES IDX 33 68 34 69 38 70 41 71 35 72 36 73 39 74 37 75 63 76 64 77
REMARK SMILES IDX 72 78 65 79 66 80 70 81 73 82 67 83 68 84 71 85 69 86 48 87
REMARK SMILES IDX 49 88 57 89 50 90 51 91 55 92 58 93 52 94 53 95 56 96 54 97
REMARK H PARENT 14 6 3 18 19 31 78 50 46 61
REMARK Flexibility Score: inf
ROOT
ATOM      1  C   UNL A   1      31.947  30.279  26.910  1.00  0.00     0.023 C 
ENDROOT
BRANCH   1   2
ATOM      2  C   UNL A   1      33.113  29.334  26.722  1.00  0.00     0.116 C 
BRANCH   2   3
ATOM      3  N   UNL A   1      33.760  29.414  25.454  1.00  0.00    -0.352 N 
ATOM      4  C   UNL A   1      33.365  28.829  24.291  1.00  0.00     0.251 C 
ATOM      5  O   UNL A   1      34.062  28.985  23.290  1.00  0.00    -0.269 OA
ATOM      6  H   UNL A   1      34.583  29.953  25.416  1.00  0.00     0.163 HD
BRANCH   4   7
ATOM      7  C   UNL A   1      32.158  27.982  24.182  1.00  0.00     0.048 A 
ATOM      8  C   UNL A   1      31.717  26.524  25.183  1.00  0.00     0.007 A 
ATOM      9  C   UNL A   1      29.973  25.911  25.238  1.00  0.00     0.010 A 
ATOM     10  C   UNL A   1      28.737  26.660  24.161  1.00  0.00     0.001 A 
ATOM     11  C   UNL A   1      30.871  28.767  23.182  1.00  0.00     0.014 A 
ATOM     12  C   UNL A   1      29.172  28.061  23.111  1.00  0.00     0.001 A 
BRANCH   8  13
ATOM     13  C   UNL A   1      32.522  25.897  26.192  1.00  0.00     0.142 C 
ATOM     14  N   UNL A   1      33.265  24.928  25.827  1.00  0.00    -0.180 NA
BRANCH  14  15
ATOM     15  N   UNL A   1      33.170  24.630  24.511  1.00  0.00    -0.239 N 
ATOM     16  O   UNL A   1      33.270  23.817  22.513  1.00  0.00    -0.262 OA
ATOM     17  C   UNL A   1      33.507  23.526  23.702  1.00  0.00     0.329 C 
ATOM     18  H   UNL A   1      32.768  25.362  23.990  1.00  0.00     0.194 HD
BRANCH  17  19
ATOM     19  C   UNL A   1      34.241  21.955  24.001  1.00  0.00     0.313 C 
ATOM     20  O   UNL A   1      35.402  22.450  24.245  1.00  0.00    -0.263 OA
ATOM     21  N   UNL A   1      33.602  20.056  24.078  1.00  0.00    -0.334 N 
ATOM     22  C   UNL A   1      34.147  18.685  24.953  1.00  0.00     0.120 C 
ATOM     23  C   UNL A   1      32.277  19.236  23.349  1.00  0.00     0.120 C 
ATOM     24  C   UNL A   1      34.499  17.475  24.073  1.00  0.00     0.022 C 
ATOM     25  C   UNL A   1      32.722  18.062  22.467  1.00  0.00     0.022 C 
ATOM     26  C   UNL A   1      33.316  16.948  23.294  1.00  0.00     0.004 C 
ENDBRANCH  17  19
ENDBRANCH  14  15
ENDBRANCH   8  13
ENDBRANCH   4   7
ENDBRANCH   2   3
ENDBRANCH   1   2
BRANCH   1  27
ATOM     27  C   UNL A   1      32.247  31.707  26.504  1.00  0.00     0.023 C 
BRANCH  27  28
ATOM     28  C   UNL A   1      32.951  32.554  27.553  1.00  0.00     0.116 C 
BRANCH  28  29
ATOM     29  N   UNL A   1      32.422  33.900  27.715  1.00  0.00    -0.352 N 
ATOM     30  C   UNL A   1      32.941  34.888  28.528  1.00  0.00     0.251 C 
ATOM     31  H   UNL A   1      31.617  34.128  27.196  1.00  0.00     0.163 HD
ATOM     32  O   UNL A   1      32.406  35.984  28.637  1.00  0.00    -0.269 OA
BRANCH  30  33
ATOM     33  C   UNL A   1      34.142  34.544  29.317  1.00  0.00     0.039 A 
ATOM     34  C   UNL A   1      33.971  33.880  30.531  1.00  0.00     0.014 A 
ATOM     35  C   UNL A   1      35.405  34.656  28.726  1.00  0.00     0.014 A 
ATOM     36  C   UNL A   1      35.068  33.251  31.120  1.00  0.00     0.010 A 
ATOM     37  C   UNL A   1      36.464  33.930  29.257  1.00  0.00     0.010 A 
ATOM     38  C   UNL A   1      36.310  33.223  30.462  1.00  0.00    -0.014 A 
BRANCH  38  39
ATOM     39  C   UNL A   1      37.461  32.472  31.029  1.00  0.00     0.031 A 
ATOM     40  C   UNL A   1      37.970  32.819  32.401  1.00  0.00     0.074 A 
ATOM     41  C   UNL A   1      38.073  31.511  30.308  1.00  0.00     0.049 A 
ATOM     42  N   UNL A   1      38.973  32.306  33.069  1.00  0.00    -0.248 NA
ATOM     43  C   UNL A   1      37.279  33.911  33.106  1.00  0.00     0.031 C 
ATOM     44  C   UNL A   1      37.710  31.110  28.946  1.00  0.00     0.029 A 
ATOM     45  N   UNL A   1      39.131  30.692  30.620  1.00  0.00    -0.354 N 
ATOM     46  C   UNL A   1      39.031  33.015  34.261  1.00  0.00     0.074 A 
ATOM     47  C   UNL A   1      38.021  34.047  34.193  1.00  0.00     0.031 C 
ATOM     48  C   UNL A   1      38.500  30.095  28.560  1.00  0.00     0.029 A 
ATOM     49  C   UNL A   1      39.456  29.803  29.623  1.00  0.00     0.049 A 
ATOM     50  H   UNL A   1      39.611  30.737  31.478  1.00  0.00     0.167 HD
ATOM     51  C   UNL A   1      39.827  32.804  35.336  1.00  0.00     0.037 A 
ATOM     52  C   UNL A   1      40.420  28.861  29.573  1.00  0.00     0.037 A 
ATOM     53  C   UNL A   1      40.824  31.770  35.407  1.00  0.00     0.049 A 
ATOM     54  C   UNL A   1      41.325  28.675  30.764  1.00  0.00     0.074 A 
ATOM     55  C   UNL A   1      41.654  31.445  36.464  1.00  0.00     0.029 A 
ATOM     56  N   UNL A   1      41.133  30.899  34.371  1.00  0.00    -0.354 N 
ATOM     57  N   UNL A   1      41.318  29.301  31.917  1.00  0.00    -0.248 NA
ATOM     58  C   UNL A   1      42.368  27.647  30.648  1.00  0.00     0.031 C 
ATOM     59  C   UNL A   1      42.510  30.422  36.047  1.00  0.00     0.029 A 
ATOM     60  C   UNL A   1      42.163  30.057  34.755  1.00  0.00     0.049 A 
ATOM     61  H   UNL A   1      40.685  30.883  33.495  1.00  0.00     0.167 HD
ATOM     62  C   UNL A   1      42.327  28.719  32.673  1.00  0.00     0.074 A 
ATOM     63  C   UNL A   1      42.915  27.680  31.854  1.00  0.00     0.031 C 
ATOM     64  C   UNL A   1      42.732  29.019  33.933  1.00  0.00     0.037 A 
BRANCH  51  65
ATOM     65  C   UNL A   1      39.648  33.716  36.517  1.00  0.00     0.064 A 
ATOM     66  C   UNL A   1      40.301  34.957  36.596  1.00  0.00     0.173 A 
ATOM     67  C   UNL A   1      38.804  33.354  37.576  1.00  0.00     0.173 A 
ATOM     68  F   UNL A   1      41.132  35.348  35.617  1.00  0.00    -0.203 F 
ATOM     69  C   UNL A   1      40.149  35.779  37.710  1.00  0.00     0.198 A 
ATOM     70  C   UNL A   1      38.622  34.197  38.670  1.00  0.00     0.198 A 
ATOM     71  F   UNL A   1      38.151  32.182  37.551  1.00  0.00    -0.203 F 
ATOM     72  F   UNL A   1      40.836  36.927  37.791  1.00  0.00    -0.200 F 
ATOM     73  C   UNL A   1      39.303  35.403  38.741  1.00  0.00     0.200 A 
ATOM     74  F   UNL A   1      37.791  33.838  39.658  1.00  0.00    -0.200 F 
ATOM     75  F   UNL A   1      39.151  36.198  39.809  1.00  0.00    -0.200 F 
ENDBRANCH  51  65
BRANCH  52  76
ATOM     76  C   UNL A   1      40.570  28.001  28.366  1.00  0.00     0.064 A 
ATOM     77  C   UNL A   1      39.961  26.739  28.299  1.00  0.00     0.173 A 
ATOM     78  C   UNL A   1      41.341  28.408  27.268  1.00  0.00     0.173 A 
ATOM     79  F   UNL A   1      39.230  26.293  29.331  1.00  0.00    -0.203 F 
ATOM     80  C   UNL A   1      40.139  25.908  27.195  1.00  0.00     0.198 A 
ATOM     81  C   UNL A   1      41.492  27.591  26.149  1.00  0.00     0.198 A 
ATOM     82  F   UNL A   1      41.943  29.606  27.276  1.00  0.00    -0.203 F 
ATOM     83  F   UNL A   1      39.592  24.685  27.182  1.00  0.00    -0.200 F 
ATOM     84  C   UNL A   1      40.900  26.338  26.117  1.00  0.00     0.200 A 
ATOM     85  F   UNL A   1      42.213  28.017  25.103  1.00  0.00    -0.200 F 
ATOM     86  F   UNL A   1      41.070  25.540  25.054  1.00  0.00    -0.200 F 
ENDBRANCH  52  76
BRANCH  64  87
ATOM     87  C   UNL A   1      43.831  28.183  34.527  1.00  0.00     0.064 A 
ATOM     88  C   UNL A   1      43.571  26.967  35.176  1.00  0.00     0.173 A 
ATOM     89  C   UNL A   1      45.170  28.585  34.402  1.00  0.00     0.173 A 
ATOM     90  F   UNL A   1      42.307  26.542  35.333  1.00  0.00    -0.203 F 
ATOM     91  C   UNL A   1      44.607  26.201  35.704  1.00  0.00     0.198 A 
ATOM     92  C   UNL A   1      46.205  27.798  34.898  1.00  0.00     0.198 A 
ATOM     93  F   UNL A   1      45.477  29.735  33.783  1.00  0.00    -0.203 F 
ATOM     94  F   UNL A   1      44.329  25.071  36.369  1.00  0.00    -0.200 F 
ATOM     95  C   UNL A   1      45.923  26.612  35.556  1.00  0.00     0.200 A 
ATOM     96  F   UNL A   1      47.478  28.188  34.735  1.00  0.00    -0.200 F 
ATOM     97  F   UNL A   1      46.919  25.867  36.056  1.00  0.00    -0.200 F 
ENDBRANCH  64  87
ENDBRANCH  38  39
ENDBRANCH  30  33
ENDBRANCH  28  29
ENDBRANCH  27  28
ENDBRANCH   1  27
TORSDOF 14
ENDMDL
