MODEL 1
REMARK VINA RESULT:     -12.6      0.000      0.000
REMARK SMILES CC1(C)C(Nc2cc(C(=O)NCCCCNC(=O)c3ccc(-c4c5nc(c(-c6c(F)c(F)c(F)c(F)c6F)c6ccc([nH]6)c(-c6c(F)c(F)c(F)c(F)c6F)c6nc(c(-c7c(F)c(F)c(F)c(F)c7F)c7ccc4[nH]7)C=C6)C=C5)cc3)cc(Cl)n2)C1(C)C
REMARK SMILES IDX 13 1 12 2 11 3 9 4 10 5 8 7 6 8 7 9 85 10 83 11 82 12 84 13
REMARK SMILES IDX 5 14 4 16 1 17 2 18 3 19 86 20 87 21 88 22 14 23 15 24 16 25
REMARK SMILES IDX 17 26 18 28 19 29 20 30 81 31 21 32 80 33 22 34 23 35 24 36
REMARK SMILES IDX 74 37 25 38 79 39 73 40 75 41 26 42 78 43 72 44 71 45 27 47
REMARK SMILES IDX 59 48 39 49 58 50 40 51 43 52 57 53 76 54 41 55 42 56 56 58
REMARK SMILES IDX 77 59 44 60 28 61 29 62 37 63 30 64 31 65 35 66 38 67 32 68
REMARK SMILES IDX 33 69 36 70 34 71 60 72 61 73 69 74 62 75 63 76 67 77 70 78
REMARK SMILES IDX 64 79 65 80 68 81 66 82 45 83 46 84 54 85 47 86 48 87 52 88
REMARK SMILES IDX 55 89 49 90 50 91 53 92 51 93
REMARK H PARENT 11 6 5 15 16 27 75 46 43 57
REMARK Flexibility Score: inf
ROOT
ATOM      1  C   UNL A   1      31.624  30.531  26.674  1.00  0.00     0.023 C 
ENDROOT
BRANCH   1   2
ATOM      2  C   UNL A   1      33.026  29.922  26.637  1.00  0.00     0.116 C 
BRANCH   2   3
ATOM      3  N   UNL A   1      33.473  29.767  25.269  1.00  0.00    -0.352 N 
ATOM      4  C   UNL A   1      33.245  28.831  24.297  1.00  0.00     0.251 C 
ATOM      5  O   UNL A   1      33.836  28.999  23.228  1.00  0.00    -0.269 OA
ATOM      6  H   UNL A   1      34.072  30.491  24.974  1.00  0.00     0.163 HD
BRANCH   4   7
ATOM      7  C   UNL A   1      32.325  27.666  24.430  1.00  0.00     0.046 A 
ATOM      8  C   UNL A   1      32.128  25.332  25.033  1.00  0.00     0.128 A 
ATOM      9  C   UNL A   1      32.909  26.468  24.861  1.00  0.00     0.060 A 
ATOM     10  N   UNL A   1      30.827  25.306  24.710  1.00  0.00    -0.219 NA
ATOM     11  C   UNL A   1      30.276  26.473  24.335  1.00  0.00     0.132 A 
ATOM     12  C   UNL A   1      30.954  27.674  24.220  1.00  0.00     0.055 A 
ATOM     13  Cl  UNL A   1      28.588  26.394  24.036  1.00  0.00    -0.062 Cl
BRANCH   8  14
ATOM     14  N   UNL A   1      32.640  24.185  25.648  1.00  0.00    -0.366 N 
ATOM     15  H   UNL A   1      32.529  24.048  26.617  1.00  0.00     0.162 HD
BRANCH  14  16
ATOM     16  C   UNL A   1      33.348  23.187  24.836  1.00  0.00     0.093 C 
ATOM     17  C   UNL A   1      35.458  23.003  23.361  1.00  0.00     0.014 C 
ATOM     18  C   UNL A   1      34.866  23.182  24.745  1.00  0.00    -0.008 C 
ATOM     19  C   UNL A   1      35.687  24.133  25.587  1.00  0.00     0.014 C 
ATOM     20  C   UNL A   1      34.109  22.017  25.413  1.00  0.00    -0.008 C 
ATOM     21  C   UNL A   1      33.994  20.696  24.683  1.00  0.00     0.014 C 
ATOM     22  C   UNL A   1      34.131  21.831  26.913  1.00  0.00     0.014 C 
ENDBRANCH  14  16
ENDBRANCH   8  14
ENDBRANCH   4   7
ENDBRANCH   2   3
ENDBRANCH   1   2
BRANCH   1  23
ATOM     23  C   UNL A   1      31.611  32.062  26.567  1.00  0.00     0.023 C 
BRANCH  23  24
ATOM     24  C   UNL A   1      32.727  32.774  27.331  1.00  0.00     0.116 C 
BRANCH  24  25
ATOM     25  N   UNL A   1      32.406  34.152  27.666  1.00  0.00    -0.352 N 
ATOM     26  C   UNL A   1      33.003  34.976  28.589  1.00  0.00     0.251 C 
ATOM     27  H   UNL A   1      31.659  34.550  27.162  1.00  0.00     0.163 HD
ATOM     28  O   UNL A   1      32.544  36.086  28.819  1.00  0.00    -0.269 OA
BRANCH  26  29
ATOM     29  C   UNL A   1      34.182  34.493  29.337  1.00  0.00     0.039 A 
ATOM     30  C   UNL A   1      33.982  33.883  30.578  1.00  0.00     0.014 A 
ATOM     31  C   UNL A   1      35.470  34.621  28.812  1.00  0.00     0.014 A 
ATOM     32  C   UNL A   1      35.070  33.338  31.263  1.00  0.00     0.010 A 
ATOM     33  C   UNL A   1      36.544  34.025  29.466  1.00  0.00     0.010 A 
ATOM     34  C   UNL A   1      36.354  33.372  30.694  1.00  0.00    -0.014 A 
BRANCH  34  35
ATOM     35  C   UNL A   1      37.506  32.721  31.363  1.00  0.00     0.031 A 
ATOM     36  C   UNL A   1      38.214  31.574  30.700  1.00  0.00     0.074 A 
ATOM     37  C   UNL A   1      37.864  33.116  32.600  1.00  0.00     0.049 A 
ATOM     38  N   UNL A   1      39.184  30.825  31.159  1.00  0.00    -0.248 NA
ATOM     39  C   UNL A   1      37.753  31.202  29.354  1.00  0.00     0.031 C 
ATOM     40  C   UNL A   1      37.222  34.184  33.367  1.00  0.00     0.029 A 
ATOM     41  N   UNL A   1      38.851  32.655  33.436  1.00  0.00    -0.354 N 
ATOM     42  C   UNL A   1      39.436  29.886  30.168  1.00  0.00     0.074 A 
ATOM     43  C   UNL A   1      38.489  30.129  29.102  1.00  0.00     0.031 C 
ATOM     44  C   UNL A   1      37.839  34.307  34.553  1.00  0.00     0.029 A 
ATOM     45  C   UNL A   1      38.897  33.307  34.644  1.00  0.00     0.049 A 
ATOM     46  H   UNL A   1      39.467  31.926  33.193  1.00  0.00     0.167 HD
ATOM     47  C   UNL A   1      40.386  28.921  30.141  1.00  0.00     0.037 A 
ATOM     48  C   UNL A   1      39.699  33.112  35.708  1.00  0.00     0.037 A 
ATOM     49  C   UNL A   1      41.350  28.703  31.189  1.00  0.00     0.049 A 
ATOM     50  C   UNL A   1      40.754  32.040  35.647  1.00  0.00     0.074 A 
ATOM     51  C   UNL A   1      42.394  27.796  31.226  1.00  0.00     0.029 A 
ATOM     52  N   UNL A   1      41.387  29.405  32.384  1.00  0.00    -0.354 N 
ATOM     53  N   UNL A   1      41.028  31.204  34.675  1.00  0.00    -0.248 NA
ATOM     54  C   UNL A   1      41.614  31.889  36.828  1.00  0.00     0.031 C 
ATOM     55  C   UNL A   1      43.039  27.922  32.460  1.00  0.00     0.029 A 
ATOM     56  C   UNL A   1      42.426  28.940  33.174  1.00  0.00     0.049 A 
ATOM     57  H   UNL A   1      40.767  30.129  32.635  1.00  0.00     0.167 HD
ATOM     58  C   UNL A   1      42.108  30.451  35.113  1.00  0.00     0.074 A 
ATOM     59  C   UNL A   1      42.449  30.938  36.433  1.00  0.00     0.031 C 
ATOM     60  C   UNL A   1      42.760  29.446  34.479  1.00  0.00     0.037 A 
BRANCH  47  61
ATOM     61  C   UNL A   1      40.441  28.029  28.937  1.00  0.00     0.064 A 
ATOM     62  C   UNL A   1      39.721  26.825  28.882  1.00  0.00     0.173 A 
ATOM     63  C   UNL A   1      41.183  28.403  27.807  1.00  0.00     0.173 A 
ATOM     64  F   UNL A   1      39.006  26.418  29.941  1.00  0.00    -0.203 F 
ATOM     65  C   UNL A   1      39.760  26.019  27.747  1.00  0.00     0.198 A 
ATOM     66  C   UNL A   1      41.197  27.607  26.663  1.00  0.00     0.198 A 
ATOM     67  F   UNL A   1      41.886  29.546  27.806  1.00  0.00    -0.203 F 
ATOM     68  F   UNL A   1      39.097  24.854  27.733  1.00  0.00    -0.200 F 
ATOM     69  C   UNL A   1      40.491  26.414  26.638  1.00  0.00     0.200 A 
ATOM     70  F   UNL A   1      41.894  27.996  25.587  1.00  0.00    -0.200 F 
ATOM     71  F   UNL A   1      40.518  25.642  25.542  1.00  0.00    -0.200 F 
ENDBRANCH  47  61
BRANCH  48  72
ATOM     72  C   UNL A   1      39.556  33.965  36.916  1.00  0.00     0.064 A 
ATOM     73  C   UNL A   1      38.790  33.539  38.010  1.00  0.00     0.173 A 
ATOM     74  C   UNL A   1      40.162  35.226  36.996  1.00  0.00     0.173 A 
ATOM     75  F   UNL A   1      38.174  32.348  37.971  1.00  0.00    -0.203 F 
ATOM     76  C   UNL A   1      38.615  34.351  39.128  1.00  0.00     0.198 A 
ATOM     77  C   UNL A   1      40.010  36.028  38.127  1.00  0.00     0.198 A 
ATOM     78  F   UNL A   1      40.909  35.680  35.979  1.00  0.00    -0.203 F 
ATOM     79  F   UNL A   1      37.838  33.939  40.138  1.00  0.00    -0.200 F 
ATOM     80  C   UNL A   1      39.230  35.593  39.187  1.00  0.00     0.200 A 
ATOM     81  F   UNL A   1      40.615  37.221  38.185  1.00  0.00    -0.200 F 
ATOM     82  F   UNL A   1      39.061  36.376  40.262  1.00  0.00    -0.200 F 
ENDBRANCH  48  72
BRANCH  60  83
ATOM     83  C   UNL A   1      43.933  28.834  35.185  1.00  0.00     0.064 A 
ATOM     84  C   UNL A   1      43.785  27.724  36.029  1.00  0.00     0.173 A 
ATOM     85  C   UNL A   1      45.225  29.339  34.981  1.00  0.00     0.173 A 
ATOM     86  F   UNL A   1      42.567  27.215  36.268  1.00  0.00    -0.203 F 
ATOM     87  C   UNL A   1      44.887  27.156  36.662  1.00  0.00     0.198 A 
ATOM     88  C   UNL A   1      46.329  28.751  35.593  1.00  0.00     0.198 A 
ATOM     89  F   UNL A   1      45.420  30.396  34.178  1.00  0.00    -0.203 F 
ATOM     90  F   UNL A   1      44.718  26.123  37.499  1.00  0.00    -0.200 F 
ATOM     91  C   UNL A   1      46.158  27.664  36.437  1.00  0.00     0.200 A 
ATOM     92  F   UNL A   1      47.557  29.236  35.366  1.00  0.00    -0.200 F 
ATOM     93  F   UNL A   1      47.218  27.111  37.041  1.00  0.00    -0.200 F 
ENDBRANCH  60  83
ENDBRANCH  34  35
ENDBRANCH  26  29
ENDBRANCH  24  25
ENDBRANCH  23  24
ENDBRANCH   1  23
TORSDOF 13
ENDMDL
MODEL 2
REMARK VINA RESULT:     -12.5      0.496      7.452
REMARK SMILES CC1(C)C(Nc2cc(C(=O)NCCCCNC(=O)c3ccc(-c4c5nc(c(-c6c(F)c(F)c(F)c(F)c6F)c6ccc([nH]6)c(-c6c(F)c(F)c(F)c(F)c6F)c6nc(c(-c7c(F)c(F)c(F)c(F)c7F)c7ccc4[nH]7)C=C6)C=C5)cc3)cc(Cl)n2)C1(C)C
REMARK SMILES IDX 13 1 12 2 11 3 9 4 10 5 8 7 6 8 7 9 85 10 83 11 82 12 84 13
REMARK SMILES IDX 5 14 4 16 1 17 2 18 3 19 86 20 87 21 88 22 14 23 15 24 16 25
REMARK SMILES IDX 17 26 18 28 19 29 20 30 81 31 21 32 80 33 22 34 23 35 24 36
REMARK SMILES IDX 74 37 25 38 79 39 73 40 75 41 26 42 78 43 72 44 71 45 27 47
REMARK SMILES IDX 59 48 39 49 58 50 40 51 43 52 57 53 76 54 41 55 42 56 56 58
REMARK SMILES IDX 77 59 44 60 28 61 29 62 37 63 30 64 31 65 35 66 38 67 32 68
REMARK SMILES IDX 33 69 36 70 34 71 60 72 61 73 69 74 62 75 63 76 67 77 70 78
REMARK SMILES IDX 64 79 65 80 68 81 66 82 45 83 46 84 54 85 47 86 48 87 52 88
REMARK SMILES IDX 55 89 49 90 50 91 53 92 51 93
REMARK H PARENT 11 6 5 15 16 27 75 46 43 57
REMARK Flexibility Score: inf
ROOT
ATOM      1  C   UNL A   1      31.503  30.591  26.407  1.00  0.00     0.023 C 
ENDROOT
BRANCH   1   2
ATOM      2  C   UNL A   1      32.940  30.079  26.304  1.00  0.00     0.116 C 
BRANCH   2   3
ATOM      3  N   UNL A   1      33.310  29.887  24.918  1.00  0.00    -0.352 N 
ATOM      4  C   UNL A   1      33.039  28.919  23.990  1.00  0.00     0.251 C 
ATOM      5  O   UNL A   1      33.565  29.060  22.884  1.00  0.00    -0.269 OA
ATOM      6  H   UNL A   1      33.880  30.609  24.567  1.00  0.00     0.163 HD
BRANCH   4   7
ATOM      7  C   UNL A   1      32.145  27.747  24.211  1.00  0.00     0.046 A 
ATOM      8  C   UNL A   1      32.013  25.439  24.924  1.00  0.00     0.128 A 
ATOM      9  C   UNL A   1      32.767  26.578  24.670  1.00  0.00     0.060 A 
ATOM     10  N   UNL A   1      30.701  25.379  24.655  1.00  0.00    -0.219 NA
ATOM     11  C   UNL A   1      30.116  26.520  24.251  1.00  0.00     0.132 A 
ATOM     12  C   UNL A   1      30.767  27.724  24.057  1.00  0.00     0.055 A 
ATOM     13  Cl  UNL A   1      28.419  26.401  24.024  1.00  0.00    -0.062 Cl
BRANCH   8  14
ATOM     14  N   UNL A   1      32.569  24.329  25.568  1.00  0.00    -0.366 N 
ATOM     15  H   UNL A   1      32.498  24.233  26.545  1.00  0.00     0.162 HD
BRANCH  14  16
ATOM     16  C   UNL A   1      33.260  23.306  24.772  1.00  0.00     0.093 C 
ATOM     17  C   UNL A   1      35.366  23.064  23.301  1.00  0.00     0.014 C 
ATOM     18  C   UNL A   1      34.778  23.276  24.682  1.00  0.00    -0.008 C 
ATOM     19  C   UNL A   1      35.614  24.228  25.507  1.00  0.00     0.014 C 
ATOM     20  C   UNL A   1      34.003  22.134  25.369  1.00  0.00    -0.008 C 
ATOM     21  C   UNL A   1      33.866  20.803  24.661  1.00  0.00     0.014 C 
ATOM     22  C   UNL A   1      34.022  21.973  26.872  1.00  0.00     0.014 C 
ENDBRANCH  14  16
ENDBRANCH   8  14
ENDBRANCH   4   7
ENDBRANCH   2   3
ENDBRANCH   1   2
BRANCH   1  23
ATOM     23  C   UNL A   1      31.398  32.114  26.563  1.00  0.00     0.023 C 
BRANCH  23  24
ATOM     24  C   UNL A   1      32.607  32.783  27.215  1.00  0.00     0.116 C 
BRANCH  24  25
ATOM     25  N   UNL A   1      32.356  34.157  27.618  1.00  0.00    -0.352 N 
ATOM     26  C   UNL A   1      32.996  34.904  28.578  1.00  0.00     0.251 C 
ATOM     27  H   UNL A   1      31.629  34.616  27.138  1.00  0.00     0.163 HD
ATOM     28  O   UNL A   1      32.593  36.023  28.864  1.00  0.00    -0.269 OA
BRANCH  26  29
ATOM     29  C   UNL A   1      34.151  34.327  29.296  1.00  0.00     0.039 A 
ATOM     30  C   UNL A   1      33.911  33.546  30.430  1.00  0.00     0.014 A 
ATOM     31  C   UNL A   1      35.457  34.536  28.846  1.00  0.00     0.014 A 
ATOM     32  C   UNL A   1      34.978  32.916  31.073  1.00  0.00     0.010 A 
ATOM     33  C   UNL A   1      36.511  33.859  29.451  1.00  0.00     0.010 A 
ATOM     34  C   UNL A   1      36.282  33.038  30.565  1.00  0.00    -0.014 A 
BRANCH  34  35
ATOM     35  C   UNL A   1      37.415  32.305  31.180  1.00  0.00     0.031 A 
ATOM     36  C   UNL A   1      37.915  32.693  32.542  1.00  0.00     0.074 A 
ATOM     37  C   UNL A   1      38.040  31.340  30.476  1.00  0.00     0.049 A 
ATOM     38  N   UNL A   1      38.942  32.230  33.209  1.00  0.00    -0.248 NA
ATOM     39  C   UNL A   1      37.180  33.761  33.236  1.00  0.00     0.031 C 
ATOM     40  C   UNL A   1      37.679  30.909  29.125  1.00  0.00     0.029 A 
ATOM     41  N   UNL A   1      39.120  30.556  30.798  1.00  0.00    -0.354 N 
ATOM     42  C   UNL A   1      38.986  32.960  34.389  1.00  0.00     0.074 A 
ATOM     43  C   UNL A   1      37.913  33.928  34.329  1.00  0.00     0.031 C 
ATOM     44  C   UNL A   1      38.511  29.929  28.739  1.00  0.00     0.029 A 
ATOM     45  C   UNL A   1      39.484  29.686  29.799  1.00  0.00     0.049 A 
ATOM     46  H   UNL A   1      39.590  30.613  31.661  1.00  0.00     0.167 HD
ATOM     47  C   UNL A   1      39.833  32.821  35.436  1.00  0.00     0.037 A 
ATOM     48  C   UNL A   1      40.495  28.798  29.744  1.00  0.00     0.037 A 
ATOM     49  C   UNL A   1      40.879  31.835  35.507  1.00  0.00     0.049 A 
ATOM     50  C   UNL A   1      41.415  28.657  30.927  1.00  0.00     0.074 A 
ATOM     51  C   UNL A   1      41.747  31.571  36.552  1.00  0.00     0.029 A 
ATOM     52  N   UNL A   1      41.197  30.948  34.490  1.00  0.00    -0.354 N 
ATOM     53  N   UNL A   1      41.402  29.306  32.066  1.00  0.00    -0.248 NA
ATOM     54  C   UNL A   1      42.484  27.656  30.819  1.00  0.00     0.031 C 
ATOM     55  C   UNL A   1      42.615  30.550  36.153  1.00  0.00     0.029 A 
ATOM     56  C   UNL A   1      42.259  30.146  34.876  1.00  0.00     0.049 A 
ATOM     57  H   UNL A   1      40.735  30.895  33.621  1.00  0.00     0.167 HD
ATOM     58  C   UNL A   1      42.438  28.772  32.820  1.00  0.00     0.074 A 
ATOM     59  C   UNL A   1      43.051  27.737  32.015  1.00  0.00     0.031 C 
ATOM     60  C   UNL A   1      42.846  29.110  34.068  1.00  0.00     0.037 A 
BRANCH  47  61
ATOM     61  C   UNL A   1      39.661  33.752  36.600  1.00  0.00     0.064 A 
ATOM     62  C   UNL A   1      38.859  33.412  37.700  1.00  0.00     0.173 A 
ATOM     63  C   UNL A   1      40.343  34.977  36.639  1.00  0.00     0.173 A 
ATOM     64  F   UNL A   1      38.176  32.256  37.705  1.00  0.00    -0.203 F 
ATOM     65  C   UNL A   1      38.728  34.273  38.785  1.00  0.00     0.198 A 
ATOM     66  C   UNL A   1      40.232  35.825  37.738  1.00  0.00     0.198 A 
ATOM     67  F   UNL A   1      41.127  35.349  35.615  1.00  0.00    -0.203 F 
ATOM     68  F   UNL A   1      37.924  33.945  39.805  1.00  0.00    -0.200 F 
ATOM     69  C   UNL A   1      39.421  35.474  38.807  1.00  0.00     0.200 A 
ATOM     70  F   UNL A   1      40.911  36.980  37.764  1.00  0.00    -0.200 F 
ATOM     71  F   UNL A   1      39.303  36.298  39.858  1.00  0.00    -0.200 F 
ENDBRANCH  47  61
BRANCH  48  72
ATOM     72  C   UNL A   1      40.679  27.952  28.537  1.00  0.00     0.064 A 
ATOM     73  C   UNL A   1      41.463  28.396  27.462  1.00  0.00     0.173 A 
ATOM     74  C   UNL A   1      40.066  26.697  28.422  1.00  0.00     0.173 A 
ATOM     75  F   UNL A   1      42.053  29.599  27.516  1.00  0.00    -0.203 F 
ATOM     76  C   UNL A   1      41.605  27.628  26.308  1.00  0.00     0.198 A 
ATOM     77  C   UNL A   1      40.231  25.917  27.279  1.00  0.00     0.198 A 
ATOM     78  F   UNL A   1      39.310  26.224  29.424  1.00  0.00    -0.203 F 
ATOM     79  F   UNL A   1      42.319  28.098  25.276  1.00  0.00    -0.200 F 
ATOM     80  C   UNL A   1      40.993  26.387  26.220  1.00  0.00     0.200 A 
ATOM     81  F   UNL A   1      39.649  24.713  27.203  1.00  0.00    -0.200 F 
ATOM     82  F   UNL A   1      41.129  25.648  25.110  1.00  0.00    -0.200 F 
ENDBRANCH  48  72
BRANCH  60  83
ATOM     83  C   UNL A   1      43.981  28.326  34.656  1.00  0.00     0.064 A 
ATOM     84  C   UNL A   1      45.310  28.756  34.538  1.00  0.00     0.173 A 
ATOM     85  C   UNL A   1      43.730  27.152  35.381  1.00  0.00     0.173 A 
ATOM     86  F   UNL A   1      45.602  29.865  33.841  1.00  0.00    -0.203 F 
ATOM     87  C   UNL A   1      46.350  28.026  35.107  1.00  0.00     0.198 A 
ATOM     88  C   UNL A   1      44.770  26.440  35.972  1.00  0.00     0.198 A 
ATOM     89  F   UNL A   1      42.475  26.702  35.526  1.00  0.00    -0.203 F 
ATOM     90  F   UNL A   1      47.617  28.432  34.945  1.00  0.00    -0.200 F 
ATOM     91  C   UNL A   1      46.079  26.874  35.829  1.00  0.00     0.200 A 
ATOM     92  F   UNL A   1      44.505  25.333  36.680  1.00  0.00    -0.200 F 
ATOM     93  F   UNL A   1      47.081  26.177  36.383  1.00  0.00    -0.200 F 
ENDBRANCH  60  83
ENDBRANCH  34  35
ENDBRANCH  26  29
ENDBRANCH  24  25
ENDBRANCH  23  24
ENDBRANCH   1  23
TORSDOF 13
ENDMDL
MODEL 3
REMARK VINA RESULT:     -12.5      5.860     11.321
REMARK SMILES CC1(C)C(Nc2cc(C(=O)NCCCCNC(=O)c3ccc(-c4c5nc(c(-c6c(F)c(F)c(F)c(F)c6F)c6ccc([nH]6)c(-c6c(F)c(F)c(F)c(F)c6F)c6nc(c(-c7c(F)c(F)c(F)c(F)c7F)c7ccc4[nH]7)C=C6)C=C5)cc3)cc(Cl)n2)C1(C)C
REMARK SMILES IDX 13 1 12 2 11 3 9 4 10 5 8 7 6 8 7 9 85 10 83 11 82 12 84 13
REMARK SMILES IDX 5 14 4 16 1 17 2 18 3 19 86 20 87 21 88 22 14 23 15 24 16 25
REMARK SMILES IDX 17 26 18 28 19 29 20 30 81 31 21 32 80 33 22 34 23 35 24 36
REMARK SMILES IDX 74 37 25 38 79 39 73 40 75 41 26 42 78 43 72 44 71 45 27 47
REMARK SMILES IDX 59 48 39 49 58 50 40 51 43 52 57 53 76 54 41 55 42 56 56 58
REMARK SMILES IDX 77 59 44 60 28 61 29 62 37 63 30 64 31 65 35 66 38 67 32 68
REMARK SMILES IDX 33 69 36 70 34 71 60 72 61 73 69 74 62 75 63 76 67 77 70 78
REMARK SMILES IDX 64 79 65 80 68 81 66 82 45 83 46 84 54 85 47 86 48 87 52 88
REMARK SMILES IDX 55 89 49 90 50 91 53 92 51 93
REMARK H PARENT 11 6 5 15 16 27 75 46 43 57
REMARK Flexibility Score: inf
ROOT
ATOM      1  C   UNL A   1      37.348  21.044  24.543  1.00  0.00     0.023 C 
ENDROOT
BRANCH   1   2
ATOM      2  C   UNL A   1      37.171  22.108  25.628  1.00  0.00     0.116 C 
BRANCH   2   3
ATOM      3  N   UNL A   1      36.045  21.782  26.476  1.00  0.00    -0.352 N 
ATOM      4  C   UNL A   1      34.688  21.885  26.332  1.00  0.00     0.251 C 
ATOM      5  O   UNL A   1      34.009  21.538  27.301  1.00  0.00    -0.269 OA
ATOM      6  H   UNL A   1      36.313  21.406  27.346  1.00  0.00     0.163 HD
BRANCH   4   7
ATOM      7  C   UNL A   1      33.991  22.346  25.099  1.00  0.00     0.046 A 
ATOM      8  C   UNL A   1      33.428  24.247  23.712  1.00  0.00     0.128 A 
ATOM      9  C   UNL A   1      34.033  23.724  24.848  1.00  0.00     0.060 A 
ATOM     10  N   UNL A   1      32.710  23.485  22.874  1.00  0.00    -0.219 NA
ATOM     11  C   UNL A   1      32.712  22.162  23.109  1.00  0.00     0.132 A 
ATOM     12  C   UNL A   1      33.359  21.541  24.162  1.00  0.00     0.055 A 
ATOM     13  Cl  UNL A   1      31.862  21.236  21.941  1.00  0.00    -0.062 Cl
BRANCH   8  14
ATOM     14  N   UNL A   1      33.622  25.579  23.333  1.00  0.00    -0.366 N 
ATOM     15  H   UNL A   1      34.459  25.854  22.894  1.00  0.00     0.162 HD
BRANCH  14  16
ATOM     16  C   UNL A   1      32.566  26.564  23.598  1.00  0.00     0.093 C 
ATOM     17  C   UNL A   1      31.381  27.673  25.604  1.00  0.00     0.014 C 
ATOM     18  C   UNL A   1      32.649  27.503  24.791  1.00  0.00    -0.008 C 
ATOM     19  C   UNL A   1      33.883  27.522  25.665  1.00  0.00     0.014 C 
ATOM     20  C   UNL A   1      32.717  28.047  23.350  1.00  0.00    -0.008 C 
ATOM     21  C   UNL A   1      31.516  28.772  22.778  1.00  0.00     0.014 C 
ATOM     22  C   UNL A   1      34.014  28.561  22.770  1.00  0.00     0.014 C 
ENDBRANCH  14  16
ENDBRANCH   8  14
ENDBRANCH   4   7
ENDBRANCH   2   3
ENDBRANCH   1   2
BRANCH   1  23
ATOM     23  C   UNL A   1      38.160  19.824  25.000  1.00  0.00     0.023 C 
BRANCH  23  24
ATOM     24  C   UNL A   1      39.356  20.141  25.896  1.00  0.00     0.116 C 
BRANCH  24  25
ATOM     25  N   UNL A   1      40.344  19.074  25.935  1.00  0.00    -0.352 N 
ATOM     26  C   UNL A   1      41.699  19.163  26.142  1.00  0.00     0.251 C 
ATOM     27  H   UNL A   1      39.994  18.165  25.794  1.00  0.00     0.163 HD
ATOM     28  O   UNL A   1      42.408  18.171  26.046  1.00  0.00    -0.269 OA
BRANCH  26  29
ATOM     29  C   UNL A   1      42.304  20.478  26.441  1.00  0.00     0.039 A 
ATOM     30  C   UNL A   1      42.842  21.220  25.387  1.00  0.00     0.014 A 
ATOM     31  C   UNL A   1      42.321  20.983  27.743  1.00  0.00     0.014 A 
ATOM     32  C   UNL A   1      43.337  22.503  25.629  1.00  0.00     0.010 A 
ATOM     33  C   UNL A   1      42.759  22.284  27.972  1.00  0.00     0.010 A 
ATOM     34  C   UNL A   1      43.265  23.059  26.917  1.00  0.00    -0.014 A 
BRANCH  34  35
ATOM     35  C   UNL A   1      43.702  24.452  27.176  1.00  0.00     0.031 A 
ATOM     36  C   UNL A   1      42.719  25.472  27.675  1.00  0.00     0.074 A 
ATOM     37  C   UNL A   1      44.968  24.813  26.889  1.00  0.00     0.049 A 
ATOM     38  N   UNL A   1      42.889  26.753  27.882  1.00  0.00    -0.248 NA
ATOM     39  C   UNL A   1      41.357  24.994  27.955  1.00  0.00     0.031 C 
ATOM     40  C   UNL A   1      46.001  23.926  26.353  1.00  0.00     0.029 A 
ATOM     41  N   UNL A   1      45.598  26.028  26.998  1.00  0.00    -0.354 N 
ATOM     42  C   UNL A   1      41.655  27.235  28.297  1.00  0.00     0.074 A 
ATOM     43  C   UNL A   1      40.734  26.121  28.270  1.00  0.00     0.031 C 
ATOM     44  C   UNL A   1      47.139  24.620  26.193  1.00  0.00     0.029 A 
ATOM     45  C   UNL A   1      46.908  26.007  26.583  1.00  0.00     0.049 A 
ATOM     46  H   UNL A   1      45.154  26.837  27.339  1.00  0.00     0.167 HD
ATOM     47  C   UNL A   1      41.327  28.490  28.685  1.00  0.00     0.037 A 
ATOM     48  C   UNL A   1      47.816  27.000  26.519  1.00  0.00     0.037 A 
ATOM     49  C   UNL A   1      42.255  29.590  28.742  1.00  0.00     0.049 A 
ATOM     50  C   UNL A   1      47.427  28.383  26.967  1.00  0.00     0.074 A 
ATOM     51  C   UNL A   1      42.035  30.882  29.185  1.00  0.00     0.029 A 
ATOM     52  N   UNL A   1      43.582  29.522  28.346  1.00  0.00    -0.354 N 
ATOM     53  N   UNL A   1      46.275  28.810  27.424  1.00  0.00    -0.248 NA
ATOM     54  C   UNL A   1      48.466  29.419  26.896  1.00  0.00     0.031 C 
ATOM     55  C   UNL A   1      43.219  31.608  29.021  1.00  0.00     0.029 A 
ATOM     56  C   UNL A   1      44.189  30.756  28.519  1.00  0.00     0.049 A 
ATOM     57  H   UNL A   1      44.028  28.717  27.996  1.00  0.00     0.167 HD
ATOM     58  C   UNL A   1      46.459  30.153  27.723  1.00  0.00     0.074 A 
ATOM     59  C   UNL A   1      47.836  30.467  27.409  1.00  0.00     0.031 C 
ATOM     60  C   UNL A   1      45.566  31.046  28.215  1.00  0.00     0.037 A 
BRANCH  47  61
ATOM     61  C   UNL A   1      39.905  28.746  29.089  1.00  0.00     0.064 A 
ATOM     62  C   UNL A   1      38.937  29.144  28.154  1.00  0.00     0.173 A 
ATOM     63  C   UNL A   1      39.494  28.545  30.414  1.00  0.00     0.173 A 
ATOM     64  F   UNL A   1      39.283  29.361  26.875  1.00  0.00    -0.203 F 
ATOM     65  C   UNL A   1      37.615  29.353  28.536  1.00  0.00     0.198 A 
ATOM     66  C   UNL A   1      38.165  28.728  30.788  1.00  0.00     0.198 A 
ATOM     67  F   UNL A   1      40.379  28.160  31.347  1.00  0.00    -0.203 F 
ATOM     68  F   UNL A   1      36.718  29.773  27.634  1.00  0.00    -0.200 F 
ATOM     69  C   UNL A   1      37.229  29.137  29.850  1.00  0.00     0.200 A 
ATOM     70  F   UNL A   1      37.790  28.508  32.055  1.00  0.00    -0.200 F 
ATOM     71  F   UNL A   1      35.953  29.329  30.215  1.00  0.00    -0.200 F 
ENDBRANCH  47  61
BRANCH  48  72
ATOM     72  C   UNL A   1      49.192  26.720  26.034  1.00  0.00     0.064 A 
ATOM     73  C   UNL A   1      49.548  26.968  24.700  1.00  0.00     0.173 A 
ATOM     74  C   UNL A   1      50.172  26.185  26.881  1.00  0.00     0.173 A 
ATOM     75  F   UNL A   1      48.639  27.460  23.846  1.00  0.00    -0.203 F 
ATOM     76  C   UNL A   1      50.823  26.667  24.227  1.00  0.00     0.198 A 
ATOM     77  C   UNL A   1      51.456  25.910  26.414  1.00  0.00     0.198 A 
ATOM     78  F   UNL A   1      49.885  25.933  28.167  1.00  0.00    -0.203 F 
ATOM     79  F   UNL A   1      51.121  26.868  22.936  1.00  0.00    -0.200 F 
ATOM     80  C   UNL A   1      51.778  26.143  25.086  1.00  0.00     0.200 A 
ATOM     81  F   UNL A   1      52.379  25.416  27.249  1.00  0.00    -0.200 F 
ATOM     82  F   UNL A   1      53.004  25.854  24.630  1.00  0.00    -0.200 F 
ENDBRANCH  48  72
BRANCH  60  83
ATOM     83  C   UNL A   1      46.061  32.437  28.482  1.00  0.00     0.064 A 
ATOM     84  C   UNL A   1      46.634  32.789  29.712  1.00  0.00     0.173 A 
ATOM     85  C   UNL A   1      45.998  33.416  27.480  1.00  0.00     0.173 A 
ATOM     86  F   UNL A   1      46.702  31.892  30.707  1.00  0.00    -0.203 F 
ATOM     87  C   UNL A   1      47.106  34.079  29.937  1.00  0.00     0.198 A 
ATOM     88  C   UNL A   1      46.497  34.697  27.698  1.00  0.00     0.198 A 
ATOM     89  F   UNL A   1      45.464  33.126  26.284  1.00  0.00    -0.203 F 
ATOM     90  F   UNL A   1      47.610  34.407  31.135  1.00  0.00    -0.200 F 
ATOM     91  C   UNL A   1      47.044  35.029  28.928  1.00  0.00     0.200 A 
ATOM     92  F   UNL A   1      46.447  35.610  26.719  1.00  0.00    -0.200 F 
ATOM     93  F   UNL A   1      47.506  36.268  29.144  1.00  0.00    -0.200 F 
ENDBRANCH  60  83
ENDBRANCH  34  35
ENDBRANCH  26  29
ENDBRANCH  24  25
ENDBRANCH  23  24
ENDBRANCH   1  23
TORSDOF 13
ENDMDL
