MODEL 1
REMARK VINA RESULT:     -13.8      0.000      0.000
REMARK SMILES COc1ccc(-n2c(SCc3cn(-c4ccc(C(=O)NCCCCNC(=O)c5ccc(-c6c7nc(c(-c8c(F)c(F)c(F)c(F)c8F)c8ccc([nH]8)c(-c8c(F)c(F)c(F)c(F)c8F)c8nc(c(-c9c(F)c(F)c(F)c(F)c9F)c9ccc6[nH]9)C=C8)C=C7)cc5)cc4)nn3)nc3ccccc3c2=O)cc1
REMARK SMILES IDX 18 1 19 2 20 3 17 5 14 6 15 7 92 8 16 9 91 10 13 11 11 12
REMARK SMILES IDX 12 13 94 14 93 15 10 16 9 17 8 18 7 19 102 20 95 21 101 22
REMARK SMILES IDX 103 23 96 24 100 25 97 26 99 27 98 28 6 29 3 30 4 31 105 32
REMARK SMILES IDX 5 33 104 34 2 35 1 36 21 37 22 38 23 39 24 40 25 41 26 42
REMARK SMILES IDX 27 44 28 45 29 46 90 47 30 48 89 49 31 50 32 51 33 52 83 53
REMARK SMILES IDX 34 54 88 55 82 56 84 57 35 58 87 59 81 60 80 61 36 63 68 64
REMARK SMILES IDX 48 65 67 66 49 67 52 68 66 69 85 70 50 71 51 72 65 74 86 75
REMARK SMILES IDX 53 76 37 77 38 78 46 79 39 80 40 81 44 82 47 83 41 84 42 85
REMARK SMILES IDX 45 86 43 87 69 88 70 89 78 90 71 91 72 92 76 93 79 94 73 95
REMARK SMILES IDX 74 96 77 97 75 98 54 99 55 100 63 101 56 102 57 103 61 104
REMARK SMILES IDX 64 105 58 106 59 107 62 108 60 109
REMARK H PARENT 20 4 25 43 84 62 52 73
REMARK Flexibility Score: inf
ROOT
ATOM      1  C   UNL A   1      44.871  26.642  25.293  1.00  0.00     0.251 C 
ATOM      2  O   UNL A   1      44.840  27.854  25.085  1.00  0.00    -0.269 OA
ATOM      3  N   UNL A   1      46.095  26.019  25.292  1.00  0.00    -0.352 N 
ATOM      4  H   UNL A   1      46.844  26.616  25.064  1.00  0.00     0.163 HD
ENDROOT
BRANCH   1   5
ATOM      5  C   UNL A   1      43.606  25.924  25.596  1.00  0.00     0.039 A 
ATOM      6  C   UNL A   1      41.252  24.730  26.383  1.00  0.00     0.066 A 
ATOM      7  C   UNL A   1      41.192  26.018  25.864  1.00  0.00     0.029 A 
ATOM      8  C   UNL A   1      42.429  23.995  26.425  1.00  0.00     0.029 A 
ATOM      9  C   UNL A   1      42.392  26.631  25.510  1.00  0.00     0.016 A 
ATOM     10  C   UNL A   1      43.580  24.580  25.962  1.00  0.00     0.016 A 
BRANCH   6  11
ATOM     11  N   UNL A   1      40.102  24.032  26.716  1.00  0.00    -0.220 N 
ATOM     12  C   UNL A   1      38.474  22.735  26.150  1.00  0.00     0.093 A 
ATOM     13  C   UNL A   1      39.829  22.746  26.325  1.00  0.00     0.141 A 
ATOM     14  N   UNL A   1      37.984  23.978  26.459  1.00  0.00    -0.134 NA
ATOM     15  N   UNL A   1      38.971  24.728  26.902  1.00  0.00    -0.062 NA
BRANCH  12  16
ATOM     16  C   UNL A   1      37.615  21.626  25.710  1.00  0.00     0.138 C 
BRANCH  16  17
ATOM     17  S   UNL A   1      36.366  22.121  24.544  1.00  0.00    -0.081 SA
BRANCH  17  18
ATOM     18  C   UNL A   1      34.803  21.833  25.427  1.00  0.00     0.176 A 
ATOM     19  N   UNL A   1      33.921  21.019  24.734  1.00  0.00    -0.255 N 
ATOM     20  C   UNL A   1      32.983  21.674  23.945  1.00  0.00     0.266 A 
ATOM     21  N   UNL A   1      34.342  22.892  26.026  1.00  0.00    -0.223 NA
ATOM     22  C   UNL A   1      33.163  23.164  23.926  1.00  0.00     0.066 A 
ATOM     23  O   UNL A   1      32.104  21.150  23.272  1.00  0.00    -0.268 OA
ATOM     24  C   UNL A   1      33.780  23.741  25.054  1.00  0.00     0.079 A 
ATOM     25  C   UNL A   1      33.026  23.896  22.752  1.00  0.00     0.016 A 
ATOM     26  C   UNL A   1      34.172  25.078  25.041  1.00  0.00     0.029 A 
ATOM     27  C   UNL A   1      33.511  25.208  22.716  1.00  0.00     0.001 A 
ATOM     28  C   UNL A   1      34.059  25.804  23.858  1.00  0.00     0.002 A 
BRANCH  19  29
ATOM     29  C   UNL A   1      33.904  19.614  24.959  1.00  0.00     0.052 A 
ATOM     30  C   UNL A   1      33.516  16.842  24.667  1.00  0.00     0.119 A 
ATOM     31  C   UNL A   1      34.751  17.409  24.355  1.00  0.00     0.048 A 
ATOM     32  C   UNL A   1      32.536  17.630  25.270  1.00  0.00     0.048 A 
ATOM     33  C   UNL A   1      34.934  18.796  24.471  1.00  0.00     0.030 A 
ATOM     34  C   UNL A   1      32.743  19.007  25.450  1.00  0.00     0.030 A 
BRANCH  30  35
ATOM     35  O   UNL A   1      33.347  15.509  24.416  1.00  0.00    -0.497 OA
ATOM     36  C   UNL A   1      32.828  14.761  25.520  1.00  0.00     0.278 C 
ENDBRANCH  30  35
ENDBRANCH  19  29
ENDBRANCH  17  18
ENDBRANCH  16  17
ENDBRANCH  12  16
ENDBRANCH   6  11
ENDBRANCH   1   5
BRANCH   3  37
ATOM     37  C   UNL A   1      46.501  24.651  25.563  1.00  0.00     0.116 C 
BRANCH  37  38
ATOM     38  C   UNL A   1      47.180  24.506  26.935  1.00  0.00     0.023 C 
BRANCH  38  39
ATOM     39  C   UNL A   1      47.364  25.808  27.717  1.00  0.00     0.023 C 
BRANCH  39  40
ATOM     40  C   UNL A   1      46.410  25.995  28.889  1.00  0.00     0.116 C 
BRANCH  40  41
ATOM     41  N   UNL A   1      45.686  24.770  29.248  1.00  0.00    -0.352 N 
ATOM     42  C   UNL A   1      44.620  24.630  30.130  1.00  0.00     0.251 C 
ATOM     43  H   UNL A   1      45.994  23.945  28.810  1.00  0.00     0.163 HD
ATOM     44  O   UNL A   1      44.364  23.572  30.665  1.00  0.00    -0.269 OA
BRANCH  42  45
ATOM     45  C   UNL A   1      43.773  25.813  30.361  1.00  0.00     0.039 A 
ATOM     46  C   UNL A   1      43.939  26.671  31.449  1.00  0.00     0.014 A 
ATOM     47  C   UNL A   1      42.823  26.073  29.385  1.00  0.00     0.014 A 
ATOM     48  C   UNL A   1      43.182  27.841  31.489  1.00  0.00     0.010 A 
ATOM     49  C   UNL A   1      42.270  27.316  29.303  1.00  0.00     0.010 A 
ATOM     50  C   UNL A   1      42.358  28.161  30.397  1.00  0.00    -0.014 A 
BRANCH  50  51
ATOM     51  C   UNL A   1      41.627  29.416  30.314  1.00  0.00     0.031 A 
ATOM     52  C   UNL A   1      42.418  30.561  29.799  1.00  0.00     0.074 A 
ATOM     53  C   UNL A   1      40.285  29.479  30.466  1.00  0.00     0.049 A 
ATOM     54  N   UNL A   1      42.786  31.613  30.449  1.00  0.00    -0.248 NA
ATOM     55  C   UNL A   1      42.988  30.468  28.445  1.00  0.00     0.031 C 
ATOM     56  C   UNL A   1      39.322  28.384  30.655  1.00  0.00     0.029 A 
ATOM     57  N   UNL A   1      39.472  30.564  30.380  1.00  0.00    -0.354 N 
ATOM     58  C   UNL A   1      43.462  32.414  29.535  1.00  0.00     0.074 A 
ATOM     59  C   UNL A   1      43.718  31.584  28.387  1.00  0.00     0.031 C 
ATOM     60  C   UNL A   1      38.068  28.833  30.425  1.00  0.00     0.029 A 
ATOM     61  C   UNL A   1      38.120  30.270  30.256  1.00  0.00     0.049 A 
ATOM     62  H   UNL A   1      39.816  31.486  30.403  1.00  0.00     0.167 HD
ATOM     63  C   UNL A   1      43.527  33.764  29.711  1.00  0.00     0.037 A 
ATOM     64  C   UNL A   1      37.126  31.157  29.999  1.00  0.00     0.037 A 
ATOM     65  C   UNL A   1      43.182  34.122  31.066  1.00  0.00     0.049 A 
ATOM     66  C   UNL A   1      37.645  32.503  30.365  1.00  0.00     0.074 A 
ATOM     67  C   UNL A   1      43.688  33.792  32.310  1.00  0.00     0.029 A 
ATOM     68  N   UNL A   1      41.919  34.611  31.305  1.00  0.00    -0.354 N 
ATOM     69  N   UNL A   1      37.926  32.856  31.590  1.00  0.00    -0.248 NA
ATOM     70  C   UNL A   1      38.325  33.258  29.323  1.00  0.00     0.031 C 
ATOM     71  C   UNL A   1      42.538  33.603  33.134  1.00  0.00     0.029 A 
ATOM     72  C   UNL A   1      41.411  33.917  32.375  1.00  0.00     0.049 A 
ATOM     73  H   UNL A   1      41.464  35.325  30.803  1.00  0.00     0.167 HD
ATOM     74  C   UNL A   1      39.118  33.559  31.490  1.00  0.00     0.074 A 
ATOM     75  C   UNL A   1      39.281  33.829  30.062  1.00  0.00     0.031 C 
ATOM     76  C   UNL A   1      40.011  33.595  32.523  1.00  0.00     0.037 A 
BRANCH  63  77
ATOM     77  C   UNL A   1      43.521  34.777  28.591  1.00  0.00     0.064 A 
ATOM     78  C   UNL A   1      44.750  35.309  28.150  1.00  0.00     0.173 A 
ATOM     79  C   UNL A   1      42.371  35.467  28.154  1.00  0.00     0.173 A 
ATOM     80  F   UNL A   1      45.910  34.739  28.511  1.00  0.00    -0.203 F 
ATOM     81  C   UNL A   1      44.821  36.495  27.416  1.00  0.00     0.198 A 
ATOM     82  C   UNL A   1      42.444  36.620  27.375  1.00  0.00     0.198 A 
ATOM     83  F   UNL A   1      41.139  35.132  28.551  1.00  0.00    -0.203 F 
ATOM     84  F   UNL A   1      46.015  37.036  27.141  1.00  0.00    -0.200 F 
ATOM     85  C   UNL A   1      43.668  37.155  27.038  1.00  0.00     0.200 A 
ATOM     86  F   UNL A   1      41.313  37.254  27.032  1.00  0.00    -0.200 F 
ATOM     87  F   UNL A   1      43.732  38.328  26.396  1.00  0.00    -0.200 F 
ENDBRANCH  63  77
BRANCH  64  88
ATOM     88  C   UNL A   1      35.924  30.958  29.154  1.00  0.00     0.064 A 
ATOM     89  C   UNL A   1      34.914  31.933  29.080  1.00  0.00     0.173 A 
ATOM     90  C   UNL A   1      35.868  29.931  28.188  1.00  0.00     0.173 A 
ATOM     91  F   UNL A   1      34.917  32.968  29.931  1.00  0.00    -0.203 F 
ATOM     92  C   UNL A   1      33.928  31.897  28.087  1.00  0.00     0.198 A 
ATOM     93  C   UNL A   1      34.881  29.894  27.201  1.00  0.00     0.198 A 
ATOM     94  F   UNL A   1      36.826  28.995  28.124  1.00  0.00    -0.203 F 
ATOM     95  F   UNL A   1      33.017  32.878  28.012  1.00  0.00    -0.200 F 
ATOM     96  C   UNL A   1      33.919  30.883  27.142  1.00  0.00     0.200 A 
ATOM     97  F   UNL A   1      34.907  28.927  26.273  1.00  0.00    -0.200 F 
ATOM     98  F   UNL A   1      33.011  30.881  26.156  1.00  0.00    -0.200 F 
ENDBRANCH  64  88
BRANCH  76  99
ATOM     99  C   UNL A   1      39.583  33.046  33.857  1.00  0.00     0.064 A 
ATOM    100  C   UNL A   1      39.777  31.713  34.266  1.00  0.00     0.173 A 
ATOM    101  C   UNL A   1      39.107  33.945  34.821  1.00  0.00     0.173 A 
ATOM    102  F   UNL A   1      40.322  30.811  33.442  1.00  0.00    -0.203 F 
ATOM    103  C   UNL A   1      39.473  31.298  35.562  1.00  0.00     0.198 A 
ATOM    104  C   UNL A   1      38.838  33.537  36.124  1.00  0.00     0.198 A 
ATOM    105  F   UNL A   1      38.954  35.242  34.510  1.00  0.00    -0.203 F 
ATOM    106  F   UNL A   1      39.664  30.019  35.920  1.00  0.00    -0.200 F 
ATOM    107  C   UNL A   1      39.011  32.213  36.493  1.00  0.00     0.200 A 
ATOM    108  F   UNL A   1      38.441  34.436  37.035  1.00  0.00    -0.200 F 
ATOM    109  F   UNL A   1      38.760  31.825  37.751  1.00  0.00    -0.200 F 
ENDBRANCH  76  99
ENDBRANCH  50  51
ENDBRANCH  42  45
ENDBRANCH  40  41
ENDBRANCH  39  40
ENDBRANCH  38  39
ENDBRANCH  37  38
ENDBRANCH   3  37
TORSDOF 17
ENDMDL
MODEL 2
REMARK VINA RESULT:     -13.6      4.633      8.930
REMARK SMILES COc1ccc(-n2c(SCc3cn(-c4ccc(C(=O)NCCCCNC(=O)c5ccc(-c6c7nc(c(-c8c(F)c(F)c(F)c(F)c8F)c8ccc([nH]8)c(-c8c(F)c(F)c(F)c(F)c8F)c8nc(c(-c9c(F)c(F)c(F)c(F)c9F)c9ccc6[nH]9)C=C8)C=C7)cc5)cc4)nn3)nc3ccccc3c2=O)cc1
REMARK SMILES IDX 18 1 19 2 20 3 17 5 14 6 15 7 92 8 16 9 91 10 13 11 11 12
REMARK SMILES IDX 12 13 94 14 93 15 10 16 9 17 8 18 7 19 102 20 95 21 101 22
REMARK SMILES IDX 103 23 96 24 100 25 97 26 99 27 98 28 6 29 3 30 4 31 105 32
REMARK SMILES IDX 5 33 104 34 2 35 1 36 21 37 22 38 23 39 24 40 25 41 26 42
REMARK SMILES IDX 27 44 28 45 29 46 90 47 30 48 89 49 31 50 32 51 33 52 83 53
REMARK SMILES IDX 34 54 88 55 82 56 84 57 35 58 87 59 81 60 80 61 36 63 68 64
REMARK SMILES IDX 48 65 67 66 49 67 52 68 66 69 85 70 50 71 51 72 65 74 86 75
REMARK SMILES IDX 53 76 37 77 38 78 46 79 39 80 40 81 44 82 47 83 41 84 42 85
REMARK SMILES IDX 45 86 43 87 69 88 70 89 78 90 71 91 72 92 76 93 79 94 73 95
REMARK SMILES IDX 74 96 77 97 75 98 54 99 55 100 63 101 56 102 57 103 61 104
REMARK SMILES IDX 64 105 58 106 59 107 62 108 60 109
REMARK H PARENT 20 4 25 43 84 62 52 73
REMARK Flexibility Score: inf
ROOT
ATOM      1  C   UNL A   1      46.684  28.150  25.655  1.00  0.00     0.251 C 
ATOM      2  O   UNL A   1      46.706  29.300  25.219  1.00  0.00    -0.269 OA
ATOM      3  N   UNL A   1      46.085  27.181  24.888  1.00  0.00    -0.352 N 
ATOM      4  H   UNL A   1      45.672  27.526  24.063  1.00  0.00     0.163 HD
ENDROOT
BRANCH   1   5
ATOM      5  C   UNL A   1      47.355  27.850  26.946  1.00  0.00     0.039 A 
ATOM      6  C   UNL A   1      48.419  27.443  29.454  1.00  0.00     0.066 A 
ATOM      7  C   UNL A   1      47.272  26.741  29.107  1.00  0.00     0.029 A 
ATOM      8  C   UNL A   1      49.097  28.257  28.556  1.00  0.00     0.029 A 
ATOM      9  C   UNL A   1      46.715  26.984  27.854  1.00  0.00     0.016 A 
ATOM     10  C   UNL A   1      48.592  28.391  27.287  1.00  0.00     0.016 A 
BRANCH   6  11
ATOM     11  N   UNL A   1      49.063  27.225  30.662  1.00  0.00    -0.220 N 
ATOM     12  C   UNL A   1      48.978  26.765  32.768  1.00  0.00     0.093 A 
ATOM     13  C   UNL A   1      48.759  26.214  31.537  1.00  0.00     0.141 A 
ATOM     14  N   UNL A   1      49.423  28.051  32.596  1.00  0.00    -0.134 NA
ATOM     15  N   UNL A   1      49.569  28.284  31.309  1.00  0.00    -0.062 NA
BRANCH  12  16
ATOM     16  C   UNL A   1      48.796  26.155  34.092  1.00  0.00     0.138 C 
BRANCH  16  17
ATOM     17  S   UNL A   1      47.509  24.925  34.130  1.00  0.00    -0.081 SA
BRANCH  17  18
ATOM     18  C   UNL A   1      46.042  25.845  34.684  1.00  0.00     0.176 A 
ATOM     19  N   UNL A   1      45.255  25.139  35.580  1.00  0.00    -0.255 N 
ATOM     20  C   UNL A   1      44.202  24.421  35.027  1.00  0.00     0.266 A 
ATOM     21  N   UNL A   1      45.462  26.519  33.734  1.00  0.00    -0.223 NA
ATOM     22  C   UNL A   1      44.169  24.479  33.528  1.00  0.00     0.066 A 
ATOM     23  O   UNL A   1      43.378  23.750  35.637  1.00  0.00    -0.268 OA
ATOM     24  C   UNL A   1      44.745  25.616  32.926  1.00  0.00     0.079 A 
ATOM     25  C   UNL A   1      43.879  23.354  32.765  1.00  0.00     0.016 A 
ATOM     26  C   UNL A   1      44.943  25.664  31.548  1.00  0.00     0.029 A 
ATOM     27  C   UNL A   1      44.173  23.374  31.397  1.00  0.00     0.001 A 
ATOM     28  C   UNL A   1      44.678  24.528  30.786  1.00  0.00     0.002 A 
BRANCH  19  29
ATOM     29  C   UNL A   1      45.446  25.285  36.983  1.00  0.00     0.052 A 
ATOM     30  C   UNL A   1      45.010  25.629  39.741  1.00  0.00     0.119 A 
ATOM     31  C   UNL A   1      45.180  24.349  39.218  1.00  0.00     0.048 A 
ATOM     32  C   UNL A   1      45.215  26.736  38.917  1.00  0.00     0.048 A 
ATOM     33  C   UNL A   1      45.367  24.175  37.838  1.00  0.00     0.030 A 
ATOM     34  C   UNL A   1      45.470  26.564  37.547  1.00  0.00     0.030 A 
BRANCH  30  35
ATOM     35  O   UNL A   1      44.703  25.738  41.069  1.00  0.00    -0.497 OA
ATOM     36  C   UNL A   1      44.416  27.071  41.502  1.00  0.00     0.278 C 
ENDBRANCH  30  35
ENDBRANCH  19  29
ENDBRANCH  17  18
ENDBRANCH  16  17
ENDBRANCH  12  16
ENDBRANCH   6  11
ENDBRANCH   1   5
BRANCH   3  37
ATOM     37  C   UNL A   1      45.943  25.745  25.054  1.00  0.00     0.116 C 
BRANCH  37  38
ATOM     38  C   UNL A   1      44.500  25.339  25.396  1.00  0.00     0.023 C 
BRANCH  38  39
ATOM     39  C   UNL A   1      43.952  24.144  24.613  1.00  0.00     0.023 C 
BRANCH  39  40
ATOM     40  C   UNL A   1      43.642  22.913  25.454  1.00  0.00     0.116 C 
BRANCH  40  41
ATOM     41  N   UNL A   1      42.278  22.409  25.262  1.00  0.00    -0.352 N 
ATOM     42  C   UNL A   1      41.179  22.563  26.100  1.00  0.00     0.251 C 
ATOM     43  H   UNL A   1      42.120  21.897  24.437  1.00  0.00     0.163 HD
ATOM     44  O   UNL A   1      40.240  21.796  26.075  1.00  0.00    -0.269 OA
BRANCH  42  45
ATOM     45  C   UNL A   1      41.172  23.730  26.999  1.00  0.00     0.039 A 
ATOM     46  C   UNL A   1      42.008  23.844  28.110  1.00  0.00     0.014 A 
ATOM     47  C   UNL A   1      40.318  24.762  26.639  1.00  0.00     0.014 A 
ATOM     48  C   UNL A   1      42.025  25.053  28.804  1.00  0.00     0.010 A 
ATOM     49  C   UNL A   1      40.513  26.006  27.161  1.00  0.00     0.010 A 
ATOM     50  C   UNL A   1      41.281  26.137  28.307  1.00  0.00    -0.014 A 
BRANCH  50  51
ATOM     51  C   UNL A   1      41.337  27.460  28.909  1.00  0.00     0.031 A 
ATOM     52  C   UNL A   1      42.446  28.316  28.419  1.00  0.00     0.074 A 
ATOM     53  C   UNL A   1      40.331  27.950  29.666  1.00  0.00     0.049 A 
ATOM     54  N   UNL A   1      43.473  28.724  29.086  1.00  0.00    -0.248 NA
ATOM     55  C   UNL A   1      42.498  28.647  26.986  1.00  0.00     0.031 C 
ATOM     56  C   UNL A   1      39.024  27.350  29.970  1.00  0.00     0.029 A 
ATOM     57  N   UNL A   1      40.230  29.170  30.255  1.00  0.00    -0.354 N 
ATOM     58  C   UNL A   1      44.201  29.530  28.218  1.00  0.00     0.074 A 
ATOM     59  C   UNL A   1      43.664  29.294  26.904  1.00  0.00     0.031 C 
ATOM     60  C   UNL A   1      38.192  28.292  30.467  1.00  0.00     0.029 A 
ATOM     61  C   UNL A   1      38.952  29.505  30.687  1.00  0.00     0.049 A 
ATOM     62  H   UNL A   1      41.003  29.770  30.367  1.00  0.00     0.167 HD
ATOM     63  C   UNL A   1      45.018  30.509  28.702  1.00  0.00     0.037 A 
ATOM     64  C   UNL A   1      38.556  30.712  31.162  1.00  0.00     0.037 A 
ATOM     65  C   UNL A   1      45.288  30.305  30.105  1.00  0.00     0.049 A 
ATOM     66  C   UNL A   1      39.785  31.428  31.598  1.00  0.00     0.074 A 
ATOM     67  C   UNL A   1      45.848  29.278  30.841  1.00  0.00     0.029 A 
ATOM     68  N   UNL A   1      44.593  31.068  31.015  1.00  0.00    -0.354 N 
ATOM     69  N   UNL A   1      40.522  31.043  32.604  1.00  0.00    -0.248 NA
ATOM     70  C   UNL A   1      40.459  32.255  30.608  1.00  0.00     0.031 C 
ATOM     71  C   UNL A   1      45.039  29.183  32.013  1.00  0.00     0.029 A 
ATOM     72  C   UNL A   1      44.098  30.212  31.967  1.00  0.00     0.049 A 
ATOM     73  H   UNL A   1      44.474  32.045  30.989  1.00  0.00     0.167 HD
ATOM     74  C   UNL A   1      41.828  31.202  32.166  1.00  0.00     0.074 A 
ATOM     75  C   UNL A   1      41.727  32.012  30.952  1.00  0.00     0.031 C 
ATOM     76  C   UNL A   1      42.839  30.417  32.644  1.00  0.00     0.037 A 
BRANCH  63  77
ATOM     77  C   UNL A   1      45.256  31.839  28.027  1.00  0.00     0.064 A 
ATOM     78  C   UNL A   1      44.146  32.652  27.718  1.00  0.00     0.173 A 
ATOM     79  C   UNL A   1      46.467  32.204  27.401  1.00  0.00     0.173 A 
ATOM     80  F   UNL A   1      42.941  32.394  28.251  1.00  0.00    -0.203 F 
ATOM     81  C   UNL A   1      44.224  33.683  26.780  1.00  0.00     0.198 A 
ATOM     82  C   UNL A   1      46.553  33.268  26.506  1.00  0.00     0.198 A 
ATOM     83  F   UNL A   1      47.587  31.485  27.532  1.00  0.00    -0.203 F 
ATOM     84  F   UNL A   1      43.112  34.336  26.416  1.00  0.00    -0.200 F 
ATOM     85  C   UNL A   1      45.425  33.983  26.166  1.00  0.00     0.200 A 
ATOM     86  F   UNL A   1      47.724  33.533  25.910  1.00  0.00    -0.200 F 
ATOM     87  F   UNL A   1      45.489  34.923  25.215  1.00  0.00    -0.200 F 
ENDBRANCH  63  77
BRANCH  64  88
ATOM     88  C   UNL A   1      37.258  31.396  30.939  1.00  0.00     0.064 A 
ATOM     89  C   UNL A   1      36.409  31.715  32.012  1.00  0.00     0.173 A 
ATOM     90  C   UNL A   1      36.950  31.998  29.702  1.00  0.00     0.173 A 
ATOM     91  F   UNL A   1      36.656  31.222  33.234  1.00  0.00    -0.203 F 
ATOM     92  C   UNL A   1      35.335  32.601  31.862  1.00  0.00     0.198 A 
ATOM     93  C   UNL A   1      35.875  32.878  29.552  1.00  0.00     0.198 A 
ATOM     94  F   UNL A   1      37.741  31.819  28.634  1.00  0.00    -0.203 F 
ATOM     95  F   UNL A   1      34.583  32.927  32.923  1.00  0.00    -0.200 F 
ATOM     96  C   UNL A   1      35.076  33.189  30.634  1.00  0.00     0.200 A 
ATOM     97  F   UNL A   1      35.659  33.465  28.367  1.00  0.00    -0.200 F 
ATOM     98  F   UNL A   1      34.085  34.082  30.504  1.00  0.00    -0.200 F 
ENDBRANCH  64  88
BRANCH  76  99
ATOM     99  C   UNL A   1      42.555  29.526  33.824  1.00  0.00     0.064 A 
ATOM    100  C   UNL A   1      42.040  28.220  33.725  1.00  0.00     0.173 A 
ATOM    101  C   UNL A   1      42.975  29.952  35.091  1.00  0.00     0.173 A 
ATOM    102  F   UNL A   1      41.709  27.696  32.540  1.00  0.00    -0.203 F 
ATOM    103  C   UNL A   1      41.919  27.399  34.846  1.00  0.00     0.198 A 
ATOM    104  C   UNL A   1      42.887  29.118  36.202  1.00  0.00     0.198 A 
ATOM    105  F   UNL A   1      43.527  31.166  35.241  1.00  0.00    -0.203 F 
ATOM    106  F   UNL A   1      41.419  26.161  34.721  1.00  0.00    -0.200 F 
ATOM    107  C   UNL A   1      42.350  27.847  36.083  1.00  0.00     0.200 A 
ATOM    108  F   UNL A   1      43.353  29.537  37.387  1.00  0.00    -0.200 F 
ATOM    109  F   UNL A   1      42.275  27.044  37.153  1.00  0.00    -0.200 F 
ENDBRANCH  76  99
ENDBRANCH  50  51
ENDBRANCH  42  45
ENDBRANCH  40  41
ENDBRANCH  39  40
ENDBRANCH  38  39
ENDBRANCH  37  38
ENDBRANCH   3  37
TORSDOF 17
ENDMDL
MODEL 3
REMARK VINA RESULT:     -13.5      4.621      9.124
REMARK SMILES COc1ccc(-n2c(SCc3cn(-c4ccc(C(=O)NCCCCNC(=O)c5ccc(-c6c7nc(c(-c8c(F)c(F)c(F)c(F)c8F)c8ccc([nH]8)c(-c8c(F)c(F)c(F)c(F)c8F)c8nc(c(-c9c(F)c(F)c(F)c(F)c9F)c9ccc6[nH]9)C=C8)C=C7)cc5)cc4)nn3)nc3ccccc3c2=O)cc1
REMARK SMILES IDX 18 1 19 2 20 3 17 5 14 6 15 7 92 8 16 9 91 10 13 11 11 12
REMARK SMILES IDX 12 13 94 14 93 15 10 16 9 17 8 18 7 19 102 20 95 21 101 22
REMARK SMILES IDX 103 23 96 24 100 25 97 26 99 27 98 28 6 29 3 30 4 31 105 32
REMARK SMILES IDX 5 33 104 34 2 35 1 36 21 37 22 38 23 39 24 40 25 41 26 42
REMARK SMILES IDX 27 44 28 45 29 46 90 47 30 48 89 49 31 50 32 51 33 52 83 53
REMARK SMILES IDX 34 54 88 55 82 56 84 57 35 58 87 59 81 60 80 61 36 63 68 64
REMARK SMILES IDX 48 65 67 66 49 67 52 68 66 69 85 70 50 71 51 72 65 74 86 75
REMARK SMILES IDX 53 76 37 77 38 78 46 79 39 80 40 81 44 82 47 83 41 84 42 85
REMARK SMILES IDX 45 86 43 87 69 88 70 89 78 90 71 91 72 92 76 93 79 94 73 95
REMARK SMILES IDX 74 96 77 97 75 98 54 99 55 100 63 101 56 102 57 103 61 104
REMARK SMILES IDX 64 105 58 106 59 107 62 108 60 109
REMARK H PARENT 20 4 25 43 84 62 52 73
REMARK Flexibility Score: inf
ROOT
ATOM      1  C   UNL A   1      46.135  25.656  25.364  1.00  0.00     0.251 C 
ATOM      2  O   UNL A   1      46.002  26.659  24.663  1.00  0.00    -0.269 OA
ATOM      3  N   UNL A   1      46.112  24.430  24.746  1.00  0.00    -0.352 N 
ATOM      4  H   UNL A   1      45.931  24.476  23.779  1.00  0.00     0.163 HD
ENDROOT
BRANCH   1   5
ATOM      5  C   UNL A   1      46.377  25.816  26.820  1.00  0.00     0.039 A 
ATOM      6  C   UNL A   1      46.838  25.850  29.536  1.00  0.00     0.066 A 
ATOM      7  C   UNL A   1      47.916  25.615  28.691  1.00  0.00     0.029 A 
ATOM      8  C   UNL A   1      45.571  26.164  29.062  1.00  0.00     0.029 A 
ATOM      9  C   UNL A   1      47.667  25.556  27.322  1.00  0.00     0.016 A 
ATOM     10  C   UNL A   1      45.377  26.213  27.704  1.00  0.00     0.016 A 
BRANCH   6  11
ATOM     11  N   UNL A   1      47.007  25.971  30.906  1.00  0.00    -0.220 N 
ATOM     12  C   UNL A   1      47.686  25.156  32.784  1.00  0.00     0.093 A 
ATOM     13  C   UNL A   1      48.147  25.624  31.586  1.00  0.00     0.141 A 
ATOM     14  N   UNL A   1      46.319  25.260  32.797  1.00  0.00    -0.134 NA
ATOM     15  N   UNL A   1      45.925  25.854  31.689  1.00  0.00    -0.062 NA
BRANCH  12  16
ATOM     16  C   UNL A   1      48.455  24.620  33.916  1.00  0.00     0.138 C 
BRANCH  16  17
ATOM     17  S   UNL A   1      47.725  24.980  35.499  1.00  0.00    -0.081 SA
BRANCH  17  18
ATOM     18  C   UNL A   1      47.595  23.353  36.300  1.00  0.00     0.176 A 
ATOM     19  N   UNL A   1      47.825  22.294  35.437  1.00  0.00    -0.255 N 
ATOM     20  C   UNL A   1      46.698  21.736  34.846  1.00  0.00     0.266 A 
ATOM     21  N   UNL A   1      46.611  23.269  37.149  1.00  0.00    -0.223 NA
ATOM     22  C   UNL A   1      45.429  22.458  35.195  1.00  0.00     0.066 A 
ATOM     23  O   UNL A   1      46.675  20.786  34.073  1.00  0.00    -0.268 OA
ATOM     24  C   UNL A   1      45.410  23.147  36.424  1.00  0.00     0.079 A 
ATOM     25  C   UNL A   1      44.448  22.701  34.241  1.00  0.00     0.016 A 
ATOM     26  C   UNL A   1      44.361  24.007  36.738  1.00  0.00     0.029 A 
ATOM     27  C   UNL A   1      43.450  23.641  34.525  1.00  0.00     0.001 A 
ATOM     28  C   UNL A   1      43.392  24.272  35.774  1.00  0.00     0.002 A 
BRANCH  19  29
ATOM     29  C   UNL A   1      49.128  21.737  35.307  1.00  0.00     0.052 A 
ATOM     30  C   UNL A   1      51.272  19.957  34.912  1.00  0.00     0.119 A 
ATOM     31  C   UNL A   1      50.825  20.752  33.858  1.00  0.00     0.048 A 
ATOM     32  C   UNL A   1      50.757  20.166  36.191  1.00  0.00     0.048 A 
ATOM     33  C   UNL A   1      49.735  21.617  34.047  1.00  0.00     0.030 A 
ATOM     34  C   UNL A   1      49.712  21.082  36.395  1.00  0.00     0.030 A 
BRANCH  30  35
ATOM     35  O   UNL A   1      52.250  19.039  34.646  1.00  0.00    -0.497 OA
ATOM     36  C   UNL A   1      53.581  19.509  34.879  1.00  0.00     0.278 C 
ENDBRANCH  30  35
ENDBRANCH  19  29
ENDBRANCH  17  18
ENDBRANCH  16  17
ENDBRANCH  12  16
ENDBRANCH   6  11
ENDBRANCH   1   5
BRANCH   3  37
ATOM     37  C   UNL A   1      46.303  23.078  25.240  1.00  0.00     0.116 C 
BRANCH  37  38
ATOM     38  C   UNL A   1      45.145  22.618  26.141  1.00  0.00     0.023 C 
BRANCH  38  39
ATOM     39  C   UNL A   1      44.067  21.781  25.449  1.00  0.00     0.023 C 
BRANCH  39  40
ATOM     40  C   UNL A   1      42.795  22.538  25.095  1.00  0.00     0.116 C 
BRANCH  40  41
ATOM     41  N   UNL A   1      41.592  21.975  25.719  1.00  0.00    -0.352 N 
ATOM     42  C   UNL A   1      40.907  22.440  26.836  1.00  0.00     0.251 C 
ATOM     43  H   UNL A   1      41.225  21.167  25.294  1.00  0.00     0.163 HD
ATOM     44  O   UNL A   1      40.202  21.714  27.505  1.00  0.00    -0.269 OA
BRANCH  42  45
ATOM     45  C   UNL A   1      41.029  23.872  27.157  1.00  0.00     0.039 A 
ATOM     46  C   UNL A   1      40.217  24.855  26.590  1.00  0.00     0.014 A 
ATOM     47  C   UNL A   1      41.969  24.194  28.125  1.00  0.00     0.014 A 
ATOM     48  C   UNL A   1      40.317  26.158  27.077  1.00  0.00     0.010 A 
ATOM     49  C   UNL A   1      41.893  25.398  28.759  1.00  0.00     0.010 A 
ATOM     50  C   UNL A   1      41.152  26.414  28.178  1.00  0.00    -0.014 A 
BRANCH  50  51
ATOM     51  C   UNL A   1      41.223  27.721  28.814  1.00  0.00     0.031 A 
ATOM     52  C   UNL A   1      42.354  28.568  28.361  1.00  0.00     0.074 A 
ATOM     53  C   UNL A   1      40.214  28.210  29.569  1.00  0.00     0.049 A 
ATOM     54  N   UNL A   1      43.378  28.940  29.052  1.00  0.00    -0.248 NA
ATOM     55  C   UNL A   1      42.432  28.935  26.938  1.00  0.00     0.031 C 
ATOM     56  C   UNL A   1      38.893  27.626  29.840  1.00  0.00     0.029 A 
ATOM     57  N   UNL A   1      40.127  29.416  30.188  1.00  0.00    -0.354 N 
ATOM     58  C   UNL A   1      44.133  29.754  28.215  1.00  0.00     0.074 A 
ATOM     59  C   UNL A   1      43.610  29.561  26.889  1.00  0.00     0.031 C 
ATOM     60  C   UNL A   1      38.071  28.570  30.349  1.00  0.00     0.029 A 
ATOM     61  C   UNL A   1      38.850  29.763  30.611  1.00  0.00     0.049 A 
ATOM     62  H   UNL A   1      40.909  29.999  30.325  1.00  0.00     0.167 HD
ATOM     63  C   UNL A   1      44.960  30.705  28.735  1.00  0.00     0.037 A 
ATOM     64  C   UNL A   1      38.468  30.965  31.111  1.00  0.00     0.037 A 
ATOM     65  C   UNL A   1      45.206  30.462  30.136  1.00  0.00     0.049 A 
ATOM     66  C   UNL A   1      39.704  31.647  31.582  1.00  0.00     0.074 A 
ATOM     67  C   UNL A   1      45.738  29.406  30.853  1.00  0.00     0.029 A 
ATOM     68  N   UNL A   1      44.513  31.214  31.056  1.00  0.00    -0.354 N 
ATOM     69  N   UNL A   1      40.419  31.223  32.588  1.00  0.00    -0.248 NA
ATOM     70  C   UNL A   1      40.407  32.486  30.622  1.00  0.00     0.031 C 
ATOM     71  C   UNL A   1      44.911  29.297  32.011  1.00  0.00     0.029 A 
ATOM     72  C   UNL A   1      43.989  30.343  31.979  1.00  0.00     0.049 A 
ATOM     73  H   UNL A   1      44.412  32.193  31.053  1.00  0.00     0.167 HD
ATOM     74  C   UNL A   1      41.735  31.369  32.172  1.00  0.00     0.074 A 
ATOM     75  C   UNL A   1      41.665  32.211  30.978  1.00  0.00     0.031 C 
ATOM     76  C   UNL A   1      42.724  30.554  32.644  1.00  0.00     0.037 A 
BRANCH  63  77
ATOM     77  C   UNL A   1      45.231  32.048  28.098  1.00  0.00     0.064 A 
ATOM     78  C   UNL A   1      44.152  32.931  27.890  1.00  0.00     0.173 A 
ATOM     79  C   UNL A   1      46.421  32.372  27.412  1.00  0.00     0.173 A 
ATOM     80  F   UNL A   1      42.969  32.717  28.487  1.00  0.00    -0.203 F 
ATOM     81  C   UNL A   1      44.231  33.995  26.989  1.00  0.00     0.198 A 
ATOM     82  C   UNL A   1      46.512  33.467  26.554  1.00  0.00     0.198 A 
ATOM     83  F   UNL A   1      47.504  31.589  27.444  1.00  0.00    -0.203 F 
ATOM     84  F   UNL A   1      43.138  34.721  26.720  1.00  0.00    -0.200 F 
ATOM     85  C   UNL A   1      45.408  34.255  26.313  1.00  0.00     0.200 A 
ATOM     86  F   UNL A   1      47.659  33.693  25.897  1.00  0.00    -0.200 F 
ATOM     87  F   UNL A   1      45.468  35.229  25.396  1.00  0.00    -0.200 F 
ENDBRANCH  63  77
BRANCH  64  88
ATOM     88  C   UNL A   1      37.187  31.678  30.888  1.00  0.00     0.064 A 
ATOM     89  C   UNL A   1      36.225  31.784  31.907  1.00  0.00     0.173 A 
ATOM     90  C   UNL A   1      36.995  32.506  29.763  1.00  0.00     0.173 A 
ATOM     91  F   UNL A   1      36.355  31.065  33.031  1.00  0.00    -0.203 F 
ATOM     92  C   UNL A   1      35.154  32.681  31.817  1.00  0.00     0.198 A 
ATOM     93  C   UNL A   1      35.923  33.397  29.672  1.00  0.00     0.198 A 
ATOM     94  F   UNL A   1      37.895  32.537  28.770  1.00  0.00    -0.203 F 
ATOM     95  F   UNL A   1      34.290  32.796  32.836  1.00  0.00    -0.200 F 
ATOM     96  C   UNL A   1      35.010  33.494  30.704  1.00  0.00     0.200 A 
ATOM     97  F   UNL A   1      35.818  34.202  28.606  1.00  0.00    -0.200 F 
ATOM     98  F   UNL A   1      34.019  34.395  30.644  1.00  0.00    -0.200 F 
ENDBRANCH  64  88
BRANCH  76  99
ATOM     99  C   UNL A   1      42.408  29.639  33.796  1.00  0.00     0.064 A 
ATOM    100  C   UNL A   1      41.826  28.364  33.660  1.00  0.00     0.173 A 
ATOM    101  C   UNL A   1      42.863  29.999  35.072  1.00  0.00     0.173 A 
ATOM    102  F   UNL A   1      41.456  27.898  32.461  1.00  0.00    -0.203 F 
ATOM    103  C   UNL A   1      41.675  27.513  34.754  1.00  0.00     0.198 A 
ATOM    104  C   UNL A   1      42.743  29.133  36.155  1.00  0.00     0.198 A 
ATOM    105  F   UNL A   1      43.477  31.178  35.256  1.00  0.00    -0.203 F 
ATOM    106  F   UNL A   1      41.112  26.306  34.594  1.00  0.00    -0.200 F 
ATOM    107  C   UNL A   1      42.141  27.896  36.000  1.00  0.00     0.200 A 
ATOM    108  F   UNL A   1      43.243  29.488  37.347  1.00  0.00    -0.200 F 
ATOM    109  F   UNL A   1      42.037  27.061  37.044  1.00  0.00    -0.200 F 
ENDBRANCH  76  99
ENDBRANCH  50  51
ENDBRANCH  42  45
ENDBRANCH  40  41
ENDBRANCH  39  40
ENDBRANCH  38  39
ENDBRANCH  37  38
ENDBRANCH   3  37
TORSDOF 17
ENDMDL
