MODEL 1
REMARK VINA RESULT:     -13.8      0.000      0.000
REMARK SMILES Cc1ccc2c(c1)c(-c1ccnc3c(C)cccc13)c(C)n2CC(=O)NCCCCNC(=O)c1ccc(-c2c3nc(c(-c4c(F)c(F)c(F)c(F)c4F)c4ccc([nH]4)c(-c4c(F)c(F)c(F)c(F)c4F)c4nc(c(-c5c(F)c(F)c(F)c(F)c5F)c5ccc2[nH]5)C=C4)C=C3)cc1
REMARK SMILES IDX 28 1 27 2 26 3 24 4 25 5 23 7 22 8 1 9 2 10 3 11 7 12 4 13
REMARK SMILES IDX 6 14 5 15 8 16 20 17 21 18 9 19 10 20 19 21 11 22 13 23
REMARK SMILES IDX 18 24 12 25 14 26 17 27 15 28 16 29 29 30 30 31 31 32 32 33
REMARK SMILES IDX 33 35 34 36 35 37 96 38 36 39 95 40 37 41 38 42 39 43 89 44
REMARK SMILES IDX 40 45 94 46 88 47 90 48 41 49 93 50 87 51 86 52 42 54 74 55
REMARK SMILES IDX 54 56 73 57 55 58 58 59 72 60 91 61 56 62 57 63 71 65 92 66
REMARK SMILES IDX 59 67 43 68 44 69 52 70 45 71 46 72 50 73 53 74 47 75 48 76
REMARK SMILES IDX 51 77 49 78 75 79 76 80 84 81 77 82 78 83 82 84 85 85 79 86
REMARK SMILES IDX 80 87 83 88 81 89 60 90 61 91 69 92 62 93 63 94 67 95 70 96
REMARK SMILES IDX 64 97 65 98 68 99 66 100
REMARK H PARENT 26 6 31 34 90 53 58 64
REMARK Flexibility Score: inf
ROOT
ATOM      1  C   UNL A   1      40.695  21.128  27.268  1.00  0.00     0.023 C 
ENDROOT
BRANCH   1   2
ATOM      2  C   UNL A   1      39.665  22.156  26.805  1.00  0.00     0.116 C 
BRANCH   2   3
ATOM      3  N   UNL A   1      39.151  21.864  25.481  1.00  0.00    -0.355 N 
ATOM      4  C   UNL A   1      37.855  21.789  25.054  1.00  0.00     0.239 C 
ATOM      5  O   UNL A   1      37.662  21.557  23.858  1.00  0.00    -0.273 OA
ATOM      6  H   UNL A   1      39.832  21.694  24.792  1.00  0.00     0.163 HD
BRANCH   4   7
ATOM      7  C   UNL A   1      36.697  22.053  26.000  1.00  0.00     0.222 C 
BRANCH   7   8
ATOM      8  N   UNL A   1      35.408  22.175  25.326  1.00  0.00    -0.335 N 
ATOM      9  C   UNL A   1      31.948  18.402  22.919  1.00  0.00     0.044 C 
ATOM     10  C   UNL A   1      32.889  19.345  23.609  1.00  0.00    -0.050 A 
ATOM     11  C   UNL A   1      33.916  18.852  24.414  1.00  0.00     0.005 A 
ATOM     12  C   UNL A   1      32.709  20.731  23.493  1.00  0.00     0.014 A 
ATOM     13  C   UNL A   1      34.800  19.713  25.072  1.00  0.00     0.027 A 
ATOM     14  C   UNL A   1      33.595  21.622  24.140  1.00  0.00     0.008 A 
ATOM     15  C   UNL A   1      34.643  21.100  24.898  1.00  0.00     0.049 A 
ATOM     16  C   UNL A   1      33.689  23.042  24.209  1.00  0.00     0.011 A 
ATOM     17  C   UNL A   1      34.780  23.365  25.001  1.00  0.00     0.024 A 
ATOM     18  C   UNL A   1      35.280  24.711  25.417  1.00  0.00     0.065 C 
BRANCH  16  19
ATOM     19  C   UNL A   1      32.819  24.033  23.588  1.00  0.00    -0.005 A 
ATOM     20  C   UNL A   1      33.123  24.436  22.290  1.00  0.00     0.029 A 
ATOM     21  C   UNL A   1      31.717  24.606  24.273  1.00  0.00     0.008 A 
ATOM     22  C   UNL A   1      32.315  25.384  21.708  1.00  0.00     0.112 A 
ATOM     23  C   UNL A   1      30.949  25.573  23.583  1.00  0.00     0.074 A 
ATOM     24  C   UNL A   1      31.361  24.265  25.600  1.00  0.00     0.011 A 
ATOM     25  N   UNL A   1      31.252  25.944  22.321  1.00  0.00    -0.256 NA
ATOM     26  C   UNL A   1      29.854  26.153  24.242  1.00  0.00    -0.025 A 
ATOM     27  C   UNL A   1      30.280  24.856  26.243  1.00  0.00     0.001 A 
ATOM     28  C   UNL A   1      28.983  27.183  23.569  1.00  0.00     0.047 C 
ATOM     29  C   UNL A   1      29.528  25.799  25.565  1.00  0.00     0.005 A 
ENDBRANCH  16  19
ENDBRANCH   7   8
ENDBRANCH   4   7
ENDBRANCH   2   3
ENDBRANCH   1   2
BRANCH   1  30
ATOM     30  C   UNL A   1      40.935  19.967  26.288  1.00  0.00     0.023 C 
BRANCH  30  31
ATOM     31  C   UNL A   1      42.299  19.291  26.441  1.00  0.00     0.116 C 
BRANCH  31  32
ATOM     32  N   UNL A   1      43.223  19.644  25.382  1.00  0.00    -0.352 N 
ATOM     33  C   UNL A   1      43.935  20.753  25.030  1.00  0.00     0.251 C 
ATOM     34  H   UNL A   1      43.376  18.896  24.761  1.00  0.00     0.163 HD
ATOM     35  O   UNL A   1      44.707  20.607  24.074  1.00  0.00    -0.269 OA
BRANCH  33  36
ATOM     36  C   UNL A   1      43.832  22.097  25.656  1.00  0.00     0.039 A 
ATOM     37  C   UNL A   1      44.468  22.506  26.827  1.00  0.00     0.014 A 
ATOM     38  C   UNL A   1      42.962  23.004  25.015  1.00  0.00     0.014 A 
ATOM     39  C   UNL A   1      44.190  23.755  27.375  1.00  0.00     0.010 A 
ATOM     40  C   UNL A   1      42.684  24.253  25.555  1.00  0.00     0.010 A 
ATOM     41  C   UNL A   1      43.268  24.611  26.762  1.00  0.00    -0.014 A 
BRANCH  41  42
ATOM     42  C   UNL A   1      43.029  25.910  27.384  1.00  0.00     0.031 A 
ATOM     43  C   UNL A   1      44.006  26.963  26.994  1.00  0.00     0.074 A 
ATOM     44  C   UNL A   1      41.980  26.182  28.189  1.00  0.00     0.049 A 
ATOM     45  N   UNL A   1      44.859  27.571  27.751  1.00  0.00    -0.248 NA
ATOM     46  C   UNL A   1      44.133  27.296  25.566  1.00  0.00     0.031 C 
ATOM     47  C   UNL A   1      40.801  25.349  28.438  1.00  0.00     0.029 A 
ATOM     48  N   UNL A   1      41.707  27.318  28.900  1.00  0.00    -0.354 N 
ATOM     49  C   UNL A   1      45.518  28.487  26.932  1.00  0.00     0.074 A 
ATOM     50  C   UNL A   1      45.127  28.185  25.582  1.00  0.00     0.031 C 
ATOM     51  C   UNL A   1      39.848  26.090  29.048  1.00  0.00     0.029 A 
ATOM     52  C   UNL A   1      40.403  27.393  29.370  1.00  0.00     0.049 A 
ATOM     53  H   UNL A   1      42.377  28.021  29.064  1.00  0.00     0.167 HD
ATOM     54  C   UNL A   1      46.149  29.571  27.461  1.00  0.00     0.037 A 
ATOM     55  C   UNL A   1      39.812  28.471  29.942  1.00  0.00     0.037 A 
ATOM     56  C   UNL A   1      46.361  29.410  28.874  1.00  0.00     0.049 A 
ATOM     57  C   UNL A   1      40.886  29.330  30.490  1.00  0.00     0.074 A 
ATOM     58  C   UNL A   1      47.213  28.696  29.687  1.00  0.00     0.029 A 
ATOM     59  N   UNL A   1      45.307  29.816  29.644  1.00  0.00    -0.354 N 
ATOM     60  N   UNL A   1      41.647  28.991  31.493  1.00  0.00    -0.248 NA
ATOM     61  C   UNL A   1      41.340  30.483  29.722  1.00  0.00     0.031 C 
ATOM     62  C   UNL A   1      46.507  28.493  30.912  1.00  0.00     0.029 A 
ATOM     63  C   UNL A   1      45.264  29.120  30.819  1.00  0.00     0.049 A 
ATOM     64  H   UNL A   1      44.665  30.517  29.386  1.00  0.00     0.167 HD
ATOM     65  C   UNL A   1      42.859  29.589  31.216  1.00  0.00     0.074 A 
ATOM     66  C   UNL A   1      42.559  30.631  30.244  1.00  0.00     0.031 C 
ATOM     67  C   UNL A   1      44.028  28.973  31.554  1.00  0.00     0.037 A 
BRANCH  54  68
ATOM     68  C   UNL A   1      46.144  30.949  26.833  1.00  0.00     0.064 A 
ATOM     69  C   UNL A   1      47.338  31.700  26.794  1.00  0.00     0.173 A 
ATOM     70  C   UNL A   1      44.963  31.679  26.578  1.00  0.00     0.173 A 
ATOM     71  F   UNL A   1      48.519  31.119  27.062  1.00  0.00    -0.203 F 
ATOM     72  C   UNL A   1      47.339  33.081  26.568  1.00  0.00     0.198 A 
ATOM     73  C   UNL A   1      44.973  33.047  26.304  1.00  0.00     0.198 A 
ATOM     74  F   UNL A   1      43.749  31.131  26.702  1.00  0.00    -0.203 F 
ATOM     75  F   UNL A   1      48.486  33.771  26.652  1.00  0.00    -0.200 F 
ATOM     76  C   UNL A   1      46.156  33.753  26.325  1.00  0.00     0.200 A 
ATOM     77  F   UNL A   1      43.811  33.686  26.103  1.00  0.00    -0.200 F 
ATOM     78  F   UNL A   1      46.147  35.082  26.162  1.00  0.00    -0.200 F 
ENDBRANCH  54  68
BRANCH  55  79
ATOM     79  C   UNL A   1      38.429  28.979  29.757  1.00  0.00     0.064 A 
ATOM     80  C   UNL A   1      37.623  29.275  30.872  1.00  0.00     0.173 A 
ATOM     81  C   UNL A   1      38.000  29.494  28.520  1.00  0.00     0.173 A 
ATOM     82  F   UNL A   1      37.972  28.843  32.093  1.00  0.00    -0.203 F 
ATOM     83  C   UNL A   1      36.497  30.097  30.766  1.00  0.00     0.198 A 
ATOM     84  C   UNL A   1      36.871  30.310  28.415  1.00  0.00     0.198 A 
ATOM     85  F   UNL A   1      38.723  29.311  27.408  1.00  0.00    -0.203 F 
ATOM     86  F   UNL A   1      35.808  30.433  31.866  1.00  0.00    -0.200 F 
ATOM     87  C   UNL A   1      36.134  30.631  29.540  1.00  0.00     0.200 A 
ATOM     88  F   UNL A   1      36.548  30.845  27.230  1.00  0.00    -0.200 F 
ATOM     89  F   UNL A   1      35.108  31.488  29.452  1.00  0.00    -0.200 F 
ENDBRANCH  55  79
BRANCH  67  90
ATOM     90  C   UNL A   1      43.971  27.952  32.650  1.00  0.00     0.064 A 
ATOM     91  C   UNL A   1      43.909  26.564  32.445  1.00  0.00     0.173 A 
ATOM     92  C   UNL A   1      44.048  28.410  33.972  1.00  0.00     0.173 A 
ATOM     93  F   UNL A   1      43.921  26.045  31.211  1.00  0.00    -0.203 F 
ATOM     94  C   UNL A   1      43.876  25.680  33.523  1.00  0.00     0.198 A 
ATOM     95  C   UNL A   1      44.056  27.524  35.044  1.00  0.00     0.198 A 
ATOM     96  F   UNL A   1      44.151  29.725  34.223  1.00  0.00    -0.203 F 
ATOM     97  F   UNL A   1      43.790  24.359  33.308  1.00  0.00    -0.200 F 
ATOM     98  C   UNL A   1      43.956  26.161  34.820  1.00  0.00     0.200 A 
ATOM     99  F   UNL A   1      44.180  27.994  36.293  1.00  0.00    -0.200 F 
ATOM    100  F   UNL A   1      43.959  25.310  35.856  1.00  0.00    -0.200 F 
ENDBRANCH  67  90
ENDBRANCH  41  42
ENDBRANCH  33  36
ENDBRANCH  31  32
ENDBRANCH  30  31
ENDBRANCH   1  30
TORSDOF 13
ENDMDL
MODEL 2
REMARK VINA RESULT:     -13.3      2.499      3.503
REMARK SMILES Cc1ccc2c(c1)c(-c1ccnc3c(C)cccc13)c(C)n2CC(=O)NCCCCNC(=O)c1ccc(-c2c3nc(c(-c4c(F)c(F)c(F)c(F)c4F)c4ccc([nH]4)c(-c4c(F)c(F)c(F)c(F)c4F)c4nc(c(-c5c(F)c(F)c(F)c(F)c5F)c5ccc2[nH]5)C=C4)C=C3)cc1
REMARK SMILES IDX 28 1 27 2 26 3 24 4 25 5 23 7 22 8 1 9 2 10 3 11 7 12 4 13
REMARK SMILES IDX 6 14 5 15 8 16 20 17 21 18 9 19 10 20 19 21 11 22 13 23
REMARK SMILES IDX 18 24 12 25 14 26 17 27 15 28 16 29 29 30 30 31 31 32 32 33
REMARK SMILES IDX 33 35 34 36 35 37 96 38 36 39 95 40 37 41 38 42 39 43 89 44
REMARK SMILES IDX 40 45 94 46 88 47 90 48 41 49 93 50 87 51 86 52 42 54 74 55
REMARK SMILES IDX 54 56 73 57 55 58 58 59 72 60 91 61 56 62 57 63 71 65 92 66
REMARK SMILES IDX 59 67 43 68 44 69 52 70 45 71 46 72 50 73 53 74 47 75 48 76
REMARK SMILES IDX 51 77 49 78 75 79 76 80 84 81 77 82 78 83 82 84 85 85 79 86
REMARK SMILES IDX 80 87 83 88 81 89 60 90 61 91 69 92 62 93 63 94 67 95 70 96
REMARK SMILES IDX 64 97 65 98 68 99 66 100
REMARK H PARENT 26 6 31 34 90 53 58 64
REMARK Flexibility Score: inf
ROOT
ATOM      1  C   UNL A   1      37.859  23.553  25.857  1.00  0.00     0.023 C 
ENDROOT
BRANCH   1   2
ATOM      2  C   UNL A   1      36.546  23.633  25.081  1.00  0.00     0.116 C 
BRANCH   2   3
ATOM      3  N   UNL A   1      35.914  22.337  24.931  1.00  0.00    -0.355 N 
ATOM      4  C   UNL A   1      34.850  21.979  24.152  1.00  0.00     0.239 C 
ATOM      5  O   UNL A   1      34.510  20.793  24.163  1.00  0.00    -0.273 OA
ATOM      6  H   UNL A   1      36.308  21.612  25.466  1.00  0.00     0.163 HD
BRANCH   4   7
ATOM      7  C   UNL A   1      34.157  22.988  23.252  1.00  0.00     0.222 C 
BRANCH   7   8
ATOM      8  N   UNL A   1      33.241  23.873  23.965  1.00  0.00    -0.335 N 
ATOM      9  C   UNL A   1      28.964  22.916  27.542  1.00  0.00     0.044 C 
ATOM     10  C   UNL A   1      30.134  23.103  26.621  1.00  0.00    -0.050 A 
ATOM     11  C   UNL A   1      30.985  22.036  26.338  1.00  0.00     0.005 A 
ATOM     12  C   UNL A   1      30.411  24.367  26.080  1.00  0.00     0.014 A 
ATOM     13  C   UNL A   1      32.086  22.188  25.490  1.00  0.00     0.027 A 
ATOM     14  C   UNL A   1      31.511  24.546  25.211  1.00  0.00     0.008 A 
ATOM     15  C   UNL A   1      32.316  23.448  24.907  1.00  0.00     0.049 A 
ATOM     16  C   UNL A   1      32.040  25.667  24.508  1.00  0.00     0.011 A 
ATOM     17  C   UNL A   1      33.150  25.243  23.792  1.00  0.00     0.024 A 
ATOM     18  C   UNL A   1      34.078  26.038  22.932  1.00  0.00     0.065 C 
BRANCH  16  19
ATOM     19  C   UNL A   1      31.552  27.040  24.505  1.00  0.00    -0.005 A 
ATOM     20  C   UNL A   1      30.653  27.405  23.505  1.00  0.00     0.029 A 
ATOM     21  C   UNL A   1      31.987  27.998  25.457  1.00  0.00     0.008 A 
ATOM     22  C   UNL A   1      30.205  28.705  23.490  1.00  0.00     0.112 A 
ATOM     23  C   UNL A   1      31.465  29.307  25.352  1.00  0.00     0.074 A 
ATOM     24  C   UNL A   1      32.915  27.708  26.486  1.00  0.00     0.011 A 
ATOM     25  N   UNL A   1      30.587  29.641  24.383  1.00  0.00    -0.256 NA
ATOM     26  C   UNL A   1      31.882  30.271  26.284  1.00  0.00    -0.025 A 
ATOM     27  C   UNL A   1      33.327  28.675  27.394  1.00  0.00     0.001 A 
ATOM     28  C   UNL A   1      31.362  31.685  26.242  1.00  0.00     0.047 C 
ATOM     29  C   UNL A   1      32.811  29.956  27.292  1.00  0.00     0.005 A 
ENDBRANCH  16  19
ENDBRANCH   7   8
ENDBRANCH   4   7
ENDBRANCH   2   3
ENDBRANCH   1   2
BRANCH   1  30
ATOM     30  C   UNL A   1      38.552  22.180  25.815  1.00  0.00     0.023 C 
BRANCH  30  31
ATOM     31  C   UNL A   1      39.772  22.066  26.730  1.00  0.00     0.116 C 
BRANCH  31  32
ATOM     32  N   UNL A   1      41.024  22.245  26.022  1.00  0.00    -0.352 N 
ATOM     33  C   UNL A   1      41.997  23.200  25.976  1.00  0.00     0.251 C 
ATOM     34  H   UNL A   1      41.222  21.488  25.425  1.00  0.00     0.163 HD
ATOM     35  O   UNL A   1      42.985  22.917  25.286  1.00  0.00    -0.269 OA
BRANCH  33  36
ATOM     36  C   UNL A   1      41.952  24.532  26.633  1.00  0.00     0.039 A 
ATOM     37  C   UNL A   1      42.514  24.856  27.867  1.00  0.00     0.014 A 
ATOM     38  C   UNL A   1      41.221  25.525  25.948  1.00  0.00     0.014 A 
ATOM     39  C   UNL A   1      42.294  26.111  28.428  1.00  0.00     0.010 A 
ATOM     40  C   UNL A   1      41.002  26.780  26.502  1.00  0.00     0.010 A 
ATOM     41  C   UNL A   1      41.503  27.057  27.765  1.00  0.00    -0.014 A 
BRANCH  41  42
ATOM     42  C   UNL A   1      41.320  28.357  28.406  1.00  0.00     0.031 A 
ATOM     43  C   UNL A   1      42.384  29.349  28.090  1.00  0.00     0.074 A 
ATOM     44  C   UNL A   1      40.251  28.682  29.163  1.00  0.00     0.049 A 
ATOM     45  N   UNL A   1      43.235  29.882  28.903  1.00  0.00    -0.248 NA
ATOM     46  C   UNL A   1      42.606  29.702  26.678  1.00  0.00     0.031 C 
ATOM     47  C   UNL A   1      39.008  27.926  29.333  1.00  0.00     0.029 A 
ATOM     48  N   UNL A   1      40.019  29.819  29.886  1.00  0.00    -0.354 N 
ATOM     49  C   UNL A   1      43.995  30.768  28.140  1.00  0.00     0.074 A 
ATOM     50  C   UNL A   1      43.655  30.521  26.765  1.00  0.00     0.031 C 
ATOM     51  C   UNL A   1      38.077  28.717  29.912  1.00  0.00     0.029 A 
ATOM     52  C   UNL A   1      38.699  29.973  30.292  1.00  0.00     0.049 A 
ATOM     53  H   UNL A   1      40.724  30.472  30.100  1.00  0.00     0.167 HD
ATOM     54  C   UNL A   1      44.669  31.796  28.726  1.00  0.00     0.037 A 
ATOM     55  C   UNL A   1      38.153  31.077  30.859  1.00  0.00     0.037 A 
ATOM     56  C   UNL A   1      44.796  31.592  30.143  1.00  0.00     0.049 A 
ATOM     57  C   UNL A   1      39.252  31.850  31.481  1.00  0.00     0.074 A 
ATOM     58  C   UNL A   1      45.555  30.806  30.980  1.00  0.00     0.029 A 
ATOM     59  N   UNL A   1      43.733  32.053  30.869  1.00  0.00    -0.354 N 
ATOM     60  N   UNL A   1      39.936  31.440  32.513  1.00  0.00    -0.248 NA
ATOM     61  C   UNL A   1      39.821  32.985  30.764  1.00  0.00     0.031 C 
ATOM     62  C   UNL A   1      44.776  30.626  32.164  1.00  0.00     0.029 A 
ATOM     63  C   UNL A   1      43.583  31.337  32.024  1.00  0.00     0.049 A 
ATOM     64  H   UNL A   1      43.153  32.801  30.596  1.00  0.00     0.167 HD
ATOM     65  C   UNL A   1      41.198  31.959  32.311  1.00  0.00     0.074 A 
ATOM     66  C   UNL A   1      41.019  33.039  31.350  1.00  0.00     0.031 C 
ATOM     67  C   UNL A   1      42.304  31.259  32.692  1.00  0.00     0.037 A 
BRANCH  54  68
ATOM     68  C   UNL A   1      44.787  33.184  28.131  1.00  0.00     0.064 A 
ATOM     69  C   UNL A   1      46.063  33.697  27.813  1.00  0.00     0.173 A 
ATOM     70  C   UNL A   1      43.747  34.137  28.176  1.00  0.00     0.173 A 
ATOM     71  F   UNL A   1      47.135  32.890  27.782  1.00  0.00    -0.203 F 
ATOM     72  C   UNL A   1      46.283  35.063  27.607  1.00  0.00     0.198 A 
ATOM     73  C   UNL A   1      43.961  35.491  27.921  1.00  0.00     0.198 A 
ATOM     74  F   UNL A   1      42.513  33.820  28.583  1.00  0.00    -0.203 F 
ATOM     75  F   UNL A   1      47.529  35.519  27.419  1.00  0.00    -0.200 F 
ATOM     76  C   UNL A   1      45.231  35.959  27.663  1.00  0.00     0.200 A 
ATOM     77  F   UNL A   1      42.933  36.348  28.012  1.00  0.00    -0.200 F 
ATOM     78  F   UNL A   1      45.446  37.274  27.520  1.00  0.00    -0.200 F 
ENDBRANCH  54  68
BRANCH  55  79
ATOM     79  C   UNL A   1      36.818  31.680  30.618  1.00  0.00     0.064 A 
ATOM     80  C   UNL A   1      35.902  31.834  31.675  1.00  0.00     0.173 A 
ATOM     81  C   UNL A   1      36.549  32.412  29.446  1.00  0.00     0.173 A 
ATOM     82  F   UNL A   1      36.097  31.192  32.836  1.00  0.00    -0.203 F 
ATOM     83  C   UNL A   1      34.826  32.721  31.590  1.00  0.00     0.198 A 
ATOM     84  C   UNL A   1      35.468  33.292  29.361  1.00  0.00     0.198 A 
ATOM     85  F   UNL A   1      37.386  32.373  28.401  1.00  0.00    -0.203 F 
ATOM     86  F   UNL A   1      34.030  32.911  32.653  1.00  0.00    -0.200 F 
ATOM     87  C   UNL A   1      34.622  33.465  30.440  1.00  0.00     0.200 A 
ATOM     88  F   UNL A   1      35.300  34.029  28.255  1.00  0.00    -0.200 F 
ATOM     89  F   UNL A   1      33.642  34.379  30.389  1.00  0.00    -0.200 F 
ENDBRANCH  55  79
BRANCH  67  90
ATOM     90  C   UNL A   1      42.123  30.222  33.759  1.00  0.00     0.064 A 
ATOM     91  C   UNL A   1      41.729  28.895  33.524  1.00  0.00     0.173 A 
ATOM     92  C   UNL A   1      42.428  30.584  35.078  1.00  0.00     0.173 A 
ATOM     93  F   UNL A   1      41.505  28.450  32.281  1.00  0.00    -0.203 F 
ATOM     94  C   UNL A   1      41.601  27.987  34.574  1.00  0.00     0.198 A 
ATOM     95  C   UNL A   1      42.339  29.666  36.118  1.00  0.00     0.198 A 
ATOM     96  F   UNL A   1      42.850  31.829  35.353  1.00  0.00    -0.203 F 
ATOM     97  F   UNL A   1      41.198  26.731  34.332  1.00  0.00    -0.200 F 
ATOM     98  C   UNL A   1      41.911  28.372  35.868  1.00  0.00     0.200 A 
ATOM     99  F   UNL A   1      42.684  30.032  37.360  1.00  0.00    -0.200 F 
ATOM    100  F   UNL A   1      41.822  27.490  36.874  1.00  0.00    -0.200 F 
ENDBRANCH  67  90
ENDBRANCH  41  42
ENDBRANCH  33  36
ENDBRANCH  31  32
ENDBRANCH  30  31
ENDBRANCH   1  30
TORSDOF 13
ENDMDL
MODEL 3
REMARK VINA RESULT:     -13.3      5.307     10.546
REMARK SMILES Cc1ccc2c(c1)c(-c1ccnc3c(C)cccc13)c(C)n2CC(=O)NCCCCNC(=O)c1ccc(-c2c3nc(c(-c4c(F)c(F)c(F)c(F)c4F)c4ccc([nH]4)c(-c4c(F)c(F)c(F)c(F)c4F)c4nc(c(-c5c(F)c(F)c(F)c(F)c5F)c5ccc2[nH]5)C=C4)C=C3)cc1
REMARK SMILES IDX 28 1 27 2 26 3 24 4 25 5 23 7 22 8 1 9 2 10 3 11 7 12 4 13
REMARK SMILES IDX 6 14 5 15 8 16 20 17 21 18 9 19 10 20 19 21 11 22 13 23
REMARK SMILES IDX 18 24 12 25 14 26 17 27 15 28 16 29 29 30 30 31 31 32 32 33
REMARK SMILES IDX 33 35 34 36 35 37 96 38 36 39 95 40 37 41 38 42 39 43 89 44
REMARK SMILES IDX 40 45 94 46 88 47 90 48 41 49 93 50 87 51 86 52 42 54 74 55
REMARK SMILES IDX 54 56 73 57 55 58 58 59 72 60 91 61 56 62 57 63 71 65 92 66
REMARK SMILES IDX 59 67 43 68 44 69 52 70 45 71 46 72 50 73 53 74 47 75 48 76
REMARK SMILES IDX 51 77 49 78 75 79 76 80 84 81 77 82 78 83 82 84 85 85 79 86
REMARK SMILES IDX 80 87 83 88 81 89 60 90 61 91 69 92 62 93 63 94 67 95 70 96
REMARK SMILES IDX 64 97 65 98 68 99 66 100
REMARK H PARENT 26 6 31 34 90 53 58 64
REMARK Flexibility Score: inf
ROOT
ATOM      1  C   UNL A   1      43.910  32.910  25.833  1.00  0.00     0.023 C 
ENDROOT
BRANCH   1   2
ATOM      2  C   UNL A   1      44.870  32.224  26.803  1.00  0.00     0.116 C 
BRANCH   2   3
ATOM      3  N   UNL A   1      45.308  30.929  26.320  1.00  0.00    -0.355 N 
ATOM      4  C   UNL A   1      44.694  29.713  26.426  1.00  0.00     0.239 C 
ATOM      5  O   UNL A   1      45.249  28.746  25.898  1.00  0.00    -0.273 OA
ATOM      6  H   UNL A   1      46.172  30.925  25.849  1.00  0.00     0.163 HD
BRANCH   4   7
ATOM      7  C   UNL A   1      43.343  29.569  27.104  1.00  0.00     0.222 C 
BRANCH   7   8
ATOM      8  N   UNL A   1      43.128  28.257  27.706  1.00  0.00    -0.335 N 
ATOM      9  C   UNL A   1      44.823  25.931  32.576  1.00  0.00     0.044 C 
ATOM     10  C   UNL A   1      44.373  26.620  31.321  1.00  0.00    -0.050 A 
ATOM     11  C   UNL A   1      44.524  27.999  31.182  1.00  0.00     0.005 A 
ATOM     12  C   UNL A   1      43.748  25.888  30.301  1.00  0.00     0.014 A 
ATOM     13  C   UNL A   1      44.104  28.663  30.025  1.00  0.00     0.027 A 
ATOM     14  C   UNL A   1      43.325  26.534  29.117  1.00  0.00     0.008 A 
ATOM     15  C   UNL A   1      43.533  27.907  28.986  1.00  0.00     0.049 A 
ATOM     16  C   UNL A   1      42.687  26.086  27.924  1.00  0.00     0.011 A 
ATOM     17  C   UNL A   1      42.516  27.180  27.089  1.00  0.00     0.024 A 
ATOM     18  C   UNL A   1      41.864  27.250  25.746  1.00  0.00     0.065 C 
BRANCH  16  19
ATOM     19  C   UNL A   1      42.260  24.735  27.585  1.00  0.00    -0.005 A 
ATOM     20  C   UNL A   1      40.961  24.363  27.926  1.00  0.00     0.029 A 
ATOM     21  C   UNL A   1      43.127  23.802  26.960  1.00  0.00     0.008 A 
ATOM     22  C   UNL A   1      40.561  23.083  27.623  1.00  0.00     0.112 A 
ATOM     23  C   UNL A   1      42.617  22.511  26.692  1.00  0.00     0.074 A 
ATOM     24  C   UNL A   1      44.466  24.099  26.606  1.00  0.00     0.011 A 
ATOM     25  N   UNL A   1      41.352  22.172  27.020  1.00  0.00    -0.256 NA
ATOM     26  C   UNL A   1      43.458  21.573  26.075  1.00  0.00    -0.025 A 
ATOM     27  C   UNL A   1      45.291  23.156  26.006  1.00  0.00     0.001 A 
ATOM     28  C   UNL A   1      42.982  20.180  25.749  1.00  0.00     0.047 C 
ATOM     29  C   UNL A   1      44.787  21.894  25.741  1.00  0.00     0.005 A 
ENDBRANCH  16  19
ENDBRANCH   7   8
ENDBRANCH   4   7
ENDBRANCH   2   3
ENDBRANCH   1   2
BRANCH   1  30
ATOM     30  C   UNL A   1      44.529  34.053  25.010  1.00  0.00     0.023 C 
BRANCH  30  31
ATOM     31  C   UNL A   1      45.815  34.627  25.605  1.00  0.00     0.116 C 
BRANCH  31  32
ATOM     32  N   UNL A   1      45.679  36.015  26.003  1.00  0.00    -0.352 N 
ATOM     33  C   UNL A   1      45.080  36.687  27.027  1.00  0.00     0.251 C 
ATOM     34  H   UNL A   1      46.132  36.624  25.378  1.00  0.00     0.163 HD
ATOM     35  O   UNL A   1      45.284  37.908  27.052  1.00  0.00    -0.269 OA
BRANCH  33  36
ATOM     36  C   UNL A   1      44.192  36.099  28.064  1.00  0.00     0.039 A 
ATOM     37  C   UNL A   1      44.530  35.076  28.947  1.00  0.00     0.014 A 
ATOM     38  C   UNL A   1      42.875  36.605  28.096  1.00  0.00     0.014 A 
ATOM     39  C   UNL A   1      43.564  34.529  29.788  1.00  0.00     0.010 A 
ATOM     40  C   UNL A   1      41.909  36.067  28.937  1.00  0.00     0.010 A 
ATOM     41  C   UNL A   1      42.245  34.996  29.753  1.00  0.00    -0.014 A 
BRANCH  41  42
ATOM     42  C   UNL A   1      41.284  34.385  30.668  1.00  0.00     0.031 A 
ATOM     43  C   UNL A   1      41.804  34.171  32.046  1.00  0.00     0.074 A 
ATOM     44  C   UNL A   1      40.007  34.096  30.340  1.00  0.00     0.049 A 
ATOM     45  N   UNL A   1      41.996  33.047  32.654  1.00  0.00    -0.248 NA
ATOM     46  C   UNL A   1      42.279  35.345  32.797  1.00  0.00     0.031 C 
ATOM     47  C   UNL A   1      39.278  34.497  29.135  1.00  0.00     0.029 A 
ATOM     48  N   UNL A   1      39.055  33.443  31.071  1.00  0.00    -0.354 N 
ATOM     49  C   UNL A   1      42.459  33.372  33.928  1.00  0.00     0.074 A 
ATOM     50  C   UNL A   1      42.737  34.783  33.917  1.00  0.00     0.031 C 
ATOM     51  C   UNL A   1      37.955  34.281  29.318  1.00  0.00     0.029 A 
ATOM     52  C   UNL A   1      37.764  33.588  30.579  1.00  0.00     0.049 A 
ATOM     53  H   UNL A   1      39.265  32.914  31.875  1.00  0.00     0.167 HD
ATOM     54  C   UNL A   1      42.349  32.489  34.958  1.00  0.00     0.037 A 
ATOM     55  C   UNL A   1      36.618  33.205  31.195  1.00  0.00     0.037 A 
ATOM     56  C   UNL A   1      42.091  31.159  34.477  1.00  0.00     0.049 A 
ATOM     57  C   UNL A   1      36.965  32.138  32.160  1.00  0.00     0.074 A 
ATOM     58  C   UNL A   1      42.812  30.151  33.877  1.00  0.00     0.029 A 
ATOM     59  N   UNL A   1      40.766  30.887  34.279  1.00  0.00    -0.354 N 
ATOM     60  N   UNL A   1      37.387  30.953  31.815  1.00  0.00    -0.248 NA
ATOM     61  C   UNL A   1      37.140  32.477  33.568  1.00  0.00     0.031 C 
ATOM     62  C   UNL A   1      41.870  29.396  33.113  1.00  0.00     0.029 A 
ATOM     63  C   UNL A   1      40.602  29.947  33.300  1.00  0.00     0.049 A 
ATOM     64  H   UNL A   1      40.029  31.311  34.776  1.00  0.00     0.167 HD
ATOM     65  C   UNL A   1      38.252  30.592  32.827  1.00  0.00     0.074 A 
ATOM     66  C   UNL A   1      37.914  31.459  33.947  1.00  0.00     0.031 C 
ATOM     67  C   UNL A   1      39.366  29.855  32.555  1.00  0.00     0.037 A 
BRANCH  54  68
ATOM     68  C   UNL A   1      41.995  32.878  36.379  1.00  0.00     0.064 A 
ATOM     69  C   UNL A   1      42.810  32.437  37.443  1.00  0.00     0.173 A 
ATOM     70  C   UNL A   1      40.727  33.372  36.753  1.00  0.00     0.173 A 
ATOM     71  F   UNL A   1      44.020  31.908  37.204  1.00  0.00    -0.203 F 
ATOM     72  C   UNL A   1      42.366  32.445  38.770  1.00  0.00     0.198 A 
ATOM     73  C   UNL A   1      40.307  33.426  38.082  1.00  0.00     0.198 A 
ATOM     74  F   UNL A   1      39.802  33.710  35.848  1.00  0.00    -0.203 F 
ATOM     75  F   UNL A   1      43.129  31.912  39.735  1.00  0.00    -0.200 F 
ATOM     76  C   UNL A   1      41.113  32.938  39.088  1.00  0.00     0.200 A 
ATOM     77  F   UNL A   1      39.076  33.878  38.365  1.00  0.00    -0.200 F 
ATOM     78  F   UNL A   1      40.663  32.899  40.349  1.00  0.00    -0.200 F 
ENDBRANCH  54  68
BRANCH  55  79
ATOM     79  C   UNL A   1      35.315  33.913  31.255  1.00  0.00     0.064 A 
ATOM     80  C   UNL A   1      35.098  34.929  32.205  1.00  0.00     0.173 A 
ATOM     81  C   UNL A   1      34.398  33.848  30.190  1.00  0.00     0.173 A 
ATOM     82  F   UNL A   1      35.939  35.078  33.239  1.00  0.00    -0.203 F 
ATOM     83  C   UNL A   1      34.070  35.865  32.057  1.00  0.00     0.198 A 
ATOM     84  C   UNL A   1      33.368  34.780  30.048  1.00  0.00     0.198 A 
ATOM     85  F   UNL A   1      34.545  32.949  29.207  1.00  0.00    -0.203 F 
ATOM     86  F   UNL A   1      33.954  36.875  32.932  1.00  0.00    -0.200 F 
ATOM     87  C   UNL A   1      33.219  35.802  30.966  1.00  0.00     0.200 A 
ATOM     88  F   UNL A   1      32.570  34.726  28.972  1.00  0.00    -0.200 F 
ATOM     89  F   UNL A   1      32.289  36.748  30.777  1.00  0.00    -0.200 F 
ENDBRANCH  55  79
BRANCH  67  90
ATOM     90  C   UNL A   1      39.353  29.033  31.302  1.00  0.00     0.064 A 
ATOM     91  C   UNL A   1      38.897  27.707  31.221  1.00  0.00     0.173 A 
ATOM     92  C   UNL A   1      39.768  29.650  30.114  1.00  0.00     0.173 A 
ATOM     93  F   UNL A   1      38.404  27.078  32.295  1.00  0.00    -0.203 F 
ATOM     94  C   UNL A   1      38.904  27.018  30.009  1.00  0.00     0.198 A 
ATOM     95  C   UNL A   1      39.736  28.973  28.899  1.00  0.00     0.198 A 
ATOM     96  F   UNL A   1      40.174  30.929  30.127  1.00  0.00    -0.203 F 
ATOM     97  F   UNL A   1      38.489  25.744  29.957  1.00  0.00    -0.200 F 
ATOM     98  C   UNL A   1      39.317  27.654  28.849  1.00  0.00     0.200 A 
ATOM     99  F   UNL A   1      40.093  29.609  27.775  1.00  0.00    -0.200 F 
ATOM    100  F   UNL A   1      39.292  27.003  27.677  1.00  0.00    -0.200 F 
ENDBRANCH  67  90
ENDBRANCH  41  42
ENDBRANCH  33  36
ENDBRANCH  31  32
ENDBRANCH  30  31
ENDBRANCH   1  30
TORSDOF 13
ENDMDL
