MODEL 1
REMARK VINA RESULT:     -12.7      0.000      0.000
REMARK SMILES CC[C@@H]1CC(=O)N(Cc2ccc(/C=C/C(=O)NCCCCNC(=O)c3ccc(-c4c5nc(c(-c6c(F)c(F)c(F)c(F)c6F)c6ccc([nH]6)c(-c6c(F)c(F)c(F)c(F)c6F)c6nc(c(-c7c(F)c(F)c(F)c(F)c7F)c7ccc4[nH]7)C=C6)C=C5)cc3)cc2F)C1
REMARK SMILES IDX 18 1 17 2 15 3 16 4 14 6 13 7 12 8 9 9 10 10 89 11 11 12
REMARK SMILES IDX 88 13 90 14 8 15 7 16 3 17 4 18 91 19 5 20 6 21 2 22 1 23
REMARK SMILES IDX 19 24 20 25 21 26 22 27 23 28 24 30 25 31 26 32 87 33 27 34
REMARK SMILES IDX 86 35 28 36 29 37 30 38 80 39 31 40 85 41 79 42 81 43 32 44
REMARK SMILES IDX 84 45 78 46 77 47 33 49 65 50 45 51 64 52 46 53 49 54 63 55
REMARK SMILES IDX 82 56 47 57 48 58 62 60 83 61 50 62 34 63 35 64 43 65 36 66
REMARK SMILES IDX 37 67 41 68 44 69 38 70 39 71 42 72 40 73 66 74 67 75 75 76
REMARK SMILES IDX 68 77 69 78 73 79 76 80 70 81 71 82 74 83 72 84 51 85 52 86
REMARK SMILES IDX 60 87 53 88 54 89 58 90 61 91 55 92 56 93 59 94 57 95
REMARK H PARENT 17 5 22 29 81 48 49 59
REMARK Flexibility Score: inf
ROOT
ATOM      1  C   UNL A   1      46.557  19.729  35.970  1.00  0.00     0.116 C 
ENDROOT
BRANCH   1   2
ATOM      2  N   UNL A   1      47.487  19.701  37.084  1.00  0.00    -0.353 N 
ATOM      3  C   UNL A   1      47.351  19.218  38.349  1.00  0.00     0.243 C 
ATOM      4  O   UNL A   1      48.313  19.248  39.113  1.00  0.00    -0.270 OA
ATOM      5  H   UNL A   1      48.367  20.099  36.892  1.00  0.00     0.163 HD
BRANCH   3   6
ATOM      6  C   UNL A   1      46.096  18.565  38.790  1.00  0.00     0.072 C 
ATOM      7  C   UNL A   1      46.037  17.371  39.395  1.00  0.00     0.014 C 
BRANCH   7   8
ATOM      8  C   UNL A   1      44.815  16.728  39.895  1.00  0.00    -0.023 A 
ATOM      9  C   UNL A   1      42.538  15.473  41.018  1.00  0.00     0.007 A 
ATOM     10  C   UNL A   1      42.843  15.317  39.660  1.00  0.00     0.009 A 
ATOM     11  C   UNL A   1      43.392  16.258  41.795  1.00  0.00     0.128 A 
ATOM     12  C   UNL A   1      43.979  15.928  39.107  1.00  0.00     0.008 A 
ATOM     13  C   UNL A   1      44.504  16.890  41.249  1.00  0.00     0.047 A 
ATOM     14  F   UNL A   1      43.155  16.419  43.105  1.00  0.00    -0.207 F 
BRANCH   9  15
ATOM     15  C   UNL A   1      41.335  14.808  41.635  1.00  0.00     0.158 C 
BRANCH  15  16
ATOM     16  N   UNL A   1      41.645  13.554  42.299  1.00  0.00    -0.338 N 
ATOM     17  C   UNL A   1      42.403  12.095  43.969  1.00  0.00     0.017 C 
ATOM     18  C   UNL A   1      42.040  11.287  42.713  1.00  0.00     0.105 C 
ATOM     19  C   UNL A   1      41.692  13.422  43.732  1.00  0.00     0.124 C 
ATOM     20  C   UNL A   1      41.823  12.344  41.652  1.00  0.00     0.223 C 
ATOM     21  O   UNL A   1      41.769  12.143  40.453  1.00  0.00    -0.275 OA
BRANCH  17  22
ATOM     22  C   UNL A   1      43.921  12.285  44.127  1.00  0.00     0.002 C 
ATOM     23  C   UNL A   1      44.276  13.724  44.476  1.00  0.00     0.004 C 
ENDBRANCH  17  22
ENDBRANCH  15  16
ENDBRANCH   9  15
ENDBRANCH   7   8
ENDBRANCH   3   6
ENDBRANCH   1   2
BRANCH   1  24
ATOM     24  C   UNL A   1      46.406  21.152  35.427  1.00  0.00     0.023 C 
BRANCH  24  25
ATOM     25  C   UNL A   1      46.920  22.240  36.374  1.00  0.00     0.023 C 
BRANCH  25  26
ATOM     26  C   UNL A   1      47.330  23.541  35.694  1.00  0.00     0.116 C 
BRANCH  26  27
ATOM     27  N   UNL A   1      47.744  24.574  36.633  1.00  0.00    -0.352 N 
ATOM     28  C   UNL A   1      47.339  25.885  36.693  1.00  0.00     0.251 C 
ATOM     29  H   UNL A   1      48.400  24.296  37.313  1.00  0.00     0.163 HD
ATOM     30  O   UNL A   1      47.870  26.670  37.470  1.00  0.00    -0.269 OA
BRANCH  28  31
ATOM     31  C   UNL A   1      46.278  26.347  35.777  1.00  0.00     0.039 A 
ATOM     32  C   UNL A   1      45.037  25.707  35.804  1.00  0.00     0.014 A 
ATOM     33  C   UNL A   1      46.495  27.443  34.938  1.00  0.00     0.014 A 
ATOM     34  C   UNL A   1      43.987  26.218  35.040  1.00  0.00     0.010 A 
ATOM     35  C   UNL A   1      45.428  27.995  34.239  1.00  0.00     0.010 A 
ATOM     36  C   UNL A   1      44.162  27.391  34.287  1.00  0.00    -0.014 A 
BRANCH  36  37
ATOM     37  C   UNL A   1      43.031  28.011  33.551  1.00  0.00     0.031 A 
ATOM     38  C   UNL A   1      42.833  27.717  32.092  1.00  0.00     0.074 A 
ATOM     39  C   UNL A   1      42.222  28.882  34.186  1.00  0.00     0.049 A 
ATOM     40  N   UNL A   1      41.957  28.219  31.260  1.00  0.00    -0.248 NA
ATOM     41  C   UNL A   1      43.754  26.746  31.477  1.00  0.00     0.031 C 
ATOM     42  C   UNL A   1      42.333  29.271  35.592  1.00  0.00     0.029 A 
ATOM     43  N   UNL A   1      41.144  29.602  33.729  1.00  0.00    -0.354 N 
ATOM     44  C   UNL A   1      42.221  27.629  30.032  1.00  0.00     0.074 A 
ATOM     45  C   UNL A   1      43.377  26.778  30.208  1.00  0.00     0.031 C 
ATOM     46  C   UNL A   1      41.347  30.130  35.892  1.00  0.00     0.029 A 
ATOM     47  C   UNL A   1      40.562  30.394  34.689  1.00  0.00     0.049 A 
ATOM     48  H   UNL A   1      40.821  29.556  32.800  1.00  0.00     0.167 HD
ATOM     49  C   UNL A   1      41.540  27.762  28.872  1.00  0.00     0.037 A 
ATOM     50  C   UNL A   1      39.518  31.242  34.608  1.00  0.00     0.037 A 
ATOM     51  C   UNL A   1      40.378  28.593  28.707  1.00  0.00     0.049 A 
ATOM     52  C   UNL A   1      38.808  31.405  33.291  1.00  0.00     0.074 A 
ATOM     53  C   UNL A   1      39.599  28.766  27.577  1.00  0.00     0.029 A 
ATOM     54  N   UNL A   1      39.826  29.388  29.701  1.00  0.00    -0.354 N 
ATOM     55  N   UNL A   1      39.040  30.807  32.147  1.00  0.00    -0.248 NA
ATOM     56  C   UNL A   1      37.692  32.361  33.249  1.00  0.00     0.031 C 
ATOM     57  C   UNL A   1      38.608  29.705  27.870  1.00  0.00     0.029 A 
ATOM     58  C   UNL A   1      38.728  30.070  29.202  1.00  0.00     0.049 A 
ATOM     59  H   UNL A   1      40.162  29.456  30.623  1.00  0.00     0.167 HD
ATOM     60  C   UNL A   1      38.082  31.285  31.264  1.00  0.00     0.074 A 
ATOM     61  C   UNL A   1      37.258  32.217  32.004  1.00  0.00     0.031 C 
ATOM     62  C   UNL A   1      37.903  30.979  29.957  1.00  0.00     0.037 A 
BRANCH  49  63
ATOM     63  C   UNL A   1      42.010  26.976  27.682  1.00  0.00     0.064 A 
ATOM     64  C   UNL A   1      41.555  25.665  27.467  1.00  0.00     0.173 A 
ATOM     65  C   UNL A   1      42.984  27.484  26.811  1.00  0.00     0.173 A 
ATOM     66  F   UNL A   1      40.627  25.130  28.274  1.00  0.00    -0.203 F 
ATOM     67  C   UNL A   1      42.078  24.886  26.438  1.00  0.00     0.198 A 
ATOM     68  C   UNL A   1      43.482  26.713  25.764  1.00  0.00     0.198 A 
ATOM     69  F   UNL A   1      43.443  28.735  26.966  1.00  0.00    -0.203 F 
ATOM     70  F   UNL A   1      41.661  23.623  26.278  1.00  0.00    -0.200 F 
ATOM     71  C   UNL A   1      43.039  25.411  25.588  1.00  0.00     0.200 A 
ATOM     72  F   UNL A   1      44.393  27.230  24.929  1.00  0.00    -0.200 F 
ATOM     73  F   UNL A   1      43.540  24.660  24.597  1.00  0.00    -0.200 F 
ENDBRANCH  49  63
BRANCH  50  74
ATOM     74  C   UNL A   1      39.064  31.978  35.818  1.00  0.00     0.064 A 
ATOM     75  C   UNL A   1      38.214  31.385  36.763  1.00  0.00     0.173 A 
ATOM     76  C   UNL A   1      39.465  33.302  36.045  1.00  0.00     0.173 A 
ATOM     77  F   UNL A   1      37.796  30.122  36.593  1.00  0.00    -0.203 F 
ATOM     78  C   UNL A   1      37.771  32.093  37.879  1.00  0.00     0.198 A 
ATOM     79  C   UNL A   1      39.048  33.999  37.178  1.00  0.00     0.198 A 
ATOM     80  F   UNL A   1      40.293  33.908  35.181  1.00  0.00    -0.203 F 
ATOM     81  F   UNL A   1      36.933  31.513  38.749  1.00  0.00    -0.200 F 
ATOM     82  C   UNL A   1      38.195  33.397  38.089  1.00  0.00     0.200 A 
ATOM     83  F   UNL A   1      39.482  35.248  37.391  1.00  0.00    -0.200 F 
ATOM     84  F   UNL A   1      37.785  34.071  39.173  1.00  0.00    -0.200 F 
ENDBRANCH  50  74
BRANCH  62  85
ATOM     85  C   UNL A   1      36.753  31.617  29.234  1.00  0.00     0.064 A 
ATOM     86  C   UNL A   1      36.756  32.998  28.980  1.00  0.00     0.173 A 
ATOM     87  C   UNL A   1      35.607  30.889  28.889  1.00  0.00     0.173 A 
ATOM     88  F   UNL A   1      37.824  33.743  29.301  1.00  0.00    -0.203 F 
ATOM     89  C   UNL A   1      35.644  33.628  28.429  1.00  0.00     0.198 A 
ATOM     90  C   UNL A   1      34.507  31.516  28.308  1.00  0.00     0.198 A 
ATOM     91  F   UNL A   1      35.558  29.565  29.101  1.00  0.00    -0.203 F 
ATOM     92  F   UNL A   1      35.652  34.954  28.241  1.00  0.00    -0.200 F 
ATOM     93  C   UNL A   1      34.522  32.887  28.092  1.00  0.00     0.200 A 
ATOM     94  F   UNL A   1      33.433  30.796  27.960  1.00  0.00    -0.200 F 
ATOM     95  F   UNL A   1      33.452  33.493  27.559  1.00  0.00    -0.200 F 
ENDBRANCH  62  85
ENDBRANCH  36  37
ENDBRANCH  28  31
ENDBRANCH  26  27
ENDBRANCH  25  26
ENDBRANCH  24  25
ENDBRANCH   1  24
TORSDOF 15
ENDMDL
MODEL 2
REMARK VINA RESULT:     -12.5      8.852     14.173
REMARK SMILES CC[C@@H]1CC(=O)N(Cc2ccc(/C=C/C(=O)NCCCCNC(=O)c3ccc(-c4c5nc(c(-c6c(F)c(F)c(F)c(F)c6F)c6ccc([nH]6)c(-c6c(F)c(F)c(F)c(F)c6F)c6nc(c(-c7c(F)c(F)c(F)c(F)c7F)c7ccc4[nH]7)C=C6)C=C5)cc3)cc2F)C1
REMARK SMILES IDX 18 1 17 2 15 3 16 4 14 6 13 7 12 8 9 9 10 10 89 11 11 12
REMARK SMILES IDX 88 13 90 14 8 15 7 16 3 17 4 18 91 19 5 20 6 21 2 22 1 23
REMARK SMILES IDX 19 24 20 25 21 26 22 27 23 28 24 30 25 31 26 32 87 33 27 34
REMARK SMILES IDX 86 35 28 36 29 37 30 38 80 39 31 40 85 41 79 42 81 43 32 44
REMARK SMILES IDX 84 45 78 46 77 47 33 49 65 50 45 51 64 52 46 53 49 54 63 55
REMARK SMILES IDX 82 56 47 57 48 58 62 60 83 61 50 62 34 63 35 64 43 65 36 66
REMARK SMILES IDX 37 67 41 68 44 69 38 70 39 71 42 72 40 73 66 74 67 75 75 76
REMARK SMILES IDX 68 77 69 78 73 79 76 80 70 81 71 82 74 83 72 84 51 85 52 86
REMARK SMILES IDX 60 87 53 88 54 89 58 90 61 91 55 92 56 93 59 94 57 95
REMARK H PARENT 17 5 22 29 81 48 49 59
REMARK Flexibility Score: inf
ROOT
ATOM      1  C   UNL A   1      35.877  21.107  25.672  1.00  0.00     0.116 C 
ENDROOT
BRANCH   1   2
ATOM      2  N   UNL A   1      34.804  20.193  25.324  1.00  0.00    -0.353 N 
ATOM      3  C   UNL A   1      33.549  20.427  24.853  1.00  0.00     0.243 C 
ATOM      4  O   UNL A   1      32.826  19.476  24.565  1.00  0.00    -0.270 OA
ATOM      5  H   UNL A   1      35.022  19.240  25.448  1.00  0.00     0.163 HD
BRANCH   3   6
ATOM      6  C   UNL A   1      33.074  21.805  24.589  1.00  0.00     0.072 C 
ATOM      7  C   UNL A   1      33.098  22.395  23.386  1.00  0.00     0.014 C 
BRANCH   7   8
ATOM      8  C   UNL A   1      32.579  23.736  23.084  1.00  0.00    -0.023 A 
ATOM      9  C   UNL A   1      31.421  26.266  22.562  1.00  0.00     0.007 A 
ATOM     10  C   UNL A   1      32.469  25.783  21.768  1.00  0.00     0.009 A 
ATOM     11  C   UNL A   1      30.965  25.461  23.607  1.00  0.00     0.128 A 
ATOM     12  C   UNL A   1      33.034  24.523  22.019  1.00  0.00     0.008 A 
ATOM     13  C   UNL A   1      31.538  24.223  23.880  1.00  0.00     0.047 A 
ATOM     14  F   UNL A   1      29.948  25.869  24.380  1.00  0.00    -0.207 F 
BRANCH   9  15
ATOM     15  C   UNL A   1      30.787  27.607  22.295  1.00  0.00     0.158 C 
BRANCH  15  16
ATOM     16  N   UNL A   1      31.043  28.585  23.339  1.00  0.00    -0.338 N 
ATOM     17  C   UNL A   1      32.039  29.559  25.223  1.00  0.00     0.017 C 
ATOM     18  C   UNL A   1      30.836  30.408  24.787  1.00  0.00     0.105 C 
ATOM     19  C   UNL A   1      32.323  28.717  23.985  1.00  0.00     0.124 C 
ATOM     20  C   UNL A   1      30.142  29.550  23.751  1.00  0.00     0.223 C 
ATOM     21  O   UNL A   1      29.012  29.721  23.332  1.00  0.00    -0.275 OA
BRANCH  17  22
ATOM     22  C   UNL A   1      31.727  28.680  26.446  1.00  0.00     0.002 C 
ATOM     23  C   UNL A   1      32.566  27.409  26.457  1.00  0.00     0.004 C 
ENDBRANCH  17  22
ENDBRANCH  15  16
ENDBRANCH   9  15
ENDBRANCH   7   8
ENDBRANCH   3   6
ENDBRANCH   1   2
BRANCH   1  24
ATOM     24  C   UNL A   1      37.026  21.000  24.667  1.00  0.00     0.023 C 
BRANCH  24  25
ATOM     25  C   UNL A   1      38.006  19.860  24.956  1.00  0.00     0.023 C 
BRANCH  25  26
ATOM     26  C   UNL A   1      39.247  20.265  25.744  1.00  0.00     0.116 C 
BRANCH  26  27
ATOM     27  N   UNL A   1      40.221  19.191  25.872  1.00  0.00    -0.352 N 
ATOM     28  C   UNL A   1      41.568  19.286  26.127  1.00  0.00     0.251 C 
ATOM     29  H   UNL A   1      39.869  18.278  25.762  1.00  0.00     0.163 HD
ATOM     30  O   UNL A   1      42.285  18.292  26.087  1.00  0.00    -0.269 OA
BRANCH  28  31
ATOM     31  C   UNL A   1      42.149  20.613  26.411  1.00  0.00     0.039 A 
ATOM     32  C   UNL A   1      42.448  21.462  25.344  1.00  0.00     0.014 A 
ATOM     33  C   UNL A   1      42.342  21.033  27.729  1.00  0.00     0.014 A 
ATOM     34  C   UNL A   1      42.871  22.766  25.604  1.00  0.00     0.010 A 
ATOM     35  C   UNL A   1      42.689  22.354  27.986  1.00  0.00     0.010 A 
ATOM     36  C   UNL A   1      42.953  23.235  26.926  1.00  0.00    -0.014 A 
BRANCH  36  37
ATOM     37  C   UNL A   1      43.299  24.648  27.222  1.00  0.00     0.031 A 
ATOM     38  C   UNL A   1      44.695  25.145  26.981  1.00  0.00     0.074 A 
ATOM     39  C   UNL A   1      42.370  25.462  27.762  1.00  0.00     0.049 A 
ATOM     40  N   UNL A   1      45.212  26.317  27.249  1.00  0.00    -0.248 NA
ATOM     41  C   UNL A   1      45.646  24.195  26.379  1.00  0.00     0.031 C 
ATOM     42  C   UNL A   1      40.990  25.084  28.070  1.00  0.00     0.029 A 
ATOM     43  N   UNL A   1      42.447  26.777  28.151  1.00  0.00    -0.354 N 
ATOM     44  C   UNL A   1      46.539  26.244  26.852  1.00  0.00     0.074 A 
ATOM     45  C   UNL A   1      46.770  24.896  26.382  1.00  0.00     0.031 C 
ATOM     46  C   UNL A   1      40.343  26.149  28.568  1.00  0.00     0.029 A 
ATOM     47  C   UNL A   1      41.272  27.272  28.662  1.00  0.00     0.049 A 
ATOM     48  H   UNL A   1      43.268  27.315  28.072  1.00  0.00     0.167 HD
ATOM     49  C   UNL A   1      47.472  27.223  26.850  1.00  0.00     0.037 A 
ATOM     50  C   UNL A   1      40.977  28.490  29.158  1.00  0.00     0.037 A 
ATOM     51  C   UNL A   1      47.232  28.569  27.300  1.00  0.00     0.049 A 
ATOM     52  C   UNL A   1      42.048  29.547  29.187  1.00  0.00     0.074 A 
ATOM     53  C   UNL A   1      48.105  29.641  27.305  1.00  0.00     0.029 A 
ATOM     54  N   UNL A   1      46.030  29.027  27.820  1.00  0.00    -0.354 N 
ATOM     55  N   UNL A   1      43.288  29.478  28.766  1.00  0.00    -0.248 NA
ATOM     56  C   UNL A   1      41.683  30.850  29.760  1.00  0.00     0.031 C 
ATOM     57  C   UNL A   1      47.452  30.734  27.877  1.00  0.00     0.029 A 
ATOM     58  C   UNL A   1      46.149  30.362  28.170  1.00  0.00     0.049 A 
ATOM     59  H   UNL A   1      45.215  28.485  27.925  1.00  0.00     0.167 HD
ATOM     60  C   UNL A   1      43.838  30.733  28.989  1.00  0.00     0.074 A 
ATOM     61  C   UNL A   1      42.796  31.548  29.576  1.00  0.00     0.031 C 
ATOM     62  C   UNL A   1      45.095  31.168  28.733  1.00  0.00     0.037 A 
BRANCH  49  63
ATOM     63  C   UNL A   1      48.840  26.896  26.326  1.00  0.00     0.064 A 
ATOM     64  C   UNL A   1      49.158  27.113  24.976  1.00  0.00     0.173 A 
ATOM     65  C   UNL A   1      49.803  26.278  27.137  1.00  0.00     0.173 A 
ATOM     66  F   UNL A   1      48.271  27.697  24.157  1.00  0.00    -0.203 F 
ATOM     67  C   UNL A   1      50.381  26.699  24.454  1.00  0.00     0.198 A 
ATOM     68  C   UNL A   1      51.036  25.894  26.618  1.00  0.00     0.198 A 
ATOM     69  F   UNL A   1      49.552  26.059  28.437  1.00  0.00    -0.203 F 
ATOM     70  F   UNL A   1      50.646  26.877  23.152  1.00  0.00    -0.200 F 
ATOM     71  C   UNL A   1      51.319  26.092  25.275  1.00  0.00     0.200 A 
ATOM     72  F   UNL A   1      51.950  25.329  27.419  1.00  0.00    -0.200 F 
ATOM     73  F   UNL A   1      52.496  25.696  24.772  1.00  0.00    -0.200 F 
ENDBRANCH  49  63
BRANCH  50  74
ATOM     74  C   UNL A   1      39.601  28.784  29.638  1.00  0.00     0.064 A 
ATOM     75  C   UNL A   1      39.226  28.570  30.973  1.00  0.00     0.173 A 
ATOM     76  C   UNL A   1      38.624  29.276  28.760  1.00  0.00     0.173 A 
ATOM     77  F   UNL A   1      40.119  28.096  31.854  1.00  0.00    -0.203 F 
ATOM     78  C   UNL A   1      37.926  28.823  31.406  1.00  0.00     0.198 A 
ATOM     79  C   UNL A   1      37.333  29.559  29.202  1.00  0.00     0.198 A 
ATOM     80  F   UNL A   1      38.937  29.516  27.478  1.00  0.00    -0.203 F 
ATOM     81  F   UNL A   1      37.587  28.578  32.679  1.00  0.00    -0.200 F 
ATOM     82  C   UNL A   1      36.983  29.324  30.522  1.00  0.00     0.200 A 
ATOM     83  F   UNL A   1      36.433  30.069  28.351  1.00  0.00    -0.200 F 
ATOM     84  F   UNL A   1      35.738  29.585  30.944  1.00  0.00    -0.200 F 
ENDBRANCH  50  74
BRANCH  62  85
ATOM     85  C   UNL A   1      45.422  32.601  29.040  1.00  0.00     0.064 A 
ATOM     86  C   UNL A   1      45.225  33.595  28.068  1.00  0.00     0.173 A 
ATOM     87  C   UNL A   1      46.023  32.974  30.250  1.00  0.00     0.173 A 
ATOM     88  F   UNL A   1      44.664  33.287  26.890  1.00  0.00    -0.203 F 
ATOM     89  C   UNL A   1      45.643  34.904  28.288  1.00  0.00     0.198 A 
ATOM     90  C   UNL A   1      46.410  34.292  30.480  1.00  0.00     0.198 A 
ATOM     91  F   UNL A   1      46.221  32.064  31.215  1.00  0.00    -0.203 F 
ATOM     92  F   UNL A   1      45.489  35.825  27.327  1.00  0.00    -0.200 F 
ATOM     93  C   UNL A   1      46.232  35.252  29.494  1.00  0.00     0.200 A 
ATOM     94  F   UNL A   1      46.957  34.633  31.654  1.00  0.00    -0.200 F 
ATOM     95  F   UNL A   1      46.631  36.514  29.706  1.00  0.00    -0.200 F 
ENDBRANCH  62  85
ENDBRANCH  36  37
ENDBRANCH  28  31
ENDBRANCH  26  27
ENDBRANCH  25  26
ENDBRANCH  24  25
ENDBRANCH   1  24
TORSDOF 15
ENDMDL
MODEL 3
REMARK VINA RESULT:     -12.3      8.956     14.146
REMARK SMILES CC[C@@H]1CC(=O)N(Cc2ccc(/C=C/C(=O)NCCCCNC(=O)c3ccc(-c4c5nc(c(-c6c(F)c(F)c(F)c(F)c6F)c6ccc([nH]6)c(-c6c(F)c(F)c(F)c(F)c6F)c6nc(c(-c7c(F)c(F)c(F)c(F)c7F)c7ccc4[nH]7)C=C6)C=C5)cc3)cc2F)C1
REMARK SMILES IDX 18 1 17 2 15 3 16 4 14 6 13 7 12 8 9 9 10 10 89 11 11 12
REMARK SMILES IDX 88 13 90 14 8 15 7 16 3 17 4 18 91 19 5 20 6 21 2 22 1 23
REMARK SMILES IDX 19 24 20 25 21 26 22 27 23 28 24 30 25 31 26 32 87 33 27 34
REMARK SMILES IDX 86 35 28 36 29 37 30 38 80 39 31 40 85 41 79 42 81 43 32 44
REMARK SMILES IDX 84 45 78 46 77 47 33 49 65 50 45 51 64 52 46 53 49 54 63 55
REMARK SMILES IDX 82 56 47 57 48 58 62 60 83 61 50 62 34 63 35 64 43 65 36 66
REMARK SMILES IDX 37 67 41 68 44 69 38 70 39 71 42 72 40 73 66 74 67 75 75 76
REMARK SMILES IDX 68 77 69 78 73 79 76 80 70 81 71 82 74 83 72 84 51 85 52 86
REMARK SMILES IDX 60 87 53 88 54 89 58 90 61 91 55 92 56 93 59 94 57 95
REMARK H PARENT 17 5 22 29 81 48 49 59
REMARK Flexibility Score: inf
ROOT
ATOM      1  C   UNL A   1      36.481  21.138  25.483  1.00  0.00     0.116 C 
ENDROOT
BRANCH   1   2
ATOM      2  N   UNL A   1      37.180  22.304  25.992  1.00  0.00    -0.353 N 
ATOM      3  C   UNL A   1      36.861  23.627  25.948  1.00  0.00     0.243 C 
ATOM      4  O   UNL A   1      37.588  24.441  26.512  1.00  0.00    -0.270 OA
ATOM      5  H   UNL A   1      38.030  22.104  26.448  1.00  0.00     0.163 HD
BRANCH   3   6
ATOM      6  C   UNL A   1      35.603  24.091  25.318  1.00  0.00     0.072 C 
ATOM      7  C   UNL A   1      34.389  23.961  25.870  1.00  0.00     0.014 C 
BRANCH   7   8
ATOM      8  C   UNL A   1      33.134  24.466  25.297  1.00  0.00    -0.023 A 
ATOM      9  C   UNL A   1      30.647  25.439  24.357  1.00  0.00     0.007 A 
ATOM     10  C   UNL A   1      31.443  24.616  23.549  1.00  0.00     0.009 A 
ATOM     11  C   UNL A   1      31.114  25.755  25.634  1.00  0.00     0.128 A 
ATOM     12  C   UNL A   1      32.670  24.123  24.021  1.00  0.00     0.008 A 
ATOM     13  C   UNL A   1      32.341  25.293  26.098  1.00  0.00     0.047 A 
ATOM     14  F   UNL A   1      30.377  26.519  26.452  1.00  0.00    -0.207 F 
BRANCH   9  15
ATOM     15  C   UNL A   1      29.317  25.961  23.877  1.00  0.00     0.158 C 
BRANCH  15  16
ATOM     16  N   UNL A   1      29.371  27.336  23.410  1.00  0.00    -0.338 N 
ATOM     17  C   UNL A   1      30.269  29.445  22.926  1.00  0.00     0.017 C 
ATOM     18  C   UNL A   1      28.755  29.466  22.670  1.00  0.00     0.105 C 
ATOM     19  C   UNL A   1      30.586  27.954  22.949  1.00  0.00     0.124 C 
ATOM     20  C   UNL A   1      28.269  28.158  23.258  1.00  0.00     0.223 C 
ATOM     21  O   UNL A   1      27.110  27.879  23.501  1.00  0.00    -0.275 OA
BRANCH  17  22
ATOM     22  C   UNL A   1      30.651  30.126  24.252  1.00  0.00     0.002 C 
ATOM     23  C   UNL A   1      31.719  29.340  25.002  1.00  0.00     0.004 C 
ENDBRANCH  17  22
ENDBRANCH  15  16
ENDBRANCH   9  15
ENDBRANCH   7   8
ENDBRANCH   3   6
ENDBRANCH   1   2
BRANCH   1  24
ATOM     24  C   UNL A   1      37.406  20.296  24.600  1.00  0.00     0.023 C 
BRANCH  24  25
ATOM     25  C   UNL A   1      38.284  19.311  25.375  1.00  0.00     0.023 C 
BRANCH  25  26
ATOM     26  C   UNL A   1      39.661  19.840  25.756  1.00  0.00     0.116 C 
BRANCH  26  27
ATOM     27  N   UNL A   1      40.664  18.793  25.883  1.00  0.00    -0.352 N 
ATOM     28  C   UNL A   1      42.010  18.925  26.129  1.00  0.00     0.251 C 
ATOM     29  H   UNL A   1      40.336  17.870  25.779  1.00  0.00     0.163 HD
ATOM     30  O   UNL A   1      42.752  17.950  26.089  1.00  0.00    -0.269 OA
BRANCH  28  31
ATOM     31  C   UNL A   1      42.557  20.268  26.404  1.00  0.00     0.039 A 
ATOM     32  C   UNL A   1      43.176  20.970  25.368  1.00  0.00     0.014 A 
ATOM     33  C   UNL A   1      42.405  20.849  27.665  1.00  0.00     0.014 A 
ATOM     34  C   UNL A   1      43.578  22.289  25.579  1.00  0.00     0.010 A 
ATOM     35  C   UNL A   1      42.735  22.186  27.850  1.00  0.00     0.010 A 
ATOM     36  C   UNL A   1      43.320  22.921  26.807  1.00  0.00    -0.014 A 
BRANCH  36  37
ATOM     37  C   UNL A   1      43.643  24.355  27.019  1.00  0.00     0.031 A 
ATOM     38  C   UNL A   1      45.037  24.855  26.773  1.00  0.00     0.074 A 
ATOM     39  C   UNL A   1      42.694  25.189  27.487  1.00  0.00     0.049 A 
ATOM     40  N   UNL A   1      45.534  26.049  26.975  1.00  0.00    -0.248 NA
ATOM     41  C   UNL A   1      46.012  23.882  26.251  1.00  0.00     0.031 C 
ATOM     42  C   UNL A   1      41.313  24.814  27.792  1.00  0.00     0.029 A 
ATOM     43  N   UNL A   1      42.746  26.528  27.792  1.00  0.00    -0.354 N 
ATOM     44  C   UNL A   1      46.870  25.969  26.608  1.00  0.00     0.074 A 
ATOM     45  C   UNL A   1      47.126  24.597  26.230  1.00  0.00     0.031 C 
ATOM     46  C   UNL A   1      40.642  25.899  28.208  1.00  0.00     0.029 A 
ATOM     47  C   UNL A   1      41.555  27.038  28.248  1.00  0.00     0.049 A 
ATOM     48  H   UNL A   1      43.562  27.071  27.694  1.00  0.00     0.167 HD
ATOM     49  C   UNL A   1      47.790  26.958  26.561  1.00  0.00     0.037 A 
ATOM     50  C   UNL A   1      41.235  28.281  28.658  1.00  0.00     0.037 A 
ATOM     51  C   UNL A   1      47.524  28.326  26.919  1.00  0.00     0.049 A 
ATOM     52  C   UNL A   1      42.293  29.353  28.639  1.00  0.00     0.074 A 
ATOM     53  C   UNL A   1      48.384  29.409  26.871  1.00  0.00     0.029 A 
ATOM     54  N   UNL A   1      46.307  28.801  27.386  1.00  0.00    -0.354 N 
ATOM     55  N   UNL A   1      43.542  29.274  28.247  1.00  0.00    -0.248 NA
ATOM     56  C   UNL A   1      41.900  30.685  29.120  1.00  0.00     0.031 C 
ATOM     57  C   UNL A   1      47.706  30.527  27.359  1.00  0.00     0.029 A 
ATOM     58  C   UNL A   1      46.402  30.157  27.651  1.00  0.00     0.049 A 
ATOM     59  H   UNL A   1      45.497  28.256  27.510  1.00  0.00     0.167 HD
ATOM     60  C   UNL A   1      44.071  30.548  28.400  1.00  0.00     0.074 A 
ATOM     61  C   UNL A   1      43.007  31.385  28.913  1.00  0.00     0.031 C 
ATOM     62  C   UNL A   1      45.328  30.983  28.140  1.00  0.00     0.037 A 
BRANCH  49  63
ATOM     63  C   UNL A   1      49.172  26.617  26.086  1.00  0.00     0.064 A 
ATOM     64  C   UNL A   1      50.148  26.166  26.989  1.00  0.00     0.173 A 
ATOM     65  C   UNL A   1      49.558  26.829  24.754  1.00  0.00     0.173 A 
ATOM     66  F   UNL A   1      49.832  25.952  28.275  1.00  0.00    -0.203 F 
ATOM     67  C   UNL A   1      51.463  25.966  26.580  1.00  0.00     0.198 A 
ATOM     68  C   UNL A   1      50.867  26.597  24.342  1.00  0.00     0.198 A 
ATOM     69  F   UNL A   1      48.660  27.248  23.849  1.00  0.00    -0.203 F 
ATOM     70  F   UNL A   1      52.388  25.578  27.469  1.00  0.00    -0.200 F 
ATOM     71  C   UNL A   1      51.821  26.180  25.257  1.00  0.00     0.200 A 
ATOM     72  F   UNL A   1      51.206  26.782  23.059  1.00  0.00    -0.200 F 
ATOM     73  F   UNL A   1      53.088  25.984  24.865  1.00  0.00    -0.200 F 
ENDBRANCH  49  63
BRANCH  50  74
ATOM     74  C   UNL A   1      39.846  28.586  29.092  1.00  0.00     0.064 A 
ATOM     75  C   UNL A   1      38.893  29.100  28.200  1.00  0.00     0.173 A 
ATOM     76  C   UNL A   1      39.447  28.378  30.420  1.00  0.00     0.173 A 
ATOM     77  F   UNL A   1      39.223  29.323  26.919  1.00  0.00    -0.203 F 
ATOM     78  C   UNL A   1      37.601  29.409  28.623  1.00  0.00     0.198 A 
ATOM     79  C   UNL A   1      38.146  28.657  30.834  1.00  0.00     0.198 A 
ATOM     80  F   UNL A   1      40.315  27.870  31.307  1.00  0.00    -0.203 F 
ATOM     81  F   UNL A   1      36.722  29.930  27.757  1.00  0.00    -0.200 F 
ATOM     82  C   UNL A   1      37.227  29.180  29.938  1.00  0.00     0.200 A 
ATOM     83  F   UNL A   1      37.781  28.408  32.099  1.00  0.00    -0.200 F 
ATOM     84  F   UNL A   1      35.979  29.459  30.340  1.00  0.00    -0.200 F 
ENDBRANCH  50  74
BRANCH  62  85
ATOM     85  C   UNL A   1      45.630  32.437  28.361  1.00  0.00     0.064 A 
ATOM     86  C   UNL A   1      45.423  33.367  27.330  1.00  0.00     0.173 A 
ATOM     87  C   UNL A   1      46.220  32.893  29.548  1.00  0.00     0.173 A 
ATOM     88  F   UNL A   1      44.871  32.979  26.170  1.00  0.00    -0.203 F 
ATOM     89  C   UNL A   1      45.818  34.693  27.471  1.00  0.00     0.198 A 
ATOM     90  C   UNL A   1      46.585  34.228  29.698  1.00  0.00     0.198 A 
ATOM     91  F   UNL A   1      46.428  32.046  30.568  1.00  0.00    -0.203 F 
ATOM     92  F   UNL A   1      45.655  35.551  26.455  1.00  0.00    -0.200 F 
ATOM     93  C   UNL A   1      46.396  35.123  28.655  1.00  0.00     0.200 A 
ATOM     94  F   UNL A   1      47.121  34.648  30.851  1.00  0.00    -0.200 F 
ATOM     95  F   UNL A   1      46.774  36.402  28.792  1.00  0.00    -0.200 F 
ENDBRANCH  62  85
ENDBRANCH  36  37
ENDBRANCH  28  31
ENDBRANCH  26  27
ENDBRANCH  25  26
ENDBRANCH  24  25
ENDBRANCH   1  24
TORSDOF 15
ENDMDL
