MODEL 1
REMARK VINA RESULT:     -12.9      0.000      0.000
REMARK SMILES Cn1nc(C(=O)N2C[C@@H](O)C[C@H]2C(=O)NCCCCNC(=O)c2ccc(-c3c4nc(c(-c5c(F)c(F)c(F)c(F)c5F)c5ccc([nH]5)c(-c5c(F)c(F)c(F)c(F)c5F)c5nc(c(-c6c(F)c(F)c(F)c(F)c6F)c6ccc3[nH]6)C=C5)C=C4)cc2)ccc1=O
REMARK SMILES IDX 17 1 16 2 15 3 13 4 14 5 12 7 7 8 8 9 9 10 11 11 5 12 6 13
REMARK SMILES IDX 4 14 1 15 2 16 3 17 88 18 87 19 89 20 86 21 10 22 18 24
REMARK SMILES IDX 19 25 20 26 21 27 22 29 23 30 24 31 85 32 25 33 84 34 26 35
REMARK SMILES IDX 27 36 28 37 78 38 29 39 83 40 77 41 79 42 30 43 82 44 76 45
REMARK SMILES IDX 75 46 31 48 63 49 43 50 62 51 44 52 47 53 61 54 80 55 45 56
REMARK SMILES IDX 46 57 60 59 81 60 48 61 32 62 33 63 41 64 34 65 35 66 39 67
REMARK SMILES IDX 42 68 36 69 37 70 40 71 38 72 64 73 65 74 73 75 66 76 67 77
REMARK SMILES IDX 71 78 74 79 68 80 69 81 72 82 70 83 49 84 50 85 58 86 51 87
REMARK SMILES IDX 52 88 56 89 59 90 53 91 54 92 57 93 55 94
REMARK H PARENT 15 6 10 23 20 28 79 47 47 58
REMARK Flexibility Score: inf
ROOT
ATOM      1  C   UNL A   1      31.790  30.614  26.651  1.00  0.00     0.023 C 
ENDROOT
BRANCH   1   2
ATOM      2  C   UNL A   1      31.604  30.085  25.235  1.00  0.00     0.116 C 
BRANCH   2   3
ATOM      3  N   UNL A   1      32.853  29.716  24.610  1.00  0.00    -0.354 N 
ATOM      4  C   UNL A   1      33.334  28.493  24.250  1.00  0.00     0.242 C 
ATOM      5  O   UNL A   1      34.324  28.485  23.511  1.00  0.00    -0.273 OA
ATOM      6  H   UNL A   1      33.453  30.470  24.411  1.00  0.00     0.163 HD
BRANCH   4   7
ATOM      7  C   UNL A   1      32.590  27.182  24.576  1.00  0.00     0.177 C 
ATOM      8  N   UNL A   1      32.535  26.165  23.525  1.00  0.00    -0.323 N 
ATOM      9  C   UNL A   1      33.082  24.895  23.975  1.00  0.00     0.152 C 
ATOM     10  C   UNL A   1      33.072  24.986  25.498  1.00  0.00     0.136 C 
ATOM     11  C   UNL A   1      33.180  26.480  25.804  1.00  0.00     0.069 C 
BRANCH   8  12
ATOM     12  C   UNL A   1      31.646  26.383  22.480  1.00  0.00     0.275 C 
ATOM     13  O   UNL A   1      31.866  26.029  21.327  1.00  0.00    -0.267 OA
BRANCH  12  14
ATOM     14  C   UNL A   1      30.389  27.209  22.736  1.00  0.00     0.149 A 
ATOM     15  C   UNL A   1      29.076  30.384  21.729  1.00  0.00     0.178 C 
ATOM     16  N   UNL A   1      29.116  29.072  22.348  1.00  0.00    -0.232 N 
ATOM     17  N   UNL A   1      30.277  28.361  22.150  1.00  0.00    -0.165 NA
ATOM     18  C   UNL A   1      28.031  28.600  23.077  1.00  0.00     0.266 A 
ATOM     19  C   UNL A   1      28.201  27.264  23.694  1.00  0.00     0.076 A 
ATOM     20  O   UNL A   1      26.975  29.202  23.248  1.00  0.00    -0.268 OA
ATOM     21  C   UNL A   1      29.341  26.583  23.562  1.00  0.00     0.042 A 
ENDBRANCH  12  14
ENDBRANCH   8  12
BRANCH  10  22
ATOM     22  O   UNL A   1      34.141  24.265  26.089  1.00  0.00    -0.391 OA
ATOM     23  H   UNL A   1      34.970  24.485  25.637  1.00  0.00     0.211 HD
ENDBRANCH  10  22
ENDBRANCH   4   7
ENDBRANCH   2   3
ENDBRANCH   1   2
BRANCH   1  24
ATOM     24  C   UNL A   1      31.546  32.116  26.798  1.00  0.00     0.023 C 
BRANCH  24  25
ATOM     25  C   UNL A   1      32.750  32.933  27.258  1.00  0.00     0.116 C 
BRANCH  25  26
ATOM     26  N   UNL A   1      32.400  34.271  27.712  1.00  0.00    -0.352 N 
ATOM     27  C   UNL A   1      33.006  35.009  28.700  1.00  0.00     0.251 C 
ATOM     28  H   UNL A   1      31.637  34.697  27.258  1.00  0.00     0.163 HD
ATOM     29  O   UNL A   1      32.564  36.099  29.040  1.00  0.00    -0.269 OA
BRANCH  27  30
ATOM     30  C   UNL A   1      34.186  34.439  29.372  1.00  0.00     0.039 A 
ATOM     31  C   UNL A   1      33.999  33.677  30.526  1.00  0.00     0.014 A 
ATOM     32  C   UNL A   1      35.456  34.598  28.810  1.00  0.00     0.014 A 
ATOM     33  C   UNL A   1      35.090  33.018  31.092  1.00  0.00     0.010 A 
ATOM     34  C   UNL A   1      36.533  33.903  29.349  1.00  0.00     0.010 A 
ATOM     35  C   UNL A   1      36.356  33.110  30.493  1.00  0.00    -0.014 A 
BRANCH  35  36
ATOM     36  C   UNL A   1      37.517  32.397  31.073  1.00  0.00     0.031 A 
ATOM     37  C   UNL A   1      38.013  32.777  32.435  1.00  0.00     0.074 A 
ATOM     38  C   UNL A   1      38.139  31.440  30.360  1.00  0.00     0.049 A 
ATOM     39  N   UNL A   1      39.012  32.282  33.118  1.00  0.00    -0.248 NA
ATOM     40  C   UNL A   1      37.301  33.871  33.115  1.00  0.00     0.031 C 
ATOM     41  C   UNL A   1      37.768  31.016  29.010  1.00  0.00     0.029 A 
ATOM     42  N   UNL A   1      39.218  30.653  30.674  1.00  0.00    -0.354 N 
ATOM     43  C   UNL A   1      39.046  32.999  34.304  1.00  0.00     0.074 A 
ATOM     44  C   UNL A   1      38.007  34.002  34.228  1.00  0.00     0.031 C 
ATOM     45  C   UNL A   1      38.592  30.029  28.619  1.00  0.00     0.029 A 
ATOM     46  C   UNL A   1      39.559  29.767  29.682  1.00  0.00     0.049 A 
ATOM     47  H   UNL A   1      39.702  30.718  31.528  1.00  0.00     0.167 HD
ATOM     48  C   UNL A   1      39.853  32.815  35.375  1.00  0.00     0.037 A 
ATOM     49  C   UNL A   1      40.537  28.842  29.643  1.00  0.00     0.037 A 
ATOM     50  C   UNL A   1      40.872  31.806  35.454  1.00  0.00     0.049 A 
ATOM     51  C   UNL A   1      41.437  28.674  30.837  1.00  0.00     0.074 A 
ATOM     52  C   UNL A   1      41.706  31.504  36.517  1.00  0.00     0.029 A 
ATOM     53  N   UNL A   1      41.196  30.933  34.426  1.00  0.00    -0.354 N 
ATOM     54  N   UNL A   1      41.417  29.311  31.982  1.00  0.00    -0.248 NA
ATOM     55  C   UNL A   1      42.493  27.656  30.735  1.00  0.00     0.031 C 
ATOM     56  C   UNL A   1      42.558  30.468  36.119  1.00  0.00     0.029 A 
ATOM     57  C   UNL A   1      42.232  30.104  34.822  1.00  0.00     0.049 A 
ATOM     58  H   UNL A   1      40.755  30.906  33.547  1.00  0.00     0.167 HD
ATOM     59  C   UNL A   1      42.437  28.760  32.744  1.00  0.00     0.074 A 
ATOM     60  C   UNL A   1      43.055  27.729  31.935  1.00  0.00     0.031 C 
ATOM     61  C   UNL A   1      42.827  29.080  34.002  1.00  0.00     0.037 A 
BRANCH  48  62
ATOM     62  C   UNL A   1      39.647  33.716  36.553  1.00  0.00     0.064 A 
ATOM     63  C   UNL A   1      40.256  34.979  36.618  1.00  0.00     0.173 A 
ATOM     64  C   UNL A   1      38.813  33.331  37.612  1.00  0.00     0.173 A 
ATOM     65  F   UNL A   1      41.075  35.384  35.635  1.00  0.00    -0.203 F 
ATOM     66  C   UNL A   1      40.053  35.815  37.711  1.00  0.00     0.198 A 
ATOM     67  C   UNL A   1      38.593  34.181  38.692  1.00  0.00     0.198 A 
ATOM     68  F   UNL A   1      38.208  32.134  37.597  1.00  0.00    -0.203 F 
ATOM     69  F   UNL A   1      40.676  37.000  37.770  1.00  0.00    -0.200 F 
ATOM     70  C   UNL A   1      39.216  35.419  38.744  1.00  0.00     0.200 A 
ATOM     71  F   UNL A   1      37.779  33.800  39.688  1.00  0.00    -0.200 F 
ATOM     72  F   UNL A   1      39.018  36.228  39.793  1.00  0.00    -0.200 F 
ENDBRANCH  48  62
BRANCH  49  73
ATOM     73  C   UNL A   1      40.684  27.973  28.449  1.00  0.00     0.064 A 
ATOM     74  C   UNL A   1      40.042  26.729  28.388  1.00  0.00     0.173 A 
ATOM     75  C   UNL A   1      41.447  28.371  27.343  1.00  0.00     0.173 A 
ATOM     76  F   UNL A   1      39.316  26.299  29.431  1.00  0.00    -0.203 F 
ATOM     77  C   UNL A   1      40.165  25.911  27.268  1.00  0.00     0.198 A 
ATOM     78  C   UNL A   1      41.554  27.560  26.215  1.00  0.00     0.198 A 
ATOM     79  F   UNL A   1      42.077  29.555  27.354  1.00  0.00    -0.203 F 
ATOM     80  F   UNL A   1      39.563  24.713  27.246  1.00  0.00    -0.200 F 
ATOM     81  C   UNL A   1      40.916  26.329  26.180  1.00  0.00     0.200 A 
ATOM     82  F   UNL A   1      42.272  27.972  25.162  1.00  0.00    -0.200 F 
ATOM     83  F   UNL A   1      41.029  25.544  25.100  1.00  0.00    -0.200 F 
ENDBRANCH  49  73
BRANCH  61  84
ATOM     84  C   UNL A   1      43.965  28.305  34.593  1.00  0.00     0.064 A 
ATOM     85  C   UNL A   1      45.288  28.752  34.479  1.00  0.00     0.173 A 
ATOM     86  C   UNL A   1      43.718  27.152  35.355  1.00  0.00     0.173 A 
ATOM     87  F   UNL A   1      45.571  29.842  33.750  1.00  0.00    -0.203 F 
ATOM     88  C   UNL A   1      46.327  28.071  35.105  1.00  0.00     0.198 A 
ATOM     89  C   UNL A   1      44.758  26.487  35.998  1.00  0.00     0.198 A 
ATOM     90  F   UNL A   1      42.467  26.691  35.497  1.00  0.00    -0.203 F 
ATOM     91  F   UNL A   1      47.588  28.503  34.967  1.00  0.00    -0.200 F 
ATOM     92  C   UNL A   1      46.060  26.945  35.871  1.00  0.00     0.200 A 
ATOM     93  F   UNL A   1      44.498  25.406  36.748  1.00  0.00    -0.200 F 
ATOM     94  F   UNL A   1      47.061  26.301  36.488  1.00  0.00    -0.200 F 
ENDBRANCH  61  84
ENDBRANCH  35  36
ENDBRANCH  27  30
ENDBRANCH  25  26
ENDBRANCH  24  25
ENDBRANCH   1  24
TORSDOF 14
ENDMDL
MODEL 2
REMARK VINA RESULT:     -12.8      0.587      7.330
REMARK SMILES Cn1nc(C(=O)N2C[C@@H](O)C[C@H]2C(=O)NCCCCNC(=O)c2ccc(-c3c4nc(c(-c5c(F)c(F)c(F)c(F)c5F)c5ccc([nH]5)c(-c5c(F)c(F)c(F)c(F)c5F)c5nc(c(-c6c(F)c(F)c(F)c(F)c6F)c6ccc3[nH]6)C=C5)C=C4)cc2)ccc1=O
REMARK SMILES IDX 17 1 16 2 15 3 13 4 14 5 12 7 7 8 8 9 9 10 11 11 5 12 6 13
REMARK SMILES IDX 4 14 1 15 2 16 3 17 88 18 87 19 89 20 86 21 10 22 18 24
REMARK SMILES IDX 19 25 20 26 21 27 22 29 23 30 24 31 85 32 25 33 84 34 26 35
REMARK SMILES IDX 27 36 28 37 78 38 29 39 83 40 77 41 79 42 30 43 82 44 76 45
REMARK SMILES IDX 75 46 31 48 63 49 43 50 62 51 44 52 47 53 61 54 80 55 45 56
REMARK SMILES IDX 46 57 60 59 81 60 48 61 32 62 33 63 41 64 34 65 35 66 39 67
REMARK SMILES IDX 42 68 36 69 37 70 40 71 38 72 64 73 65 74 73 75 66 76 67 77
REMARK SMILES IDX 71 78 74 79 68 80 69 81 72 82 70 83 49 84 50 85 58 86 51 87
REMARK SMILES IDX 52 88 56 89 59 90 53 91 54 92 57 93 55 94
REMARK H PARENT 15 6 10 23 20 28 79 47 47 58
REMARK Flexibility Score: inf
ROOT
ATOM      1  C   UNL A   1      31.820  30.543  26.649  1.00  0.00     0.023 C 
ENDROOT
BRANCH   1   2
ATOM      2  C   UNL A   1      31.649  30.074  25.211  1.00  0.00     0.116 C 
BRANCH   2   3
ATOM      3  N   UNL A   1      32.900  29.703  24.593  1.00  0.00    -0.354 N 
ATOM      4  C   UNL A   1      33.382  28.478  24.238  1.00  0.00     0.242 C 
ATOM      5  O   UNL A   1      34.376  28.469  23.504  1.00  0.00    -0.273 OA
ATOM      6  H   UNL A   1      33.501  30.457  24.396  1.00  0.00     0.163 HD
BRANCH   4   7
ATOM      7  C   UNL A   1      32.636  27.169  24.563  1.00  0.00     0.177 C 
ATOM      8  N   UNL A   1      32.566  26.159  23.506  1.00  0.00    -0.323 N 
ATOM      9  C   UNL A   1      33.112  24.884  23.942  1.00  0.00     0.152 C 
ATOM     10  C   UNL A   1      33.116  24.965  25.466  1.00  0.00     0.136 C 
ATOM     11  C   UNL A   1      33.233  26.457  25.780  1.00  0.00     0.069 C 
BRANCH   8  12
ATOM     12  C   UNL A   1      31.669  26.387  22.471  1.00  0.00     0.275 C 
ATOM     13  O   UNL A   1      31.883  26.052  21.310  1.00  0.00    -0.267 OA
BRANCH  12  14
ATOM     14  C   UNL A   1      30.409  27.202  22.748  1.00  0.00     0.149 A 
ATOM     15  C   UNL A   1      29.048  30.363  21.763  1.00  0.00     0.178 C 
ATOM     16  N   UNL A   1      29.111  29.052  22.382  1.00  0.00    -0.232 N 
ATOM     17  N   UNL A   1      30.276  28.352  22.164  1.00  0.00    -0.165 NA
ATOM     18  C   UNL A   1      28.044  28.570  23.129  1.00  0.00     0.266 A 
ATOM     19  C   UNL A   1      28.237  27.236  23.743  1.00  0.00     0.076 A 
ATOM     20  O   UNL A   1      26.984  29.162  23.318  1.00  0.00    -0.268 OA
ATOM     21  C   UNL A   1      29.381  26.566  23.592  1.00  0.00     0.042 A 
ENDBRANCH  12  14
ENDBRANCH   8  12
BRANCH  10  22
ATOM     22  O   UNL A   1      34.188  24.236  26.043  1.00  0.00    -0.391 OA
ATOM     23  H   UNL A   1      33.857  23.707  26.786  1.00  0.00     0.211 HD
ENDBRANCH  10  22
ENDBRANCH   4   7
ENDBRANCH   2   3
ENDBRANCH   1   2
BRANCH   1  24
ATOM     24  C   UNL A   1      31.561  32.035  26.860  1.00  0.00     0.023 C 
BRANCH  24  25
ATOM     25  C   UNL A   1      32.761  32.847  27.339  1.00  0.00     0.116 C 
BRANCH  25  26
ATOM     26  N   UNL A   1      32.440  34.237  27.626  1.00  0.00    -0.352 N 
ATOM     27  C   UNL A   1      33.022  35.060  28.559  1.00  0.00     0.251 C 
ATOM     28  H   UNL A   1      31.718  34.635  27.087  1.00  0.00     0.163 HD
ATOM     29  O   UNL A   1      32.606  36.195  28.754  1.00  0.00    -0.269 OA
BRANCH  27  30
ATOM     30  C   UNL A   1      34.144  34.530  29.353  1.00  0.00     0.039 A 
ATOM     31  C   UNL A   1      33.870  33.916  30.576  1.00  0.00     0.014 A 
ATOM     32  C   UNL A   1      35.445  34.574  28.843  1.00  0.00     0.014 A 
ATOM     33  C   UNL A   1      34.904  33.288  31.271  1.00  0.00     0.010 A 
ATOM     34  C   UNL A   1      36.464  33.908  29.514  1.00  0.00     0.010 A 
ATOM     35  C   UNL A   1      36.200  33.262  30.731  1.00  0.00    -0.014 A 
BRANCH  35  36
ATOM     36  C   UNL A   1      37.300  32.580  31.449  1.00  0.00     0.031 A 
ATOM     37  C   UNL A   1      38.000  31.423  30.803  1.00  0.00     0.074 A 
ATOM     38  C   UNL A   1      37.639  32.980  32.689  1.00  0.00     0.049 A 
ATOM     39  N   UNL A   1      38.981  30.690  31.261  1.00  0.00    -0.248 NA
ATOM     40  C   UNL A   1      37.523  31.026  29.468  1.00  0.00     0.031 C 
ATOM     41  C   UNL A   1      37.001  34.067  33.431  1.00  0.00     0.029 A 
ATOM     42  N   UNL A   1      38.606  32.513  33.543  1.00  0.00    -0.354 N 
ATOM     43  C   UNL A   1      39.241  29.752  30.274  1.00  0.00     0.074 A 
ATOM     44  C   UNL A   1      38.279  29.967  29.216  1.00  0.00     0.031 C 
ATOM     45  C   UNL A   1      37.608  34.198  34.623  1.00  0.00     0.029 A 
ATOM     46  C   UNL A   1      38.663  33.194  34.734  1.00  0.00     0.049 A 
ATOM     47  H   UNL A   1      39.202  31.760  33.324  1.00  0.00     0.167 HD
ATOM     48  C   UNL A   1      40.215  28.814  30.241  1.00  0.00     0.037 A 
ATOM     49  C   UNL A   1      39.481  33.029  35.790  1.00  0.00     0.037 A 
ATOM     50  C   UNL A   1      41.181  28.615  31.285  1.00  0.00     0.049 A 
ATOM     51  C   UNL A   1      40.541  31.962  35.739  1.00  0.00     0.074 A 
ATOM     52  C   UNL A   1      42.241  27.727  31.322  1.00  0.00     0.029 A 
ATOM     53  N   UNL A   1      41.201  29.317  32.481  1.00  0.00    -0.354 N 
ATOM     54  N   UNL A   1      40.823  31.124  34.771  1.00  0.00    -0.248 NA
ATOM     55  C   UNL A   1      41.400  31.821  36.924  1.00  0.00     0.031 C 
ATOM     56  C   UNL A   1      42.884  27.869  32.556  1.00  0.00     0.029 A 
ATOM     57  C   UNL A   1      42.245  28.868  33.273  1.00  0.00     0.049 A 
ATOM     58  H   UNL A   1      40.568  30.028  32.731  1.00  0.00     0.167 HD
ATOM     59  C   UNL A   1      41.900  30.373  35.218  1.00  0.00     0.074 A 
ATOM     60  C   UNL A   1      42.229  30.858  36.542  1.00  0.00     0.031 C 
ATOM     61  C   UNL A   1      42.558  29.370  34.586  1.00  0.00     0.037 A 
BRANCH  48  62
ATOM     62  C   UNL A   1      40.294  27.947  29.022  1.00  0.00     0.064 A 
ATOM     63  C   UNL A   1      39.609  26.723  28.955  1.00  0.00     0.173 A 
ATOM     64  C   UNL A   1      41.031  28.352  27.901  1.00  0.00     0.173 A 
ATOM     65  F   UNL A   1      38.904  26.287  30.009  1.00  0.00    -0.203 F 
ATOM     66  C   UNL A   1      39.678  25.927  27.816  1.00  0.00     0.198 A 
ATOM     67  C   UNL A   1      41.077  27.564  26.754  1.00  0.00     0.198 A 
ATOM     68  F   UNL A   1      41.702  29.514  27.915  1.00  0.00    -0.203 F 
ATOM     69  F   UNL A   1      39.050  24.744  27.790  1.00  0.00    -0.200 F 
ATOM     70  C   UNL A   1      40.406  26.351  26.714  1.00  0.00     0.200 A 
ATOM     71  F   UNL A   1      41.776  27.977  25.686  1.00  0.00    -0.200 F 
ATOM     72  F   UNL A   1      40.467  25.585  25.616  1.00  0.00    -0.200 F 
ENDBRANCH  48  62
BRANCH  49  73
ATOM     73  C   UNL A   1      39.359  33.926  36.965  1.00  0.00     0.064 A 
ATOM     74  C   UNL A   1      38.639  33.526  38.098  1.00  0.00     0.173 A 
ATOM     75  C   UNL A   1      39.970  35.187  36.990  1.00  0.00     0.173 A 
ATOM     76  F   UNL A   1      38.022  32.335  38.113  1.00  0.00    -0.203 F 
ATOM     77  C   UNL A   1      38.527  34.357  39.211  1.00  0.00     0.198 A 
ATOM     78  C   UNL A   1      39.874  36.010  38.110  1.00  0.00     0.198 A 
ATOM     79  F   UNL A   1      40.673  35.613  35.930  1.00  0.00    -0.203 F 
ATOM     80  F   UNL A   1      37.810  33.960  40.271  1.00  0.00    -0.200 F 
ATOM     81  C   UNL A   1      39.149  35.596  39.218  1.00  0.00     0.200 A 
ATOM     82  F   UNL A   1      40.485  37.203  38.118  1.00  0.00    -0.200 F 
ATOM     83  F   UNL A   1      39.047  36.393  40.291  1.00  0.00    -0.200 F 
ENDBRANCH  49  73
BRANCH  61  84
ATOM     84  C   UNL A   1      43.708  28.734  35.306  1.00  0.00     0.064 A 
ATOM     85  C   UNL A   1      45.010  29.235  35.182  1.00  0.00     0.173 A 
ATOM     86  C   UNL A   1      43.488  27.673  36.197  1.00  0.00     0.173 A 
ATOM     87  F   UNL A   1      45.268  30.241  34.333  1.00  0.00    -0.203 F 
ATOM     88  C   UNL A   1      46.056  28.692  35.921  1.00  0.00     0.198 A 
ATOM     89  C   UNL A   1      44.533  27.147  36.952  1.00  0.00     0.198 A 
ATOM     90  F   UNL A   1      42.257  27.165  36.354  1.00  0.00    -0.203 F 
ATOM     91  F   UNL A   1      47.299  29.171  35.773  1.00  0.00    -0.200 F 
ATOM     92  C   UNL A   1      45.815  27.656  36.813  1.00  0.00     0.200 A 
ATOM     93  F   UNL A   1      44.297  26.155  37.821  1.00  0.00    -0.200 F 
ATOM     94  F   UNL A   1      46.821  27.147  37.538  1.00  0.00    -0.200 F 
ENDBRANCH  61  84
ENDBRANCH  35  36
ENDBRANCH  27  30
ENDBRANCH  25  26
ENDBRANCH  24  25
ENDBRANCH   1  24
TORSDOF 14
ENDMDL
MODEL 3
REMARK VINA RESULT:     -12.7      5.905     11.295
REMARK SMILES Cn1nc(C(=O)N2C[C@@H](O)C[C@H]2C(=O)NCCCCNC(=O)c2ccc(-c3c4nc(c(-c5c(F)c(F)c(F)c(F)c5F)c5ccc([nH]5)c(-c5c(F)c(F)c(F)c(F)c5F)c5nc(c(-c6c(F)c(F)c(F)c(F)c6F)c6ccc3[nH]6)C=C5)C=C4)cc2)ccc1=O
REMARK SMILES IDX 17 1 16 2 15 3 13 4 14 5 12 7 7 8 8 9 9 10 11 11 5 12 6 13
REMARK SMILES IDX 4 14 1 15 2 16 3 17 88 18 87 19 89 20 86 21 10 22 18 24
REMARK SMILES IDX 19 25 20 26 21 27 22 29 23 30 24 31 85 32 25 33 84 34 26 35
REMARK SMILES IDX 27 36 28 37 78 38 29 39 83 40 77 41 79 42 30 43 82 44 76 45
REMARK SMILES IDX 75 46 31 48 63 49 43 50 62 51 44 52 47 53 61 54 80 55 45 56
REMARK SMILES IDX 46 57 60 59 81 60 48 61 32 62 33 63 41 64 34 65 35 66 39 67
REMARK SMILES IDX 42 68 36 69 37 70 40 71 38 72 64 73 65 74 73 75 66 76 67 77
REMARK SMILES IDX 71 78 74 79 68 80 69 81 72 82 70 83 49 84 50 85 58 86 51 87
REMARK SMILES IDX 52 88 56 89 59 90 53 91 54 92 57 93 55 94
REMARK H PARENT 15 6 10 23 20 28 79 47 47 58
REMARK Flexibility Score: inf
ROOT
ATOM      1  C   UNL A   1      36.936  20.642  25.010  1.00  0.00     0.023 C 
ENDROOT
BRANCH   1   2
ATOM      2  C   UNL A   1      37.267  22.042  25.508  1.00  0.00     0.116 C 
BRANCH   2   3
ATOM      3  N   UNL A   1      36.155  22.674  26.177  1.00  0.00    -0.354 N 
ATOM      4  C   UNL A   1      34.863  22.846  25.776  1.00  0.00     0.242 C 
ATOM      5  O   UNL A   1      34.058  23.202  26.643  1.00  0.00    -0.273 OA
ATOM      6  H   UNL A   1      36.362  23.038  27.067  1.00  0.00     0.163 HD
BRANCH   4   7
ATOM      7  C   UNL A   1      34.371  22.440  24.372  1.00  0.00     0.177 C 
ATOM      8  N   UNL A   1      32.935  22.215  24.205  1.00  0.00    -0.323 N 
ATOM      9  C   UNL A   1      32.376  23.056  23.158  1.00  0.00     0.152 C 
ATOM     10  C   UNL A   1      33.581  23.500  22.334  1.00  0.00     0.136 C 
ATOM     11  C   UNL A   1      34.757  23.475  23.310  1.00  0.00     0.069 C 
BRANCH   8  12
ATOM     12  C   UNL A   1      32.418  21.027  24.704  1.00  0.00     0.275 C 
ATOM     13  O   UNL A   1      31.641  20.979  25.652  1.00  0.00    -0.267 OA
BRANCH  12  14
ATOM     14  C   UNL A   1      32.925  19.703  24.140  1.00  0.00     0.149 A 
ATOM     15  C   UNL A   1      35.299  17.186  25.062  1.00  0.00     0.178 C 
ATOM     16  N   UNL A   1      34.237  17.835  24.314  1.00  0.00    -0.232 N 
ATOM     17  N   UNL A   1      33.827  19.052  24.808  1.00  0.00    -0.165 NA
ATOM     18  C   UNL A   1      33.694  17.231  23.188  1.00  0.00     0.266 A 
ATOM     19  C   UNL A   1      32.644  18.004  22.485  1.00  0.00     0.076 A 
ATOM     20  O   UNL A   1      34.024  16.135  22.741  1.00  0.00    -0.268 OA
ATOM     21  C   UNL A   1      32.272  19.211  22.913  1.00  0.00     0.042 A 
ENDBRANCH  12  14
ENDBRANCH   8  12
BRANCH  10  22
ATOM     22  O   UNL A   1      33.407  24.794  21.777  1.00  0.00    -0.391 OA
ATOM     23  H   UNL A   1      34.272  25.165  21.544  1.00  0.00     0.211 HD
ENDBRANCH  10  22
ENDBRANCH   4   7
ENDBRANCH   2   3
ENDBRANCH   1   2
BRANCH   1  24
ATOM     24  C   UNL A   1      38.142  19.708  24.911  1.00  0.00     0.023 C 
BRANCH  24  25
ATOM     25  C   UNL A   1      39.333  20.081  25.788  1.00  0.00     0.116 C 
BRANCH  25  26
ATOM     26  N   UNL A   1      40.342  19.034  25.867  1.00  0.00    -0.352 N 
ATOM     27  C   UNL A   1      41.679  19.173  26.150  1.00  0.00     0.251 C 
ATOM     28  H   UNL A   1      40.027  18.116  25.698  1.00  0.00     0.163 HD
ATOM     29  O   UNL A   1      42.440  18.215  26.111  1.00  0.00    -0.269 OA
BRANCH  27  30
ATOM     30  C   UNL A   1      42.188  20.519  26.466  1.00  0.00     0.039 A 
ATOM     31  C   UNL A   1      42.504  21.381  25.416  1.00  0.00     0.014 A 
ATOM     32  C   UNL A   1      42.272  20.941  27.797  1.00  0.00     0.014 A 
ATOM     33  C   UNL A   1      42.854  22.701  25.699  1.00  0.00     0.010 A 
ATOM     34  C   UNL A   1      42.576  22.269  28.074  1.00  0.00     0.010 A 
ATOM     35  C   UNL A   1      42.869  23.156  27.027  1.00  0.00    -0.014 A 
BRANCH  35  36
ATOM     36  C   UNL A   1      43.217  24.561  27.337  1.00  0.00     0.031 A 
ATOM     37  C   UNL A   1      44.612  25.049  27.090  1.00  0.00     0.074 A 
ATOM     38  C   UNL A   1      42.291  25.378  27.872  1.00  0.00     0.049 A 
ATOM     39  N   UNL A   1      45.122  26.236  27.296  1.00  0.00    -0.248 NA
ATOM     40  C   UNL A   1      45.569  24.068  26.553  1.00  0.00     0.031 C 
ATOM     41  C   UNL A   1      40.914  25.000  28.192  1.00  0.00     0.029 A 
ATOM     42  N   UNL A   1      42.372  26.696  28.242  1.00  0.00    -0.354 N 
ATOM     43  C   UNL A   1      46.451  26.145  26.912  1.00  0.00     0.074 A 
ATOM     44  C   UNL A   1      46.689  24.775  26.515  1.00  0.00     0.031 C 
ATOM     45  C   UNL A   1      40.272  26.069  28.692  1.00  0.00     0.029 A 
ATOM     46  C   UNL A   1      41.196  27.199  28.743  1.00  0.00     0.049 A 
ATOM     47  H   UNL A   1      43.194  27.231  28.158  1.00  0.00     0.167 HD
ATOM     48  C   UNL A   1      47.382  27.126  26.866  1.00  0.00     0.037 A 
ATOM     49  C   UNL A   1      40.900  28.436  29.185  1.00  0.00     0.037 A 
ATOM     50  C   UNL A   1      47.137  28.490  27.244  1.00  0.00     0.049 A 
ATOM     51  C   UNL A   1      41.960  29.503  29.147  1.00  0.00     0.074 A 
ATOM     52  C   UNL A   1      47.999  29.570  27.183  1.00  0.00     0.029 A 
ATOM     53  N   UNL A   1      45.937  28.961  27.757  1.00  0.00    -0.354 N 
ATOM     54  N   UNL A   1      43.196  29.425  28.718  1.00  0.00    -0.248 NA
ATOM     55  C   UNL A   1      41.583  30.833  29.650  1.00  0.00     0.031 C 
ATOM     56  C   UNL A   1      47.330  30.690  27.690  1.00  0.00     0.029 A 
ATOM     57  C   UNL A   1      46.043  30.313  28.035  1.00  0.00     0.049 A 
ATOM     58  H   UNL A   1      45.131  28.415  27.902  1.00  0.00     0.167 HD
ATOM     59  C   UNL A   1      43.737  30.692  28.877  1.00  0.00     0.074 A 
ATOM     60  C   UNL A   1      42.694  31.527  29.436  1.00  0.00     0.031 C 
ATOM     61  C   UNL A   1      44.989  31.125  28.586  1.00  0.00     0.037 A 
BRANCH  48  62
ATOM     62  C   UNL A   1      48.745  26.757  26.369  1.00  0.00     0.064 A 
ATOM     63  C   UNL A   1      49.097  26.927  25.021  1.00  0.00     0.173 A 
ATOM     64  C   UNL A   1      49.718  26.260  27.247  1.00  0.00     0.173 A 
ATOM     65  F   UNL A   1      48.194  27.385  24.141  1.00  0.00    -0.203 F 
ATOM     66  C   UNL A   1      50.369  26.592  24.566  1.00  0.00     0.198 A 
ATOM     67  C   UNL A   1      50.997  25.949  26.793  1.00  0.00     0.198 A 
ATOM     68  F   UNL A   1      49.430  26.081  28.545  1.00  0.00    -0.203 F 
ATOM     69  F   UNL A   1      50.670  26.724  23.268  1.00  0.00    -0.200 F 
ATOM     70  C   UNL A   1      51.320  26.110  25.454  1.00  0.00     0.200 A 
ATOM     71  F   UNL A   1      51.918  25.489  27.652  1.00  0.00    -0.200 F 
ATOM     72  F   UNL A   1      52.546  25.793  25.015  1.00  0.00    -0.200 F 
ENDBRANCH  48  62
BRANCH  49  73
ATOM     73  C   UNL A   1      39.527  28.742  29.657  1.00  0.00     0.064 A 
ATOM     74  C   UNL A   1      39.164  28.517  30.992  1.00  0.00     0.173 A 
ATOM     75  C   UNL A   1      38.560  29.279  28.797  1.00  0.00     0.173 A 
ATOM     76  F   UNL A   1      40.052  27.988  31.847  1.00  0.00    -0.203 F 
ATOM     77  C   UNL A   1      37.881  28.811  31.448  1.00  0.00     0.198 A 
ATOM     78  C   UNL A   1      37.282  29.590  29.258  1.00  0.00     0.198 A 
ATOM     79  F   UNL A   1      38.861  29.515  27.512  1.00  0.00    -0.203 F 
ATOM     80  F   UNL A   1      37.551  28.560  32.722  1.00  0.00    -0.200 F 
ATOM     81  C   UNL A   1      36.942  29.351  30.582  1.00  0.00     0.200 A 
ATOM     82  F   UNL A   1      36.381  30.122  28.421  1.00  0.00    -0.200 F 
ATOM     83  F   UNL A   1      35.710  29.640  31.022  1.00  0.00    -0.200 F 
ENDBRANCH  49  73
BRANCH  61  84
ATOM     84  C   UNL A   1      45.302  32.566  28.851  1.00  0.00     0.064 A 
ATOM     85  C   UNL A   1      45.926  32.968  30.040  1.00  0.00     0.173 A 
ATOM     86  C   UNL A   1      45.057  33.538  27.870  1.00  0.00     0.173 A 
ATOM     87  F   UNL A   1      46.168  32.075  31.011  1.00  0.00    -0.203 F 
ATOM     88  C   UNL A   1      46.290  34.297  30.239  1.00  0.00     0.198 A 
ATOM     89  C   UNL A   1      45.443  34.861  28.064  1.00  0.00     0.198 A 
ATOM     90  F   UNL A   1      44.468  33.198  26.714  1.00  0.00    -0.203 F 
ATOM     91  F   UNL A   1      46.868  34.666  31.391  1.00  0.00    -0.200 F 
ATOM     92  C   UNL A   1      46.058  35.239  29.248  1.00  0.00     0.200 A 
ATOM     93  F   UNL A   1      45.229  35.769  27.101  1.00  0.00    -0.200 F 
ATOM     94  F   UNL A   1      46.427  36.514  29.435  1.00  0.00    -0.200 F 
ENDBRANCH  61  84
ENDBRANCH  35  36
ENDBRANCH  27  30
ENDBRANCH  25  26
ENDBRANCH  24  25
ENDBRANCH   1  24
TORSDOF 14
ENDMDL
