MODEL 1
REMARK VINA RESULT:     -10.1      0.000      0.000
REMARK SMILES C/C(=N\[NH+]=C1/NC(=O)[C@@H](CC(=O)NCCCCNC(=O)c2ccc(-c3c4nc(c(-c5c(F)c(F)c(F)c(F)c5F)c5ccc([nH]5)c(-c5c(F)c(F)c(F)c(F)c5F)c5nc(c(-c6c(F)c(F)c(F)c(F)c6F)c6ccc3[nH]6)C=C5)C=C4)cc2)S1)c1ccc(Br)cc1
REMARK SMILES IDX 15 1 14 2 13 3 11 4 12 5 10 7 9 8 4 9 5 10 6 12 84 13 7 14
REMARK SMILES IDX 8 16 3 17 1 18 2 19 85 20 86 21 91 22 87 23 90 24 88 25
REMARK SMILES IDX 89 26 16 27 17 28 18 29 19 30 20 32 21 33 22 34 83 35 23 36
REMARK SMILES IDX 82 37 24 38 25 39 26 40 76 41 27 42 81 43 75 44 77 45 28 46
REMARK SMILES IDX 80 47 74 48 73 49 29 51 61 52 41 53 60 54 42 55 45 56 59 57
REMARK SMILES IDX 78 58 43 59 44 60 58 62 79 63 46 64 30 65 31 66 39 67 32 68
REMARK SMILES IDX 33 69 37 70 40 71 34 72 35 73 38 74 36 75 62 76 63 77 71 78
REMARK SMILES IDX 64 79 65 80 69 81 72 82 66 83 67 84 70 85 68 86 47 87 48 88
REMARK SMILES IDX 56 89 49 90 50 91 54 92 57 93 51 94 52 95 55 96 53 97
REMARK H PARENT 13 6 4 11 6 15 18 31 77 50 45 61
REMARK Flexibility Score: inf
ROOT
ATOM      1  C   UNL A   1      33.421  34.720  29.408  1.00  0.00     0.023 C 
ENDROOT
BRANCH   1   2
ATOM      2  C   UNL A   1      34.431  34.367  30.502  1.00  0.00     0.116 C 
BRANCH   2   3
ATOM      3  N   UNL A   1      34.241  35.177  31.690  1.00  0.00    -0.356 N 
ATOM      4  C   UNL A   1      35.098  35.420  32.720  1.00  0.00     0.221 C 
ATOM      5  O   UNL A   1      34.753  36.198  33.608  1.00  0.00    -0.275 OA
ATOM      6  H   UNL A   1      33.364  35.618  31.761  1.00  0.00     0.163 HD
BRANCH   4   7
ATOM      7  C   UNL A   1      36.459  34.766  32.736  1.00  0.00     0.127 C 
BRANCH   7   8
ATOM      8  C   UNL A   1      36.522  33.652  33.760  1.00  0.00     0.183 C 
ATOM      9  N   UNL A   1      37.953  30.118  33.596  1.00  0.00    -0.142 N 
ATOM     10  C   UNL A   1      37.687  31.378  33.585  1.00  0.00     0.337 C 
ATOM     11  H   UNL A   1      37.328  29.438  33.253  1.00  0.00     0.343 HD
ATOM     12  N   UNL A   1      38.475  32.340  34.110  1.00  0.00    -0.202 N 
ATOM     13  S   UNL A   1      36.199  32.029  32.988  1.00  0.00    -0.020 SA
ATOM     14  C   UNL A   1      37.900  33.540  34.376  1.00  0.00     0.322 C 
ATOM     15  H   UNL A   1      39.429  32.177  34.293  1.00  0.00     0.316 HD
ATOM     16  O   UNL A   1      38.400  34.371  35.120  1.00  0.00    -0.246 OA
BRANCH   9  17
ATOM     17  N   UNL A   1      39.201  29.794  34.135  1.00  0.00    -0.090 NA
ATOM     18  C   UNL A   1      39.255  27.858  32.556  1.00  0.00     0.071 C 
ATOM     19  C   UNL A   1      39.845  28.795  33.598  1.00  0.00     0.088 C 
BRANCH  19  20
ATOM     20  C   UNL A   1      41.214  28.496  34.127  1.00  0.00    -0.000 A 
ATOM     21  C   UNL A   1      41.642  29.146  35.296  1.00  0.00     0.011 A 
ATOM     22  C   UNL A   1      42.087  27.617  33.477  1.00  0.00     0.011 A 
ATOM     23  C   UNL A   1      42.924  28.926  35.804  1.00  0.00     0.016 A 
ATOM     24  C   UNL A   1      43.374  27.403  33.981  1.00  0.00     0.016 A 
ATOM     25  C   UNL A   1      43.787  28.059  35.139  1.00  0.00     0.018 A 
ATOM     26  Br  UNL A   1      45.534  27.782  35.803  1.00  0.00    -0.051 Br
ENDBRANCH  19  20
ENDBRANCH   9  17
ENDBRANCH   7   8
ENDBRANCH   4   7
ENDBRANCH   2   3
ENDBRANCH   1   2
BRANCH   1  27
ATOM     27  C   UNL A   1      33.710  34.096  28.043  1.00  0.00     0.023 C 
BRANCH  27  28
ATOM     28  C   UNL A   1      34.551  32.829  28.083  1.00  0.00     0.116 C 
BRANCH  28  29
ATOM     29  N   UNL A   1      33.784  31.631  27.791  1.00  0.00    -0.352 N 
ATOM     30  C   UNL A   1      34.208  30.327  27.733  1.00  0.00     0.251 C 
ATOM     31  H   UNL A   1      32.826  31.774  27.610  1.00  0.00     0.163 HD
ATOM     32  O   UNL A   1      33.447  29.450  27.335  1.00  0.00    -0.269 OA
BRANCH  30  33
ATOM     33  C   UNL A   1      35.592  29.986  28.124  1.00  0.00     0.039 A 
ATOM     34  C   UNL A   1      36.604  30.086  27.167  1.00  0.00     0.014 A 
ATOM     35  C   UNL A   1      35.890  29.559  29.421  1.00  0.00     0.014 A 
ATOM     36  C   UNL A   1      37.922  29.792  27.521  1.00  0.00     0.010 A 
ATOM     37  C   UNL A   1      37.213  29.350  29.795  1.00  0.00     0.010 A 
ATOM     38  C   UNL A   1      38.239  29.441  28.843  1.00  0.00    -0.014 A 
BRANCH  38  39
ATOM     39  C   UNL A   1      39.632  29.108  29.234  1.00  0.00     0.031 A 
ATOM     40  C   UNL A   1      40.407  30.054  30.110  1.00  0.00     0.074 A 
ATOM     41  C   UNL A   1      40.210  27.984  28.772  1.00  0.00     0.049 A 
ATOM     42  N   UNL A   1      41.645  29.970  30.530  1.00  0.00    -0.248 NA
ATOM     43  C   UNL A   1      39.709  31.274  30.549  1.00  0.00     0.031 C 
ATOM     44  C   UNL A   1      39.578  27.011  27.880  1.00  0.00     0.029 A 
ATOM     45  N   UNL A   1      41.465  27.470  28.987  1.00  0.00    -0.354 N 
ATOM     46  C   UNL A   1      41.873  31.127  31.265  1.00  0.00     0.074 A 
ATOM     47  C   UNL A   1      40.671  31.927  31.181  1.00  0.00     0.031 C 
ATOM     48  C   UNL A   1      40.436  26.007  27.646  1.00  0.00     0.029 A 
ATOM     49  C   UNL A   1      41.690  26.279  28.343  1.00  0.00     0.049 A 
ATOM     50  H   UNL A   1      42.139  27.915  29.551  1.00  0.00     0.167 HD
ATOM     51  C   UNL A   1      42.972  31.477  31.974  1.00  0.00     0.037 A 
ATOM     52  C   UNL A   1      42.787  25.497  28.319  1.00  0.00     0.037 A 
ATOM     53  C   UNL A   1      44.154  30.664  32.080  1.00  0.00     0.049 A 
ATOM     54  C   UNL A   1      43.997  25.908  29.116  1.00  0.00     0.074 A 
ATOM     55  C   UNL A   1      45.304  30.902  32.812  1.00  0.00     0.029 A 
ATOM     56  N   UNL A   1      44.337  29.452  31.430  1.00  0.00    -0.354 N 
ATOM     57  N   UNL A   1      44.176  26.970  29.864  1.00  0.00    -0.248 NA
ATOM     58  C   UNL A   1      45.153  25.003  29.075  1.00  0.00     0.031 C 
ATOM     59  C   UNL A   1      46.201  29.857  32.569  1.00  0.00     0.029 A 
ATOM     60  C   UNL A   1      45.588  28.939  31.732  1.00  0.00     0.049 A 
ATOM     61  H   UNL A   1      43.676  29.020  30.842  1.00  0.00     0.167 HD
ATOM     62  C   UNL A   1      45.446  26.843  30.411  1.00  0.00     0.074 A 
ATOM     63  C   UNL A   1      45.988  25.594  29.918  1.00  0.00     0.031 C 
ATOM     64  C   UNL A   1      46.104  27.683  31.247  1.00  0.00     0.037 A 
BRANCH  51  65
ATOM     65  C   UNL A   1      42.942  32.794  32.695  1.00  0.00     0.064 A 
ATOM     66  C   UNL A   1      43.519  33.949  32.145  1.00  0.00     0.173 A 
ATOM     67  C   UNL A   1      42.306  32.911  33.941  1.00  0.00     0.173 A 
ATOM     68  F   UNL A   1      44.151  33.891  30.963  1.00  0.00    -0.203 F 
ATOM     69  C   UNL A   1      43.491  35.162  32.829  1.00  0.00     0.198 A 
ATOM     70  C   UNL A   1      42.250  34.133  34.606  1.00  0.00     0.198 A 
ATOM     71  F   UNL A   1      41.734  31.840  34.511  1.00  0.00    -0.203 F 
ATOM     72  F   UNL A   1      44.099  36.236  32.308  1.00  0.00    -0.200 F 
ATOM     73  C   UNL A   1      42.850  35.254  34.054  1.00  0.00     0.200 A 
ATOM     74  F   UNL A   1      41.618  34.224  35.784  1.00  0.00    -0.200 F 
ATOM     75  F   UNL A   1      42.817  36.424  34.708  1.00  0.00    -0.200 F 
ENDBRANCH  51  65
BRANCH  52  76
ATOM     76  C   UNL A   1      42.781  24.229  27.544  1.00  0.00     0.064 A 
ATOM     77  C   UNL A   1      42.458  23.010  28.159  1.00  0.00     0.173 A 
ATOM     78  C   UNL A   1      43.110  24.203  26.182  1.00  0.00     0.173 A 
ATOM     79  F   UNL A   1      42.154  22.980  29.466  1.00  0.00    -0.203 F 
ATOM     80  C   UNL A   1      42.491  21.813  27.447  1.00  0.00     0.198 A 
ATOM     81  C   UNL A   1      43.113  23.009  25.463  1.00  0.00     0.198 A 
ATOM     82  F   UNL A   1      43.420  25.341  25.544  1.00  0.00    -0.203 F 
ATOM     83  F   UNL A   1      42.229  20.658  28.074  1.00  0.00    -0.200 F 
ATOM     84  C   UNL A   1      42.813  21.813  26.100  1.00  0.00     0.200 A 
ATOM     85  F   UNL A   1      43.409  23.015  24.157  1.00  0.00    -0.200 F 
ATOM     86  F   UNL A   1      42.844  20.662  25.415  1.00  0.00    -0.200 F 
ENDBRANCH  52  76
BRANCH  64  87
ATOM     87  C   UNL A   1      47.460  27.255  31.729  1.00  0.00     0.064 A 
ATOM     88  C   UNL A   1      47.620  26.322  32.764  1.00  0.00     0.173 A 
ATOM     89  C   UNL A   1      48.618  27.760  31.116  1.00  0.00     0.173 A 
ATOM     90  F   UNL A   1      46.544  25.819  33.390  1.00  0.00    -0.203 F 
ATOM     91  C   UNL A   1      48.887  25.935  33.190  1.00  0.00     0.198 A 
ATOM     92  C   UNL A   1      49.883  27.345  31.521  1.00  0.00     0.198 A 
ATOM     93  F   UNL A   1      48.522  28.648  30.116  1.00  0.00    -0.203 F 
ATOM     94  F   UNL A   1      49.016  25.083  34.216  1.00  0.00    -0.200 F 
ATOM     95  C   UNL A   1      50.017  26.439  32.563  1.00  0.00     0.200 A 
ATOM     96  F   UNL A   1      50.973  27.821  30.903  1.00  0.00    -0.200 F 
ATOM     97  F   UNL A   1      51.236  26.060  32.969  1.00  0.00    -0.200 F 
ENDBRANCH  64  87
ENDBRANCH  38  39
ENDBRANCH  30  33
ENDBRANCH  28  29
ENDBRANCH  27  28
ENDBRANCH   1  27
TORSDOF 14
ENDMDL
MODEL 2
REMARK VINA RESULT:     -10.0      4.890      7.971
REMARK SMILES C/C(=N\[NH+]=C1/NC(=O)[C@@H](CC(=O)NCCCCNC(=O)c2ccc(-c3c4nc(c(-c5c(F)c(F)c(F)c(F)c5F)c5ccc([nH]5)c(-c5c(F)c(F)c(F)c(F)c5F)c5nc(c(-c6c(F)c(F)c(F)c(F)c6F)c6ccc3[nH]6)C=C5)C=C4)cc2)S1)c1ccc(Br)cc1
REMARK SMILES IDX 15 1 14 2 13 3 11 4 12 5 10 7 9 8 4 9 5 10 6 12 84 13 7 14
REMARK SMILES IDX 8 16 3 17 1 18 2 19 85 20 86 21 91 22 87 23 90 24 88 25
REMARK SMILES IDX 89 26 16 27 17 28 18 29 19 30 20 32 21 33 22 34 83 35 23 36
REMARK SMILES IDX 82 37 24 38 25 39 26 40 76 41 27 42 81 43 75 44 77 45 28 46
REMARK SMILES IDX 80 47 74 48 73 49 29 51 61 52 41 53 60 54 42 55 45 56 59 57
REMARK SMILES IDX 78 58 43 59 44 60 58 62 79 63 46 64 30 65 31 66 39 67 32 68
REMARK SMILES IDX 33 69 37 70 40 71 34 72 35 73 38 74 36 75 62 76 63 77 71 78
REMARK SMILES IDX 64 79 65 80 69 81 72 82 66 83 67 84 70 85 68 86 47 87 48 88
REMARK SMILES IDX 56 89 49 90 50 91 54 92 57 93 51 94 52 95 55 96 53 97
REMARK H PARENT 13 6 4 11 6 15 18 31 77 50 45 61
REMARK Flexibility Score: inf
ROOT
ATOM      1  C   UNL A   1      31.518  30.327  26.042  1.00  0.00     0.023 C 
ENDROOT
BRANCH   1   2
ATOM      2  C   UNL A   1      31.028  30.071  24.615  1.00  0.00     0.116 C 
BRANCH   2   3
ATOM      3  N   UNL A   1      30.597  28.698  24.434  1.00  0.00    -0.356 N 
ATOM      4  C   UNL A   1      31.012  27.770  23.527  1.00  0.00     0.221 C 
ATOM      5  O   UNL A   1      30.553  26.631  23.590  1.00  0.00    -0.275 OA
ATOM      6  H   UNL A   1      29.901  28.391  25.060  1.00  0.00     0.163 HD
BRANCH   4   7
ATOM      7  C   UNL A   1      32.048  28.141  22.493  1.00  0.00     0.127 C 
BRANCH   7   8
ATOM      8  C   UNL A   1      33.345  27.395  22.723  1.00  0.00     0.183 C 
ATOM      9  N   UNL A   1      34.303  24.655  25.201  1.00  0.00    -0.142 N 
ATOM     10  C   UNL A   1      33.806  25.432  24.302  1.00  0.00     0.337 C 
ATOM     11  H   UNL A   1      34.621  24.984  26.073  1.00  0.00     0.343 HD
ATOM     12  N   UNL A   1      33.427  25.042  23.066  1.00  0.00    -0.202 N 
ATOM     13  S   UNL A   1      33.653  27.144  24.505  1.00  0.00    -0.020 SA
ATOM     14  C   UNL A   1      33.302  26.007  22.120  1.00  0.00     0.322 C 
ATOM     15  H   UNL A   1      33.250  24.096  22.859  1.00  0.00     0.316 HD
ATOM     16  O   UNL A   1      33.276  25.769  20.921  1.00  0.00    -0.246 OA
BRANCH   9  17
ATOM     17  N   UNL A   1      34.356  23.307  24.837  1.00  0.00    -0.090 NA
ATOM     18  C   UNL A   1      32.946  22.827  26.844  1.00  0.00     0.071 C 
ATOM     19  C   UNL A   1      33.658  22.467  25.550  1.00  0.00     0.088 C 
BRANCH  19  20
ATOM     20  C   UNL A   1      33.655  21.033  25.114  1.00  0.00    -0.000 A 
ATOM     21  C   UNL A   1      34.877  20.342  25.062  1.00  0.00     0.011 A 
ATOM     22  C   UNL A   1      32.482  20.375  24.729  1.00  0.00     0.011 A 
ATOM     23  C   UNL A   1      34.926  19.017  24.626  1.00  0.00     0.016 A 
ATOM     24  C   UNL A   1      32.533  19.050  24.284  1.00  0.00     0.016 A 
ATOM     25  C   UNL A   1      33.753  18.378  24.233  1.00  0.00     0.018 A 
ATOM     26  Br  UNL A   1      33.817  16.596  23.611  1.00  0.00    -0.051 Br
ENDBRANCH  19  20
ENDBRANCH   9  17
ENDBRANCH   7   8
ENDBRANCH   4   7
ENDBRANCH   2   3
ENDBRANCH   1   2
BRANCH   1  27
ATOM     27  C   UNL A   1      31.391  31.776  26.513  1.00  0.00     0.023 C 
BRANCH  27  28
ATOM     28  C   UNL A   1      32.705  32.447  26.881  1.00  0.00     0.116 C 
BRANCH  28  29
ATOM     29  N   UNL A   1      32.528  33.794  27.396  1.00  0.00    -0.352 N 
ATOM     30  C   UNL A   1      33.206  34.427  28.407  1.00  0.00     0.251 C 
ATOM     31  H   UNL A   1      31.824  34.326  26.959  1.00  0.00     0.163 HD
ATOM     32  O   UNL A   1      32.832  35.526  28.805  1.00  0.00    -0.269 OA
BRANCH  30  33
ATOM     33  C   UNL A   1      34.372  33.770  29.035  1.00  0.00     0.039 A 
ATOM     34  C   UNL A   1      34.152  32.704  29.909  1.00  0.00     0.014 A 
ATOM     35  C   UNL A   1      35.673  34.207  28.773  1.00  0.00     0.014 A 
ATOM     36  C   UNL A   1      35.240  32.053  30.494  1.00  0.00     0.010 A 
ATOM     37  C   UNL A   1      36.758  33.505  29.288  1.00  0.00     0.010 A 
ATOM     38  C   UNL A   1      36.552  32.437  30.173  1.00  0.00    -0.014 A 
BRANCH  38  39
ATOM     39  C   UNL A   1      37.720  31.768  30.799  1.00  0.00     0.031 A 
ATOM     40  C   UNL A   1      38.155  32.167  32.183  1.00  0.00     0.074 A 
ATOM     41  C   UNL A   1      38.410  30.838  30.112  1.00  0.00     0.049 A 
ATOM     42  N   UNL A   1      39.170  31.736  32.890  1.00  0.00    -0.248 NA
ATOM     43  C   UNL A   1      37.361  33.211  32.852  1.00  0.00     0.031 C 
ATOM     44  C   UNL A   1      38.114  30.399  28.748  1.00  0.00     0.029 A 
ATOM     45  N   UNL A   1      39.507  30.094  30.470  1.00  0.00    -0.354 N 
ATOM     46  C   UNL A   1      39.143  32.466  34.072  1.00  0.00     0.074 A 
ATOM     47  C   UNL A   1      38.053  33.411  33.963  1.00  0.00     0.031 C 
ATOM     48  C   UNL A   1      38.989  29.445  28.394  1.00  0.00     0.029 A 
ATOM     49  C   UNL A   1      39.928  29.228  29.491  1.00  0.00     0.049 A 
ATOM     50  H   UNL A   1      39.949  30.175  31.346  1.00  0.00     0.167 HD
ATOM     51  C   UNL A   1      39.933  32.338  35.163  1.00  0.00     0.037 A 
ATOM     52  C   UNL A   1      40.956  28.359  29.483  1.00  0.00     0.037 A 
ATOM     53  C   UNL A   1      40.997  31.377  35.280  1.00  0.00     0.049 A 
ATOM     54  C   UNL A   1      41.821  28.236  30.710  1.00  0.00     0.074 A 
ATOM     55  C   UNL A   1      41.825  31.131  36.360  1.00  0.00     0.029 A 
ATOM     56  N   UNL A   1      41.379  30.500  34.274  1.00  0.00    -0.354 N 
ATOM     57  N   UNL A   1      41.742  28.881  31.849  1.00  0.00    -0.248 NA
ATOM     58  C   UNL A   1      42.910  27.252  30.654  1.00  0.00     0.031 C 
ATOM     59  C   UNL A   1      42.740  30.139  35.993  1.00  0.00     0.029 A 
ATOM     60  C   UNL A   1      42.443  29.724  34.705  1.00  0.00     0.049 A 
ATOM     61  H   UNL A   1      40.958  30.439  33.387  1.00  0.00     0.167 HD
ATOM     62  C   UNL A   1      42.743  28.357  32.656  1.00  0.00     0.074 A 
ATOM     63  C   UNL A   1      43.408  27.331  31.880  1.00  0.00     0.031 C 
ATOM     64  C   UNL A   1      43.081  28.693  33.925  1.00  0.00     0.037 A 
BRANCH  51  65
ATOM     65  C   UNL A   1      39.671  33.258  36.321  1.00  0.00     0.064 A 
ATOM     66  C   UNL A   1      40.286  34.516  36.417  1.00  0.00     0.173 A 
ATOM     67  C   UNL A   1      38.773  32.890  37.335  1.00  0.00     0.173 A 
ATOM     68  F   UNL A   1      41.162  34.913  35.483  1.00  0.00    -0.203 F 
ATOM     69  C   UNL A   1      40.039  35.356  37.501  1.00  0.00     0.198 A 
ATOM     70  C   UNL A   1      38.502  33.747  38.399  1.00  0.00     0.198 A 
ATOM     71  F   UNL A   1      38.153  31.702  37.292  1.00  0.00    -0.203 F 
ATOM     72  F   UNL A   1      40.682  36.527  37.599  1.00  0.00    -0.200 F 
ATOM     73  C   UNL A   1      39.142  34.973  38.486  1.00  0.00     0.200 A 
ATOM     74  F   UNL A   1      37.624  33.381  39.344  1.00  0.00    -0.200 F 
ATOM     75  F   UNL A   1      38.900  35.785  39.525  1.00  0.00    -0.200 F 
ENDBRANCH  51  65
BRANCH  52  76
ATOM     76  C   UNL A   1      41.204  27.510  28.288  1.00  0.00     0.064 A 
ATOM     77  C   UNL A   1      40.582  26.260  28.152  1.00  0.00     0.173 A 
ATOM     78  C   UNL A   1      42.076  27.918  27.270  1.00  0.00     0.173 A 
ATOM     79  F   UNL A   1      39.753  25.817  29.109  1.00  0.00    -0.203 F 
ATOM     80  C   UNL A   1      40.842  25.442  27.054  1.00  0.00     0.198 A 
ATOM     81  C   UNL A   1      42.313  27.112  26.157  1.00  0.00     0.198 A 
ATOM     82  F   UNL A   1      42.692  29.106  27.349  1.00  0.00    -0.203 F 
ATOM     83  F   UNL A   1      40.273  24.231  26.975  1.00  0.00    -0.200 F 
ATOM     84  C   UNL A   1      41.703  25.870  26.056  1.00  0.00     0.200 A 
ATOM     85  F   UNL A   1      43.133  27.536  25.187  1.00  0.00    -0.200 F 
ATOM     86  F   UNL A   1      41.953  25.083  25.000  1.00  0.00    -0.200 F 
ENDBRANCH  52  76
BRANCH  64  87
ATOM     87  C   UNL A   1      44.183  27.907  34.577  1.00  0.00     0.064 A 
ATOM     88  C   UNL A   1      45.517  28.340  34.552  1.00  0.00     0.173 A 
ATOM     89  C   UNL A   1      43.889  26.723  35.270  1.00  0.00     0.173 A 
ATOM     90  F   UNL A   1      45.851  29.459  33.892  1.00  0.00    -0.203 F 
ATOM     91  C   UNL A   1      46.520  27.599  35.170  1.00  0.00     0.198 A 
ATOM     92  C   UNL A   1      44.889  26.002  35.916  1.00  0.00     0.198 A 
ATOM     93  F   UNL A   1      42.628  26.270  35.332  1.00  0.00    -0.203 F 
ATOM     94  F   UNL A   1      47.795  28.003  35.088  1.00  0.00    -0.200 F 
ATOM     95  C   UNL A   1      46.205  26.436  35.858  1.00  0.00     0.200 A 
ATOM     96  F   UNL A   1      44.580  24.889  36.593  1.00  0.00    -0.200 F 
ATOM     97  F   UNL A   1      47.171  25.728  36.458  1.00  0.00    -0.200 F 
ENDBRANCH  64  87
ENDBRANCH  38  39
ENDBRANCH  30  33
ENDBRANCH  28  29
ENDBRANCH  27  28
ENDBRANCH   1  27
TORSDOF 14
ENDMDL
MODEL 3
REMARK VINA RESULT:      -9.9      4.821      8.033
REMARK SMILES C/C(=N\[NH+]=C1/NC(=O)[C@@H](CC(=O)NCCCCNC(=O)c2ccc(-c3c4nc(c(-c5c(F)c(F)c(F)c(F)c5F)c5ccc([nH]5)c(-c5c(F)c(F)c(F)c(F)c5F)c5nc(c(-c6c(F)c(F)c(F)c(F)c6F)c6ccc3[nH]6)C=C5)C=C4)cc2)S1)c1ccc(Br)cc1
REMARK SMILES IDX 15 1 14 2 13 3 11 4 12 5 10 7 9 8 4 9 5 10 6 12 84 13 7 14
REMARK SMILES IDX 8 16 3 17 1 18 2 19 85 20 86 21 91 22 87 23 90 24 88 25
REMARK SMILES IDX 89 26 16 27 17 28 18 29 19 30 20 32 21 33 22 34 83 35 23 36
REMARK SMILES IDX 82 37 24 38 25 39 26 40 76 41 27 42 81 43 75 44 77 45 28 46
REMARK SMILES IDX 80 47 74 48 73 49 29 51 61 52 41 53 60 54 42 55 45 56 59 57
REMARK SMILES IDX 78 58 43 59 44 60 58 62 79 63 46 64 30 65 31 66 39 67 32 68
REMARK SMILES IDX 33 69 37 70 40 71 34 72 35 73 38 74 36 75 62 76 63 77 71 78
REMARK SMILES IDX 64 79 65 80 69 81 72 82 66 83 67 84 70 85 68 86 47 87 48 88
REMARK SMILES IDX 56 89 49 90 50 91 54 92 57 93 51 94 52 95 55 96 53 97
REMARK H PARENT 13 6 4 11 6 15 18 31 77 50 45 61
REMARK Flexibility Score: inf
ROOT
ATOM      1  C   UNL A   1      31.567  30.605  26.483  1.00  0.00     0.023 C 
ENDROOT
BRANCH   1   2
ATOM      2  C   UNL A   1      31.516  30.304  24.984  1.00  0.00     0.116 C 
BRANCH   2   3
ATOM      3  N   UNL A   1      30.968  28.987  24.718  1.00  0.00    -0.356 N 
ATOM      4  C   UNL A   1      31.279  28.102  23.730  1.00  0.00     0.221 C 
ATOM      5  O   UNL A   1      30.731  27.001  23.727  1.00  0.00    -0.275 OA
ATOM      6  H   UNL A   1      30.270  28.689  25.345  1.00  0.00     0.163 HD
BRANCH   4   7
ATOM      7  C   UNL A   1      32.309  28.468  22.689  1.00  0.00     0.127 C 
BRANCH   7   8
ATOM      8  C   UNL A   1      33.549  27.608  22.816  1.00  0.00     0.183 C 
ATOM      9  N   UNL A   1      34.394  24.681  25.114  1.00  0.00    -0.142 N 
ATOM     10  C   UNL A   1      33.919  25.539  24.279  1.00  0.00     0.337 C 
ATOM     11  H   UNL A   1      34.779  24.939  25.983  1.00  0.00     0.343 HD
ATOM     12  N   UNL A   1      33.450  25.243  23.048  1.00  0.00    -0.202 N 
ATOM     13  S   UNL A   1      33.921  27.245  24.566  1.00  0.00    -0.020 SA
ATOM     14  C   UNL A   1      33.360  26.260  22.154  1.00  0.00     0.322 C 
ATOM     15  H   UNL A   1      33.184  24.326  22.808  1.00  0.00     0.316 HD
ATOM     16  O   UNL A   1      33.256  26.084  20.949  1.00  0.00    -0.246 OA
BRANCH   9  17
ATOM     17  N   UNL A   1      34.315  23.353  24.687  1.00  0.00    -0.090 NA
ATOM     18  C   UNL A   1      34.328  22.695  27.098  1.00  0.00     0.071 C 
ATOM     19  C   UNL A   1      34.201  22.434  25.606  1.00  0.00     0.088 C 
BRANCH  19  20
ATOM     20  C   UNL A   1      34.042  21.017  25.145  1.00  0.00    -0.000 A 
ATOM     21  C   UNL A   1      35.181  20.198  25.079  1.00  0.00     0.011 A 
ATOM     22  C   UNL A   1      32.804  20.497  24.752  1.00  0.00     0.011 A 
ATOM     23  C   UNL A   1      35.085  18.883  24.620  1.00  0.00     0.016 A 
ATOM     24  C   UNL A   1      32.710  19.182  24.284  1.00  0.00     0.016 A 
ATOM     25  C   UNL A   1      33.850  18.383  24.218  1.00  0.00     0.018 A 
ATOM     26  Br  UNL A   1      33.720  16.615  23.565  1.00  0.00    -0.051 Br
ENDBRANCH  19  20
ENDBRANCH   9  17
ENDBRANCH   7   8
ENDBRANCH   4   7
ENDBRANCH   2   3
ENDBRANCH   1   2
BRANCH   1  27
ATOM     27  C   UNL A   1      31.353  32.073  26.851  1.00  0.00     0.023 C 
BRANCH  27  28
ATOM     28  C   UNL A   1      32.626  32.898  26.955  1.00  0.00     0.116 C 
BRANCH  28  29
ATOM     29  N   UNL A   1      32.418  34.181  27.604  1.00  0.00    -0.352 N 
ATOM     30  C   UNL A   1      33.058  34.710  28.696  1.00  0.00     0.251 C 
ATOM     31  H   UNL A   1      31.720  34.751  27.204  1.00  0.00     0.163 HD
ATOM     32  O   UNL A   1      32.658  35.757  29.196  1.00  0.00    -0.269 OA
BRANCH  30  33
ATOM     33  C   UNL A   1      34.213  34.002  29.286  1.00  0.00     0.039 A 
ATOM     34  C   UNL A   1      35.502  34.424  28.951  1.00  0.00     0.014 A 
ATOM     35  C   UNL A   1      34.031  32.923  30.155  1.00  0.00     0.014 A 
ATOM     36  C   UNL A   1      36.607  33.786  29.515  1.00  0.00     0.010 A 
ATOM     37  C   UNL A   1      35.129  32.344  30.783  1.00  0.00     0.010 A 
ATOM     38  C   UNL A   1      36.429  32.753  30.450  1.00  0.00    -0.014 A 
BRANCH  38  39
ATOM     39  C   UNL A   1      37.592  32.052  31.047  1.00  0.00     0.031 A 
ATOM     40  C   UNL A   1      38.063  32.427  32.426  1.00  0.00     0.074 A 
ATOM     41  C   UNL A   1      38.247  31.112  30.340  1.00  0.00     0.049 A 
ATOM     42  N   UNL A   1      39.081  31.967  33.110  1.00  0.00    -0.248 NA
ATOM     43  C   UNL A   1      37.307  33.484  33.119  1.00  0.00     0.031 C 
ATOM     44  C   UNL A   1      37.915  30.692  28.978  1.00  0.00     0.029 A 
ATOM     45  N   UNL A   1      39.332  30.339  30.670  1.00  0.00    -0.354 N 
ATOM     46  C   UNL A   1      39.093  32.686  34.298  1.00  0.00     0.074 A 
ATOM     47  C   UNL A   1      38.025  33.657  34.218  1.00  0.00     0.031 C 
ATOM     48  C   UNL A   1      38.760  29.721  28.599  1.00  0.00     0.029 A 
ATOM     49  C   UNL A   1      39.714  29.472  29.676  1.00  0.00     0.049 A 
ATOM     50  H   UNL A   1      39.793  30.401  31.538  1.00  0.00     0.167 HD
ATOM     51  C   UNL A   1      39.901  32.530  35.373  1.00  0.00     0.037 A 
ATOM     52  C   UNL A   1      40.721  28.579  29.641  1.00  0.00     0.037 A 
ATOM     53  C   UNL A   1      40.944  31.543  35.461  1.00  0.00     0.049 A 
ATOM     54  C   UNL A   1      41.605  28.424  30.850  1.00  0.00     0.074 A 
ATOM     55  C   UNL A   1      41.786  31.268  36.524  1.00  0.00     0.029 A 
ATOM     56  N   UNL A   1      41.286  30.667  34.441  1.00  0.00    -0.354 N 
ATOM     57  N   UNL A   1      41.564  29.061  31.996  1.00  0.00    -0.248 NA
ATOM     58  C   UNL A   1      42.670  27.415  30.765  1.00  0.00     0.031 C 
ATOM     59  C   UNL A   1      42.669  30.257  36.130  1.00  0.00     0.029 A 
ATOM     60  C   UNL A   1      42.339  29.861  34.845  1.00  0.00     0.049 A 
ATOM     61  H   UNL A   1      40.846  30.623  33.561  1.00  0.00     0.167 HD
ATOM     62  C   UNL A   1      42.568  28.506  32.779  1.00  0.00     0.074 A 
ATOM     63  C   UNL A   1      43.193  27.472  31.982  1.00  0.00     0.031 C 
ATOM     64  C   UNL A   1      42.937  28.822  34.044  1.00  0.00     0.037 A 
BRANCH  51  65
ATOM     65  C   UNL A   1      39.683  33.446  36.544  1.00  0.00     0.064 A 
ATOM     66  C   UNL A   1      38.834  33.095  37.606  1.00  0.00     0.173 A 
ATOM     67  C   UNL A   1      40.350  34.678  36.620  1.00  0.00     0.173 A 
ATOM     68  F   UNL A   1      38.162  31.935  37.579  1.00  0.00    -0.203 F 
ATOM     69  C   UNL A   1      38.636  33.958  38.681  1.00  0.00     0.198 A 
ATOM     70  C   UNL A   1      40.176  35.522  37.713  1.00  0.00     0.198 A 
ATOM     71  F   UNL A   1      41.176  35.061  35.635  1.00  0.00    -0.203 F 
ATOM     72  F   UNL A   1      37.777  33.625  39.654  1.00  0.00    -0.200 F 
ATOM     73  C   UNL A   1      39.312  35.166  38.737  1.00  0.00     0.200 A 
ATOM     74  F   UNL A   1      40.841  36.685  37.772  1.00  0.00    -0.200 F 
ATOM     75  F   UNL A   1      39.126  35.993  39.776  1.00  0.00    -0.200 F 
ENDBRANCH  51  65
BRANCH  52  76
ATOM     76  C   UNL A   1      40.926  27.735  28.435  1.00  0.00     0.064 A 
ATOM     77  C   UNL A   1      41.794  28.142  27.411  1.00  0.00     0.173 A 
ATOM     78  C   UNL A   1      40.253  26.517  28.271  1.00  0.00     0.173 A 
ATOM     79  F   UNL A   1      42.447  29.310  27.512  1.00  0.00    -0.203 F 
ATOM     80  C   UNL A   1      41.959  27.376  26.259  1.00  0.00     0.198 A 
ATOM     81  C   UNL A   1      40.441  25.736  27.132  1.00  0.00     0.198 A 
ATOM     82  F   UNL A   1      39.417  26.078  29.223  1.00  0.00    -0.203 F 
ATOM     83  F   UNL A   1      42.754  27.816  25.273  1.00  0.00    -0.200 F 
ATOM     84  C   UNL A   1      41.287  26.172  26.122  1.00  0.00     0.200 A 
ATOM     85  F   UNL A   1      39.803  24.565  27.011  1.00  0.00    -0.200 F 
ATOM     86  F   UNL A   1      41.446  25.435  25.014  1.00  0.00    -0.200 F 
ENDBRANCH  52  76
BRANCH  64  87
ATOM     87  C   UNL A   1      44.032  28.005  34.668  1.00  0.00     0.064 A 
ATOM     88  C   UNL A   1      43.764  26.825  35.376  1.00  0.00     0.173 A 
ATOM     89  C   UNL A   1      45.373  28.393  34.520  1.00  0.00     0.173 A 
ATOM     90  F   UNL A   1      42.499  26.418  35.556  1.00  0.00    -0.203 F 
ATOM     91  C   UNL A   1      44.796  26.080  35.941  1.00  0.00     0.198 A 
ATOM     92  C   UNL A   1      46.404  27.628  35.057  1.00  0.00     0.198 A 
ATOM     93  F   UNL A   1      45.684  29.509  33.845  1.00  0.00    -0.203 F 
ATOM     94  F   UNL A   1      44.513  24.984  36.658  1.00  0.00    -0.200 F 
ATOM     95  C   UNL A   1      46.114  26.477  35.773  1.00  0.00     0.200 A 
ATOM     96  F   UNL A   1      47.678  28.005  34.880  1.00  0.00    -0.200 F 
ATOM     97  F   UNL A   1      47.107  25.754  36.311  1.00  0.00    -0.200 F 
ENDBRANCH  64  87
ENDBRANCH  38  39
ENDBRANCH  30  33
ENDBRANCH  28  29
ENDBRANCH  27  28
ENDBRANCH   1  27
TORSDOF 14
ENDMDL
