MODEL 1
REMARK VINA RESULT:     -11.9      0.000      0.000
REMARK SMILES CC1C[NH+]([C@H]2COC[C@@H]2C(=O)NCCCCNC(=O)c2ccc(-c3c4nc(c(-c5c(F)c(F)c(F)c(F)c5F)c5ccc([nH]5)c(-c5c(F)c(F)c(F)c(F)c5F)c5nc(c(-c6c(F)c(F)c(F)c(F)c6F)c6ccc3[nH]6)C=C5)C=C4)cc2)C1
REMARK SMILES IDX 15 1 14 2 13 3 12 4 10 5 11 6 9 8 5 9 6 10 7 11 8 12 4 13
REMARK SMILES IDX 1 14 2 15 3 16 83 17 16 19 17 20 18 21 19 23 20 24 21 25
REMARK SMILES IDX 82 26 22 27 81 28 23 29 24 30 25 31 75 32 26 33 80 34 74 35
REMARK SMILES IDX 76 36 27 37 79 38 73 39 72 40 28 42 60 43 40 44 59 45 41 46
REMARK SMILES IDX 44 47 58 48 77 49 42 50 43 51 57 53 78 54 45 55 29 56 30 57
REMARK SMILES IDX 38 58 31 59 32 60 36 61 39 62 33 63 34 64 37 65 35 66 61 67
REMARK SMILES IDX 62 68 70 69 63 70 64 71 68 72 71 73 65 74 66 75 69 76 67 77
REMARK SMILES IDX 46 78 47 79 55 80 48 81 49 82 53 83 56 84 50 85 51 86 54 87
REMARK SMILES IDX 52 88
REMARK H PARENT 12 7 4 18 17 22 76 41 44 52
REMARK Flexibility Score: inf
ROOT
ATOM      1  C   UNL A   1      31.563  31.972  26.892  1.00  0.00     0.023 C 
ENDROOT
BRANCH   1   2
ATOM      2  C   UNL A   1      31.865  30.477  26.803  1.00  0.00     0.023 C 
BRANCH   2   3
ATOM      3  C   UNL A   1      33.324  30.108  27.066  1.00  0.00     0.116 C 
BRANCH   3   4
ATOM      4  N   UNL A   1      33.687  28.842  26.460  1.00  0.00    -0.356 N 
ATOM      5  C   UNL A   1      33.662  28.312  25.216  1.00  0.00     0.231 C 
ATOM      6  O   UNL A   1      34.123  27.161  25.148  1.00  0.00    -0.274 OA
ATOM      7  H   UNL A   1      34.043  28.207  27.122  1.00  0.00     0.163 HD
BRANCH   5   8
ATOM      8  C   UNL A   1      33.092  28.927  23.939  1.00  0.00     0.164 C 
ATOM      9  C   UNL A   1      31.698  28.581  23.459  1.00  0.00     0.225 C 
ATOM     10  C   UNL A   1      31.971  27.386  22.530  1.00  0.00     0.226 C 
ATOM     11  O   UNL A   1      33.294  27.537  22.000  1.00  0.00    -0.374 OA
ATOM     12  C   UNL A   1      33.980  28.537  22.768  1.00  0.00     0.180 C 
BRANCH   9  13
ATOM     13  N   UNL A   1      30.988  29.755  22.894  1.00  0.00    -0.329 N 
ATOM     14  C   UNL A   1      27.588  29.780  22.895  1.00  0.00     0.020 C 
ATOM     15  C   UNL A   1      28.972  30.351  22.652  1.00  0.00     0.096 C 
ATOM     16  C   UNL A   1      29.944  30.211  23.834  1.00  0.00     0.271 C 
ATOM     17  C   UNL A   1      29.972  29.473  21.863  1.00  0.00     0.271 C 
ATOM     18  H   UNL A   1      31.779  30.336  22.619  1.00  0.00     0.348 HD
ENDBRANCH   9  13
ENDBRANCH   5   8
ENDBRANCH   3   4
ENDBRANCH   2   3
ENDBRANCH   1   2
BRANCH   1  19
ATOM     19  C   UNL A   1      32.741  32.857  27.292  1.00  0.00     0.116 C 
BRANCH  19  20
ATOM     20  N   UNL A   1      32.374  34.216  27.662  1.00  0.00    -0.352 N 
ATOM     21  C   UNL A   1      32.971  35.030  28.600  1.00  0.00     0.251 C 
ATOM     22  H   UNL A   1      31.604  34.601  27.184  1.00  0.00     0.163 HD
ATOM     23  O   UNL A   1      32.517  36.133  28.857  1.00  0.00    -0.269 OA
BRANCH  21  24
ATOM     24  C   UNL A   1      34.148  34.516  29.332  1.00  0.00     0.039 A 
ATOM     25  C   UNL A   1      33.945  33.853  30.544  1.00  0.00     0.014 A 
ATOM     26  C   UNL A   1      35.428  34.625  28.784  1.00  0.00     0.014 A 
ATOM     27  C   UNL A   1      35.023  33.226  31.170  1.00  0.00     0.010 A 
ATOM     28  C   UNL A   1      36.486  33.942  29.372  1.00  0.00     0.010 A 
ATOM     29  C   UNL A   1      36.291  33.231  30.566  1.00  0.00    -0.014 A 
BRANCH  29  30
ATOM     30  C   UNL A   1      37.425  32.485  31.164  1.00  0.00     0.031 A 
ATOM     31  C   UNL A   1      37.925  32.847  32.533  1.00  0.00     0.074 A 
ATOM     32  C   UNL A   1      38.046  31.532  30.445  1.00  0.00     0.049 A 
ATOM     33  N   UNL A   1      38.932  32.349  33.203  1.00  0.00    -0.248 NA
ATOM     34  C   UNL A   1      37.218  33.933  33.226  1.00  0.00     0.031 C 
ATOM     35  C   UNL A   1      37.690  31.133  29.082  1.00  0.00     0.029 A 
ATOM     36  N   UNL A   1      39.113  30.728  30.758  1.00  0.00    -0.354 N 
ATOM     37  C   UNL A   1      38.986  33.070  34.388  1.00  0.00     0.074 A 
ATOM     38  C   UNL A   1      37.949  34.076  34.321  1.00  0.00     0.031 C 
ATOM     39  C   UNL A   1      38.504  30.141  28.688  1.00  0.00     0.029 A 
ATOM     40  C   UNL A   1      39.455  29.852  29.756  1.00  0.00     0.049 A 
ATOM     41  H   UNL A   1      39.588  30.774  31.619  1.00  0.00     0.167 HD
ATOM     42  C   UNL A   1      39.811  32.892  35.449  1.00  0.00     0.037 A 
ATOM     43  C   UNL A   1      40.424  28.919  29.712  1.00  0.00     0.037 A 
ATOM     44  C   UNL A   1      40.824  31.873  35.523  1.00  0.00     0.049 A 
ATOM     45  C   UNL A   1      41.315  28.729  30.908  1.00  0.00     0.074 A 
ATOM     46  C   UNL A   1      41.670  31.570  36.576  1.00  0.00     0.029 A 
ATOM     47  N   UNL A   1      41.125  30.987  34.499  1.00  0.00    -0.354 N 
ATOM     48  N   UNL A   1      41.313  29.370  32.052  1.00  0.00    -0.248 NA
ATOM     49  C   UNL A   1      42.340  27.680  30.809  1.00  0.00     0.031 C 
ATOM     50  C   UNL A   1      42.507  30.523  36.175  1.00  0.00     0.029 A 
ATOM     51  C   UNL A   1      42.155  30.147  34.888  1.00  0.00     0.049 A 
ATOM     52  H   UNL A   1      40.674  30.960  33.624  1.00  0.00     0.167 HD
ATOM     53  C   UNL A   1      42.313  28.787  32.818  1.00  0.00     0.074 A 
ATOM     54  C   UNL A   1      42.893  27.732  32.013  1.00  0.00     0.031 C 
ATOM     55  C   UNL A   1      42.715  29.098  34.075  1.00  0.00     0.037 A 
BRANCH  42  56
ATOM     56  C   UNL A   1      39.637  33.819  36.616  1.00  0.00     0.064 A 
ATOM     57  C   UNL A   1      40.258  35.077  36.651  1.00  0.00     0.173 A 
ATOM     58  C   UNL A   1      38.839  33.450  37.708  1.00  0.00     0.173 A 
ATOM     59  F   UNL A   1      41.046  35.470  35.639  1.00  0.00    -0.203 F 
ATOM     60  C   UNL A   1      40.114  35.918  37.752  1.00  0.00     0.198 A 
ATOM     61  C   UNL A   1      38.672  34.306  38.795  1.00  0.00     0.198 A 
ATOM     62  F   UNL A   1      38.220  32.261  37.724  1.00  0.00    -0.203 F 
ATOM     63  F   UNL A   1      40.763  37.089  37.787  1.00  0.00    -0.200 F 
ATOM     64  C   UNL A   1      39.317  35.534  38.819  1.00  0.00     0.200 A 
ATOM     65  F   UNL A   1      37.894  33.938  39.822  1.00  0.00    -0.200 F 
ATOM     66  F   UNL A   1      39.179  36.343  39.879  1.00  0.00    -0.200 F 
ENDBRANCH  42  56
BRANCH  43  67
ATOM     67  C   UNL A   1      40.568  28.059  28.511  1.00  0.00     0.064 A 
ATOM     68  C   UNL A   1      39.929  26.813  28.445  1.00  0.00     0.173 A 
ATOM     69  C   UNL A   1      41.334  28.460  27.408  1.00  0.00     0.173 A 
ATOM     70  F   UNL A   1      39.200  26.379  29.484  1.00  0.00    -0.203 F 
ATOM     71  C   UNL A   1      40.063  25.993  27.327  1.00  0.00     0.198 A 
ATOM     72  C   UNL A   1      41.448  27.649  26.281  1.00  0.00     0.198 A 
ATOM     73  F   UNL A   1      41.960  29.646  27.421  1.00  0.00    -0.203 F 
ATOM     74  F   UNL A   1      39.471  24.791  27.305  1.00  0.00    -0.200 F 
ATOM     75  C   UNL A   1      40.818  26.414  26.243  1.00  0.00     0.200 A 
ATOM     76  F   UNL A   1      42.169  28.064  25.230  1.00  0.00    -0.200 F 
ATOM     77  F   UNL A   1      40.943  25.628  25.165  1.00  0.00    -0.200 F 
ENDBRANCH  43  67
BRANCH  55  78
ATOM     78  C   UNL A   1      43.813  28.266  34.665  1.00  0.00     0.064 A 
ATOM     79  C   UNL A   1      43.542  27.085  35.373  1.00  0.00     0.173 A 
ATOM     80  C   UNL A   1      45.156  28.637  34.493  1.00  0.00     0.173 A 
ATOM     81  F   UNL A   1      42.274  26.698  35.577  1.00  0.00    -0.203 F 
ATOM     82  C   UNL A   1      44.574  26.321  35.909  1.00  0.00     0.198 A 
ATOM     83  C   UNL A   1      46.186  27.855  35.008  1.00  0.00     0.198 A 
ATOM     84  F   UNL A   1      45.466  29.755  33.820  1.00  0.00    -0.203 F 
ATOM     85  F   UNL A   1      44.290  25.221  36.621  1.00  0.00    -0.200 F 
ATOM     86  C   UNL A   1      45.895  26.703  35.720  1.00  0.00     0.200 A 
ATOM     87  F   UNL A   1      47.461  28.221  34.817  1.00  0.00    -0.200 F 
ATOM     88  F   UNL A   1      46.886  25.963  36.234  1.00  0.00    -0.200 F 
ENDBRANCH  55  78
ENDBRANCH  29  30
ENDBRANCH  21  24
ENDBRANCH  19  20
ENDBRANCH   1  19
TORSDOF 12
ENDMDL
MODEL 2
REMARK VINA RESULT:     -11.9      0.620      7.503
REMARK SMILES CC1C[NH+]([C@H]2COC[C@@H]2C(=O)NCCCCNC(=O)c2ccc(-c3c4nc(c(-c5c(F)c(F)c(F)c(F)c5F)c5ccc([nH]5)c(-c5c(F)c(F)c(F)c(F)c5F)c5nc(c(-c6c(F)c(F)c(F)c(F)c6F)c6ccc3[nH]6)C=C5)C=C4)cc2)C1
REMARK SMILES IDX 15 1 14 2 13 3 12 4 10 5 11 6 9 8 5 9 6 10 7 11 8 12 4 13
REMARK SMILES IDX 1 14 2 15 3 16 83 17 16 19 17 20 18 21 19 23 20 24 21 25
REMARK SMILES IDX 82 26 22 27 81 28 23 29 24 30 25 31 75 32 26 33 80 34 74 35
REMARK SMILES IDX 76 36 27 37 79 38 73 39 72 40 28 42 60 43 40 44 59 45 41 46
REMARK SMILES IDX 44 47 58 48 77 49 42 50 43 51 57 53 78 54 45 55 29 56 30 57
REMARK SMILES IDX 38 58 31 59 32 60 36 61 39 62 33 63 34 64 37 65 35 66 61 67
REMARK SMILES IDX 62 68 70 69 63 70 64 71 68 72 71 73 65 74 66 75 69 76 67 77
REMARK SMILES IDX 46 78 47 79 55 80 48 81 49 82 53 83 56 84 50 85 51 86 54 87
REMARK SMILES IDX 52 88
REMARK H PARENT 12 7 4 18 17 22 76 41 44 52
REMARK Flexibility Score: inf
ROOT
ATOM      1  C   UNL A   1      31.834  31.772  26.835  1.00  0.00     0.023 C 
ENDROOT
BRANCH   1   2
ATOM      2  C   UNL A   1      32.153  30.279  26.903  1.00  0.00     0.023 C 
BRANCH   2   3
ATOM      3  C   UNL A   1      33.635  29.940  26.762  1.00  0.00     0.116 C 
BRANCH   3   4
ATOM      4  N   UNL A   1      33.845  28.622  26.196  1.00  0.00    -0.356 N 
ATOM      5  C   UNL A   1      33.636  28.028  24.999  1.00  0.00     0.231 C 
ATOM      6  O   UNL A   1      34.015  26.847  24.947  1.00  0.00    -0.274 OA
ATOM      7  H   UNL A   1      34.241  28.001  26.849  1.00  0.00     0.163 HD
BRANCH   5   8
ATOM      8  C   UNL A   1      32.952  28.610  23.763  1.00  0.00     0.164 C 
ATOM      9  C   UNL A   1      31.445  28.573  23.613  1.00  0.00     0.225 C 
ATOM     10  C   UNL A   1      31.235  27.246  22.865  1.00  0.00     0.226 C 
ATOM     11  O   UNL A   1      32.408  26.993  22.084  1.00  0.00    -0.374 OA
ATOM     12  C   UNL A   1      33.452  27.871  22.532  1.00  0.00     0.180 C 
BRANCH   9  13
ATOM     13  N   UNL A   1      30.909  29.812  22.998  1.00  0.00    -0.329 N 
ATOM     14  C   UNL A   1      27.541  30.221  22.786  1.00  0.00     0.020 C 
ATOM     15  C   UNL A   1      28.993  30.629  22.626  1.00  0.00     0.096 C 
ATOM     16  C   UNL A   1      29.867  30.395  23.868  1.00  0.00     0.271 C 
ATOM     17  C   UNL A   1      29.933  29.634  21.906  1.00  0.00     0.271 C 
ATOM     18  H   UNL A   1      31.776  30.297  22.770  1.00  0.00     0.348 HD
ENDBRANCH   9  13
ENDBRANCH   5   8
ENDBRANCH   3   4
ENDBRANCH   2   3
ENDBRANCH   1   2
BRANCH   1  19
ATOM     19  C   UNL A   1      32.931  32.701  27.349  1.00  0.00     0.116 C 
BRANCH  19  20
ATOM     20  N   UNL A   1      32.483  34.052  27.648  1.00  0.00    -0.352 N 
ATOM     21  C   UNL A   1      32.994  34.929  28.581  1.00  0.00     0.251 C 
ATOM     22  H   UNL A   1      31.721  34.382  27.119  1.00  0.00     0.163 HD
ATOM     23  O   UNL A   1      32.477  36.017  28.772  1.00  0.00    -0.269 OA
BRANCH  21  24
ATOM     24  C   UNL A   1      34.156  34.501  29.387  1.00  0.00     0.039 A 
ATOM     25  C   UNL A   1      33.925  33.910  30.632  1.00  0.00     0.014 A 
ATOM     26  C   UNL A   1      35.453  34.614  28.882  1.00  0.00     0.014 A 
ATOM     27  C   UNL A   1      34.995  33.359  31.338  1.00  0.00     0.010 A 
ATOM     28  C   UNL A   1      36.506  34.003  29.552  1.00  0.00     0.010 A 
ATOM     29  C   UNL A   1      36.286  33.365  30.782  1.00  0.00    -0.014 A 
BRANCH  29  30
ATOM     30  C   UNL A   1      37.416  32.695  31.469  1.00  0.00     0.031 A 
ATOM     31  C   UNL A   1      38.124  31.547  30.809  1.00  0.00     0.074 A 
ATOM     32  C   UNL A   1      37.757  33.076  32.714  1.00  0.00     0.049 A 
ATOM     33  N   UNL A   1      39.097  30.802  31.267  1.00  0.00    -0.248 NA
ATOM     34  C   UNL A   1      37.654  31.166  29.468  1.00  0.00     0.031 C 
ATOM     35  C   UNL A   1      37.104  34.138  33.482  1.00  0.00     0.029 A 
ATOM     36  N   UNL A   1      38.734  32.610  33.557  1.00  0.00    -0.354 N 
ATOM     37  C   UNL A   1      39.345  29.859  30.278  1.00  0.00     0.074 A 
ATOM     38  C   UNL A   1      38.384  30.089  29.222  1.00  0.00     0.031 C 
ATOM     39  C   UNL A   1      37.718  34.262  34.670  1.00  0.00     0.029 A 
ATOM     40  C   UNL A   1      38.786  33.271  34.759  1.00  0.00     0.049 A 
ATOM     41  H   UNL A   1      39.340  31.870  33.322  1.00  0.00     0.167 HD
ATOM     42  C   UNL A   1      40.305  28.905  30.244  1.00  0.00     0.037 A 
ATOM     43  C   UNL A   1      39.609  33.100  35.810  1.00  0.00     0.037 A 
ATOM     44  C   UNL A   1      41.277  28.696  31.284  1.00  0.00     0.049 A 
ATOM     45  C   UNL A   1      40.678  32.044  35.740  1.00  0.00     0.074 A 
ATOM     46  C   UNL A   1      42.328  27.796  31.318  1.00  0.00     0.029 A 
ATOM     47  N   UNL A   1      41.316  29.403  32.477  1.00  0.00    -0.354 N 
ATOM     48  N   UNL A   1      40.949  31.203  34.772  1.00  0.00    -0.248 NA
ATOM     49  C   UNL A   1      41.560  31.919  36.909  1.00  0.00     0.031 C 
ATOM     50  C   UNL A   1      42.981  27.936  32.548  1.00  0.00     0.029 A 
ATOM     51  C   UNL A   1      42.363  28.949  33.262  1.00  0.00     0.049 A 
ATOM     52  H   UNL A   1      40.690  30.120  32.730  1.00  0.00     0.167 HD
ATOM     53  C   UNL A   1      42.046  30.469  35.199  1.00  0.00     0.074 A 
ATOM     54  C   UNL A   1      42.399  30.972  36.510  1.00  0.00     0.031 C 
ATOM     55  C   UNL A   1      42.702  29.467  34.563  1.00  0.00     0.037 A 
BRANCH  42  56
ATOM     56  C   UNL A   1      40.351  28.021  29.031  1.00  0.00     0.064 A 
ATOM     57  C   UNL A   1      41.107  28.368  27.900  1.00  0.00     0.173 A 
ATOM     58  C   UNL A   1      39.638  26.814  29.000  1.00  0.00     0.173 A 
ATOM     59  F   UNL A   1      41.793  29.520  27.874  1.00  0.00    -0.203 F 
ATOM     60  C   UNL A   1      41.119  27.555  26.770  1.00  0.00     0.198 A 
ATOM     61  C   UNL A   1      39.677  25.988  27.879  1.00  0.00     0.198 A 
ATOM     62  F   UNL A   1      38.904  26.434  30.055  1.00  0.00    -0.203 F 
ATOM     63  F   UNL A   1      41.802  27.935  25.681  1.00  0.00    -0.200 F 
ATOM     64  C   UNL A   1      40.409  26.364  26.762  1.00  0.00     0.200 A 
ATOM     65  F   UNL A   1      38.998  24.833  27.875  1.00  0.00    -0.200 F 
ATOM     66  F   UNL A   1      40.421  25.583  25.673  1.00  0.00    -0.200 F 
ENDBRANCH  42  56
BRANCH  43  67
ATOM     67  C   UNL A   1      39.488  33.983  36.997  1.00  0.00     0.064 A 
ATOM     68  C   UNL A   1      38.754  33.573  38.119  1.00  0.00     0.173 A 
ATOM     69  C   UNL A   1      40.101  35.242  37.041  1.00  0.00     0.173 A 
ATOM     70  F   UNL A   1      38.135  32.384  38.116  1.00  0.00    -0.203 F 
ATOM     71  C   UNL A   1      38.626  34.396  39.235  1.00  0.00     0.198 A 
ATOM     72  C   UNL A   1      39.991  36.055  38.167  1.00  0.00     0.198 A 
ATOM     73  F   UNL A   1      40.818  35.677  35.993  1.00  0.00    -0.203 F 
ATOM     74  F   UNL A   1      37.889  33.995  40.280  1.00  0.00    -0.200 F 
ATOM     75  C   UNL A   1      39.250  35.634  39.261  1.00  0.00     0.200 A 
ATOM     76  F   UNL A   1      40.605  37.247  38.193  1.00  0.00    -0.200 F 
ATOM     77  F   UNL A   1      39.130  36.425  40.336  1.00  0.00    -0.200 F 
ENDBRANCH  43  67
BRANCH  55  78
ATOM     78  C   UNL A   1      43.886  28.873  35.265  1.00  0.00     0.064 A 
ATOM     79  C   UNL A   1      43.744  27.817  36.178  1.00  0.00     0.173 A 
ATOM     80  C   UNL A   1      45.180  29.345  34.999  1.00  0.00     0.173 A 
ATOM     81  F   UNL A   1      42.526  27.343  36.477  1.00  0.00    -0.203 F 
ATOM     82  C   UNL A   1      44.855  27.272  36.817  1.00  0.00     0.198 A 
ATOM     83  C   UNL A   1      46.290  28.780  35.620  1.00  0.00     0.198 A 
ATOM     84  F   UNL A   1      45.367  30.350  34.131  1.00  0.00    -0.203 F 
ATOM     85  F   UNL A   1      44.693  26.295  37.719  1.00  0.00    -0.200 F 
ATOM     86  C   UNL A   1      46.126  27.749  36.533  1.00  0.00     0.200 A 
ATOM     87  F   UNL A   1      47.518  29.235  35.337  1.00  0.00    -0.200 F 
ATOM     88  F   UNL A   1      47.193  27.220  37.147  1.00  0.00    -0.200 F 
ENDBRANCH  55  78
ENDBRANCH  29  30
ENDBRANCH  21  24
ENDBRANCH  19  20
ENDBRANCH   1  19
TORSDOF 12
ENDMDL
MODEL 3
REMARK VINA RESULT:     -11.9      0.595      7.769
REMARK SMILES CC1C[NH+]([C@H]2COC[C@@H]2C(=O)NCCCCNC(=O)c2ccc(-c3c4nc(c(-c5c(F)c(F)c(F)c(F)c5F)c5ccc([nH]5)c(-c5c(F)c(F)c(F)c(F)c5F)c5nc(c(-c6c(F)c(F)c(F)c(F)c6F)c6ccc3[nH]6)C=C5)C=C4)cc2)C1
REMARK SMILES IDX 15 1 14 2 13 3 12 4 10 5 11 6 9 8 5 9 6 10 7 11 8 12 4 13
REMARK SMILES IDX 1 14 2 15 3 16 83 17 16 19 17 20 18 21 19 23 20 24 21 25
REMARK SMILES IDX 82 26 22 27 81 28 23 29 24 30 25 31 75 32 26 33 80 34 74 35
REMARK SMILES IDX 76 36 27 37 79 38 73 39 72 40 28 42 60 43 40 44 59 45 41 46
REMARK SMILES IDX 44 47 58 48 77 49 42 50 43 51 57 53 78 54 45 55 29 56 30 57
REMARK SMILES IDX 38 58 31 59 32 60 36 61 39 62 33 63 34 64 37 65 35 66 61 67
REMARK SMILES IDX 62 68 70 69 63 70 64 71 68 72 71 73 65 74 66 75 69 76 67 77
REMARK SMILES IDX 46 78 47 79 55 80 48 81 49 82 53 83 56 84 50 85 51 86 54 87
REMARK SMILES IDX 52 88
REMARK H PARENT 12 7 4 18 17 22 76 41 44 52
REMARK Flexibility Score: inf
ROOT
ATOM      1  C   UNL A   1      31.758  31.884  26.883  1.00  0.00     0.023 C 
ENDROOT
BRANCH   1   2
ATOM      2  C   UNL A   1      32.083  30.391  26.865  1.00  0.00     0.023 C 
BRANCH   2   3
ATOM      3  C   UNL A   1      33.575  30.068  26.804  1.00  0.00     0.116 C 
BRANCH   3   4
ATOM      4  N   UNL A   1      33.829  28.757  26.239  1.00  0.00    -0.356 N 
ATOM      5  C   UNL A   1      33.666  28.164  25.035  1.00  0.00     0.231 C 
ATOM      6  O   UNL A   1      34.072  26.991  24.989  1.00  0.00    -0.274 OA
ATOM      7  H   UNL A   1      34.220  28.142  26.901  1.00  0.00     0.163 HD
BRANCH   5   8
ATOM      8  C   UNL A   1      33.003  28.736  23.782  1.00  0.00     0.164 C 
ATOM      9  C   UNL A   1      31.521  28.555  23.530  1.00  0.00     0.225 C 
ATOM     10  C   UNL A   1      31.496  27.253  22.712  1.00  0.00     0.226 C 
ATOM     11  O   UNL A   1      32.736  27.159  22.001  1.00  0.00    -0.374 OA
ATOM     12  C   UNL A   1      33.653  28.114  22.556  1.00  0.00     0.180 C 
BRANCH   9  13
ATOM     13  N   UNL A   1      30.899  29.764  22.936  1.00  0.00    -0.329 N 
ATOM     14  C   UNL A   1      27.510  30.040  22.935  1.00  0.00     0.020 C 
ATOM     15  C   UNL A   1      28.933  30.502  22.678  1.00  0.00     0.096 C 
ATOM     16  C   UNL A   1      29.893  30.319  23.864  1.00  0.00     0.271 C 
ATOM     17  C   UNL A   1      29.863  29.532  21.911  1.00  0.00     0.271 C 
ATOM     18  H   UNL A   1      31.730  30.278  22.647  1.00  0.00     0.348 HD
ENDBRANCH   9  13
ENDBRANCH   5   8
ENDBRANCH   3   4
ENDBRANCH   2   3
ENDBRANCH   1   2
BRANCH   1  19
ATOM     19  C   UNL A   1      32.872  32.792  27.397  1.00  0.00     0.116 C 
BRANCH  19  20
ATOM     20  N   UNL A   1      32.451  34.154  27.690  1.00  0.00    -0.352 N 
ATOM     21  C   UNL A   1      32.989  35.030  28.608  1.00  0.00     0.251 C 
ATOM     22  H   UNL A   1      31.686  34.492  27.169  1.00  0.00     0.163 HD
ATOM     23  O   UNL A   1      32.493  36.129  28.796  1.00  0.00    -0.269 OA
BRANCH  21  24
ATOM     24  C   UNL A   1      34.155  34.590  29.402  1.00  0.00     0.039 A 
ATOM     25  C   UNL A   1      33.936  34.062  30.676  1.00  0.00     0.014 A 
ATOM     26  C   UNL A   1      35.441  34.630  28.859  1.00  0.00     0.014 A 
ATOM     27  C   UNL A   1      35.002  33.499  31.377  1.00  0.00     0.010 A 
ATOM     28  C   UNL A   1      36.488  34.007  29.528  1.00  0.00     0.010 A 
ATOM     29  C   UNL A   1      36.277  33.429  30.789  1.00  0.00    -0.014 A 
BRANCH  29  30
ATOM     30  C   UNL A   1      37.398  32.744  31.474  1.00  0.00     0.031 A 
ATOM     31  C   UNL A   1      38.098  31.595  30.809  1.00  0.00     0.074 A 
ATOM     32  C   UNL A   1      37.739  33.114  32.724  1.00  0.00     0.049 A 
ATOM     33  N   UNL A   1      39.063  30.838  31.265  1.00  0.00    -0.248 NA
ATOM     34  C   UNL A   1      37.629  31.228  29.464  1.00  0.00     0.031 C 
ATOM     35  C   UNL A   1      37.093  34.176  33.497  1.00  0.00     0.029 A 
ATOM     36  N   UNL A   1      38.708  32.632  33.566  1.00  0.00    -0.354 N 
ATOM     37  C   UNL A   1      39.305  29.900  30.270  1.00  0.00     0.074 A 
ATOM     38  C   UNL A   1      38.350  30.146  29.212  1.00  0.00     0.031 C 
ATOM     39  C   UNL A   1      37.703  34.285  34.688  1.00  0.00     0.029 A 
ATOM     40  C   UNL A   1      38.762  33.285  34.773  1.00  0.00     0.049 A 
ATOM     41  H   UNL A   1      39.308  31.889  33.328  1.00  0.00     0.167 HD
ATOM     42  C   UNL A   1      40.257  28.937  30.232  1.00  0.00     0.037 A 
ATOM     43  C   UNL A   1      39.580  33.098  35.826  1.00  0.00     0.037 A 
ATOM     44  C   UNL A   1      41.224  28.712  31.274  1.00  0.00     0.049 A 
ATOM     45  C   UNL A   1      40.639  32.033  35.752  1.00  0.00     0.074 A 
ATOM     46  C   UNL A   1      42.266  27.803  31.305  1.00  0.00     0.029 A 
ATOM     47  N   UNL A   1      41.264  29.410  32.472  1.00  0.00    -0.354 N 
ATOM     48  N   UNL A   1      40.906  31.197  34.778  1.00  0.00    -0.248 NA
ATOM     49  C   UNL A   1      41.516  31.891  36.923  1.00  0.00     0.031 C 
ATOM     50  C   UNL A   1      42.916  27.927  32.538  1.00  0.00     0.029 A 
ATOM     51  C   UNL A   1      42.305  28.941  33.257  1.00  0.00     0.049 A 
ATOM     52  H   UNL A   1      40.645  30.131  32.728  1.00  0.00     0.167 HD
ATOM     53  C   UNL A   1      41.995  30.449  35.204  1.00  0.00     0.074 A 
ATOM     54  C   UNL A   1      42.348  30.940  36.520  1.00  0.00     0.031 C 
ATOM     55  C   UNL A   1      42.644  29.447  34.563  1.00  0.00     0.037 A 
BRANCH  42  56
ATOM     56  C   UNL A   1      40.299  28.062  29.013  1.00  0.00     0.064 A 
ATOM     57  C   UNL A   1      39.600  26.846  28.960  1.00  0.00     0.173 A 
ATOM     58  C   UNL A   1      41.040  28.444  27.886  1.00  0.00     0.173 A 
ATOM     59  F   UNL A   1      38.890  26.429  30.018  1.00  0.00    -0.203 F 
ATOM     60  C   UNL A   1      39.669  26.029  27.834  1.00  0.00     0.198 A 
ATOM     61  C   UNL A   1      41.083  27.638  26.750  1.00  0.00     0.198 A 
ATOM     62  F   UNL A   1      41.723  29.597  27.883  1.00  0.00    -0.203 F 
ATOM     63  F   UNL A   1      39.039  24.846  27.829  1.00  0.00    -0.200 F 
ATOM     64  C   UNL A   1      40.405  26.427  26.730  1.00  0.00     0.200 A 
ATOM     65  F   UNL A   1      41.787  28.028  25.679  1.00  0.00    -0.200 F 
ATOM     66  F   UNL A   1      40.472  25.639  25.647  1.00  0.00    -0.200 F 
ENDBRANCH  42  56
BRANCH  43  67
ATOM     67  C   UNL A   1      39.462  33.973  37.019  1.00  0.00     0.064 A 
ATOM     68  C   UNL A   1      40.082  35.231  37.046  1.00  0.00     0.173 A 
ATOM     69  C   UNL A   1      38.729  33.582  38.147  1.00  0.00     0.173 A 
ATOM     70  F   UNL A   1      40.810  35.640  35.997  1.00  0.00    -0.203 F 
ATOM     71  C   UNL A   1      39.985  36.057  38.162  1.00  0.00     0.198 A 
ATOM     72  C   UNL A   1      38.613  34.419  39.255  1.00  0.00     0.198 A 
ATOM     73  F   UNL A   1      38.113  32.390  38.168  1.00  0.00    -0.203 F 
ATOM     74  F   UNL A   1      40.617  37.238  38.176  1.00  0.00    -0.200 F 
ATOM     75  C   UNL A   1      39.246  35.654  39.264  1.00  0.00     0.200 A 
ATOM     76  F   UNL A   1      37.889  34.031  40.314  1.00  0.00    -0.200 F 
ATOM     77  F   UNL A   1      39.149  36.450  40.337  1.00  0.00    -0.200 F 
ENDBRANCH  43  67
BRANCH  55  78
ATOM     78  C   UNL A   1      43.820  28.837  35.265  1.00  0.00     0.064 A 
ATOM     79  C   UNL A   1      45.127  29.297  35.045  1.00  0.00     0.173 A 
ATOM     80  C   UNL A   1      43.633  27.801  36.193  1.00  0.00     0.173 A 
ATOM     81  F   UNL A   1      45.357  30.273  34.155  1.00  0.00    -0.203 F 
ATOM     82  C   UNL A   1      46.207  28.723  35.711  1.00  0.00     0.198 A 
ATOM     83  C   UNL A   1      44.713  27.249  36.876  1.00  0.00     0.198 A 
ATOM     84  F   UNL A   1      42.402  27.330  36.441  1.00  0.00    -0.203 F 
ATOM     85  F   UNL A   1      47.452  29.147  35.451  1.00  0.00    -0.200 F 
ATOM     86  C   UNL A   1      45.998  27.705  36.630  1.00  0.00     0.200 A 
ATOM     87  F   UNL A   1      44.509  26.272  37.770  1.00  0.00    -0.200 F 
ATOM     88  F   UNL A   1      47.040  27.158  37.271  1.00  0.00    -0.200 F 
ENDBRANCH  55  78
ENDBRANCH  29  30
ENDBRANCH  21  24
ENDBRANCH  19  20
ENDBRANCH   1  19
TORSDOF 12
ENDMDL
