MODEL 1
REMARK VINA RESULT:     -13.8      0.000      0.000
REMARK SMILES C[C@@H]1C(C(=O)NCCCCNC(=O)c2ccc(-c3c4nc(c(-c5c(F)c(F)c(F)c(F)c5F)c5ccc([nH]5)c(-c5c(F)c(F)c(F)c(F)c5F)c5nc(c(-c6c(F)c(F)c(F)c(F)c6F)c6ccc3[nH]6)C=C5)C=C4)cc2)=NC2=C1C(=O)C[C@H](c1ccccc1)C2
REMARK SMILES IDX 9 1 8 2 7 3 6 4 4 5 5 6 3 8 1 9 2 10 79 11 77 12 78 13 80 14
REMARK SMILES IDX 90 15 81 16 82 17 83 18 84 19 85 20 89 21 86 22 88 23 87 24
REMARK SMILES IDX 10 25 11 26 12 27 13 29 14 30 15 31 76 32 16 33 75 34 17 35
REMARK SMILES IDX 18 36 19 37 69 38 20 39 74 40 68 41 70 42 21 43 73 44 67 45
REMARK SMILES IDX 66 46 22 48 54 49 34 50 53 51 35 52 38 53 52 54 71 55 36 56
REMARK SMILES IDX 37 57 51 59 72 60 39 61 23 62 24 63 32 64 25 65 26 66 30 67
REMARK SMILES IDX 33 68 27 69 28 70 31 71 29 72 55 73 56 74 64 75 57 76 58 77
REMARK SMILES IDX 62 78 65 79 59 80 60 81 63 82 61 83 40 84 41 85 49 86 42 87
REMARK SMILES IDX 43 88 47 89 50 90 44 91 45 92 48 93 46 94
REMARK H PARENT 6 7 11 28 70 47 38 58
REMARK Flexibility Score: inf
ROOT
ATOM      1  C   UNL A   1      36.732  23.173  24.881  1.00  0.00     0.023 C 
ENDROOT
BRANCH   1   2
ATOM      2  C   UNL A   1      35.239  23.407  25.092  1.00  0.00     0.023 C 
BRANCH   2   3
ATOM      3  C   UNL A   1      34.688  24.833  25.178  1.00  0.00     0.116 C 
BRANCH   3   4
ATOM      4  N   UNL A   1      33.662  25.135  26.160  1.00  0.00    -0.351 N 
ATOM      5  C   UNL A   1      32.275  25.118  26.016  1.00  0.00     0.266 C 
ATOM      6  O   UNL A   1      31.580  24.923  27.009  1.00  0.00    -0.268 OA
ATOM      7  H   UNL A   1      33.993  25.386  27.053  1.00  0.00     0.163 HD
BRANCH   5   8
ATOM      8  C   UNL A   1      31.587  25.510  24.703  1.00  0.00     0.113 C 
ATOM      9  C   UNL A   1      30.468  23.932  23.120  1.00  0.00     0.020 C 
ATOM     10  C   UNL A   1      31.726  24.754  23.410  1.00  0.00     0.076 C 
ATOM     11  C   UNL A   1      31.740  26.033  22.633  1.00  0.00     0.026 C 
ATOM     12  N   UNL A   1      30.885  26.614  24.600  1.00  0.00    -0.251 NA
ATOM     13  C   UNL A   1      31.004  26.951  23.265  1.00  0.00     0.049 C 
ATOM     14  C   UNL A   1      32.968  26.562  21.992  1.00  0.00     0.161 C 
ATOM     15  C   UNL A   1      31.048  28.389  22.832  1.00  0.00     0.065 C 
ATOM     16  O   UNL A   1      33.652  25.804  21.305  1.00  0.00    -0.294 OA
ATOM     17  C   UNL A   1      33.443  27.999  22.314  1.00  0.00     0.089 C 
ATOM     18  C   UNL A   1      32.465  28.913  23.126  1.00  0.00     0.033 C 
BRANCH  18  19
ATOM     19  C   UNL A   1      32.735  29.072  24.637  1.00  0.00    -0.044 A 
ATOM     20  C   UNL A   1      31.812  29.752  25.464  1.00  0.00     0.004 A 
ATOM     21  C   UNL A   1      33.875  28.554  25.264  1.00  0.00     0.004 A 
ATOM     22  C   UNL A   1      31.917  29.744  26.855  1.00  0.00     0.000 A 
ATOM     23  C   UNL A   1      34.001  28.577  26.661  1.00  0.00     0.000 A 
ATOM     24  C   UNL A   1      33.005  29.134  27.457  1.00  0.00     0.000 A 
ENDBRANCH  18  19
ENDBRANCH   5   8
ENDBRANCH   3   4
ENDBRANCH   2   3
ENDBRANCH   1   2
BRANCH   1  25
ATOM     25  C   UNL A   1      37.607  23.318  26.115  1.00  0.00     0.116 C 
BRANCH  25  26
ATOM     26  N   UNL A   1      38.677  22.333  26.221  1.00  0.00    -0.352 N 
ATOM     27  C   UNL A   1      40.032  22.583  26.385  1.00  0.00     0.251 C 
ATOM     28  H   UNL A   1      38.409  21.388  26.172  1.00  0.00     0.163 HD
ATOM     29  O   UNL A   1      40.864  21.723  26.158  1.00  0.00    -0.269 OA
BRANCH  27  30
ATOM     30  C   UNL A   1      40.458  23.926  26.839  1.00  0.00     0.039 A 
ATOM     31  C   UNL A   1      40.083  25.073  26.131  1.00  0.00     0.014 A 
ATOM     32  C   UNL A   1      41.225  24.029  27.998  1.00  0.00     0.014 A 
ATOM     33  C   UNL A   1      40.409  26.323  26.653  1.00  0.00     0.010 A 
ATOM     34  C   UNL A   1      41.447  25.259  28.574  1.00  0.00     0.010 A 
ATOM     35  C   UNL A   1      41.065  26.411  27.893  1.00  0.00    -0.014 A 
BRANCH  35  36
ATOM     36  C   UNL A   1      41.181  27.699  28.576  1.00  0.00     0.031 A 
ATOM     37  C   UNL A   1      42.383  28.477  28.158  1.00  0.00     0.074 A 
ATOM     38  C   UNL A   1      40.190  28.235  29.326  1.00  0.00     0.049 A 
ATOM     39  N   UNL A   1      43.393  28.820  28.886  1.00  0.00    -0.248 NA
ATOM     40  C   UNL A   1      42.564  28.777  26.726  1.00  0.00     0.031 C 
ATOM     41  C   UNL A   1      38.843  27.695  29.537  1.00  0.00     0.029 A 
ATOM     42  N   UNL A   1      40.134  29.434  29.979  1.00  0.00    -0.354 N 
ATOM     43  C   UNL A   1      44.238  29.558  28.056  1.00  0.00     0.074 A 
ATOM     44  C   UNL A   1      43.777  29.336  26.715  1.00  0.00     0.031 C 
ATOM     45  C   UNL A   1      38.043  28.653  30.057  1.00  0.00     0.029 A 
ATOM     46  C   UNL A   1      38.851  29.816  30.368  1.00  0.00     0.049 A 
ATOM     47  H   UNL A   1      40.932  29.981  30.159  1.00  0.00     0.167 HD
ATOM     48  C   UNL A   1      45.062  30.506  28.587  1.00  0.00     0.037 A 
ATOM     49  C   UNL A   1      38.476  31.010  30.895  1.00  0.00     0.037 A 
ATOM     50  C   UNL A   1      45.170  30.318  30.013  1.00  0.00     0.049 A 
ATOM     51  C   UNL A   1      39.698  31.652  31.424  1.00  0.00     0.074 A 
ATOM     52  C   UNL A   1      45.726  29.383  30.857  1.00  0.00     0.029 A 
ATOM     53  N   UNL A   1      44.248  31.024  30.740  1.00  0.00    -0.354 N 
ATOM     54  N   UNL A   1      40.359  31.210  32.456  1.00  0.00    -0.248 NA
ATOM     55  C   UNL A   1      40.416  32.593  30.576  1.00  0.00     0.031 C 
ATOM     56  C   UNL A   1      44.896  29.373  32.019  1.00  0.00     0.029 A 
ATOM     57  C   UNL A   1      43.906  30.344  31.874  1.00  0.00     0.049 A 
ATOM     58  H   UNL A   1      43.883  31.901  30.481  1.00  0.00     0.167 HD
ATOM     59  C   UNL A   1      41.683  31.445  32.138  1.00  0.00     0.074 A 
ATOM     60  C   UNL A   1      41.646  32.443  31.074  1.00  0.00     0.031 C 
ATOM     61  C   UNL A   1      42.650  30.575  32.551  1.00  0.00     0.037 A 
BRANCH  48  62
ATOM     62  C   UNL A   1      45.339  31.869  27.966  1.00  0.00     0.064 A 
ATOM     63  C   UNL A   1      44.237  32.692  27.630  1.00  0.00     0.173 A 
ATOM     64  C   UNL A   1      46.566  32.256  27.387  1.00  0.00     0.173 A 
ATOM     65  F   UNL A   1      43.014  32.430  28.115  1.00  0.00    -0.203 F 
ATOM     66  C   UNL A   1      44.340  33.737  26.707  1.00  0.00     0.198 A 
ATOM     67  C   UNL A   1      46.674  33.330  26.501  1.00  0.00     0.198 A 
ATOM     68  F   UNL A   1      47.694  31.561  27.558  1.00  0.00    -0.203 F 
ATOM     69  F   UNL A   1      43.239  34.395  26.319  1.00  0.00    -0.200 F 
ATOM     70  C   UNL A   1      45.557  34.048  26.133  1.00  0.00     0.200 A 
ATOM     71  F   UNL A   1      47.861  33.604  25.943  1.00  0.00    -0.200 F 
ATOM     72  F   UNL A   1      45.649  35.002  25.198  1.00  0.00    -0.200 F 
ENDBRANCH  48  62
BRANCH  49  73
ATOM     73  C   UNL A   1      37.195  31.750  30.783  1.00  0.00     0.064 A 
ATOM     74  C   UNL A   1      36.268  31.770  31.841  1.00  0.00     0.173 A 
ATOM     75  C   UNL A   1      36.993  32.697  29.761  1.00  0.00     0.173 A 
ATOM     76  F   UNL A   1      36.406  30.927  32.875  1.00  0.00    -0.203 F 
ATOM     77  C   UNL A   1      35.229  32.706  31.894  1.00  0.00     0.198 A 
ATOM     78  C   UNL A   1      35.954  33.628  29.813  1.00  0.00     0.198 A 
ATOM     79  F   UNL A   1      37.862  32.802  28.745  1.00  0.00    -0.203 F 
ATOM     80  F   UNL A   1      34.410  32.738  32.955  1.00  0.00    -0.200 F 
ATOM     81  C   UNL A   1      35.082  33.644  30.887  1.00  0.00     0.200 A 
ATOM     82  F   UNL A   1      35.844  34.557  28.852  1.00  0.00    -0.200 F 
ATOM     83  F   UNL A   1      34.133  34.587  30.972  1.00  0.00    -0.200 F 
ENDBRANCH  49  73
BRANCH  61  84
ATOM     84  C   UNL A   1      42.316  29.669  33.701  1.00  0.00     0.064 A 
ATOM     85  C   UNL A   1      41.806  28.367  33.579  1.00  0.00     0.173 A 
ATOM     86  C   UNL A   1      42.629  30.124  34.990  1.00  0.00     0.173 A 
ATOM     87  F   UNL A   1      41.559  27.829  32.377  1.00  0.00    -0.203 F 
ATOM     88  C   UNL A   1      41.585  27.572  34.704  1.00  0.00     0.198 A 
ATOM     89  C   UNL A   1      42.448  29.314  36.105  1.00  0.00     0.198 A 
ATOM     90  F   UNL A   1      43.158  31.346  35.162  1.00  0.00    -0.203 F 
ATOM     91  F   UNL A   1      41.080  26.337  34.566  1.00  0.00    -0.200 F 
ATOM     92  C   UNL A   1      41.916  28.043  35.963  1.00  0.00     0.200 A 
ATOM     93  F   UNL A   1      42.813  29.759  37.315  1.00  0.00    -0.200 F 
ATOM     94  F   UNL A   1      41.744  27.265  37.041  1.00  0.00    -0.200 F 
ENDBRANCH  61  84
ENDBRANCH  35  36
ENDBRANCH  27  30
ENDBRANCH  25  26
ENDBRANCH   1  25
TORSDOF 12
ENDMDL
MODEL 2
REMARK VINA RESULT:     -13.7      0.811      1.840
REMARK SMILES C[C@@H]1C(C(=O)NCCCCNC(=O)c2ccc(-c3c4nc(c(-c5c(F)c(F)c(F)c(F)c5F)c5ccc([nH]5)c(-c5c(F)c(F)c(F)c(F)c5F)c5nc(c(-c6c(F)c(F)c(F)c(F)c6F)c6ccc3[nH]6)C=C5)C=C4)cc2)=NC2=C1C(=O)C[C@H](c1ccccc1)C2
REMARK SMILES IDX 9 1 8 2 7 3 6 4 4 5 5 6 3 8 1 9 2 10 79 11 77 12 78 13 80 14
REMARK SMILES IDX 90 15 81 16 82 17 83 18 84 19 85 20 89 21 86 22 88 23 87 24
REMARK SMILES IDX 10 25 11 26 12 27 13 29 14 30 15 31 76 32 16 33 75 34 17 35
REMARK SMILES IDX 18 36 19 37 69 38 20 39 74 40 68 41 70 42 21 43 73 44 67 45
REMARK SMILES IDX 66 46 22 48 54 49 34 50 53 51 35 52 38 53 52 54 71 55 36 56
REMARK SMILES IDX 37 57 51 59 72 60 39 61 23 62 24 63 32 64 25 65 26 66 30 67
REMARK SMILES IDX 33 68 27 69 28 70 31 71 29 72 55 73 56 74 64 75 57 76 58 77
REMARK SMILES IDX 62 78 65 79 59 80 60 81 63 82 61 83 40 84 41 85 49 86 42 87
REMARK SMILES IDX 43 88 47 89 50 90 44 91 45 92 48 93 46 94
REMARK H PARENT 6 7 11 28 70 47 38 58
REMARK Flexibility Score: inf
ROOT
ATOM      1  C   UNL A   1      36.959  23.450  25.072  1.00  0.00     0.023 C 
ENDROOT
BRANCH   1   2
ATOM      2  C   UNL A   1      35.443  23.505  25.246  1.00  0.00     0.023 C 
BRANCH   2   3
ATOM      3  C   UNL A   1      34.707  24.845  25.166  1.00  0.00     0.116 C 
BRANCH   3   4
ATOM      4  N   UNL A   1      33.690  25.150  26.155  1.00  0.00    -0.351 N 
ATOM      5  C   UNL A   1      32.301  25.129  26.023  1.00  0.00     0.266 C 
ATOM      6  O   UNL A   1      31.615  24.938  27.023  1.00  0.00    -0.268 OA
ATOM      7  H   UNL A   1      34.027  25.410  27.043  1.00  0.00     0.163 HD
BRANCH   5   8
ATOM      8  C   UNL A   1      31.601  25.509  24.714  1.00  0.00     0.113 C 
ATOM      9  C   UNL A   1      30.522  23.909  23.124  1.00  0.00     0.020 C 
ATOM     10  C   UNL A   1      31.758  24.763  23.415  1.00  0.00     0.076 C 
ATOM     11  C   UNL A   1      31.736  26.046  22.646  1.00  0.00     0.026 C 
ATOM     12  N   UNL A   1      30.870  26.594  24.617  1.00  0.00    -0.251 NA
ATOM     13  C   UNL A   1      30.976  26.941  23.283  1.00  0.00     0.049 C 
ATOM     14  C   UNL A   1      32.948  26.612  22.006  1.00  0.00     0.161 C 
ATOM     15  C   UNL A   1      30.981  28.382  22.858  1.00  0.00     0.065 C 
ATOM     16  O   UNL A   1      33.651  25.875  21.313  1.00  0.00    -0.294 OA
ATOM     17  C   UNL A   1      33.385  28.059  22.334  1.00  0.00     0.089 C 
ATOM     18  C   UNL A   1      32.384  28.943  23.152  1.00  0.00     0.033 C 
BRANCH  18  19
ATOM     19  C   UNL A   1      32.653  29.100  24.664  1.00  0.00    -0.044 A 
ATOM     20  C   UNL A   1      33.802  28.525  25.253  1.00  0.00     0.004 A 
ATOM     21  C   UNL A   1      31.803  29.816  25.517  1.00  0.00     0.004 A 
ATOM     22  C   UNL A   1      34.186  28.810  26.563  1.00  0.00     0.000 A 
ATOM     23  C   UNL A   1      32.168  30.073  26.846  1.00  0.00     0.000 A 
ATOM     24  C   UNL A   1      33.377  29.606  27.357  1.00  0.00     0.000 A 
ENDBRANCH  18  19
ENDBRANCH   5   8
ENDBRANCH   3   4
ENDBRANCH   2   3
ENDBRANCH   1   2
BRANCH   1  25
ATOM     25  C   UNL A   1      37.778  23.573  26.346  1.00  0.00     0.116 C 
BRANCH  25  26
ATOM     26  N   UNL A   1      38.908  22.657  26.433  1.00  0.00    -0.352 N 
ATOM     27  C   UNL A   1      40.251  22.991  26.548  1.00  0.00     0.251 C 
ATOM     28  H   UNL A   1      38.697  21.696  26.407  1.00  0.00     0.163 HD
ATOM     29  O   UNL A   1      41.125  22.178  26.307  1.00  0.00    -0.269 OA
BRANCH  27  30
ATOM     30  C   UNL A   1      40.608  24.365  26.966  1.00  0.00     0.039 A 
ATOM     31  C   UNL A   1      40.389  25.452  26.114  1.00  0.00     0.014 A 
ATOM     32  C   UNL A   1      41.150  24.559  28.235  1.00  0.00     0.014 A 
ATOM     33  C   UNL A   1      40.634  26.739  26.587  1.00  0.00     0.010 A 
ATOM     34  C   UNL A   1      41.282  25.831  28.743  1.00  0.00     0.010 A 
ATOM     35  C   UNL A   1      41.052  26.925  27.915  1.00  0.00    -0.014 A 
BRANCH  35  36
ATOM     36  C   UNL A   1      41.062  28.263  28.505  1.00  0.00     0.031 A 
ATOM     37  C   UNL A   1      42.169  29.121  27.992  1.00  0.00     0.074 A 
ATOM     38  C   UNL A   1      40.046  28.754  29.252  1.00  0.00     0.049 A 
ATOM     39  N   UNL A   1      43.162  29.609  28.659  1.00  0.00    -0.248 NA
ATOM     40  C   UNL A   1      42.278  29.334  26.538  1.00  0.00     0.031 C 
ATOM     41  C   UNL A   1      38.764  28.105  29.548  1.00  0.00     0.029 A 
ATOM     42  N   UNL A   1      39.892  29.986  29.824  1.00  0.00    -0.354 N 
ATOM     43  C   UNL A   1      43.906  30.364  27.751  1.00  0.00     0.074 A 
ATOM     44  C   UNL A   1      43.430  30.004  26.446  1.00  0.00     0.031 C 
ATOM     45  C   UNL A   1      37.890  29.017  30.030  1.00  0.00     0.029 A 
ATOM     46  C   UNL A   1      38.590  30.271  30.232  1.00  0.00     0.049 A 
ATOM     47  H   UNL A   1      40.638  30.618  29.938  1.00  0.00     0.167 HD
ATOM     48  C   UNL A   1      44.649  31.421  28.186  1.00  0.00     0.037 A 
ATOM     49  C   UNL A   1      38.116  31.458  30.690  1.00  0.00     0.037 A 
ATOM     50  C   UNL A   1      44.816  31.346  29.617  1.00  0.00     0.049 A 
ATOM     51  C   UNL A   1      39.284  32.250  31.130  1.00  0.00     0.074 A 
ATOM     52  C   UNL A   1      45.486  30.531  30.502  1.00  0.00     0.029 A 
ATOM     53  N   UNL A   1      43.852  32.011  30.327  1.00  0.00    -0.354 N 
ATOM     54  N   UNL A   1      40.015  31.947  32.165  1.00  0.00    -0.248 NA
ATOM     55  C   UNL A   1      39.881  33.192  30.195  1.00  0.00     0.031 C 
ATOM     56  C   UNL A   1      44.695  30.524  31.691  1.00  0.00     0.029 A 
ATOM     57  C   UNL A   1      43.611  31.384  31.516  1.00  0.00     0.049 A 
ATOM     58  H   UNL A   1      43.395  32.828  30.023  1.00  0.00     0.167 HD
ATOM     59  C   UNL A   1      41.300  32.284  31.784  1.00  0.00     0.074 A 
ATOM     60  C   UNL A   1      41.134  33.195  30.657  1.00  0.00     0.031 C 
ATOM     61  C   UNL A   1      42.358  31.541  32.221  1.00  0.00     0.037 A 
BRANCH  48  62
ATOM     62  C   UNL A   1      44.773  32.757  27.465  1.00  0.00     0.064 A 
ATOM     63  C   UNL A   1      45.972  33.036  26.766  1.00  0.00     0.173 A 
ATOM     64  C   UNL A   1      43.950  33.879  27.701  1.00  0.00     0.173 A 
ATOM     65  F   UNL A   1      46.842  32.055  26.480  1.00  0.00    -0.203 F 
ATOM     66  C   UNL A   1      46.359  34.339  26.436  1.00  0.00     0.198 A 
ATOM     67  C   UNL A   1      44.318  35.173  27.328  1.00  0.00     0.198 A 
ATOM     68  F   UNL A   1      42.808  33.802  28.390  1.00  0.00    -0.203 F 
ATOM     69  F   UNL A   1      47.567  34.560  25.900  1.00  0.00    -0.200 F 
ATOM     70  C   UNL A   1      45.536  35.409  26.729  1.00  0.00     0.200 A 
ATOM     71  F   UNL A   1      43.513  36.199  27.636  1.00  0.00    -0.200 F 
ATOM     72  F   UNL A   1      45.931  36.664  26.478  1.00  0.00    -0.200 F 
ENDBRANCH  48  62
BRANCH  49  73
ATOM     73  C   UNL A   1      36.765  32.063  30.574  1.00  0.00     0.064 A 
ATOM     74  C   UNL A   1      35.899  32.131  31.680  1.00  0.00     0.173 A 
ATOM     75  C   UNL A   1      36.420  32.855  29.463  1.00  0.00     0.173 A 
ATOM     76  F   UNL A   1      36.172  31.439  32.796  1.00  0.00    -0.203 F 
ATOM     77  C   UNL A   1      34.780  32.972  31.689  1.00  0.00     0.198 A 
ATOM     78  C   UNL A   1      35.301  33.690  29.472  1.00  0.00     0.198 A 
ATOM     79  F   UNL A   1      37.220  32.909  28.388  1.00  0.00    -0.203 F 
ATOM     80  F   UNL A   1      34.019  33.063  32.790  1.00  0.00    -0.200 F 
ATOM     81  C   UNL A   1      34.490  33.762  30.589  1.00  0.00     0.200 A 
ATOM     82  F   UNL A   1      35.053  34.479  28.417  1.00  0.00    -0.200 F 
ATOM     83  F   UNL A   1      33.462  34.620  30.623  1.00  0.00    -0.200 F 
ENDBRANCH  49  73
BRANCH  61  84
ATOM     84  C   UNL A   1      42.148  30.692  33.441  1.00  0.00     0.064 A 
ATOM     85  C   UNL A   1      42.148  31.167  34.762  1.00  0.00     0.173 A 
ATOM     86  C   UNL A   1      41.831  29.341  33.238  1.00  0.00     0.173 A 
ATOM     87  F   UNL A   1      42.360  32.461  35.034  1.00  0.00    -0.203 F 
ATOM     88  C   UNL A   1      41.879  30.315  35.833  1.00  0.00     0.198 A 
ATOM     89  C   UNL A   1      41.521  28.504  34.304  1.00  0.00     0.198 A 
ATOM     90  F   UNL A   1      41.776  28.844  31.993  1.00  0.00    -0.203 F 
ATOM     91  F   UNL A   1      41.903  30.784  37.089  1.00  0.00    -0.200 F 
ATOM     92  C   UNL A   1      41.557  28.988  35.601  1.00  0.00     0.200 A 
ATOM     93  F   UNL A   1      41.165  27.234  34.068  1.00  0.00    -0.200 F 
ATOM     94  F   UNL A   1      41.257  28.177  36.626  1.00  0.00    -0.200 F 
ENDBRANCH  61  84
ENDBRANCH  35  36
ENDBRANCH  27  30
ENDBRANCH  25  26
ENDBRANCH   1  25
TORSDOF 12
ENDMDL
MODEL 3
REMARK VINA RESULT:     -13.6      2.978      8.610
REMARK SMILES C[C@@H]1C(C(=O)NCCCCNC(=O)c2ccc(-c3c4nc(c(-c5c(F)c(F)c(F)c(F)c5F)c5ccc([nH]5)c(-c5c(F)c(F)c(F)c(F)c5F)c5nc(c(-c6c(F)c(F)c(F)c(F)c6F)c6ccc3[nH]6)C=C5)C=C4)cc2)=NC2=C1C(=O)C[C@H](c1ccccc1)C2
REMARK SMILES IDX 9 1 8 2 7 3 6 4 4 5 5 6 3 8 1 9 2 10 79 11 77 12 78 13 80 14
REMARK SMILES IDX 90 15 81 16 82 17 83 18 84 19 85 20 89 21 86 22 88 23 87 24
REMARK SMILES IDX 10 25 11 26 12 27 13 29 14 30 15 31 76 32 16 33 75 34 17 35
REMARK SMILES IDX 18 36 19 37 69 38 20 39 74 40 68 41 70 42 21 43 73 44 67 45
REMARK SMILES IDX 66 46 22 48 54 49 34 50 53 51 35 52 38 53 52 54 71 55 36 56
REMARK SMILES IDX 37 57 51 59 72 60 39 61 23 62 24 63 32 64 25 65 26 66 30 67
REMARK SMILES IDX 33 68 27 69 28 70 31 71 29 72 55 73 56 74 64 75 57 76 58 77
REMARK SMILES IDX 62 78 65 79 59 80 60 81 63 82 61 83 40 84 41 85 49 86 42 87
REMARK SMILES IDX 43 88 47 89 50 90 44 91 45 92 48 93 46 94
REMARK H PARENT 6 7 11 28 70 47 38 58
REMARK Flexibility Score: inf
ROOT
ATOM      1  C   UNL A   1      33.392  28.652  27.177  1.00  0.00     0.023 C 
ENDROOT
BRANCH   1   2
ATOM      2  C   UNL A   1      33.175  27.883  25.876  1.00  0.00     0.023 C 
BRANCH   2   3
ATOM      3  C   UNL A   1      33.592  26.413  25.772  1.00  0.00     0.116 C 
BRANCH   3   4
ATOM      4  N   UNL A   1      34.227  25.945  24.554  1.00  0.00    -0.351 N 
ATOM      5  C   UNL A   1      33.712  25.118  23.555  1.00  0.00     0.266 C 
ATOM      6  O   UNL A   1      34.165  25.213  22.418  1.00  0.00    -0.268 OA
ATOM      7  H   UNL A   1      35.152  26.255  24.412  1.00  0.00     0.163 HD
BRANCH   5   8
ATOM      8  C   UNL A   1      32.733  23.980  23.864  1.00  0.00     0.113 C 
ATOM      9  C   UNL A   1      30.295  23.968  23.309  1.00  0.00     0.020 C 
ATOM     10  C   UNL A   1      31.342  24.176  24.406  1.00  0.00     0.076 C 
ATOM     11  C   UNL A   1      31.481  22.964  25.272  1.00  0.00     0.026 C 
ATOM     12  N   UNL A   1      33.088  22.722  23.758  1.00  0.00    -0.251 NA
ATOM     13  C   UNL A   1      32.287  22.078  24.681  1.00  0.00     0.049 C 
ATOM     14  C   UNL A   1      31.636  23.051  26.745  1.00  0.00     0.161 C 
ATOM     15  C   UNL A   1      32.790  20.884  25.442  1.00  0.00     0.065 C 
ATOM     16  O   UNL A   1      30.864  23.770  27.380  1.00  0.00    -0.294 OA
ATOM     17  C   UNL A   1      32.840  22.365  27.432  1.00  0.00     0.089 C 
ATOM     18  C   UNL A   1      33.714  21.405  26.556  1.00  0.00     0.033 C 
BRANCH  18  19
ATOM     19  C   UNL A   1      35.045  21.964  26.008  1.00  0.00    -0.044 A 
ATOM     20  C   UNL A   1      35.825  21.204  25.107  1.00  0.00     0.004 A 
ATOM     21  C   UNL A   1      35.538  23.228  26.352  1.00  0.00     0.004 A 
ATOM     22  C   UNL A   1      36.922  21.746  24.437  1.00  0.00     0.000 A 
ATOM     23  C   UNL A   1      36.663  23.762  25.707  1.00  0.00     0.000 A 
ATOM     24  C   UNL A   1      37.330  23.038  24.722  1.00  0.00     0.000 A 
ENDBRANCH  18  19
ENDBRANCH   5   8
ENDBRANCH   3   4
ENDBRANCH   2   3
ENDBRANCH   1   2
BRANCH   1  25
ATOM     25  C   UNL A   1      34.598  29.576  27.208  1.00  0.00     0.116 C 
BRANCH  25  26
ATOM     26  N   UNL A   1      34.351  30.877  27.818  1.00  0.00    -0.352 N 
ATOM     27  C   UNL A   1      35.007  31.427  28.910  1.00  0.00     0.251 C 
ATOM     28  H   UNL A   1      33.642  31.425  27.412  1.00  0.00     0.163 HD
ATOM     29  O   UNL A   1      34.532  32.366  29.524  1.00  0.00    -0.269 OA
BRANCH  27  30
ATOM     30  C   UNL A   1      36.304  30.848  29.327  1.00  0.00     0.039 A 
ATOM     31  C   UNL A   1      36.387  29.524  29.769  1.00  0.00     0.014 A 
ATOM     32  C   UNL A   1      37.448  31.642  29.251  1.00  0.00     0.014 A 
ATOM     33  C   UNL A   1      37.641  28.983  30.045  1.00  0.00     0.010 A 
ATOM     34  C   UNL A   1      38.692  31.078  29.410  1.00  0.00     0.010 A 
ATOM     35  C   UNL A   1      38.795  29.757  29.834  1.00  0.00    -0.014 A 
BRANCH  35  36
ATOM     36  C   UNL A   1      40.117  29.132  29.864  1.00  0.00     0.031 A 
ATOM     37  C   UNL A   1      40.664  28.987  31.244  1.00  0.00     0.074 A 
ATOM     38  C   UNL A   1      40.683  28.535  28.790  1.00  0.00     0.049 A 
ATOM     39  N   UNL A   1      41.717  29.549  31.738  1.00  0.00    -0.248 NA
ATOM     40  C   UNL A   1      39.865  28.258  32.245  1.00  0.00     0.031 C 
ATOM     41  C   UNL A   1      40.087  28.340  27.463  1.00  0.00     0.029 A 
ATOM     42  N   UNL A   1      41.875  27.877  28.677  1.00  0.00    -0.354 N 
ATOM     43  C   UNL A   1      41.830  29.081  33.048  1.00  0.00     0.074 A 
ATOM     44  C   UNL A   1      40.577  28.453  33.358  1.00  0.00     0.031 C 
ATOM     45  C   UNL A   1      40.803  27.428  26.770  1.00  0.00     0.029 A 
ATOM     46  C   UNL A   1      41.994  27.096  27.529  1.00  0.00     0.049 A 
ATOM     47  H   UNL A   1      42.590  27.949  29.350  1.00  0.00     0.167 HD
ATOM     48  C   UNL A   1      43.052  29.010  33.647  1.00  0.00     0.037 A 
ATOM     49  C   UNL A   1      42.992  26.227  27.229  1.00  0.00     0.037 A 
ATOM     50  C   UNL A   1      44.006  29.801  32.908  1.00  0.00     0.049 A 
ATOM     51  C   UNL A   1      44.150  26.589  28.074  1.00  0.00     0.074 A 
ATOM     52  C   UNL A   1      44.219  31.139  32.666  1.00  0.00     0.029 A 
ATOM     53  N   UNL A   1      44.681  29.102  31.942  1.00  0.00    -0.354 N 
ATOM     54  N   UNL A   1      44.833  27.689  27.932  1.00  0.00    -0.248 NA
ATOM     55  C   UNL A   1      44.335  25.895  29.340  1.00  0.00     0.031 C 
ATOM     56  C   UNL A   1      44.798  31.207  31.363  1.00  0.00     0.029 A 
ATOM     57  C   UNL A   1      44.981  29.910  30.884  1.00  0.00     0.049 A 
ATOM     58  H   UNL A   1      44.917  28.148  32.003  1.00  0.00     0.167 HD
ATOM     59  C   UNL A   1      45.158  28.056  29.224  1.00  0.00     0.074 A 
ATOM     60  C   UNL A   1      44.986  26.844  30.017  1.00  0.00     0.031 C 
ATOM     61  C   UNL A   1      45.224  29.377  29.562  1.00  0.00     0.037 A 
BRANCH  48  62
ATOM     62  C   UNL A   1      43.524  27.868  34.538  1.00  0.00     0.064 A 
ATOM     63  C   UNL A   1      43.483  26.551  34.022  1.00  0.00     0.173 A 
ATOM     64  C   UNL A   1      43.684  27.952  35.938  1.00  0.00     0.173 A 
ATOM     65  F   UNL A   1      43.333  26.335  32.706  1.00  0.00    -0.203 F 
ATOM     66  C   UNL A   1      43.487  25.424  34.850  1.00  0.00     0.198 A 
ATOM     67  C   UNL A   1      43.734  26.823  36.757  1.00  0.00     0.198 A 
ATOM     68  F   UNL A   1      43.692  29.117  36.593  1.00  0.00    -0.203 F 
ATOM     69  F   UNL A   1      43.304  24.206  34.321  1.00  0.00    -0.200 F 
ATOM     70  C   UNL A   1      43.600  25.562  36.220  1.00  0.00     0.200 A 
ATOM     71  F   UNL A   1      43.828  26.979  38.085  1.00  0.00    -0.200 F 
ATOM     72  F   UNL A   1      43.535  24.492  37.022  1.00  0.00    -0.200 F 
ENDBRANCH  48  62
BRANCH  49  73
ATOM     73  C   UNL A   1      42.967  24.968  26.442  1.00  0.00     0.064 A 
ATOM     74  C   UNL A   1      43.816  24.782  25.336  1.00  0.00     0.173 A 
ATOM     75  C   UNL A   1      42.333  23.815  26.941  1.00  0.00     0.173 A 
ATOM     76  F   UNL A   1      44.490  25.820  24.819  1.00  0.00    -0.203 F 
ATOM     77  C   UNL A   1      44.049  23.514  24.790  1.00  0.00     0.198 A 
ATOM     78  C   UNL A   1      42.563  22.551  26.393  1.00  0.00     0.198 A 
ATOM     79  F   UNL A   1      41.559  23.880  28.034  1.00  0.00    -0.203 F 
ATOM     80  F   UNL A   1      44.921  23.368  23.782  1.00  0.00    -0.200 F 
ATOM     81  C   UNL A   1      43.432  22.397  25.329  1.00  0.00     0.200 A 
ATOM     82  F   UNL A   1      41.992  21.472  26.948  1.00  0.00    -0.200 F 
ATOM     83  F   UNL A   1      43.710  21.175  24.855  1.00  0.00    -0.200 F 
ENDBRANCH  49  73
BRANCH  61  84
ATOM     84  C   UNL A   1      45.400  30.366  28.446  1.00  0.00     0.064 A 
ATOM     85  C   UNL A   1      44.352  30.993  27.754  1.00  0.00     0.173 A 
ATOM     86  C   UNL A   1      46.709  30.765  28.141  1.00  0.00     0.173 A 
ATOM     87  F   UNL A   1      43.072  30.728  28.045  1.00  0.00    -0.203 F 
ATOM     88  C   UNL A   1      44.610  31.950  26.772  1.00  0.00     0.198 A 
ATOM     89  C   UNL A   1      46.961  31.750  27.192  1.00  0.00     0.198 A 
ATOM     90  F   UNL A   1      47.747  30.228  28.801  1.00  0.00    -0.203 F 
ATOM     91  F   UNL A   1      43.595  32.524  26.109  1.00  0.00    -0.200 F 
ATOM     92  C   UNL A   1      45.913  32.334  26.500  1.00  0.00     0.200 A 
ATOM     93  F   UNL A   1      48.220  32.148  26.968  1.00  0.00    -0.200 F 
ATOM     94  F   UNL A   1      46.160  33.283  25.587  1.00  0.00    -0.200 F 
ENDBRANCH  61  84
ENDBRANCH  35  36
ENDBRANCH  27  30
ENDBRANCH  25  26
ENDBRANCH   1  25
TORSDOF 12
ENDMDL
