MODEL 1
REMARK VINA RESULT:     -11.5      0.000      0.000
REMARK SMILES CCN1CC(=O)N(C[C@@H]([NH3+])C(=O)NCCCCNC(=O)c2ccc(-c3c4nc(c(-c5c(F)c(F)c(F)c(F)c5F)c5ccc([nH]5)c(-c5c(F)c(F)c(F)c(F)c5F)c5nc(c(-c6c(F)c(F)c(F)c(F)c6F)c6ccc3[nH]6)C=C5)C=C4)cc2)CC1=O
REMARK SMILES IDX 15 1 14 2 13 3 11 4 12 5 9 7 8 8 7 9 3 10 4 11 85 12 5 13
REMARK SMILES IDX 84 14 86 15 6 16 2 17 1 18 10 19 16 23 17 24 18 25 19 26
REMARK SMILES IDX 20 28 21 29 22 30 83 31 23 32 82 33 24 34 25 35 26 36 76 37
REMARK SMILES IDX 27 38 81 39 75 40 77 41 28 42 80 43 74 44 73 45 29 47 61 48
REMARK SMILES IDX 41 49 60 50 42 51 45 52 59 53 78 54 43 55 44 56 58 58 79 59
REMARK SMILES IDX 46 60 30 61 31 62 39 63 32 64 33 65 37 66 40 67 34 68 35 69
REMARK SMILES IDX 38 70 36 71 62 72 63 73 71 74 64 75 65 76 69 77 72 78 66 79
REMARK SMILES IDX 67 80 70 81 68 82 47 83 48 84 56 85 49 86 50 87 54 88 57 89
REMARK SMILES IDX 51 90 52 91 55 92 53 93
REMARK H PARENT 13 6 10 20 10 21 10 22 18 27 77 46 45 57
REMARK Flexibility Score: inf
ROOT
ATOM      1  C   UNL A   1      31.549  30.788  26.675  1.00  0.00     0.023 C 
ENDROOT
BRANCH   1   2
ATOM      2  C   UNL A   1      31.333  30.151  25.300  1.00  0.00     0.116 C 
BRANCH   2   3
ATOM      3  N   UNL A   1      32.596  29.766  24.696  1.00  0.00    -0.351 N 
ATOM      4  C   UNL A   1      33.208  28.547  24.640  1.00  0.00     0.280 C 
ATOM      5  O   UNL A   1      34.288  28.478  24.047  1.00  0.00    -0.268 OA
ATOM      6  H   UNL A   1      33.086  30.499  24.257  1.00  0.00     0.163 HD
BRANCH   4   7
ATOM      7  C   UNL A   1      32.554  27.283  25.237  1.00  0.00     0.290 C 
BRANCH   7   8
ATOM      8  C   UNL A   1      31.923  26.420  24.122  1.00  0.00     0.195 C 
BRANCH   8   9
ATOM      9  N   UNL A   1      30.675  26.913  23.540  1.00  0.00    -0.325 N 
ATOM     10  N   UNL A   1      28.678  28.745  23.000  1.00  0.00    -0.332 N 
ATOM     11  C   UNL A   1      28.279  27.432  23.524  1.00  0.00     0.219 C 
ATOM     12  C   UNL A   1      29.813  28.815  22.190  1.00  0.00     0.242 C 
ATOM     13  C   UNL A   1      29.459  26.695  24.170  1.00  0.00     0.242 C 
ATOM     14  C   UNL A   1      30.699  27.571  22.235  1.00  0.00     0.220 C 
ATOM     15  O   UNL A   1      30.027  29.725  21.393  1.00  0.00    -0.273 OA
ATOM     16  O   UNL A   1      29.313  25.904  25.097  1.00  0.00    -0.273 OA
BRANCH  10  17
ATOM     17  C   UNL A   1      27.709  29.834  22.933  1.00  0.00     0.116 C 
ATOM     18  C   UNL A   1      28.122  31.090  23.682  1.00  0.00     0.027 C 
ENDBRANCH  10  17
ENDBRANCH   8   9
ENDBRANCH   7   8
BRANCH   7  19
ATOM     19  N   UNL A   1      33.540  26.600  26.117  1.00  0.00    -0.346 N 
ATOM     20  H   UNL A   1      33.709  27.171  26.945  1.00  0.00     0.345 HD
ATOM     21  H   UNL A   1      34.415  26.469  25.609  1.00  0.00     0.345 HD
ATOM     22  H   UNL A   1      33.171  25.692  26.400  1.00  0.00     0.345 HD
ENDBRANCH   7  19
ENDBRANCH   4   7
ENDBRANCH   2   3
ENDBRANCH   1   2
BRANCH   1  23
ATOM     23  C   UNL A   1      31.469  32.315  26.690  1.00  0.00     0.023 C 
BRANCH  23  24
ATOM     24  C   UNL A   1      32.698  33.019  27.248  1.00  0.00     0.116 C 
BRANCH  24  25
ATOM     25  N   UNL A   1      32.425  34.376  27.694  1.00  0.00    -0.352 N 
ATOM     26  C   UNL A   1      33.028  35.083  28.705  1.00  0.00     0.251 C 
ATOM     27  H   UNL A   1      31.714  34.851  27.206  1.00  0.00     0.163 HD
ATOM     28  O   UNL A   1      32.599  36.182  29.041  1.00  0.00    -0.269 OA
BRANCH  26  29
ATOM     29  C   UNL A   1      34.180  34.491  29.415  1.00  0.00     0.039 A 
ATOM     30  C   UNL A   1      33.950  33.759  30.582  1.00  0.00     0.014 A 
ATOM     31  C   UNL A   1      35.476  34.628  28.910  1.00  0.00     0.014 A 
ATOM     32  C   UNL A   1      35.014  33.103  31.205  1.00  0.00     0.010 A 
ATOM     33  C   UNL A   1      36.521  33.915  29.489  1.00  0.00     0.010 A 
ATOM     34  C   UNL A   1      36.299  33.144  30.641  1.00  0.00    -0.014 A 
BRANCH  34  35
ATOM     35  C   UNL A   1      37.429  32.392  31.241  1.00  0.00     0.031 A 
ATOM     36  C   UNL A   1      37.950  32.777  32.598  1.00  0.00     0.074 A 
ATOM     37  C   UNL A   1      38.025  31.407  30.541  1.00  0.00     0.049 A 
ATOM     38  N   UNL A   1      38.980  32.307  33.255  1.00  0.00    -0.248 NA
ATOM     39  C   UNL A   1      37.230  33.852  33.300  1.00  0.00     0.031 C 
ATOM     40  C   UNL A   1      37.635  30.965  29.201  1.00  0.00     0.029 A 
ATOM     41  N   UNL A   1      39.094  30.606  30.856  1.00  0.00    -0.354 N 
ATOM     42  C   UNL A   1      39.033  33.029  34.439  1.00  0.00     0.074 A 
ATOM     43  C   UNL A   1      37.972  34.011  34.386  1.00  0.00     0.031 C 
ATOM     44  C   UNL A   1      38.437  29.959  28.818  1.00  0.00     0.029 A 
ATOM     45  C   UNL A   1      39.424  29.712  29.865  1.00  0.00     0.049 A 
ATOM     46  H   UNL A   1      39.579  30.666  31.710  1.00  0.00     0.167 HD
ATOM     47  C   UNL A   1      39.871  32.868  35.489  1.00  0.00     0.037 A 
ATOM     48  C   UNL A   1      40.416  28.803  29.809  1.00  0.00     0.037 A 
ATOM     49  C   UNL A   1      40.917  31.880  35.548  1.00  0.00     0.049 A 
ATOM     50  C   UNL A   1      41.357  28.671  30.978  1.00  0.00     0.074 A 
ATOM     51  C   UNL A   1      41.805  31.621  36.578  1.00  0.00     0.029 A 
ATOM     52  N   UNL A   1      41.212  30.985  34.531  1.00  0.00    -0.354 N 
ATOM     53  N   UNL A   1      41.365  29.326  32.113  1.00  0.00    -0.248 NA
ATOM     54  C   UNL A   1      42.425  27.670  30.856  1.00  0.00     0.031 C 
ATOM     55  C   UNL A   1      42.661  30.594  36.169  1.00  0.00     0.029 A 
ATOM     56  C   UNL A   1      42.276  30.180  34.904  1.00  0.00     0.049 A 
ATOM     57  H   UNL A   1      40.736  30.929  33.670  1.00  0.00     0.167 HD
ATOM     58  C   UNL A   1      42.410  28.790  32.855  1.00  0.00     0.074 A 
ATOM     59  C   UNL A   1      43.005  27.749  32.045  1.00  0.00     0.031 C 
ATOM     60  C   UNL A   1      42.840  29.131  34.095  1.00  0.00     0.037 A 
BRANCH  47  61
ATOM     61  C   UNL A   1      39.681  33.772  36.673  1.00  0.00     0.064 A 
ATOM     62  C   UNL A   1      40.295  35.032  36.735  1.00  0.00     0.173 A 
ATOM     63  C   UNL A   1      38.846  33.396  37.736  1.00  0.00     0.173 A 
ATOM     64  F   UNL A   1      41.113  35.433  35.750  1.00  0.00    -0.203 F 
ATOM     65  C   UNL A   1      40.101  35.872  37.828  1.00  0.00     0.198 A 
ATOM     66  C   UNL A   1      38.630  34.251  38.813  1.00  0.00     0.198 A 
ATOM     67  F   UNL A   1      38.231  32.204  37.725  1.00  0.00    -0.203 F 
ATOM     68  F   UNL A   1      40.735  37.051  37.886  1.00  0.00    -0.200 F 
ATOM     69  C   UNL A   1      39.262  35.485  38.863  1.00  0.00     0.200 A 
ATOM     70  F   UNL A   1      37.810  33.881  39.806  1.00  0.00    -0.200 F 
ATOM     71  F   UNL A   1      39.069  36.297  39.910  1.00  0.00    -0.200 F 
ENDBRANCH  47  61
BRANCH  48  72
ATOM     72  C   UNL A   1      40.568  27.929  28.615  1.00  0.00     0.064 A 
ATOM     73  C   UNL A   1      41.345  28.340  27.521  1.00  0.00     0.173 A 
ATOM     74  C   UNL A   1      39.917  26.691  28.524  1.00  0.00     0.173 A 
ATOM     75  F   UNL A   1      41.969  29.527  27.552  1.00  0.00    -0.203 F 
ATOM     76  C   UNL A   1      41.437  27.561  26.371  1.00  0.00     0.198 A 
ATOM     77  C   UNL A   1      40.035  25.898  27.384  1.00  0.00     0.198 A 
ATOM     78  F   UNL A   1      39.166  26.250  29.543  1.00  0.00    -0.203 F 
ATOM     79  F   UNL A   1      42.136  28.005  25.318  1.00  0.00    -0.200 F 
ATOM     80  C   UNL A   1      40.785  26.339  26.304  1.00  0.00     0.200 A 
ATOM     81  F   UNL A   1      39.414  24.712  27.329  1.00  0.00    -0.200 F 
ATOM     82  F   UNL A   1      40.869  25.592  25.194  1.00  0.00    -0.200 F 
ENDBRANCH  48  72
BRANCH  60  83
ATOM     83  C   UNL A   1      43.972  28.335  34.674  1.00  0.00     0.064 A 
ATOM     84  C   UNL A   1      43.751  27.152  35.393  1.00  0.00     0.173 A 
ATOM     85  C   UNL A   1      45.300  28.743  34.470  1.00  0.00     0.173 A 
ATOM     86  F   UNL A   1      42.500  26.729  35.628  1.00  0.00    -0.203 F 
ATOM     87  C   UNL A   1      44.816  26.420  35.910  1.00  0.00     0.198 A 
ATOM     88  C   UNL A   1      46.363  27.993  34.962  1.00  0.00     0.198 A 
ATOM     89  F   UNL A   1      45.565  29.864  33.783  1.00  0.00    -0.203 F 
ATOM     90  F   UNL A   1      44.581  25.319  36.636  1.00  0.00    -0.200 F 
ATOM     91  C   UNL A   1      46.121  26.837  35.688  1.00  0.00     0.200 A 
ATOM     92  F   UNL A   1      47.623  28.390  34.734  1.00  0.00    -0.200 F 
ATOM     93  F   UNL A   1      47.146  26.126  36.179  1.00  0.00    -0.200 F 
ENDBRANCH  60  83
ENDBRANCH  34  35
ENDBRANCH  26  29
ENDBRANCH  24  25
ENDBRANCH  23  24
ENDBRANCH   1  23
TORSDOF 15
ENDMDL
MODEL 2
REMARK VINA RESULT:     -11.5      0.521      7.631
REMARK SMILES CCN1CC(=O)N(C[C@@H]([NH3+])C(=O)NCCCCNC(=O)c2ccc(-c3c4nc(c(-c5c(F)c(F)c(F)c(F)c5F)c5ccc([nH]5)c(-c5c(F)c(F)c(F)c(F)c5F)c5nc(c(-c6c(F)c(F)c(F)c(F)c6F)c6ccc3[nH]6)C=C5)C=C4)cc2)CC1=O
REMARK SMILES IDX 15 1 14 2 13 3 11 4 12 5 9 7 8 8 7 9 3 10 4 11 85 12 5 13
REMARK SMILES IDX 84 14 86 15 6 16 2 17 1 18 10 19 16 23 17 24 18 25 19 26
REMARK SMILES IDX 20 28 21 29 22 30 83 31 23 32 82 33 24 34 25 35 26 36 76 37
REMARK SMILES IDX 27 38 81 39 75 40 77 41 28 42 80 43 74 44 73 45 29 47 61 48
REMARK SMILES IDX 41 49 60 50 42 51 45 52 59 53 78 54 43 55 44 56 58 58 79 59
REMARK SMILES IDX 46 60 30 61 31 62 39 63 32 64 33 65 37 66 40 67 34 68 35 69
REMARK SMILES IDX 38 70 36 71 62 72 63 73 71 74 64 75 65 76 69 77 72 78 66 79
REMARK SMILES IDX 67 80 70 81 68 82 47 83 48 84 56 85 49 86 50 87 54 88 57 89
REMARK SMILES IDX 51 90 52 91 55 92 53 93
REMARK H PARENT 13 6 10 20 10 21 10 22 18 27 77 46 45 57
REMARK Flexibility Score: inf
ROOT
ATOM      1  C   UNL A   1      31.784  30.548  26.642  1.00  0.00     0.023 C 
ENDROOT
BRANCH   1   2
ATOM      2  C   UNL A   1      31.494  30.042  25.227  1.00  0.00     0.116 C 
BRANCH   2   3
ATOM      3  N   UNL A   1      32.718  29.666  24.543  1.00  0.00    -0.351 N 
ATOM      4  C   UNL A   1      33.335  28.451  24.449  1.00  0.00     0.280 C 
ATOM      5  O   UNL A   1      34.375  28.389  23.787  1.00  0.00    -0.268 OA
ATOM      6  H   UNL A   1      33.174  30.401  24.073  1.00  0.00     0.163 HD
BRANCH   4   7
ATOM      7  C   UNL A   1      32.730  27.183  25.088  1.00  0.00     0.290 C 
BRANCH   7   8
ATOM      8  C   UNL A   1      32.013  26.326  24.021  1.00  0.00     0.195 C 
BRANCH   8   9
ATOM      9  N   UNL A   1      30.761  26.860  23.485  1.00  0.00    -0.325 N 
ATOM     10  N   UNL A   1      28.810  28.759  23.013  1.00  0.00    -0.332 N 
ATOM     11  C   UNL A   1      28.386  27.464  23.563  1.00  0.00     0.219 C 
ATOM     12  C   UNL A   1      29.913  28.783  22.157  1.00  0.00     0.242 C 
ATOM     13  C   UNL A   1      29.564  26.690  24.166  1.00  0.00     0.242 C 
ATOM     14  C   UNL A   1      30.756  27.509  22.175  1.00  0.00     0.220 C 
ATOM     15  O   UNL A   1      30.126  29.680  21.345  1.00  0.00    -0.273 OA
ATOM     16  O   UNL A   1      29.428  25.910  25.104  1.00  0.00    -0.273 OA
BRANCH  10  17
ATOM     17  C   UNL A   1      27.878  29.882  22.976  1.00  0.00     0.116 C 
ATOM     18  C   UNL A   1      28.352  31.116  23.726  1.00  0.00     0.027 C 
ENDBRANCH  10  17
ENDBRANCH   8   9
ENDBRANCH   7   8
BRANCH   7  19
ATOM     19  N   UNL A   1      33.782  26.495  25.883  1.00  0.00    -0.346 N 
ATOM     20  H   UNL A   1      34.475  26.091  25.252  1.00  0.00     0.345 HD
ATOM     21  H   UNL A   1      33.357  25.755  26.441  1.00  0.00     0.345 HD
ATOM     22  H   UNL A   1      34.236  27.168  26.500  1.00  0.00     0.345 HD
ENDBRANCH   7  19
ENDBRANCH   4   7
ENDBRANCH   2   3
ENDBRANCH   1   2
BRANCH   1  23
ATOM     23  C   UNL A   1      31.537  32.042  26.847  1.00  0.00     0.023 C 
BRANCH  23  24
ATOM     24  C   UNL A   1      32.733  32.827  27.369  1.00  0.00     0.116 C 
BRANCH  24  25
ATOM     25  N   UNL A   1      32.417  34.213  27.677  1.00  0.00    -0.352 N 
ATOM     26  C   UNL A   1      32.993  35.037  28.612  1.00  0.00     0.251 C 
ATOM     27  H   UNL A   1      31.692  34.614  27.143  1.00  0.00     0.163 HD
ATOM     28  O   UNL A   1      32.529  36.149  28.836  1.00  0.00    -0.269 OA
BRANCH  26  29
ATOM     29  C   UNL A   1      34.160  34.555  29.379  1.00  0.00     0.039 A 
ATOM     30  C   UNL A   1      33.954  33.995  30.642  1.00  0.00     0.014 A 
ATOM     31  C   UNL A   1      35.447  34.623  28.837  1.00  0.00     0.014 A 
ATOM     32  C   UNL A   1      35.031  33.438  31.333  1.00  0.00     0.010 A 
ATOM     33  C   UNL A   1      36.505  34.003  29.493  1.00  0.00     0.010 A 
ATOM     34  C   UNL A   1      36.307  33.402  30.746  1.00  0.00    -0.014 A 
BRANCH  34  35
ATOM     35  C   UNL A   1      37.451  32.747  31.427  1.00  0.00     0.031 A 
ATOM     36  C   UNL A   1      38.162  31.599  30.765  1.00  0.00     0.074 A 
ATOM     37  C   UNL A   1      37.811  33.144  32.664  1.00  0.00     0.049 A 
ATOM     38  N   UNL A   1      39.120  30.838  31.229  1.00  0.00    -0.248 NA
ATOM     39  C   UNL A   1      37.716  31.242  29.409  1.00  0.00     0.031 C 
ATOM     40  C   UNL A   1      37.177  34.221  33.425  1.00  0.00     0.029 A 
ATOM     41  N   UNL A   1      38.792  32.678  33.503  1.00  0.00    -0.354 N 
ATOM     42  C   UNL A   1      39.387  29.915  30.227  1.00  0.00     0.074 A 
ATOM     43  C   UNL A   1      38.450  30.169  29.156  1.00  0.00     0.031 C 
ATOM     44  C   UNL A   1      37.798  34.349  34.609  1.00  0.00     0.029 A 
ATOM     45  C   UNL A   1      38.846  33.337  34.708  1.00  0.00     0.049 A 
ATOM     46  H   UNL A   1      39.399  31.940  33.265  1.00  0.00     0.167 HD
ATOM     47  C   UNL A   1      40.348  28.963  30.191  1.00  0.00     0.037 A 
ATOM     48  C   UNL A   1      39.646  33.138  35.773  1.00  0.00     0.037 A 
ATOM     49  C   UNL A   1      41.291  28.722  31.252  1.00  0.00     0.049 A 
ATOM     50  C   UNL A   1      40.681  32.046  35.719  1.00  0.00     0.074 A 
ATOM     51  C   UNL A   1      42.318  27.796  31.302  1.00  0.00     0.029 A 
ATOM     52  N   UNL A   1      41.322  29.418  32.451  1.00  0.00    -0.354 N 
ATOM     53  N   UNL A   1      40.957  31.213  34.745  1.00  0.00    -0.248 NA
ATOM     54  C   UNL A   1      41.518  31.871  36.913  1.00  0.00     0.031 C 
ATOM     55  C   UNL A   1      42.947  27.906  32.546  1.00  0.00     0.029 A 
ATOM     56  C   UNL A   1      42.343  28.934  33.252  1.00  0.00     0.049 A 
ATOM     57  H   UNL A   1      40.709  30.149  32.697  1.00  0.00     0.167 HD
ATOM     58  C   UNL A   1      42.023  30.443  35.193  1.00  0.00     0.074 A 
ATOM     59  C   UNL A   1      42.350  30.916  36.521  1.00  0.00     0.031 C 
ATOM     60  C   UNL A   1      42.671  29.434  34.562  1.00  0.00     0.037 A 
BRANCH  47  61
ATOM     61  C   UNL A   1      40.440  28.118  28.954  1.00  0.00     0.064 A 
ATOM     62  C   UNL A   1      39.737  26.908  28.843  1.00  0.00     0.173 A 
ATOM     63  C   UNL A   1      41.201  28.537  27.852  1.00  0.00     0.173 A 
ATOM     64  F   UNL A   1      39.005  26.457  29.873  1.00  0.00    -0.203 F 
ATOM     65  C   UNL A   1      39.814  26.137  27.687  1.00  0.00     0.198 A 
ATOM     66  C   UNL A   1      41.251  27.778  26.686  1.00  0.00     0.198 A 
ATOM     67  F   UNL A   1      41.888  29.688  27.904  1.00  0.00    -0.203 F 
ATOM     68  F   UNL A   1      39.171  24.963  27.622  1.00  0.00    -0.200 F 
ATOM     69  C   UNL A   1      40.564  26.576  26.606  1.00  0.00     0.200 A 
ATOM     70  F   UNL A   1      41.965  28.211  25.638  1.00  0.00    -0.200 F 
ATOM     71  F   UNL A   1      40.629  25.838  25.490  1.00  0.00    -0.200 F 
ENDBRANCH  47  61
BRANCH  48  72
ATOM     72  C   UNL A   1      39.519  33.999  36.979  1.00  0.00     0.064 A 
ATOM     73  C   UNL A   1      38.763  33.578  38.084  1.00  0.00     0.173 A 
ATOM     74  C   UNL A   1      40.112  35.268  37.042  1.00  0.00     0.173 A 
ATOM     75  F   UNL A   1      38.157  32.381  38.062  1.00  0.00    -0.203 F 
ATOM     76  C   UNL A   1      38.580  34.405  39.189  1.00  0.00     0.198 A 
ATOM     77  C   UNL A   1      39.954  36.082  38.161  1.00  0.00     0.198 A 
ATOM     78  F   UNL A   1      40.848  35.717  36.015  1.00  0.00    -0.203 F 
ATOM     79  F   UNL A   1      37.803  34.002  40.203  1.00  0.00    -0.200 F 
ATOM     80  C   UNL A   1      39.179  35.655  39.229  1.00  0.00     0.200 A 
ATOM     81  F   UNL A   1      40.545  37.284  38.201  1.00  0.00    -0.200 F 
ATOM     82  F   UNL A   1      38.997  36.453  40.290  1.00  0.00    -0.200 F 
ENDBRANCH  48  72
BRANCH  60  83
ATOM     83  C   UNL A   1      43.834  28.810  35.276  1.00  0.00     0.064 A 
ATOM     84  C   UNL A   1      45.138  29.308  35.139  1.00  0.00     0.173 A 
ATOM     85  C   UNL A   1      43.633  27.723  36.141  1.00  0.00     0.173 A 
ATOM     86  F   UNL A   1      45.385  30.334  34.311  1.00  0.00    -0.203 F 
ATOM     87  C   UNL A   1      46.201  28.724  35.821  1.00  0.00     0.198 A 
ATOM     88  C   UNL A   1      44.693  27.161  36.845  1.00  0.00     0.198 A 
ATOM     89  F   UNL A   1      42.403  27.214  36.312  1.00  0.00    -0.203 F 
ATOM     90  F   UNL A   1      47.447  29.184  35.638  1.00  0.00    -0.200 F 
ATOM     91  C   UNL A   1      45.977  27.656  36.678  1.00  0.00     0.200 A 
ATOM     92  F   UNL A   1      44.472  26.139  37.683  1.00  0.00    -0.200 F 
ATOM     93  F   UNL A   1      47.001  27.101  37.341  1.00  0.00    -0.200 F 
ENDBRANCH  60  83
ENDBRANCH  34  35
ENDBRANCH  26  29
ENDBRANCH  24  25
ENDBRANCH  23  24
ENDBRANCH   1  23
TORSDOF 15
ENDMDL
MODEL 3
REMARK VINA RESULT:     -11.4      1.036      7.932
REMARK SMILES CCN1CC(=O)N(C[C@@H]([NH3+])C(=O)NCCCCNC(=O)c2ccc(-c3c4nc(c(-c5c(F)c(F)c(F)c(F)c5F)c5ccc([nH]5)c(-c5c(F)c(F)c(F)c(F)c5F)c5nc(c(-c6c(F)c(F)c(F)c(F)c6F)c6ccc3[nH]6)C=C5)C=C4)cc2)CC1=O
REMARK SMILES IDX 15 1 14 2 13 3 11 4 12 5 9 7 8 8 7 9 3 10 4 11 85 12 5 13
REMARK SMILES IDX 84 14 86 15 6 16 2 17 1 18 10 19 16 23 17 24 18 25 19 26
REMARK SMILES IDX 20 28 21 29 22 30 83 31 23 32 82 33 24 34 25 35 26 36 76 37
REMARK SMILES IDX 27 38 81 39 75 40 77 41 28 42 80 43 74 44 73 45 29 47 61 48
REMARK SMILES IDX 41 49 60 50 42 51 45 52 59 53 78 54 43 55 44 56 58 58 79 59
REMARK SMILES IDX 46 60 30 61 31 62 39 63 32 64 33 65 37 66 40 67 34 68 35 69
REMARK SMILES IDX 38 70 36 71 62 72 63 73 71 74 64 75 65 76 69 77 72 78 66 79
REMARK SMILES IDX 67 80 70 81 68 82 47 83 48 84 56 85 49 86 50 87 54 88 57 89
REMARK SMILES IDX 51 90 52 91 55 92 53 93
REMARK H PARENT 13 6 10 20 10 21 10 22 18 27 77 46 45 57
REMARK Flexibility Score: inf
ROOT
ATOM      1  C   UNL A   1      32.106  30.471  26.791  1.00  0.00     0.023 C 
ENDROOT
BRANCH   1   2
ATOM      2  C   UNL A   1      31.764  29.928  25.402  1.00  0.00     0.116 C 
BRANCH   2   3
ATOM      3  N   UNL A   1      30.555  30.540  24.882  1.00  0.00    -0.351 N 
ATOM      4  C   UNL A   1      29.942  30.385  23.671  1.00  0.00     0.280 C 
ATOM      5  O   UNL A   1      28.900  31.017  23.475  1.00  0.00    -0.268 OA
ATOM      6  H   UNL A   1      30.106  31.163  25.499  1.00  0.00     0.163 HD
BRANCH   4   7
ATOM      7  C   UNL A   1      30.486  29.411  22.605  1.00  0.00     0.290 C 
BRANCH   7   8
ATOM      8  C   UNL A   1      29.720  28.071  22.652  1.00  0.00     0.195 C 
BRANCH   8   9
ATOM      9  N   UNL A   1      30.378  26.965  23.349  1.00  0.00    -0.325 N 
ATOM     10  N   UNL A   1      32.200  25.759  25.040  1.00  0.00    -0.332 N 
ATOM     11  C   UNL A   1      32.092  25.242  23.669  1.00  0.00     0.219 C 
ATOM     12  C   UNL A   1      31.053  26.279  25.641  1.00  0.00     0.242 C 
ATOM     13  C   UNL A   1      31.390  26.239  22.740  1.00  0.00     0.242 C 
ATOM     14  C   UNL A   1      29.906  26.566  24.674  1.00  0.00     0.220 C 
ATOM     15  O   UNL A   1      30.903  26.372  26.858  1.00  0.00    -0.273 OA
ATOM     16  O   UNL A   1      31.639  26.307  21.539  1.00  0.00    -0.273 OA
BRANCH  10  17
ATOM     17  C   UNL A   1      33.305  25.341  25.898  1.00  0.00     0.116 C 
ATOM     18  C   UNL A   1      34.557  24.918  25.148  1.00  0.00     0.027 C 
ENDBRANCH  10  17
ENDBRANCH   8   9
ENDBRANCH   7   8
BRANCH   7  19
ATOM     19  N   UNL A   1      30.515  30.104  21.289  1.00  0.00    -0.346 N 
ATOM     20  H   UNL A   1      29.650  29.910  20.784  1.00  0.00     0.345 HD
ATOM     21  H   UNL A   1      31.309  29.767  20.745  1.00  0.00     0.345 HD
ATOM     22  H   UNL A   1      30.605  31.110  21.436  1.00  0.00     0.345 HD
ENDBRANCH   7  19
ENDBRANCH   4   7
ENDBRANCH   2   3
ENDBRANCH   1   2
BRANCH   1  23
ATOM     23  C   UNL A   1      31.757  31.945  27.002  1.00  0.00     0.023 C 
BRANCH  23  24
ATOM     24  C   UNL A   1      32.945  32.851  27.297  1.00  0.00     0.116 C 
BRANCH  24  25
ATOM     25  N   UNL A   1      32.552  34.194  27.694  1.00  0.00    -0.352 N 
ATOM     26  C   UNL A   1      33.068  34.976  28.699  1.00  0.00     0.251 C 
ATOM     27  H   UNL A   1      31.820  34.597  27.173  1.00  0.00     0.163 HD
ATOM     28  O   UNL A   1      32.543  36.046  28.990  1.00  0.00    -0.269 OA
BRANCH  26  29
ATOM     29  C   UNL A   1      34.242  34.498  29.457  1.00  0.00     0.039 A 
ATOM     30  C   UNL A   1      34.041  33.878  30.693  1.00  0.00     0.014 A 
ATOM     31  C   UNL A   1      35.531  34.628  28.933  1.00  0.00     0.014 A 
ATOM     32  C   UNL A   1      35.128  33.325  31.371  1.00  0.00     0.010 A 
ATOM     33  C   UNL A   1      36.601  34.014  29.574  1.00  0.00     0.010 A 
ATOM     34  C   UNL A   1      36.410  33.354  30.798  1.00  0.00    -0.014 A 
BRANCH  34  35
ATOM     35  C   UNL A   1      37.568  32.706  31.463  1.00  0.00     0.031 A 
ATOM     36  C   UNL A   1      38.276  31.562  30.791  1.00  0.00     0.074 A 
ATOM     37  C   UNL A   1      37.942  33.105  32.694  1.00  0.00     0.049 A 
ATOM     38  N   UNL A   1      39.245  30.807  31.241  1.00  0.00    -0.248 NA
ATOM     39  C   UNL A   1      37.813  31.202  29.441  1.00  0.00     0.031 C 
ATOM     40  C   UNL A   1      37.313  34.179  33.464  1.00  0.00     0.029 A 
ATOM     41  N   UNL A   1      38.937  32.645  33.519  1.00  0.00    -0.354 N 
ATOM     42  C   UNL A   1      39.504  29.886  30.236  1.00  0.00     0.074 A 
ATOM     43  C   UNL A   1      38.550  30.133  29.177  1.00  0.00     0.031 C 
ATOM     44  C   UNL A   1      37.950  34.310  34.639  1.00  0.00     0.029 A 
ATOM     45  C   UNL A   1      39.004  33.304  34.724  1.00  0.00     0.049 A 
ATOM     46  H   UNL A   1      39.545  31.911  33.273  1.00  0.00     0.167 HD
ATOM     47  C   UNL A   1      40.470  28.939  30.186  1.00  0.00     0.037 A 
ATOM     48  C   UNL A   1      39.820  33.111  35.777  1.00  0.00     0.037 A 
ATOM     49  C   UNL A   1      41.428  28.704  31.234  1.00  0.00     0.049 A 
ATOM     50  C   UNL A   1      40.861  32.024  35.709  1.00  0.00     0.074 A 
ATOM     51  C   UNL A   1      42.462  27.783  31.269  1.00  0.00     0.029 A 
ATOM     52  N   UNL A   1      41.472  29.400  32.432  1.00  0.00    -0.354 N 
ATOM     53  N   UNL A   1      41.129  31.193  34.731  1.00  0.00    -0.248 NA
ATOM     54  C   UNL A   1      41.716  31.854  36.891  1.00  0.00     0.031 C 
ATOM     55  C   UNL A   1      43.107  27.898  32.504  1.00  0.00     0.029 A 
ATOM     56  C   UNL A   1      42.507  28.922  33.219  1.00  0.00     0.049 A 
ATOM     57  H   UNL A   1      40.858  30.127  32.687  1.00  0.00     0.167 HD
ATOM     58  C   UNL A   1      42.206  30.429  35.164  1.00  0.00     0.074 A 
ATOM     59  C   UNL A   1      42.548  30.905  36.488  1.00  0.00     0.031 C 
ATOM     60  C   UNL A   1      42.850  29.424  34.524  1.00  0.00     0.037 A 
BRANCH  47  61
ATOM     61  C   UNL A   1      40.548  28.094  28.948  1.00  0.00     0.064 A 
ATOM     62  C   UNL A   1      39.821  26.900  28.832  1.00  0.00     0.173 A 
ATOM     63  C   UNL A   1      41.324  28.499  27.851  1.00  0.00     0.173 A 
ATOM     64  F   UNL A   1      39.074  26.463  29.857  1.00  0.00    -0.203 F 
ATOM     65  C   UNL A   1      39.886  26.129  27.674  1.00  0.00     0.198 A 
ATOM     66  C   UNL A   1      41.363  27.741  26.684  1.00  0.00     0.198 A 
ATOM     67  F   UNL A   1      42.036  29.635  27.907  1.00  0.00    -0.203 F 
ATOM     68  F   UNL A   1      39.218  24.970  27.604  1.00  0.00    -0.200 F 
ATOM     69  C   UNL A   1      40.650  26.555  26.597  1.00  0.00     0.200 A 
ATOM     70  F   UNL A   1      42.091  28.160  25.639  1.00  0.00    -0.200 F 
ATOM     71  F   UNL A   1      40.705  25.817  25.480  1.00  0.00    -0.200 F 
ENDBRANCH  47  61
BRANCH  48  72
ATOM     72  C   UNL A   1      39.705  33.970  36.985  1.00  0.00     0.064 A 
ATOM     73  C   UNL A   1      38.892  33.588  38.062  1.00  0.00     0.173 A 
ATOM     74  C   UNL A   1      40.369  35.202  37.076  1.00  0.00     0.173 A 
ATOM     75  F   UNL A   1      38.218  32.429  38.013  1.00  0.00    -0.203 F 
ATOM     76  C   UNL A   1      38.722  34.419  39.167  1.00  0.00     0.198 A 
ATOM     77  C   UNL A   1      40.223  36.018  38.195  1.00  0.00     0.198 A 
ATOM     78  F   UNL A   1      41.162  35.613  36.076  1.00  0.00    -0.203 F 
ATOM     79  F   UNL A   1      37.891  34.056  40.154  1.00  0.00    -0.200 F 
ATOM     80  C   UNL A   1      39.391  35.631  39.235  1.00  0.00     0.200 A 
ATOM     81  F   UNL A   1      40.881  37.184  38.263  1.00  0.00    -0.200 F 
ATOM     82  F   UNL A   1      39.222  36.433  40.295  1.00  0.00    -0.200 F 
ENDBRANCH  48  72
BRANCH  60  83
ATOM     83  C   UNL A   1      44.027  28.807  35.221  1.00  0.00     0.064 A 
ATOM     84  C   UNL A   1      45.328  29.304  35.056  1.00  0.00     0.173 A 
ATOM     85  C   UNL A   1      43.842  27.727  36.099  1.00  0.00     0.173 A 
ATOM     86  F   UNL A   1      45.558  30.324  34.215  1.00  0.00    -0.203 F 
ATOM     87  C   UNL A   1      46.404  28.727  35.723  1.00  0.00     0.198 A 
ATOM     88  C   UNL A   1      44.916  27.172  36.789  1.00  0.00     0.198 A 
ATOM     89  F   UNL A   1      42.617  27.219  36.298  1.00  0.00    -0.203 F 
ATOM     90  F   UNL A   1      47.645  29.186  35.513  1.00  0.00    -0.200 F 
ATOM     91  C   UNL A   1      46.196  27.667  36.594  1.00  0.00     0.200 A 
ATOM     92  F   UNL A   1      44.711  26.158  37.640  1.00  0.00    -0.200 F 
ATOM     93  F   UNL A   1      47.233  27.118  37.242  1.00  0.00    -0.200 F 
ENDBRANCH  60  83
ENDBRANCH  34  35
ENDBRANCH  26  29
ENDBRANCH  24  25
ENDBRANCH  23  24
ENDBRANCH   1  23
TORSDOF 15
ENDMDL
