MODEL 1
REMARK VINA RESULT:     -12.3      0.000      0.000
REMARK SMILES COc1ccc([C@H]2C[NH2+]C[C@@H]2C(=O)NCCCCNC(=O)c2ccc(-c3c4nc(c(-c5c(F)c(F)c(F)c(F)c5F)c5ccc([nH]5)c(-c5c(F)c(F)c(F)c(F)c5F)c5nc(c(-c6c(F)c(F)c(F)c(F)c6F)c6ccc3[nH]6)C=C5)C=C4)cc2)cc1OC
REMARK SMILES IDX 16 1 15 2 14 3 12 4 13 5 11 7 7 8 8 9 9 10 10 11 6 14 3 15
REMARK SMILES IDX 4 16 86 17 5 18 85 19 2 20 1 21 87 22 88 23 17 24 18 25
REMARK SMILES IDX 19 26 20 27 21 29 22 30 23 31 84 32 24 33 83 34 25 35 26 36
REMARK SMILES IDX 27 37 77 38 28 39 82 40 76 41 78 42 29 43 81 44 75 45 74 46
REMARK SMILES IDX 30 48 62 49 42 50 61 51 43 52 46 53 60 54 79 55 44 56 45 57
REMARK SMILES IDX 59 59 80 60 47 61 31 62 32 63 40 64 33 65 34 66 38 67 41 68
REMARK SMILES IDX 35 69 36 70 39 71 37 72 63 73 64 74 72 75 65 76 66 77 70 78
REMARK SMILES IDX 73 79 67 80 68 81 71 82 69 83 48 84 49 85 57 86 50 87 51 88
REMARK SMILES IDX 55 89 58 90 52 91 53 92 56 93 54 94
REMARK H PARENT 14 6 9 12 9 13 19 28 78 47 46 58
REMARK Flexibility Score: inf
ROOT
ATOM      1  C   UNL A   1      31.706  30.474  26.921  1.00  0.00     0.023 C 
ENDROOT
BRANCH   1   2
ATOM      2  C   UNL A   1      32.277  29.682  25.751  1.00  0.00     0.116 C 
BRANCH   2   3
ATOM      3  N   UNL A   1      31.658  29.976  24.472  1.00  0.00    -0.356 N 
ATOM      4  C   UNL A   1      31.085  29.101  23.584  1.00  0.00     0.229 C 
ATOM      5  O   UNL A   1      30.480  29.574  22.623  1.00  0.00    -0.275 OA
ATOM      6  H   UNL A   1      31.648  30.924  24.207  1.00  0.00     0.163 HD
BRANCH   4   7
ATOM      7  C   UNL A   1      31.293  27.597  23.779  1.00  0.00     0.146 C 
ATOM      8  C   UNL A   1      32.777  27.222  24.019  1.00  0.00     0.092 C 
ATOM      9  C   UNL A   1      33.222  27.006  22.560  1.00  0.00     0.269 C 
ATOM     10  N   UNL A   1      32.134  26.204  21.975  1.00  0.00    -0.345 N 
ATOM     11  C   UNL A   1      30.910  26.803  22.525  1.00  0.00     0.274 C 
ATOM     12  H   UNL A   1      32.215  25.227  22.252  1.00  0.00     0.346 HD
ATOM     13  H   UNL A   1      32.149  26.212  20.954  1.00  0.00     0.346 HD
BRANCH   8  14
ATOM     14  C   UNL A   1      33.034  25.985  24.897  1.00  0.00    -0.034 A 
ATOM     15  C   UNL A   1      33.550  23.705  26.512  1.00  0.00     0.160 A 
ATOM     16  C   UNL A   1      34.562  24.265  25.727  1.00  0.00     0.051 A 
ATOM     17  C   UNL A   1      32.288  24.299  26.535  1.00  0.00     0.161 A 
ATOM     18  C   UNL A   1      34.308  25.393  24.936  1.00  0.00     0.008 A 
ATOM     19  C   UNL A   1      32.054  25.433  25.738  1.00  0.00     0.054 A 
BRANCH  15  20
ATOM     20  O   UNL A   1      33.871  22.670  27.346  1.00  0.00    -0.493 OA
ATOM     21  C   UNL A   1      34.496  21.593  26.646  1.00  0.00     0.278 C 
ENDBRANCH  15  20
BRANCH  17  22
ATOM     22  O   UNL A   1      31.195  23.950  27.282  1.00  0.00    -0.493 OA
ATOM     23  C   UNL A   1      30.354  22.921  26.788  1.00  0.00     0.278 C 
ENDBRANCH  17  22
ENDBRANCH   8  14
ENDBRANCH   4   7
ENDBRANCH   2   3
ENDBRANCH   1   2
BRANCH   1  24
ATOM     24  C   UNL A   1      31.635  31.989  26.731  1.00  0.00     0.023 C 
BRANCH  24  25
ATOM     25  C   UNL A   1      32.831  32.782  27.247  1.00  0.00     0.116 C 
BRANCH  25  26
ATOM     26  N   UNL A   1      32.494  34.143  27.640  1.00  0.00    -0.352 N 
ATOM     27  C   UNL A   1      33.025  34.936  28.629  1.00  0.00     0.251 C 
ATOM     28  H   UNL A   1      31.773  34.560  27.115  1.00  0.00     0.163 HD
ATOM     29  O   UNL A   1      32.512  36.021  28.888  1.00  0.00    -0.269 OA
BRANCH  27  30
ATOM     30  C   UNL A   1      34.190  34.473  29.414  1.00  0.00     0.039 A 
ATOM     31  C   UNL A   1      33.970  33.864  30.653  1.00  0.00     0.014 A 
ATOM     32  C   UNL A   1      35.492  34.623  28.931  1.00  0.00     0.014 A 
ATOM     33  C   UNL A   1      35.048  33.326  31.363  1.00  0.00     0.010 A 
ATOM     34  C   UNL A   1      36.550  34.007  29.593  1.00  0.00     0.010 A 
ATOM     35  C   UNL A   1      36.341  33.348  30.813  1.00  0.00    -0.014 A 
BRANCH  35  36
ATOM     36  C   UNL A   1      37.483  32.685  31.494  1.00  0.00     0.031 A 
ATOM     37  C   UNL A   1      38.189  31.530  30.838  1.00  0.00     0.074 A 
ATOM     38  C   UNL A   1      37.840  33.074  32.733  1.00  0.00     0.049 A 
ATOM     39  N   UNL A   1      39.161  30.782  31.298  1.00  0.00    -0.248 NA
ATOM     40  C   UNL A   1      37.720  31.147  29.499  1.00  0.00     0.031 C 
ATOM     41  C   UNL A   1      37.208  34.150  33.496  1.00  0.00     0.029 A 
ATOM     42  N   UNL A   1      38.820  32.603  33.572  1.00  0.00    -0.354 N 
ATOM     43  C   UNL A   1      39.408  29.837  30.313  1.00  0.00     0.074 A 
ATOM     44  C   UNL A   1      38.439  30.061  29.262  1.00  0.00     0.031 C 
ATOM     45  C   UNL A   1      37.839  34.283  34.674  1.00  0.00     0.029 A 
ATOM     46  C   UNL A   1      38.890  33.275  34.768  1.00  0.00     0.049 A 
ATOM     47  H   UNL A   1      39.416  31.856  33.338  1.00  0.00     0.167 HD
ATOM     48  C   UNL A   1      40.373  28.885  30.272  1.00  0.00     0.037 A 
ATOM     49  C   UNL A   1      39.708  33.096  35.822  1.00  0.00     0.037 A 
ATOM     50  C   UNL A   1      41.340  28.670  31.315  1.00  0.00     0.049 A 
ATOM     51  C   UNL A   1      40.746  32.008  35.773  1.00  0.00     0.074 A 
ATOM     52  C   UNL A   1      42.389  27.767  31.350  1.00  0.00     0.029 A 
ATOM     53  N   UNL A   1      41.372  29.363  32.517  1.00  0.00    -0.354 N 
ATOM     54  N   UNL A   1      41.016  31.164  34.807  1.00  0.00    -0.248 NA
ATOM     55  C   UNL A   1      41.594  31.851  36.961  1.00  0.00     0.031 C 
ATOM     56  C   UNL A   1      43.020  27.876  32.594  1.00  0.00     0.029 A 
ATOM     57  C   UNL A   1      42.404  28.888  33.312  1.00  0.00     0.049 A 
ATOM     58  H   UNL A   1      40.753  30.086  32.769  1.00  0.00     0.167 HD
ATOM     59  C   UNL A   1      42.084  30.398  35.255  1.00  0.00     0.074 A 
ATOM     60  C   UNL A   1      42.418  30.886  36.578  1.00  0.00     0.031 C 
ATOM     61  C   UNL A   1      42.730  29.384  34.627  1.00  0.00     0.037 A 
BRANCH  48  62
ATOM     62  C   UNL A   1      40.414  28.004  29.054  1.00  0.00     0.064 A 
ATOM     63  C   UNL A   1      41.174  28.344  27.923  1.00  0.00     0.173 A 
ATOM     64  C   UNL A   1      39.681  26.808  29.012  1.00  0.00     0.173 A 
ATOM     65  F   UNL A   1      41.886  29.480  27.905  1.00  0.00    -0.203 F 
ATOM     66  C   UNL A   1      41.157  27.548  26.779  1.00  0.00     0.198 A 
ATOM     67  C   UNL A   1      39.696  25.996  27.881  1.00  0.00     0.198 A 
ATOM     68  F   UNL A   1      38.944  26.427  30.067  1.00  0.00    -0.203 F 
ATOM     69  F   UNL A   1      41.830  27.934  25.687  1.00  0.00    -0.200 F 
ATOM     70  C   UNL A   1      40.422  26.373  26.760  1.00  0.00     0.200 A 
ATOM     71  F   UNL A   1      38.998  24.852  27.869  1.00  0.00    -0.200 F 
ATOM     72  F   UNL A   1      40.402  25.611  25.659  1.00  0.00    -0.200 F 
ENDBRANCH  48  62
BRANCH  49  73
ATOM     73  C   UNL A   1      39.608  34.001  36.997  1.00  0.00     0.064 A 
ATOM     74  C   UNL A   1      40.285  35.228  37.011  1.00  0.00     0.173 A 
ATOM     75  C   UNL A   1      38.832  33.671  38.118  1.00  0.00     0.173 A 
ATOM     76  F   UNL A   1      41.056  35.578  35.971  1.00  0.00    -0.203 F 
ATOM     77  C   UNL A   1      40.199  36.086  38.105  1.00  0.00     0.198 A 
ATOM     78  C   UNL A   1      38.726  34.542  39.200  1.00  0.00     0.198 A 
ATOM     79  F   UNL A   1      38.162  32.510  38.154  1.00  0.00    -0.203 F 
ATOM     80  F   UNL A   1      40.887  37.237  38.106  1.00  0.00    -0.200 F 
ATOM     81  C   UNL A   1      39.415  35.746  39.196  1.00  0.00     0.200 A 
ATOM     82  F   UNL A   1      37.954  34.216  40.247  1.00  0.00    -0.200 F 
ATOM     83  F   UNL A   1      39.324  36.576  40.244  1.00  0.00    -0.200 F 
ENDBRANCH  49  73
BRANCH  61  84
ATOM     84  C   UNL A   1      43.891  28.757  35.345  1.00  0.00     0.064 A 
ATOM     85  C   UNL A   1      45.205  29.216  35.169  1.00  0.00     0.173 A 
ATOM     86  C   UNL A   1      43.679  27.704  36.248  1.00  0.00     0.173 A 
ATOM     87  F   UNL A   1      45.464  30.210  34.305  1.00  0.00    -0.203 F 
ATOM     88  C   UNL A   1      46.266  28.626  35.852  1.00  0.00     0.198 A 
ATOM     89  C   UNL A   1      44.739  27.139  36.954  1.00  0.00     0.198 A 
ATOM     90  F   UNL A   1      42.442  27.231  36.458  1.00  0.00    -0.203 F 
ATOM     91  F   UNL A   1      47.519  29.047  35.629  1.00  0.00    -0.200 F 
ATOM     92  C   UNL A   1      46.031  27.595  36.749  1.00  0.00     0.200 A 
ATOM     93  F   UNL A   1      44.507  26.153  37.831  1.00  0.00    -0.200 F 
ATOM     94  F   UNL A   1      47.054  27.034  37.409  1.00  0.00    -0.200 F 
ENDBRANCH  61  84
ENDBRANCH  35  36
ENDBRANCH  27  30
ENDBRANCH  25  26
ENDBRANCH  24  25
ENDBRANCH   1  24
TORSDOF 14
ENDMDL
MODEL 2
REMARK VINA RESULT:     -12.2      5.717     11.321
REMARK SMILES COc1ccc([C@H]2C[NH2+]C[C@@H]2C(=O)NCCCCNC(=O)c2ccc(-c3c4nc(c(-c5c(F)c(F)c(F)c(F)c5F)c5ccc([nH]5)c(-c5c(F)c(F)c(F)c(F)c5F)c5nc(c(-c6c(F)c(F)c(F)c(F)c6F)c6ccc3[nH]6)C=C5)C=C4)cc2)cc1OC
REMARK SMILES IDX 16 1 15 2 14 3 12 4 13 5 11 7 7 8 8 9 9 10 10 11 6 14 3 15
REMARK SMILES IDX 4 16 86 17 5 18 85 19 2 20 1 21 87 22 88 23 17 24 18 25
REMARK SMILES IDX 19 26 20 27 21 29 22 30 23 31 84 32 24 33 83 34 25 35 26 36
REMARK SMILES IDX 27 37 77 38 28 39 82 40 76 41 78 42 29 43 81 44 75 45 74 46
REMARK SMILES IDX 30 48 62 49 42 50 61 51 43 52 46 53 60 54 79 55 44 56 45 57
REMARK SMILES IDX 59 59 80 60 47 61 31 62 32 63 40 64 33 65 34 66 38 67 41 68
REMARK SMILES IDX 35 69 36 70 39 71 37 72 63 73 64 74 72 75 65 76 66 77 70 78
REMARK SMILES IDX 73 79 67 80 68 81 71 82 69 83 48 84 49 85 57 86 50 87 51 88
REMARK SMILES IDX 55 89 58 90 52 91 53 92 56 93 54 94
REMARK H PARENT 14 6 9 12 9 13 19 28 78 47 46 58
REMARK Flexibility Score: inf
ROOT
ATOM      1  C   UNL A   1      37.152  21.111  24.505  1.00  0.00     0.023 C 
ENDROOT
BRANCH   1   2
ATOM      2  C   UNL A   1      36.635  22.048  25.590  1.00  0.00     0.116 C 
BRANCH   2   3
ATOM      3  N   UNL A   1      35.680  21.441  26.499  1.00  0.00    -0.356 N 
ATOM      4  C   UNL A   1      34.311  21.516  26.468  1.00  0.00     0.229 C 
ATOM      5  O   UNL A   1      33.681  20.802  27.247  1.00  0.00    -0.275 OA
ATOM      6  H   UNL A   1      36.065  20.908  27.232  1.00  0.00     0.163 HD
BRANCH   4   7
ATOM      7  C   UNL A   1      33.641  22.532  25.541  1.00  0.00     0.146 C 
ATOM      8  C   UNL A   1      33.500  23.934  26.186  1.00  0.00     0.092 C 
ATOM      9  C   UNL A   1      32.122  23.766  26.855  1.00  0.00     0.269 C 
ATOM     10  N   UNL A   1      31.300  23.125  25.816  1.00  0.00    -0.345 N 
ATOM     11  C   UNL A   1      32.198  22.132  25.208  1.00  0.00     0.274 C 
ATOM     12  H   UNL A   1      30.994  23.808  25.124  1.00  0.00     0.346 HD
ATOM     13  H   UNL A   1      30.450  22.705  26.194  1.00  0.00     0.346 HD
BRANCH   8  14
ATOM     14  C   UNL A   1      33.539  25.134  25.224  1.00  0.00    -0.034 A 
ATOM     15  C   UNL A   1      33.622  27.376  23.480  1.00  0.00     0.160 A 
ATOM     16  C   UNL A   1      33.607  27.552  24.867  1.00  0.00     0.051 A 
ATOM     17  C   UNL A   1      33.640  26.085  22.951  1.00  0.00     0.161 A 
ATOM     18  C   UNL A   1      33.573  26.446  25.726  1.00  0.00     0.008 A 
ATOM     19  C   UNL A   1      33.610  24.987  23.829  1.00  0.00     0.054 A 
BRANCH  15  20
ATOM     20  O   UNL A   1      33.760  28.480  22.685  1.00  0.00    -0.493 OA
ATOM     21  C   UNL A   1      32.504  29.096  22.402  1.00  0.00     0.278 C 
ENDBRANCH  15  20
BRANCH  17  22
ATOM     22  O   UNL A   1      33.724  25.703  21.639  1.00  0.00    -0.493 OA
ATOM     23  C   UNL A   1      32.518  25.576  20.905  1.00  0.00     0.278 C 
ENDBRANCH  17  22
ENDBRANCH   8  14
ENDBRANCH   4   7
ENDBRANCH   2   3
ENDBRANCH   1   2
BRANCH   1  24
ATOM     24  C   UNL A   1      37.984  19.925  24.989  1.00  0.00     0.023 C 
BRANCH  24  25
ATOM     25  C   UNL A   1      39.191  20.266  25.857  1.00  0.00     0.116 C 
BRANCH  25  26
ATOM     26  N   UNL A   1      40.187  19.205  25.903  1.00  0.00    -0.352 N 
ATOM     27  C   UNL A   1      41.548  19.276  26.088  1.00  0.00     0.251 C 
ATOM     28  H   UNL A   1      39.831  18.295  25.782  1.00  0.00     0.163 HD
ATOM     29  O   UNL A   1      42.237  18.267  25.966  1.00  0.00    -0.269 OA
BRANCH  27  30
ATOM     30  C   UNL A   1      42.194  20.570  26.395  1.00  0.00     0.039 A 
ATOM     31  C   UNL A   1      42.766  21.304  25.351  1.00  0.00     0.014 A 
ATOM     32  C   UNL A   1      42.229  21.069  27.699  1.00  0.00     0.014 A 
ATOM     33  C   UNL A   1      43.289  22.575  25.601  1.00  0.00     0.010 A 
ATOM     34  C   UNL A   1      42.665  22.370  27.930  1.00  0.00     0.010 A 
ATOM     35  C   UNL A   1      43.197  23.140  26.885  1.00  0.00    -0.014 A 
BRANCH  35  36
ATOM     36  C   UNL A   1      43.643  24.532  27.152  1.00  0.00     0.031 A 
ATOM     37  C   UNL A   1      42.676  25.546  27.699  1.00  0.00     0.074 A 
ATOM     38  C   UNL A   1      44.898  24.904  26.837  1.00  0.00     0.049 A 
ATOM     39  N   UNL A   1      42.856  26.821  27.937  1.00  0.00    -0.248 NA
ATOM     40  C   UNL A   1      41.316  25.068  27.987  1.00  0.00     0.031 C 
ATOM     41  C   UNL A   1      45.919  24.029  26.260  1.00  0.00     0.029 A 
ATOM     42  N   UNL A   1      45.528  26.118  26.952  1.00  0.00    -0.354 N 
ATOM     43  C   UNL A   1      41.634  27.297  28.389  1.00  0.00     0.074 A 
ATOM     44  C   UNL A   1      40.702  26.191  28.326  1.00  0.00     0.031 C 
ATOM     45  C   UNL A   1      47.058  24.724  26.107  1.00  0.00     0.029 A 
ATOM     46  C   UNL A   1      46.836  26.102  26.533  1.00  0.00     0.049 A 
ATOM     47  H   UNL A   1      45.084  26.924  27.302  1.00  0.00     0.167 HD
ATOM     48  C   UNL A   1      41.320  28.535  28.844  1.00  0.00     0.037 A 
ATOM     49  C   UNL A   1      47.752  27.088  26.493  1.00  0.00     0.037 A 
ATOM     50  C   UNL A   1      42.251  29.631  28.913  1.00  0.00     0.049 A 
ATOM     51  C   UNL A   1      47.372  28.465  26.965  1.00  0.00     0.074 A 
ATOM     52  C   UNL A   1      42.049  30.909  29.403  1.00  0.00     0.029 A 
ATOM     53  N   UNL A   1      43.565  29.578  28.468  1.00  0.00    -0.354 N 
ATOM     54  N   UNL A   1      46.232  28.888  27.457  1.00  0.00    -0.248 NA
ATOM     55  C   UNL A   1      48.408  29.502  26.879  1.00  0.00     0.031 C 
ATOM     56  C   UNL A   1      43.222  31.646  29.204  1.00  0.00     0.029 A 
ATOM     57  C   UNL A   1      44.176  30.811  28.646  1.00  0.00     0.049 A 
ATOM     58  H   UNL A   1      44.000  28.783  28.082  1.00  0.00     0.167 HD
ATOM     59  C   UNL A   1      46.422  30.227  27.768  1.00  0.00     0.074 A 
ATOM     60  C   UNL A   1      47.793  30.544  27.419  1.00  0.00     0.031 C 
ATOM     61  C   UNL A   1      45.542  31.113  28.298  1.00  0.00     0.037 A 
BRANCH  48  62
ATOM     62  C   UNL A   1      39.903  28.761  29.294  1.00  0.00     0.064 A 
ATOM     63  C   UNL A   1      38.918  29.238  28.414  1.00  0.00     0.173 A 
ATOM     64  C   UNL A   1      39.525  28.506  30.621  1.00  0.00     0.173 A 
ATOM     65  F   UNL A   1      39.226  29.509  27.137  1.00  0.00    -0.203 F 
ATOM     66  C   UNL A   1      37.624  29.499  28.858  1.00  0.00     0.198 A 
ATOM     67  C   UNL A   1      38.220  28.732  31.052  1.00  0.00     0.198 A 
ATOM     68  F   UNL A   1      40.422  28.040  31.503  1.00  0.00    -0.203 F 
ATOM     69  F   UNL A   1      36.723  30.025  28.017  1.00  0.00    -0.200 F 
ATOM     70  C   UNL A   1      37.274  29.242  30.175  1.00  0.00     0.200 A 
ATOM     71  F   UNL A   1      37.880  28.468  32.320  1.00  0.00    -0.200 F 
ATOM     72  F   UNL A   1      36.031  29.498  30.602  1.00  0.00    -0.200 F 
ENDBRANCH  48  62
BRANCH  49  73
ATOM     73  C   UNL A   1      49.134  26.796  26.031  1.00  0.00     0.064 A 
ATOM     74  C   UNL A   1      50.091  26.290  26.921  1.00  0.00     0.173 A 
ATOM     75  C   UNL A   1      49.525  27.000  24.700  1.00  0.00     0.173 A 
ATOM     76  F   UNL A   1      49.770  26.097  28.209  1.00  0.00    -0.203 F 
ATOM     77  C   UNL A   1      51.389  26.010  26.502  1.00  0.00     0.198 A 
ATOM     78  C   UNL A   1      50.816  26.695  24.274  1.00  0.00     0.198 A 
ATOM     79  F   UNL A   1      48.646  27.480  23.807  1.00  0.00    -0.203 F 
ATOM     80  F   UNL A   1      52.294  25.562  27.383  1.00  0.00    -0.200 F 
ATOM     81  C   UNL A   1      51.749  26.206  25.177  1.00  0.00     0.200 A 
ATOM     82  F   UNL A   1      51.156  26.873  22.990  1.00  0.00    -0.200 F 
ATOM     83  F   UNL A   1      52.995  25.928  24.770  1.00  0.00    -0.200 F 
ENDBRANCH  49  73
BRANCH  61  84
ATOM     84  C   UNL A   1      46.044  32.503  28.569  1.00  0.00     0.064 A 
ATOM     85  C   UNL A   1      46.663  32.842  29.782  1.00  0.00     0.173 A 
ATOM     86  C   UNL A   1      45.932  33.500  27.588  1.00  0.00     0.173 A 
ATOM     87  F   UNL A   1      46.780  31.931  30.759  1.00  0.00    -0.203 F 
ATOM     88  C   UNL A   1      47.129  34.135  30.010  1.00  0.00     0.198 A 
ATOM     89  C   UNL A   1      46.429  34.782  27.807  1.00  0.00     0.198 A 
ATOM     90  F   UNL A   1      45.353  33.228  26.409  1.00  0.00    -0.203 F 
ATOM     91  F   UNL A   1      47.671  34.450  31.195  1.00  0.00    -0.200 F 
ATOM     92  C   UNL A   1      47.019  35.101  29.021  1.00  0.00     0.200 A 
ATOM     93  F   UNL A   1      46.335  35.710  26.844  1.00  0.00    -0.200 F 
ATOM     94  F   UNL A   1      47.475  36.342  29.241  1.00  0.00    -0.200 F 
ENDBRANCH  61  84
ENDBRANCH  35  36
ENDBRANCH  27  30
ENDBRANCH  25  26
ENDBRANCH  24  25
ENDBRANCH   1  24
TORSDOF 14
ENDMDL
MODEL 3
REMARK VINA RESULT:     -12.2      0.726      7.378
REMARK SMILES COc1ccc([C@H]2C[NH2+]C[C@@H]2C(=O)NCCCCNC(=O)c2ccc(-c3c4nc(c(-c5c(F)c(F)c(F)c(F)c5F)c5ccc([nH]5)c(-c5c(F)c(F)c(F)c(F)c5F)c5nc(c(-c6c(F)c(F)c(F)c(F)c6F)c6ccc3[nH]6)C=C5)C=C4)cc2)cc1OC
REMARK SMILES IDX 16 1 15 2 14 3 12 4 13 5 11 7 7 8 8 9 9 10 10 11 6 14 3 15
REMARK SMILES IDX 4 16 86 17 5 18 85 19 2 20 1 21 87 22 88 23 17 24 18 25
REMARK SMILES IDX 19 26 20 27 21 29 22 30 23 31 84 32 24 33 83 34 25 35 26 36
REMARK SMILES IDX 27 37 77 38 28 39 82 40 76 41 78 42 29 43 81 44 75 45 74 46
REMARK SMILES IDX 30 48 62 49 42 50 61 51 43 52 46 53 60 54 79 55 44 56 45 57
REMARK SMILES IDX 59 59 80 60 47 61 31 62 32 63 40 64 33 65 34 66 38 67 41 68
REMARK SMILES IDX 35 69 36 70 39 71 37 72 63 73 64 74 72 75 65 76 66 77 70 78
REMARK SMILES IDX 73 79 67 80 68 81 71 82 69 83 48 84 49 85 57 86 50 87 51 88
REMARK SMILES IDX 55 89 58 90 52 91 53 92 56 93 54 94
REMARK H PARENT 14 6 9 12 9 13 19 28 78 47 46 58
REMARK Flexibility Score: inf
ROOT
ATOM      1  C   UNL A   1      31.697  30.283  26.875  1.00  0.00     0.023 C 
ENDROOT
BRANCH   1   2
ATOM      2  C   UNL A   1      32.474  29.536  25.798  1.00  0.00     0.116 C 
BRANCH   2   3
ATOM      3  N   UNL A   1      32.047  29.826  24.442  1.00  0.00    -0.356 N 
ATOM      4  C   UNL A   1      31.528  28.963  23.511  1.00  0.00     0.229 C 
ATOM      5  O   UNL A   1      31.088  29.442  22.467  1.00  0.00    -0.275 OA
ATOM      6  H   UNL A   1      32.141  30.763  24.153  1.00  0.00     0.163 HD
BRANCH   4   7
ATOM      7  C   UNL A   1      31.599  27.456  23.771  1.00  0.00     0.146 C 
ATOM      8  C   UNL A   1      33.050  26.943  23.949  1.00  0.00     0.092 C 
ATOM      9  C   UNL A   1      33.384  26.617  22.480  1.00  0.00     0.269 C 
ATOM     10  N   UNL A   1      32.190  25.905  21.996  1.00  0.00    -0.345 N 
ATOM     11  C   UNL A   1      31.066  26.649  22.581  1.00  0.00     0.274 C 
ATOM     12  H   UNL A   1      32.191  24.937  22.318  1.00  0.00     0.346 HD
ATOM     13  H   UNL A   1      32.146  25.864  20.978  1.00  0.00     0.346 HD
BRANCH   8  14
ATOM     14  C   UNL A   1      33.235  25.727  24.873  1.00  0.00    -0.034 A 
ATOM     15  C   UNL A   1      33.619  23.484  26.574  1.00  0.00     0.160 A 
ATOM     16  C   UNL A   1      34.657  23.948  25.762  1.00  0.00     0.051 A 
ATOM     17  C   UNL A   1      32.397  24.158  26.579  1.00  0.00     0.161 A 
ATOM     18  C   UNL A   1      34.469  25.058  24.929  1.00  0.00     0.008 A 
ATOM     19  C   UNL A   1      32.228  25.272  25.740  1.00  0.00     0.054 A 
BRANCH  15  20
ATOM     20  O   UNL A   1      33.880  22.464  27.446  1.00  0.00    -0.493 OA
ATOM     21  C   UNL A   1      34.121  21.230  26.769  1.00  0.00     0.278 C 
ENDBRANCH  15  20
BRANCH  17  22
ATOM     22  O   UNL A   1      31.290  23.907  27.345  1.00  0.00    -0.493 OA
ATOM     23  C   UNL A   1      30.303  23.033  26.822  1.00  0.00     0.278 C 
ENDBRANCH  17  22
ENDBRANCH   8  14
ENDBRANCH   4   7
ENDBRANCH   2   3
ENDBRANCH   1   2
BRANCH   1  24
ATOM     24  C   UNL A   1      31.581  31.794  26.687  1.00  0.00     0.023 C 
BRANCH  24  25
ATOM     25  C   UNL A   1      32.821  32.608  27.041  1.00  0.00     0.116 C 
BRANCH  25  26
ATOM     26  N   UNL A   1      32.515  33.946  27.527  1.00  0.00    -0.352 N 
ATOM     27  C   UNL A   1      33.076  34.664  28.556  1.00  0.00     0.251 C 
ATOM     28  H   UNL A   1      31.794  34.408  27.042  1.00  0.00     0.163 HD
ATOM     29  O   UNL A   1      32.586  35.739  28.892  1.00  0.00    -0.269 OA
BRANCH  27  30
ATOM     30  C   UNL A   1      34.244  34.131  29.289  1.00  0.00     0.039 A 
ATOM     31  C   UNL A   1      34.028  33.294  30.389  1.00  0.00     0.014 A 
ATOM     32  C   UNL A   1      35.548  34.440  28.894  1.00  0.00     0.014 A 
ATOM     33  C   UNL A   1      35.116  32.697  31.031  1.00  0.00     0.010 A 
ATOM     34  C   UNL A   1      36.623  33.774  29.474  1.00  0.00     0.010 A 
ATOM     35  C   UNL A   1      36.420  32.892  30.547  1.00  0.00    -0.014 A 
BRANCH  35  36
ATOM     36  C   UNL A   1      37.582  32.181  31.141  1.00  0.00     0.031 A 
ATOM     37  C   UNL A   1      38.066  32.539  32.519  1.00  0.00     0.074 A 
ATOM     38  C   UNL A   1      38.246  31.262  30.414  1.00  0.00     0.049 A 
ATOM     39  N   UNL A   1      39.098  32.079  33.182  1.00  0.00    -0.248 NA
ATOM     40  C   UNL A   1      37.306  33.574  33.235  1.00  0.00     0.031 C 
ATOM     41  C   UNL A   1      37.906  30.856  29.050  1.00  0.00     0.029 A 
ATOM     42  N   UNL A   1      39.351  30.507  30.719  1.00  0.00    -0.354 N 
ATOM     43  C   UNL A   1      39.116  32.776  34.382  1.00  0.00     0.074 A 
ATOM     44  C   UNL A   1      38.035  33.737  34.328  1.00  0.00     0.031 C 
ATOM     45  C   UNL A   1      38.759  29.900  28.651  1.00  0.00     0.029 A 
ATOM     46  C   UNL A   1      39.733  29.657  29.710  1.00  0.00     0.049 A 
ATOM     47  H   UNL A   1      39.825  30.569  31.580  1.00  0.00     0.167 HD
ATOM     48  C   UNL A   1      39.939  32.612  35.447  1.00  0.00     0.037 A 
ATOM     49  C   UNL A   1      40.754  28.782  29.646  1.00  0.00     0.037 A 
ATOM     50  C   UNL A   1      41.008  31.650  35.501  1.00  0.00     0.049 A 
ATOM     51  C   UNL A   1      41.680  28.644  30.824  1.00  0.00     0.074 A 
ATOM     52  C   UNL A   1      41.867  31.369  36.549  1.00  0.00     0.029 A 
ATOM     53  N   UNL A   1      41.371  30.813  34.455  1.00  0.00    -0.354 N 
ATOM     54  N   UNL A   1      41.646  29.258  31.981  1.00  0.00    -0.248 NA
ATOM     55  C   UNL A   1      42.785  27.687  30.685  1.00  0.00     0.031 C 
ATOM     56  C   UNL A   1      42.783  30.403  36.119  1.00  0.00     0.029 A 
ATOM     57  C   UNL A   1      42.459  30.037  34.823  1.00  0.00     0.049 A 
ATOM     58  H   UNL A   1      40.921  30.777  33.579  1.00  0.00     0.167 HD
ATOM     59  C   UNL A   1      42.702  28.741  32.720  1.00  0.00     0.074 A 
ATOM     60  C   UNL A   1      43.351  27.753  31.882  1.00  0.00     0.031 C 
ATOM     61  C   UNL A   1      43.095  29.054  33.980  1.00  0.00     0.037 A 
BRANCH  48  62
ATOM     62  C   UNL A   1      39.710  33.506  36.634  1.00  0.00     0.064 A 
ATOM     63  C   UNL A   1      38.861  33.130  37.688  1.00  0.00     0.173 A 
ATOM     64  C   UNL A   1      40.339  34.758  36.718  1.00  0.00     0.173 A 
ATOM     65  F   UNL A   1      38.226  31.949  37.654  1.00  0.00    -0.203 F 
ATOM     66  C   UNL A   1      38.611  33.992  38.753  1.00  0.00     0.198 A 
ATOM     67  C   UNL A   1      40.117  35.601  37.803  1.00  0.00     0.198 A 
ATOM     68  F   UNL A   1      41.168  35.166  35.745  1.00  0.00    -0.203 F 
ATOM     69  F   UNL A   1      37.740  33.640  39.707  1.00  0.00    -0.200 F 
ATOM     70  C   UNL A   1      39.242  35.225  38.812  1.00  0.00     0.200 A 
ATOM     71  F   UNL A   1      40.739  36.786  37.868  1.00  0.00    -0.200 F 
ATOM     72  F   UNL A   1      38.998  36.056  39.834  1.00  0.00    -0.200 F 
ENDBRANCH  48  62
BRANCH  49  73
ATOM     73  C   UNL A   1      40.925  27.932  28.439  1.00  0.00     0.064 A 
ATOM     74  C   UNL A   1      41.689  28.383  27.353  1.00  0.00     0.173 A 
ATOM     75  C   UNL A   1      40.348  26.658  28.346  1.00  0.00     0.173 A 
ATOM     76  F   UNL A   1      42.244  29.604  27.387  1.00  0.00    -0.203 F 
ATOM     77  C   UNL A   1      41.860  27.597  26.216  1.00  0.00     0.198 A 
ATOM     78  C   UNL A   1      40.541  25.861  27.219  1.00  0.00     0.198 A 
ATOM     79  F   UNL A   1      39.611  26.178  29.358  1.00  0.00    -0.203 F 
ATOM     80  F   UNL A   1      42.565  28.068  25.178  1.00  0.00    -0.200 F 
ATOM     81  C   UNL A   1      41.292  26.334  26.152  1.00  0.00     0.200 A 
ATOM     82  F   UNL A   1      40.002  24.635  27.167  1.00  0.00    -0.200 F 
ATOM     83  F   UNL A   1      41.463  25.573  25.062  1.00  0.00    -0.200 F 
ENDBRANCH  49  73
BRANCH  61  84
ATOM     84  C   UNL A   1      44.262  28.295  34.546  1.00  0.00     0.064 A 
ATOM     85  C   UNL A   1      45.576  28.774  34.443  1.00  0.00     0.173 A 
ATOM     86  C   UNL A   1      44.054  27.088  35.232  1.00  0.00     0.173 A 
ATOM     87  F   UNL A   1      45.830  29.914  33.784  1.00  0.00    -0.203 F 
ATOM     88  C   UNL A   1      46.642  28.058  34.983  1.00  0.00     0.198 A 
ATOM     89  C   UNL A   1      45.119  26.393  35.800  1.00  0.00     0.198 A 
ATOM     90  F   UNL A   1      42.817  26.589  35.364  1.00  0.00    -0.203 F 
ATOM     91  F   UNL A   1      47.895  28.508  34.828  1.00  0.00    -0.200 F 
ATOM     92  C   UNL A   1      46.412  26.874  35.667  1.00  0.00     0.200 A 
ATOM     93  F   UNL A   1      44.893  25.257  36.473  1.00  0.00    -0.200 F 
ATOM     94  F   UNL A   1      47.440  26.192  36.192  1.00  0.00    -0.200 F 
ENDBRANCH  61  84
ENDBRANCH  35  36
ENDBRANCH  27  30
ENDBRANCH  25  26
ENDBRANCH  24  25
ENDBRANCH   1  24
TORSDOF 14
ENDMDL
