MODEL 1
REMARK VINA RESULT:     -11.3      0.000      0.000
REMARK SMILES CC(C)C[C@H](NC(=O)CNC(=O)[C@@H]([NH3+])C(C)C)C(=O)NCCCCNC(=O)c1ccc(-c2c3nc(c(-c4c(F)c(F)c(F)c(F)c4F)c4ccc([nH]4)c(-c4c(F)c(F)c(F)c(F)c4F)c4nc(c(-c5c(F)c(F)c(F)c(F)c5F)c5ccc2[nH]5)C=C4)C=C3)cc1
REMARK SMILES IDX 21 1 20 2 18 3 19 4 5 6 4 7 2 8 1 9 3 10 6 11 7 12 8 14 9 15
REMARK SMILES IDX 10 16 11 17 12 19 13 20 14 21 15 25 16 26 17 27 22 28 23 29
REMARK SMILES IDX 24 30 25 31 26 32 27 34 28 35 29 36 90 37 30 38 89 39 31 40
REMARK SMILES IDX 32 41 33 42 83 43 34 44 88 45 82 46 84 47 35 48 87 49 81 50
REMARK SMILES IDX 80 51 36 53 68 54 48 55 67 56 49 57 52 58 66 59 85 60 50 61
REMARK SMILES IDX 51 62 65 64 86 65 53 66 37 67 38 68 46 69 39 70 40 71 44 72
REMARK SMILES IDX 47 73 41 74 42 75 45 76 43 77 69 78 70 79 78 80 71 81 72 82
REMARK SMILES IDX 76 83 79 84 73 85 74 86 77 87 75 88 54 89 55 90 63 91 56 92
REMARK SMILES IDX 57 93 61 94 64 95 58 96 59 97 62 98 60 99
REMARK H PARENT 20 5 6 13 10 18 14 22 14 23 14 24 25 33 84 52 52 63
REMARK Flexibility Score: inf
ROOT
ATOM      1  C   UNL A   1      35.824  21.287  25.252  1.00  0.00     0.116 C 
ENDROOT
BRANCH   1   2
ATOM      2  N   UNL A   1      34.839  21.730  24.282  1.00  0.00    -0.354 N 
ATOM      3  C   UNL A   1      33.503  21.452  24.237  1.00  0.00     0.242 C 
ATOM      4  O   UNL A   1      32.842  21.867  23.286  1.00  0.00    -0.273 OA
ATOM      5  H   UNL A   1      35.179  22.309  23.561  1.00  0.00     0.163 HD
BRANCH   3   6
ATOM      6  C   UNL A   1      32.860  20.627  25.367  1.00  0.00     0.171 C 
BRANCH   6   7
ATOM      7  C   UNL A   1      32.724  19.138  25.025  1.00  0.00     0.038 C 
BRANCH   7   8
ATOM      8  C   UNL A   1      33.517  18.483  23.866  1.00  0.00    -0.015 C 
ATOM      9  C   UNL A   1      34.368  17.283  24.270  1.00  0.00     0.007 C 
ATOM     10  C   UNL A   1      32.532  18.038  22.772  1.00  0.00     0.007 C 
ENDBRANCH   7   8
ENDBRANCH   6   7
BRANCH   6  11
ATOM     11  N   UNL A   1      31.674  21.440  25.774  1.00  0.00    -0.343 N 
ATOM     12  C   UNL A   1      31.257  22.587  26.345  1.00  0.00     0.240 C 
ATOM     13  H   UNL A   1      30.871  20.931  25.523  1.00  0.00     0.164 HD
ATOM     14  O   UNL A   1      30.020  22.694  26.390  1.00  0.00    -0.273 OA
BRANCH  12  15
ATOM     15  C   UNL A   1      32.087  23.780  26.826  1.00  0.00     0.216 C 
BRANCH  15  16
ATOM     16  N   UNL A   1      33.410  23.943  26.266  1.00  0.00    -0.342 N 
ATOM     17  C   UNL A   1      34.042  24.987  25.672  1.00  0.00     0.278 C 
ATOM     18  H   UNL A   1      33.966  23.133  26.329  1.00  0.00     0.164 HD
ATOM     19  O   UNL A   1      35.224  24.774  25.372  1.00  0.00    -0.268 OA
BRANCH  17  20
ATOM     20  C   UNL A   1      33.362  26.332  25.275  1.00  0.00     0.273 C 
BRANCH  20  21
ATOM     21  N   UNL A   1      32.072  26.158  24.578  1.00  0.00    -0.347 N 
ATOM     22  H   UNL A   1      32.197  25.528  23.785  1.00  0.00     0.345 HD
ATOM     23  H   UNL A   1      31.740  27.063  24.245  1.00  0.00     0.345 HD
ATOM     24  H   UNL A   1      31.388  25.762  25.223  1.00  0.00     0.345 HD
ENDBRANCH  20  21
BRANCH  20  25
ATOM     25  C   UNL A   1      33.221  27.274  26.496  1.00  0.00     0.051 C 
ATOM     26  C   UNL A   1      33.898  28.630  26.246  1.00  0.00     0.014 C 
ATOM     27  C   UNL A   1      31.751  27.544  26.856  1.00  0.00     0.014 C 
ENDBRANCH  20  25
ENDBRANCH  17  20
ENDBRANCH  15  16
ENDBRANCH  12  15
ENDBRANCH   6  11
ENDBRANCH   3   6
ENDBRANCH   1   2
BRANCH   1  28
ATOM     28  C   UNL A   1      37.229  21.323  24.667  1.00  0.00     0.023 C 
BRANCH  28  29
ATOM     29  C   UNL A   1      38.057  20.081  24.995  1.00  0.00     0.023 C 
BRANCH  29  30
ATOM     30  C   UNL A   1      39.301  20.353  25.830  1.00  0.00     0.116 C 
BRANCH  30  31
ATOM     31  N   UNL A   1      40.181  19.200  25.929  1.00  0.00    -0.352 N 
ATOM     32  C   UNL A   1      41.543  19.192  26.129  1.00  0.00     0.251 C 
ATOM     33  H   UNL A   1      39.752  18.319  25.840  1.00  0.00     0.163 HD
ATOM     34  O   UNL A   1      42.188  18.162  26.058  1.00  0.00    -0.269 OA
BRANCH  32  35
ATOM     35  C   UNL A   1      42.211  20.481  26.397  1.00  0.00     0.039 A 
ATOM     36  C   UNL A   1      42.676  21.234  25.318  1.00  0.00     0.014 A 
ATOM     37  C   UNL A   1      42.292  20.970  27.703  1.00  0.00     0.014 A 
ATOM     38  C   UNL A   1      43.172  22.517  25.548  1.00  0.00     0.010 A 
ATOM     39  C   UNL A   1      42.718  22.274  27.920  1.00  0.00     0.010 A 
ATOM     40  C   UNL A   1      43.162  23.059  26.844  1.00  0.00    -0.014 A 
BRANCH  40  41
ATOM     41  C   UNL A   1      43.616  24.448  27.097  1.00  0.00     0.031 A 
ATOM     42  C   UNL A   1      42.641  25.475  27.599  1.00  0.00     0.074 A 
ATOM     43  C   UNL A   1      44.885  24.798  26.815  1.00  0.00     0.049 A 
ATOM     44  N   UNL A   1      42.823  26.752  27.819  1.00  0.00    -0.248 NA
ATOM     45  C   UNL A   1      41.269  25.010  27.860  1.00  0.00     0.031 C 
ATOM     46  C   UNL A   1      45.909  23.902  26.274  1.00  0.00     0.029 A 
ATOM     47  N   UNL A   1      45.528  26.004  26.933  1.00  0.00    -0.354 N 
ATOM     48  C   UNL A   1      41.590  27.242  28.228  1.00  0.00     0.074 A 
ATOM     49  C   UNL A   1      40.654  26.140  28.170  1.00  0.00     0.031 C 
ATOM     50  C   UNL A   1      47.057  24.584  26.129  1.00  0.00     0.029 A 
ATOM     51  C   UNL A   1      46.841  25.970  26.532  1.00  0.00     0.049 A 
ATOM     52  H   UNL A   1      45.090  26.817  27.274  1.00  0.00     0.167 HD
ATOM     53  C   UNL A   1      41.274  28.492  28.643  1.00  0.00     0.037 A 
ATOM     54  C   UNL A   1      47.764  26.950  26.490  1.00  0.00     0.037 A 
ATOM     55  C   UNL A   1      42.216  29.577  28.723  1.00  0.00     0.049 A 
ATOM     56  C   UNL A   1      47.387  28.331  26.956  1.00  0.00     0.074 A 
ATOM     57  C   UNL A   1      42.010  30.864  29.186  1.00  0.00     0.029 A 
ATOM     58  N   UNL A   1      43.544  29.500  28.329  1.00  0.00    -0.354 N 
ATOM     59  N   UNL A   1      46.237  28.767  27.410  1.00  0.00    -0.248 NA
ATOM     60  C   UNL A   1      48.440  29.355  26.910  1.00  0.00     0.031 C 
ATOM     61  C   UNL A   1      43.202  31.580  29.030  1.00  0.00     0.029 A 
ATOM     62  C   UNL A   1      44.165  30.723  28.519  1.00  0.00     0.049 A 
ATOM     63  H   UNL A   1      43.980  28.694  27.969  1.00  0.00     0.167 HD
ATOM     64  C   UNL A   1      46.434  30.103  27.730  1.00  0.00     0.074 A 
ATOM     65  C   UNL A   1      47.819  30.403  27.432  1.00  0.00     0.031 C 
ATOM     66  C   UNL A   1      45.547  31.001  28.226  1.00  0.00     0.037 A 
BRANCH  53  67
ATOM     67  C   UNL A   1      39.852  28.748  29.048  1.00  0.00     0.064 A 
ATOM     68  C   UNL A   1      38.896  29.202  28.127  1.00  0.00     0.173 A 
ATOM     69  C   UNL A   1      39.431  28.507  30.365  1.00  0.00     0.173 A 
ATOM     70  F   UNL A   1      39.249  29.460  26.858  1.00  0.00    -0.203 F 
ATOM     71  C   UNL A   1      37.579  29.434  28.515  1.00  0.00     0.198 A 
ATOM     72  C   UNL A   1      38.106  28.711  30.742  1.00  0.00     0.198 A 
ATOM     73  F   UNL A   1      40.304  28.069  31.284  1.00  0.00    -0.203 F 
ATOM     74  F   UNL A   1      36.697  29.918  27.631  1.00  0.00    -0.200 F 
ATOM     75  C   UNL A   1      37.184  29.182  29.820  1.00  0.00     0.200 A 
ATOM     76  F   UNL A   1      37.723  28.454  32.001  1.00  0.00    -0.200 F 
ATOM     77  F   UNL A   1      35.915  29.400  30.191  1.00  0.00    -0.200 F 
ENDBRANCH  53  67
BRANCH  54  78
ATOM     78  C   UNL A   1      49.141  26.655  26.016  1.00  0.00     0.064 A 
ATOM     79  C   UNL A   1      49.526  26.941  24.698  1.00  0.00     0.173 A 
ATOM     80  C   UNL A   1      50.098  26.077  26.863  1.00  0.00     0.173 A 
ATOM     81  F   UNL A   1      48.641  27.474  23.844  1.00  0.00    -0.203 F 
ATOM     82  C   UNL A   1      50.807  26.640  24.241  1.00  0.00     0.198 A 
ATOM     83  C   UNL A   1      51.387  25.803  26.413  1.00  0.00     0.198 A 
ATOM     84  F   UNL A   1      49.783  25.789  28.135  1.00  0.00    -0.203 F 
ATOM     85  F   UNL A   1      51.133  26.881  22.963  1.00  0.00    -0.200 F 
ATOM     86  C   UNL A   1      51.738  26.077  25.099  1.00  0.00     0.200 A 
ATOM     87  F   UNL A   1      52.289  25.273  27.250  1.00  0.00    -0.200 F 
ATOM     88  F   UNL A   1      52.971  25.791  24.660  1.00  0.00    -0.200 F 
ENDBRANCH  54  78
BRANCH  66  89
ATOM     89  C   UNL A   1      46.057  32.384  28.511  1.00  0.00     0.064 A 
ATOM     90  C   UNL A   1      46.626  32.719  29.748  1.00  0.00     0.173 A 
ATOM     91  C   UNL A   1      46.014  33.374  27.517  1.00  0.00     0.173 A 
ATOM     92  F   UNL A   1      46.676  31.812  30.735  1.00  0.00    -0.203 F 
ATOM     93  C   UNL A   1      47.110  34.002  29.987  1.00  0.00     0.198 A 
ATOM     94  C   UNL A   1      46.527  34.645  27.750  1.00  0.00     0.198 A 
ATOM     95  F   UNL A   1      45.486  33.101  26.313  1.00  0.00    -0.203 F 
ATOM     96  F   UNL A   1      47.606  34.313  31.193  1.00  0.00    -0.200 F 
ATOM     97  C   UNL A   1      47.068  34.961  28.987  1.00  0.00     0.200 A 
ATOM     98  F   UNL A   1      46.499  35.567  26.776  1.00  0.00    -0.200 F 
ATOM     99  F   UNL A   1      47.543  36.193  29.217  1.00  0.00    -0.200 F 
ENDBRANCH  66  89
ENDBRANCH  40  41
ENDBRANCH  32  35
ENDBRANCH  30  31
ENDBRANCH  29  30
ENDBRANCH  28  29
ENDBRANCH   1  28
TORSDOF 19
ENDMDL
MODEL 2
REMARK VINA RESULT:     -11.2      1.157      3.779
REMARK SMILES CC(C)C[C@H](NC(=O)CNC(=O)[C@@H]([NH3+])C(C)C)C(=O)NCCCCNC(=O)c1ccc(-c2c3nc(c(-c4c(F)c(F)c(F)c(F)c4F)c4ccc([nH]4)c(-c4c(F)c(F)c(F)c(F)c4F)c4nc(c(-c5c(F)c(F)c(F)c(F)c5F)c5ccc2[nH]5)C=C4)C=C3)cc1
REMARK SMILES IDX 21 1 20 2 18 3 19 4 5 6 4 7 2 8 1 9 3 10 6 11 7 12 8 14 9 15
REMARK SMILES IDX 10 16 11 17 12 19 13 20 14 21 15 25 16 26 17 27 22 28 23 29
REMARK SMILES IDX 24 30 25 31 26 32 27 34 28 35 29 36 90 37 30 38 89 39 31 40
REMARK SMILES IDX 32 41 33 42 83 43 34 44 88 45 82 46 84 47 35 48 87 49 81 50
REMARK SMILES IDX 80 51 36 53 68 54 48 55 67 56 49 57 52 58 66 59 85 60 50 61
REMARK SMILES IDX 51 62 65 64 86 65 53 66 37 67 38 68 46 69 39 70 40 71 44 72
REMARK SMILES IDX 47 73 41 74 42 75 45 76 43 77 69 78 70 79 78 80 71 81 72 82
REMARK SMILES IDX 76 83 79 84 73 85 74 86 77 87 75 88 54 89 55 90 63 91 56 92
REMARK SMILES IDX 57 93 61 94 64 95 58 96 59 97 62 98 60 99
REMARK H PARENT 20 5 6 13 10 18 14 22 14 23 14 24 25 33 84 52 52 63
REMARK Flexibility Score: inf
ROOT
ATOM      1  C   UNL A   1      36.629  21.584  25.427  1.00  0.00     0.116 C 
ENDROOT
BRANCH   1   2
ATOM      2  N   UNL A   1      35.534  21.877  26.334  1.00  0.00    -0.354 N 
ATOM      3  C   UNL A   1      34.592  22.860  26.242  1.00  0.00     0.242 C 
ATOM      4  O   UNL A   1      33.780  22.992  27.157  1.00  0.00    -0.273 OA
ATOM      5  H   UNL A   1      35.461  21.288  27.121  1.00  0.00     0.163 HD
BRANCH   3   6
ATOM      6  C   UNL A   1      34.569  23.778  25.006  1.00  0.00     0.171 C 
BRANCH   6   7
ATOM      7  C   UNL A   1      34.677  25.267  25.357  1.00  0.00     0.038 C 
BRANCH   7   8
ATOM      8  C   UNL A   1      33.482  26.240  25.199  1.00  0.00    -0.015 C 
ATOM      9  C   UNL A   1      33.322  27.247  26.333  1.00  0.00     0.007 C 
ATOM     10  C   UNL A   1      33.634  27.012  23.878  1.00  0.00     0.007 C 
ENDBRANCH   7   8
ENDBRANCH   6   7
BRANCH   6  11
ATOM     11  N   UNL A   1      33.430  23.254  24.191  1.00  0.00    -0.343 N 
ATOM     12  C   UNL A   1      32.686  22.172  23.889  1.00  0.00     0.240 C 
ATOM     13  H   UNL A   1      33.081  24.005  23.661  1.00  0.00     0.164 HD
ATOM     14  O   UNL A   1      31.790  22.406  23.061  1.00  0.00    -0.273 OA
BRANCH  12  15
ATOM     15  C   UNL A   1      32.737  20.769  24.498  1.00  0.00     0.216 C 
BRANCH  15  16
ATOM     16  N   UNL A   1      32.627  19.644  23.595  1.00  0.00    -0.342 N 
ATOM     17  C   UNL A   1      32.852  18.314  23.741  1.00  0.00     0.278 C 
ATOM     18  H   UNL A   1      32.325  19.894  22.691  1.00  0.00     0.164 HD
ATOM     19  O   UNL A   1      32.579  17.630  22.746  1.00  0.00    -0.268 OA
BRANCH  17  20
ATOM     20  C   UNL A   1      33.501  17.652  24.995  1.00  0.00     0.273 C 
BRANCH  20  21
ATOM     21  N   UNL A   1      32.709  17.822  26.228  1.00  0.00    -0.347 N 
ATOM     22  H   UNL A   1      31.771  17.447  26.084  1.00  0.00     0.345 HD
ATOM     23  H   UNL A   1      32.646  18.813  26.459  1.00  0.00     0.345 HD
ATOM     24  H   UNL A   1      33.160  17.322  26.995  1.00  0.00     0.345 HD
ENDBRANCH  20  21
BRANCH  20  25
ATOM     25  C   UNL A   1      33.832  16.161  24.737  1.00  0.00     0.051 C 
ATOM     26  C   UNL A   1      35.223  15.789  25.272  1.00  0.00     0.014 C 
ATOM     27  C   UNL A   1      32.810  15.217  25.393  1.00  0.00     0.014 C 
ENDBRANCH  20  25
ENDBRANCH  17  20
ENDBRANCH  15  16
ENDBRANCH  12  15
ENDBRANCH   6  11
ENDBRANCH   3   6
ENDBRANCH   1   2
BRANCH   1  28
ATOM     28  C   UNL A   1      36.620  20.121  25.006  1.00  0.00     0.023 C 
BRANCH  28  29
ATOM     29  C   UNL A   1      38.018  19.537  24.805  1.00  0.00     0.023 C 
BRANCH  29  30
ATOM     30  C   UNL A   1      39.003  19.858  25.921  1.00  0.00     0.116 C 
BRANCH  30  31
ATOM     31  N   UNL A   1      40.175  18.996  25.908  1.00  0.00    -0.352 N 
ATOM     32  C   UNL A   1      41.490  19.357  26.089  1.00  0.00     0.251 C 
ATOM     33  H   UNL A   1      40.007  18.039  25.750  1.00  0.00     0.163 HD
ATOM     34  O   UNL A   1      42.395  18.561  25.921  1.00  0.00    -0.269 OA
BRANCH  32  35
ATOM     35  C   UNL A   1      41.779  20.758  26.458  1.00  0.00     0.039 A 
ATOM     36  C   UNL A   1      42.120  21.048  27.779  1.00  0.00     0.014 A 
ATOM     37  C   UNL A   1      41.792  21.753  25.477  1.00  0.00     0.014 A 
ATOM     38  C   UNL A   1      42.538  22.337  28.107  1.00  0.00     0.010 A 
ATOM     39  C   UNL A   1      42.279  23.015  25.791  1.00  0.00     0.010 A 
ATOM     40  C   UNL A   1      42.656  23.319  27.109  1.00  0.00    -0.014 A 
BRANCH  40  41
ATOM     41  C   UNL A   1      43.170  24.674  27.423  1.00  0.00     0.031 A 
ATOM     42  C   UNL A   1      42.248  25.707  28.006  1.00  0.00     0.074 A 
ATOM     43  C   UNL A   1      44.443  24.991  27.125  1.00  0.00     0.049 A 
ATOM     44  N   UNL A   1      42.484  26.963  28.289  1.00  0.00    -0.248 NA
ATOM     45  C   UNL A   1      40.866  25.280  28.279  1.00  0.00     0.031 C 
ATOM     46  C   UNL A   1      45.418  24.089  26.509  1.00  0.00     0.029 A 
ATOM     47  N   UNL A   1      45.135  26.164  27.291  1.00  0.00    -0.354 N 
ATOM     48  C   UNL A   1      41.282  27.475  28.759  1.00  0.00     0.074 A 
ATOM     49  C   UNL A   1      40.303  26.413  28.667  1.00  0.00     0.031 C 
ATOM     50  C   UNL A   1      46.587  24.735  26.369  1.00  0.00     0.029 A 
ATOM     51  C   UNL A   1      46.436  26.104  26.853  1.00  0.00     0.049 A 
ATOM     52  H   UNL A   1      44.738  26.973  27.687  1.00  0.00     0.167 HD
ATOM     53  C   UNL A   1      41.026  28.711  29.248  1.00  0.00     0.037 A 
ATOM     54  C   UNL A   1      47.394  27.049  26.838  1.00  0.00     0.037 A 
ATOM     55  C   UNL A   1      42.010  29.754  29.361  1.00  0.00     0.049 A 
ATOM     56  C   UNL A   1      47.082  28.416  27.388  1.00  0.00     0.074 A 
ATOM     57  C   UNL A   1      41.866  31.021  29.898  1.00  0.00     0.029 A 
ATOM     58  N   UNL A   1      43.323  29.649  28.927  1.00  0.00    -0.354 N 
ATOM     59  N   UNL A   1      45.962  28.869  27.895  1.00  0.00    -0.248 NA
ATOM     60  C   UNL A   1      48.173  29.401  27.367  1.00  0.00     0.031 C 
ATOM     61  C   UNL A   1      43.080  31.699  29.748  1.00  0.00     0.029 A 
ATOM     62  C   UNL A   1      43.996  30.837  29.165  1.00  0.00     0.049 A 
ATOM     63  H   UNL A   1      43.719  28.849  28.512  1.00  0.00     0.167 HD
ATOM     64  C   UNL A   1      46.219  30.177  28.282  1.00  0.00     0.074 A 
ATOM     65  C   UNL A   1      47.606  30.441  27.962  1.00  0.00     0.031 C 
ATOM     66  C   UNL A   1      45.380  31.079  28.849  1.00  0.00     0.037 A 
BRANCH  53  67
ATOM     67  C   UNL A   1      39.625  28.997  29.705  1.00  0.00     0.064 A 
ATOM     68  C   UNL A   1      39.219  28.757  31.026  1.00  0.00     0.173 A 
ATOM     69  C   UNL A   1      38.685  29.547  28.820  1.00  0.00     0.173 A 
ATOM     70  F   UNL A   1      40.075  28.220  31.909  1.00  0.00    -0.203 F 
ATOM     71  C   UNL A   1      37.916  29.028  31.437  1.00  0.00     0.198 A 
ATOM     72  C   UNL A   1      37.392  29.846  29.242  1.00  0.00     0.198 A 
ATOM     73  F   UNL A   1      39.022  29.800  27.546  1.00  0.00    -0.203 F 
ATOM     74  F   UNL A   1      37.537  28.741  32.689  1.00  0.00    -0.200 F 
ATOM     75  C   UNL A   1      37.007  29.579  30.547  1.00  0.00     0.200 A 
ATOM     76  F   UNL A   1      36.518  30.391  28.384  1.00  0.00    -0.200 F 
ATOM     77  F   UNL A   1      35.756  29.845  30.945  1.00  0.00    -0.200 F 
ENDBRANCH  53  67
BRANCH  54  78
ATOM     78  C   UNL A   1      48.746  26.730  26.311  1.00  0.00     0.064 A 
ATOM     79  C   UNL A   1      49.079  26.994  24.974  1.00  0.00     0.173 A 
ATOM     80  C   UNL A   1      49.730  26.150  27.125  1.00  0.00     0.173 A 
ATOM     81  F   UNL A   1      48.167  27.529  24.152  1.00  0.00    -0.203 F 
ATOM     82  C   UNL A   1      50.336  26.671  24.468  1.00  0.00     0.198 A 
ATOM     83  C   UNL A   1      50.996  25.853  26.625  1.00  0.00     0.198 A 
ATOM     84  F   UNL A   1      49.464  25.882  28.412  1.00  0.00    -0.203 F 
ATOM     85  F   UNL A   1      50.612  26.891  23.175  1.00  0.00    -0.200 F 
ATOM     86  C   UNL A   1      51.295  26.105  25.295  1.00  0.00     0.200 A 
ATOM     87  F   UNL A   1      51.924  25.320  27.431  1.00  0.00    -0.200 F 
ATOM     88  F   UNL A   1      52.505  25.798  24.808  1.00  0.00    -0.200 F 
ENDBRANCH  54  78
BRANCH  66  89
ATOM     89  C   UNL A   1      45.949  32.424  29.194  1.00  0.00     0.064 A 
ATOM     90  C   UNL A   1      46.573  32.666  30.427  1.00  0.00     0.173 A 
ATOM     91  C   UNL A   1      45.908  33.471  28.261  1.00  0.00     0.173 A 
ATOM     92  F   UNL A   1      46.625  31.701  31.357  1.00  0.00    -0.203 F 
ATOM     93  C   UNL A   1      47.112  33.915  30.721  1.00  0.00     0.198 A 
ATOM     94  C   UNL A   1      46.476  34.708  28.547  1.00  0.00     0.198 A 
ATOM     95  F   UNL A   1      45.329  33.288  27.064  1.00  0.00    -0.203 F 
ATOM     96  F   UNL A   1      47.662  34.138  31.924  1.00  0.00    -0.200 F 
ATOM     97  C   UNL A   1      47.071  34.932  29.779  1.00  0.00     0.200 A 
ATOM     98  F   UNL A   1      46.447  35.686  27.630  1.00  0.00    -0.200 F 
ATOM     99  F   UNL A   1      47.598  36.131  30.062  1.00  0.00    -0.200 F 
ENDBRANCH  66  89
ENDBRANCH  40  41
ENDBRANCH  32  35
ENDBRANCH  30  31
ENDBRANCH  29  30
ENDBRANCH  28  29
ENDBRANCH   1  28
TORSDOF 19
ENDMDL
MODEL 3
REMARK VINA RESULT:     -11.2      0.821      1.902
REMARK SMILES CC(C)C[C@H](NC(=O)CNC(=O)[C@@H]([NH3+])C(C)C)C(=O)NCCCCNC(=O)c1ccc(-c2c3nc(c(-c4c(F)c(F)c(F)c(F)c4F)c4ccc([nH]4)c(-c4c(F)c(F)c(F)c(F)c4F)c4nc(c(-c5c(F)c(F)c(F)c(F)c5F)c5ccc2[nH]5)C=C4)C=C3)cc1
REMARK SMILES IDX 21 1 20 2 18 3 19 4 5 6 4 7 2 8 1 9 3 10 6 11 7 12 8 14 9 15
REMARK SMILES IDX 10 16 11 17 12 19 13 20 14 21 15 25 16 26 17 27 22 28 23 29
REMARK SMILES IDX 24 30 25 31 26 32 27 34 28 35 29 36 90 37 30 38 89 39 31 40
REMARK SMILES IDX 32 41 33 42 83 43 34 44 88 45 82 46 84 47 35 48 87 49 81 50
REMARK SMILES IDX 80 51 36 53 68 54 48 55 67 56 49 57 52 58 66 59 85 60 50 61
REMARK SMILES IDX 51 62 65 64 86 65 53 66 37 67 38 68 46 69 39 70 40 71 44 72
REMARK SMILES IDX 47 73 41 74 42 75 45 76 43 77 69 78 70 79 78 80 71 81 72 82
REMARK SMILES IDX 76 83 79 84 73 85 74 86 77 87 75 88 54 89 55 90 63 91 56 92
REMARK SMILES IDX 57 93 61 94 64 95 58 96 59 97 62 98 60 99
REMARK H PARENT 20 5 6 13 10 18 14 22 14 23 14 24 25 33 84 52 52 63
REMARK Flexibility Score: inf
ROOT
ATOM      1  C   UNL A   1      36.293  21.862  25.224  1.00  0.00     0.116 C 
ENDROOT
BRANCH   1   2
ATOM      2  N   UNL A   1      35.189  22.256  24.369  1.00  0.00    -0.354 N 
ATOM      3  C   UNL A   1      33.921  21.752  24.330  1.00  0.00     0.242 C 
ATOM      4  O   UNL A   1      33.141  22.175  23.477  1.00  0.00    -0.273 OA
ATOM      5  H   UNL A   1      35.379  22.984  23.734  1.00  0.00     0.163 HD
BRANCH   3   6
ATOM      6  C   UNL A   1      33.500  20.671  25.342  1.00  0.00     0.171 C 
BRANCH   6   7
ATOM      7  C   UNL A   1      32.563  19.616  24.743  1.00  0.00     0.038 C 
BRANCH   7   8
ATOM      8  C   UNL A   1      33.057  18.200  24.354  1.00  0.00    -0.015 C 
ATOM      9  C   UNL A   1      34.572  18.028  24.351  1.00  0.00     0.007 C 
ATOM     10  C   UNL A   1      32.451  17.172  25.325  1.00  0.00     0.007 C 
ENDBRANCH   7   8
ENDBRANCH   6   7
BRANCH   6  11
ATOM     11  N   UNL A   1      33.115  21.449  26.558  1.00  0.00    -0.343 N 
ATOM     12  C   UNL A   1      32.370  22.465  27.038  1.00  0.00     0.240 C 
ATOM     13  H   UNL A   1      33.604  21.062  27.319  1.00  0.00     0.164 HD
ATOM     14  O   UNL A   1      32.489  22.627  28.264  1.00  0.00    -0.273 OA
BRANCH  12  15
ATOM     15  C   UNL A   1      31.350  23.339  26.304  1.00  0.00     0.216 C 
BRANCH  15  16
ATOM     16  N   UNL A   1      31.097  24.660  26.836  1.00  0.00    -0.342 N 
ATOM     17  C   UNL A   1      31.209  25.907  26.312  1.00  0.00     0.278 C 
ATOM     18  H   UNL A   1      30.776  24.654  27.767  1.00  0.00     0.164 HD
ATOM     19  O   UNL A   1      30.829  26.818  27.058  1.00  0.00    -0.268 OA
BRANCH  17  20
ATOM     20  C   UNL A   1      31.854  26.239  24.932  1.00  0.00     0.273 C 
BRANCH  20  21
ATOM     21  N   UNL A   1      31.056  27.175  24.117  1.00  0.00    -0.347 N 
ATOM     22  H   UNL A   1      30.093  27.184  24.456  1.00  0.00     0.345 HD
ATOM     23  H   UNL A   1      31.070  26.875  23.142  1.00  0.00     0.345 HD
ATOM     24  H   UNL A   1      31.451  28.112  24.190  1.00  0.00     0.345 HD
ENDBRANCH  20  21
BRANCH  20  25
ATOM     25  C   UNL A   1      33.312  26.737  25.097  1.00  0.00     0.051 C 
ATOM     26  C   UNL A   1      34.283  25.571  25.340  1.00  0.00     0.014 C 
ATOM     27  C   UNL A   1      33.806  27.509  23.863  1.00  0.00     0.014 C 
ENDBRANCH  20  25
ENDBRANCH  17  20
ENDBRANCH  15  16
ENDBRANCH  12  15
ENDBRANCH   6  11
ENDBRANCH   3   6
ENDBRANCH   1   2
BRANCH   1  28
ATOM     28  C   UNL A   1      37.432  21.260  24.413  1.00  0.00     0.023 C 
BRANCH  28  29
ATOM     29  C   UNL A   1      38.083  20.049  25.081  1.00  0.00     0.023 C 
BRANCH  29  30
ATOM     30  C   UNL A   1      39.375  20.356  25.825  1.00  0.00     0.116 C 
BRANCH  30  31
ATOM     31  N   UNL A   1      40.252  19.202  25.938  1.00  0.00    -0.352 N 
ATOM     32  C   UNL A   1      41.611  19.193  26.156  1.00  0.00     0.251 C 
ATOM     33  H   UNL A   1      39.823  18.321  25.845  1.00  0.00     0.163 HD
ATOM     34  O   UNL A   1      42.256  18.162  26.097  1.00  0.00    -0.269 OA
BRANCH  32  35
ATOM     35  C   UNL A   1      42.277  20.482  26.431  1.00  0.00     0.039 A 
ATOM     36  C   UNL A   1      42.692  21.267  25.354  1.00  0.00     0.014 A 
ATOM     37  C   UNL A   1      42.406  20.938  27.745  1.00  0.00     0.014 A 
ATOM     38  C   UNL A   1      43.184  22.549  25.597  1.00  0.00     0.010 A 
ATOM     39  C   UNL A   1      42.827  22.241  27.978  1.00  0.00     0.010 A 
ATOM     40  C   UNL A   1      43.221  23.058  26.906  1.00  0.00    -0.014 A 
BRANCH  40  41
ATOM     41  C   UNL A   1      43.671  24.445  27.176  1.00  0.00     0.031 A 
ATOM     42  C   UNL A   1      42.693  25.462  27.689  1.00  0.00     0.074 A 
ATOM     43  C   UNL A   1      44.940  24.800  26.899  1.00  0.00     0.049 A 
ATOM     44  N   UNL A   1      42.872  26.738  27.925  1.00  0.00    -0.248 NA
ATOM     45  C   UNL A   1      41.322  24.991  27.943  1.00  0.00     0.031 C 
ATOM     46  C   UNL A   1      45.966  23.914  26.349  1.00  0.00     0.029 A 
ATOM     47  N   UNL A   1      45.580  26.007  27.033  1.00  0.00    -0.354 N 
ATOM     48  C   UNL A   1      41.638  27.220  28.339  1.00  0.00     0.074 A 
ATOM     49  C   UNL A   1      40.704  26.117  28.266  1.00  0.00     0.031 C 
ATOM     50  C   UNL A   1      47.113  24.600  26.213  1.00  0.00     0.029 A 
ATOM     51  C   UNL A   1      46.894  25.981  26.633  1.00  0.00     0.049 A 
ATOM     52  H   UNL A   1      45.140  26.815  27.384  1.00  0.00     0.167 HD
ATOM     53  C   UNL A   1      41.319  28.464  28.769  1.00  0.00     0.037 A 
ATOM     54  C   UNL A   1      47.814  26.963  26.604  1.00  0.00     0.037 A 
ATOM     55  C   UNL A   1      42.258  29.550  28.863  1.00  0.00     0.049 A 
ATOM     56  C   UNL A   1      47.434  28.337  27.086  1.00  0.00     0.074 A 
ATOM     57  C   UNL A   1      42.049  30.831  29.341  1.00  0.00     0.029 A 
ATOM     58  N   UNL A   1      43.586  29.480  28.470  1.00  0.00    -0.354 N 
ATOM     59  N   UNL A   1      46.282  28.765  27.544  1.00  0.00    -0.248 NA
ATOM     60  C   UNL A   1      48.485  29.365  27.053  1.00  0.00     0.031 C 
ATOM     61  C   UNL A   1      43.239  31.551  29.195  1.00  0.00     0.029 A 
ATOM     62  C   UNL A   1      44.204  30.703  28.675  1.00  0.00     0.049 A 
ATOM     63  H   UNL A   1      44.024  28.680  28.100  1.00  0.00     0.167 HD
ATOM     64  C   UNL A   1      46.476  30.097  27.881  1.00  0.00     0.074 A 
ATOM     65  C   UNL A   1      47.860  30.404  27.587  1.00  0.00     0.031 C 
ATOM     66  C   UNL A   1      45.586  30.987  28.386  1.00  0.00     0.037 A 
BRANCH  53  67
ATOM     67  C   UNL A   1      39.895  28.712  29.175  1.00  0.00     0.064 A 
ATOM     68  C   UNL A   1      38.942  29.185  28.261  1.00  0.00     0.173 A 
ATOM     69  C   UNL A   1      39.471  28.444  30.485  1.00  0.00     0.173 A 
ATOM     70  F   UNL A   1      39.299  29.469  26.999  1.00  0.00    -0.203 F 
ATOM     71  C   UNL A   1      37.624  29.410  28.651  1.00  0.00     0.198 A 
ATOM     72  C   UNL A   1      38.145  28.640  30.863  1.00  0.00     0.198 A 
ATOM     73  F   UNL A   1      40.341  27.986  31.398  1.00  0.00    -0.203 F 
ATOM     74  F   UNL A   1      36.744  29.912  27.774  1.00  0.00    -0.200 F 
ATOM     75  C   UNL A   1      37.226  29.130  29.949  1.00  0.00     0.200 A 
ATOM     76  F   UNL A   1      37.759  28.357  32.115  1.00  0.00    -0.200 F 
ATOM     77  F   UNL A   1      35.956  29.341  30.321  1.00  0.00    -0.200 F 
ENDBRANCH  53  67
BRANCH  54  78
ATOM     78  C   UNL A   1      49.193  26.677  26.128  1.00  0.00     0.064 A 
ATOM     79  C   UNL A   1      50.156  26.137  26.993  1.00  0.00     0.173 A 
ATOM     80  C   UNL A   1      49.579  26.942  24.806  1.00  0.00     0.173 A 
ATOM     81  F   UNL A   1      49.840  25.886  28.271  1.00  0.00    -0.203 F 
ATOM     82  C   UNL A   1      51.457  25.894  26.559  1.00  0.00     0.198 A 
ATOM     83  C   UNL A   1      50.873  26.671  24.365  1.00  0.00     0.198 A 
ATOM     84  F   UNL A   1      48.694  27.453  23.937  1.00  0.00    -0.203 F 
ATOM     85  F   UNL A   1      52.370  25.422  27.419  1.00  0.00    -0.200 F 
ATOM     86  C   UNL A   1      51.813  26.156  25.245  1.00  0.00     0.200 A 
ATOM     87  F   UNL A   1      51.209  26.912  23.091  1.00  0.00    -0.200 F 
ATOM     88  F   UNL A   1      53.064  25.918  24.827  1.00  0.00    -0.200 F 
ENDBRANCH  54  78
BRANCH  66  89
ATOM     89  C   UNL A   1      46.092  32.368  28.689  1.00  0.00     0.064 A 
ATOM     90  C   UNL A   1      46.030  33.400  27.742  1.00  0.00     0.173 A 
ATOM     91  C   UNL A   1      46.606  32.671  29.959  1.00  0.00     0.173 A 
ATOM     92  F   UNL A   1      45.559  33.157  26.509  1.00  0.00    -0.203 F 
ATOM     93  C   UNL A   1      46.486  34.679  28.048  1.00  0.00     0.198 A 
ATOM     94  C   UNL A   1      47.033  33.957  30.271  1.00  0.00     0.198 A 
ATOM     95  F   UNL A   1      46.681  31.720  30.903  1.00  0.00    -0.203 F 
ATOM     96  F   UNL A   1      46.460  35.639  27.112  1.00  0.00    -0.200 F 
ATOM     97  C   UNL A   1      46.980  34.959  29.314  1.00  0.00     0.200 A 
ATOM     98  F   UNL A   1      47.496  34.229  31.499  1.00  0.00    -0.200 F 
ATOM     99  F   UNL A   1      47.411  36.193  29.608  1.00  0.00    -0.200 F 
ENDBRANCH  66  89
ENDBRANCH  40  41
ENDBRANCH  32  35
ENDBRANCH  30  31
ENDBRANCH  29  30
ENDBRANCH  28  29
ENDBRANCH   1  28
TORSDOF 19
ENDMDL
