MODEL 1
REMARK VINA RESULT:     -12.9      0.000      0.000
REMARK SMILES COc1ccc(NS(=O)(=O)c2ccc(Cl)c(C(=O)NCCCCNC(=O)c3ccc(-c4c5nc(c(-c6c(F)c(F)c(F)c(F)c6F)c6ccc([nH]6)c(-c6c(F)c(F)c(F)c(F)c6F)c6nc(c(-c7c(F)c(F)c(F)c(F)c7F)c7ccc4[nH]7)C=C6)C=C5)cc3)c2)cc1Cl
REMARK SMILES IDX 20 1 19 2 17 3 18 4 16 6 11 7 12 8 90 9 13 10 14 11 15 12
REMARK SMILES IDX 8 13 9 14 10 15 7 16 6 18 3 19 4 20 92 21 5 22 91 23 93 24
REMARK SMILES IDX 2 25 1 26 21 27 22 28 23 29 24 30 25 31 26 33 27 34 28 35
REMARK SMILES IDX 89 36 29 37 88 38 30 39 31 40 32 41 82 42 33 43 87 44 81 45
REMARK SMILES IDX 83 46 34 47 86 48 80 49 79 50 35 52 67 53 47 54 66 55 48 56
REMARK SMILES IDX 51 57 65 58 84 59 49 60 50 61 64 63 85 64 52 65 36 66 37 67
REMARK SMILES IDX 45 68 38 69 39 70 43 71 46 72 40 73 41 74 44 75 42 76 68 77
REMARK SMILES IDX 69 78 77 79 70 80 71 81 75 82 78 83 72 84 73 85 76 86 74 87
REMARK SMILES IDX 53 88 54 89 62 90 55 91 56 92 60 93 63 94 57 95 58 96 61 97
REMARK SMILES IDX 59 98
REMARK H PARENT 19 5 7 17 24 32 83 51 51 62
REMARK Flexibility Score: inf
ROOT
ATOM      1  C   UNL A   1      33.064  30.031  26.374  1.00  0.00     0.116 C 
ENDROOT
BRANCH   1   2
ATOM      2  N   UNL A   1      33.604  29.609  25.097  1.00  0.00    -0.352 N 
ATOM      3  C   UNL A   1      33.404  28.476  24.351  1.00  0.00     0.252 C 
ATOM      4  O   UNL A   1      34.250  28.210  23.494  1.00  0.00    -0.269 OA
ATOM      5  H   UNL A   1      34.228  30.253  24.690  1.00  0.00     0.163 HD
BRANCH   3   6
ATOM      6  C   UNL A   1      32.141  27.687  24.349  1.00  0.00     0.059 A 
ATOM      7  C   UNL A   1      31.204  25.573  25.156  1.00  0.00     0.088 A 
ATOM      8  C   UNL A   1      30.030  25.815  24.447  1.00  0.00     0.024 A 
ATOM      9  C   UNL A   1      32.230  26.519  25.136  1.00  0.00     0.037 A 
ATOM     10  C   UNL A   1      29.886  27.016  23.752  1.00  0.00     0.023 A 
ATOM     11  C   UNL A   1      30.925  27.963  23.719  1.00  0.00     0.053 A 
ATOM     12  Cl  UNL A   1      30.506  29.474  23.012  1.00  0.00    -0.083 Cl
BRANCH   7  13
ATOM     13  S   UNL A   1      31.356  24.002  25.983  1.00  0.00     0.261 S 
ATOM     14  O   UNL A   1      31.103  22.985  24.980  1.00  0.00    -0.201 OA
ATOM     15  O   UNL A   1      30.553  24.101  27.178  1.00  0.00    -0.201 OA
BRANCH  13  16
ATOM     16  N   UNL A   1      32.930  23.847  26.509  1.00  0.00    -0.280 N 
ATOM     17  H   UNL A   1      33.101  24.069  27.453  1.00  0.00     0.180 HD
BRANCH  16  18
ATOM     18  C   UNL A   1      34.058  23.428  25.746  1.00  0.00     0.051 A 
ATOM     19  C   UNL A   1      36.476  22.379  24.810  1.00  0.00     0.137 A 
ATOM     20  C   UNL A   1      36.312  23.760  24.925  1.00  0.00     0.050 A 
ATOM     21  C   UNL A   1      35.404  21.526  25.074  1.00  0.00     0.085 A 
ATOM     22  C   UNL A   1      35.089  24.285  25.351  1.00  0.00     0.030 A 
ATOM     23  C   UNL A   1      34.196  22.052  25.538  1.00  0.00     0.051 A 
ATOM     24  Cl  UNL A   1      35.545  19.815  24.905  1.00  0.00    -0.080 Cl
BRANCH  19  25
ATOM     25  O   UNL A   1      37.740  21.893  24.607  1.00  0.00    -0.495 OA
ATOM     26  C   UNL A   1      38.484  21.851  25.820  1.00  0.00     0.278 C 
ENDBRANCH  19  25
ENDBRANCH  16  18
ENDBRANCH  13  16
ENDBRANCH   7  13
ENDBRANCH   3   6
ENDBRANCH   1   2
BRANCH   1  27
ATOM     27  C   UNL A   1      31.723  30.731  26.130  1.00  0.00     0.023 C 
BRANCH  27  28
ATOM     28  C   UNL A   1      31.468  31.949  27.018  1.00  0.00     0.023 C 
BRANCH  28  29
ATOM     29  C   UNL A   1      32.708  32.781  27.321  1.00  0.00     0.116 C 
BRANCH  29  30
ATOM     30  N   UNL A   1      32.400  34.169  27.642  1.00  0.00    -0.352 N 
ATOM     31  C   UNL A   1      32.992  34.999  28.559  1.00  0.00     0.251 C 
ATOM     32  H   UNL A   1      31.662  34.567  27.126  1.00  0.00     0.163 HD
ATOM     33  O   UNL A   1      32.541  36.120  28.770  1.00  0.00    -0.269 OA
BRANCH  31  34
ATOM     34  C   UNL A   1      34.158  34.517  29.321  1.00  0.00     0.039 A 
ATOM     35  C   UNL A   1      33.945  33.908  30.560  1.00  0.00     0.014 A 
ATOM     36  C   UNL A   1      35.448  34.636  28.798  1.00  0.00     0.014 A 
ATOM     37  C   UNL A   1      35.024  33.351  31.246  1.00  0.00     0.010 A 
ATOM     38  C   UNL A   1      36.511  34.024  29.451  1.00  0.00     0.010 A 
ATOM     39  C   UNL A   1      36.307  33.375  30.678  1.00  0.00    -0.014 A 
BRANCH  39  40
ATOM     40  C   UNL A   1      37.456  32.724  31.349  1.00  0.00     0.031 A 
ATOM     41  C   UNL A   1      38.159  31.580  30.683  1.00  0.00     0.074 A 
ATOM     42  C   UNL A   1      37.807  33.113  32.590  1.00  0.00     0.049 A 
ATOM     43  N   UNL A   1      39.119  30.817  31.141  1.00  0.00    -0.248 NA
ATOM     44  C   UNL A   1      37.702  31.223  29.330  1.00  0.00     0.031 C 
ATOM     45  C   UNL A   1      37.161  34.179  33.358  1.00  0.00     0.029 A 
ATOM     46  N   UNL A   1      38.786  32.645  33.428  1.00  0.00    -0.354 N 
ATOM     47  C   UNL A   1      39.362  29.881  30.146  1.00  0.00     0.074 A 
ATOM     48  C   UNL A   1      38.422  30.141  29.078  1.00  0.00     0.031 C 
ATOM     49  C   UNL A   1      37.772  34.294  34.548  1.00  0.00     0.029 A 
ATOM     50  C   UNL A   1      38.830  33.292  34.638  1.00  0.00     0.049 A 
ATOM     51  H   UNL A   1      39.400  31.915  33.185  1.00  0.00     0.167 HD
ATOM     52  C   UNL A   1      40.302  28.906  30.119  1.00  0.00     0.037 A 
ATOM     53  C   UNL A   1      39.631  33.094  35.701  1.00  0.00     0.037 A 
ATOM     54  C   UNL A   1      41.259  28.677  31.168  1.00  0.00     0.049 A 
ATOM     55  C   UNL A   1      40.681  32.018  35.635  1.00  0.00     0.074 A 
ATOM     56  C   UNL A   1      42.296  27.763  31.207  1.00  0.00     0.029 A 
ATOM     57  N   UNL A   1      41.294  29.376  32.365  1.00  0.00    -0.354 N 
ATOM     58  N   UNL A   1      40.946  31.180  34.663  1.00  0.00    -0.248 NA
ATOM     59  C   UNL A   1      41.546  31.866  36.814  1.00  0.00     0.031 C 
ATOM     60  C   UNL A   1      42.941  27.887  32.442  1.00  0.00     0.029 A 
ATOM     61  C   UNL A   1      42.328  28.902  33.158  1.00  0.00     0.049 A 
ATOM     62  H   UNL A   1      40.677  30.101  32.617  1.00  0.00     0.167 HD
ATOM     63  C   UNL A   1      42.018  30.416  35.101  1.00  0.00     0.074 A 
ATOM     64  C   UNL A   1      42.365  30.900  36.421  1.00  0.00     0.031 C 
ATOM     65  C   UNL A   1      42.658  29.402  34.467  1.00  0.00     0.037 A 
BRANCH  52  66
ATOM     66  C   UNL A   1      40.341  28.021  28.910  1.00  0.00     0.064 A 
ATOM     67  C   UNL A   1      39.636  26.808  28.866  1.00  0.00     0.173 A 
ATOM     68  C   UNL A   1      41.074  28.396  27.776  1.00  0.00     0.173 A 
ATOM     69  F   UNL A   1      38.933  26.397  29.933  1.00  0.00    -0.203 F 
ATOM     70  C   UNL A   1      39.688  25.991  27.740  1.00  0.00     0.198 A 
ATOM     71  C   UNL A   1      41.102  27.589  26.641  1.00  0.00     0.198 A 
ATOM     72  F   UNL A   1      41.764  29.546  27.766  1.00  0.00    -0.203 F 
ATOM     73  F   UNL A   1      39.046  24.814  27.740  1.00  0.00    -0.200 F 
ATOM     74  C   UNL A   1      40.415  26.383  26.627  1.00  0.00     0.200 A 
ATOM     75  F   UNL A   1      41.799  27.974  25.563  1.00  0.00    -0.200 F 
ATOM     76  F   UNL A   1      40.462  25.597  25.543  1.00  0.00    -0.200 F 
ENDBRANCH  52  66
BRANCH  53  77
ATOM     77  C   UNL A   1      39.492  33.951  36.904  1.00  0.00     0.064 A 
ATOM     78  C   UNL A   1      40.129  35.198  36.972  1.00  0.00     0.173 A 
ATOM     79  C   UNL A   1      38.722  33.548  38.005  1.00  0.00     0.173 A 
ATOM     80  F   UNL A   1      40.892  35.614  35.952  1.00  0.00    -0.203 F 
ATOM     81  C   UNL A   1      40.016  36.002  38.104  1.00  0.00     0.198 A 
ATOM     82  C   UNL A   1      38.590  34.364  39.126  1.00  0.00     0.198 A 
ATOM     83  F   UNL A   1      38.089  32.366  37.985  1.00  0.00    -0.203 F 
ATOM     84  F   UNL A   1      40.667  37.172  38.158  1.00  0.00    -0.200 F 
ATOM     85  C   UNL A   1      39.242  35.587  39.177  1.00  0.00     0.200 A 
ATOM     86  F   UNL A   1      37.833  33.965  40.158  1.00  0.00    -0.200 F 
ATOM     87  F   UNL A   1      39.131  36.363  40.264  1.00  0.00    -0.200 F 
ENDBRANCH  53  77
BRANCH  65  88
ATOM     88  C   UNL A   1      43.810  28.768  35.184  1.00  0.00     0.064 A 
ATOM     89  C   UNL A   1      45.118  29.252  35.037  1.00  0.00     0.173 A 
ATOM     90  C   UNL A   1      43.598  27.692  36.058  1.00  0.00     0.173 A 
ATOM     91  F   UNL A   1      45.371  30.268  34.198  1.00  0.00    -0.203 F 
ATOM     92  C   UNL A   1      46.177  28.668  35.726  1.00  0.00     0.198 A 
ATOM     93  C   UNL A   1      44.655  27.126  36.766  1.00  0.00     0.198 A 
ATOM     94  F   UNL A   1      42.364  27.198  36.236  1.00  0.00    -0.203 F 
ATOM     95  F   UNL A   1      47.424  29.120  35.542  1.00  0.00    -0.200 F 
ATOM     96  C   UNL A   1      45.944  27.611  36.595  1.00  0.00     0.200 A 
ATOM     97  F   UNL A   1      44.428  26.113  37.612  1.00  0.00    -0.200 F 
ATOM     98  F   UNL A   1      46.963  27.054  37.263  1.00  0.00    -0.200 F 
ENDBRANCH  65  88
ENDBRANCH  39  40
ENDBRANCH  31  34
ENDBRANCH  29  30
ENDBRANCH  28  29
ENDBRANCH  27  28
ENDBRANCH   1  27
TORSDOF 15
ENDMDL
MODEL 2
REMARK VINA RESULT:     -12.9      1.110      1.828
REMARK SMILES COc1ccc(NS(=O)(=O)c2ccc(Cl)c(C(=O)NCCCCNC(=O)c3ccc(-c4c5nc(c(-c6c(F)c(F)c(F)c(F)c6F)c6ccc([nH]6)c(-c6c(F)c(F)c(F)c(F)c6F)c6nc(c(-c7c(F)c(F)c(F)c(F)c7F)c7ccc4[nH]7)C=C6)C=C5)cc3)c2)cc1Cl
REMARK SMILES IDX 20 1 19 2 17 3 18 4 16 6 11 7 12 8 90 9 13 10 14 11 15 12
REMARK SMILES IDX 8 13 9 14 10 15 7 16 6 18 3 19 4 20 92 21 5 22 91 23 93 24
REMARK SMILES IDX 2 25 1 26 21 27 22 28 23 29 24 30 25 31 26 33 27 34 28 35
REMARK SMILES IDX 89 36 29 37 88 38 30 39 31 40 32 41 82 42 33 43 87 44 81 45
REMARK SMILES IDX 83 46 34 47 86 48 80 49 79 50 35 52 67 53 47 54 66 55 48 56
REMARK SMILES IDX 51 57 65 58 84 59 49 60 50 61 64 63 85 64 52 65 36 66 37 67
REMARK SMILES IDX 45 68 38 69 39 70 43 71 46 72 40 73 41 74 44 75 42 76 68 77
REMARK SMILES IDX 69 78 77 79 70 80 71 81 75 82 78 83 72 84 73 85 76 86 74 87
REMARK SMILES IDX 53 88 54 89 62 90 55 91 56 92 60 93 63 94 57 95 58 96 61 97
REMARK SMILES IDX 59 98
REMARK H PARENT 19 5 7 17 24 32 83 51 51 62
REMARK Flexibility Score: inf
ROOT
ATOM      1  C   UNL A   1      33.195  30.031  26.461  1.00  0.00     0.116 C 
ENDROOT
BRANCH   1   2
ATOM      2  N   UNL A   1      33.514  29.719  25.083  1.00  0.00    -0.352 N 
ATOM      3  C   UNL A   1      33.353  28.573  24.346  1.00  0.00     0.252 C 
ATOM      4  O   UNL A   1      34.030  28.464  23.321  1.00  0.00    -0.269 OA
ATOM      5  H   UNL A   1      33.920  30.464  24.584  1.00  0.00     0.163 HD
BRANCH   3   6
ATOM      6  C   UNL A   1      32.270  27.577  24.572  1.00  0.00     0.059 A 
ATOM      7  C   UNL A   1      31.895  25.325  25.459  1.00  0.00     0.088 A 
ATOM      8  C   UNL A   1      30.573  25.367  25.024  1.00  0.00     0.024 A 
ATOM      9  C   UNL A   1      32.720  26.435  25.268  1.00  0.00     0.037 A 
ATOM     10  C   UNL A   1      30.084  26.531  24.432  1.00  0.00     0.023 A 
ATOM     11  C   UNL A   1      30.918  27.645  24.225  1.00  0.00     0.053 A 
ATOM     12  Cl  UNL A   1      30.110  29.066  23.693  1.00  0.00    -0.083 Cl
BRANCH   7  13
ATOM     13  S   UNL A   1      32.483  23.796  26.161  1.00  0.00     0.261 S 
ATOM     14  O   UNL A   1      31.474  23.367  27.109  1.00  0.00    -0.201 OA
ATOM     15  O   UNL A   1      33.846  24.042  26.568  1.00  0.00    -0.201 OA
BRANCH  13  16
ATOM     16  N   UNL A   1      32.574  22.669  24.936  1.00  0.00    -0.280 N 
ATOM     17  H   UNL A   1      32.272  22.962  24.047  1.00  0.00     0.180 HD
BRANCH  16  18
ATOM     18  C   UNL A   1      33.042  21.327  25.033  1.00  0.00     0.051 A 
ATOM     19  C   UNL A   1      34.170  18.799  24.627  1.00  0.00     0.137 A 
ATOM     20  C   UNL A   1      32.784  18.951  24.640  1.00  0.00     0.050 A 
ATOM     21  C   UNL A   1      34.993  19.891  24.909  1.00  0.00     0.085 A 
ATOM     22  C   UNL A   1      32.220  20.206  24.886  1.00  0.00     0.030 A 
ATOM     23  C   UNL A   1      34.427  21.152  25.114  1.00  0.00     0.051 A 
ATOM     24  Cl  UNL A   1      36.711  19.744  24.947  1.00  0.00    -0.080 Cl
BRANCH  19  25
ATOM     25  O   UNL A   1      34.688  17.618  24.169  1.00  0.00    -0.495 OA
ATOM     26  C   UNL A   1      33.658  16.706  23.798  1.00  0.00     0.278 C 
ENDBRANCH  19  25
ENDBRANCH  16  18
ENDBRANCH  13  16
ENDBRANCH   7  13
ENDBRANCH   3   6
ENDBRANCH   1   2
BRANCH   1  27
ATOM     27  C   UNL A   1      31.742  30.516  26.529  1.00  0.00     0.023 C 
BRANCH  27  28
ATOM     28  C   UNL A   1      31.578  32.033  26.611  1.00  0.00     0.023 C 
BRANCH  28  29
ATOM     29  C   UNL A   1      32.728  32.757  27.299  1.00  0.00     0.116 C 
BRANCH  29  30
ATOM     30  N   UNL A   1      32.417  34.143  27.626  1.00  0.00    -0.352 N 
ATOM     31  C   UNL A   1      33.001  34.968  28.553  1.00  0.00     0.251 C 
ATOM     32  H   UNL A   1      31.683  34.544  27.107  1.00  0.00     0.163 HD
ATOM     33  O   UNL A   1      32.548  36.087  28.768  1.00  0.00    -0.269 OA
BRANCH  31  34
ATOM     34  C   UNL A   1      34.161  34.481  29.322  1.00  0.00     0.039 A 
ATOM     35  C   UNL A   1      33.940  33.874  30.560  1.00  0.00     0.014 A 
ATOM     36  C   UNL A   1      35.455  34.596  28.806  1.00  0.00     0.014 A 
ATOM     37  C   UNL A   1      35.014  33.313  31.252  1.00  0.00     0.010 A 
ATOM     38  C   UNL A   1      36.512  33.980  29.463  1.00  0.00     0.010 A 
ATOM     39  C   UNL A   1      36.299  33.331  30.690  1.00  0.00    -0.014 A 
BRANCH  39  40
ATOM     40  C   UNL A   1      37.442  32.677  31.368  1.00  0.00     0.031 A 
ATOM     41  C   UNL A   1      38.149  31.534  30.702  1.00  0.00     0.074 A 
ATOM     42  C   UNL A   1      37.784  33.060  32.612  1.00  0.00     0.049 A 
ATOM     43  N   UNL A   1      39.104  30.768  31.165  1.00  0.00    -0.248 NA
ATOM     44  C   UNL A   1      37.702  31.184  29.344  1.00  0.00     0.031 C 
ATOM     45  C   UNL A   1      37.133  34.124  33.379  1.00  0.00     0.029 A 
ATOM     46  N   UNL A   1      38.756  32.587  33.456  1.00  0.00    -0.354 N 
ATOM     47  C   UNL A   1      39.354  29.836  30.167  1.00  0.00     0.074 A 
ATOM     48  C   UNL A   1      38.422  30.102  29.093  1.00  0.00     0.031 C 
ATOM     49  C   UNL A   1      37.735  34.233  34.575  1.00  0.00     0.029 A 
ATOM     50  C   UNL A   1      38.791  33.229  34.669  1.00  0.00     0.049 A 
ATOM     51  H   UNL A   1      39.371  31.857  33.215  1.00  0.00     0.167 HD
ATOM     52  C   UNL A   1      40.293  28.860  30.143  1.00  0.00     0.037 A 
ATOM     53  C   UNL A   1      39.584  33.026  35.737  1.00  0.00     0.037 A 
ATOM     54  C   UNL A   1      41.242  28.626  31.199  1.00  0.00     0.049 A 
ATOM     55  C   UNL A   1      40.633  31.949  35.675  1.00  0.00     0.074 A 
ATOM     56  C   UNL A   1      42.277  27.710  31.242  1.00  0.00     0.029 A 
ATOM     57  N   UNL A   1      41.269  29.320  32.399  1.00  0.00    -0.354 N 
ATOM     58  N   UNL A   1      40.905  31.115  34.702  1.00  0.00    -0.248 NA
ATOM     59  C   UNL A   1      41.489  31.791  36.860  1.00  0.00     0.031 C 
ATOM     60  C   UNL A   1      42.913  27.828  32.482  1.00  0.00     0.029 A 
ATOM     61  C   UNL A   1      42.296  28.841  33.198  1.00  0.00     0.049 A 
ATOM     62  H   UNL A   1      40.650  30.044  32.649  1.00  0.00     0.167 HD
ATOM     63  C   UNL A   1      41.972  30.347  35.144  1.00  0.00     0.074 A 
ATOM     64  C   UNL A   1      42.310  30.826  36.469  1.00  0.00     0.031 C 
ATOM     65  C   UNL A   1      42.616  29.336  34.512  1.00  0.00     0.037 A 
BRANCH  52  66
ATOM     66  C   UNL A   1      40.340  27.980  28.932  1.00  0.00     0.064 A 
ATOM     67  C   UNL A   1      39.625  26.774  28.872  1.00  0.00     0.173 A 
ATOM     68  C   UNL A   1      41.092  28.353  27.808  1.00  0.00     0.173 A 
ATOM     69  F   UNL A   1      38.904  26.364  29.928  1.00  0.00    -0.203 F 
ATOM     70  C   UNL A   1      39.685  25.961  27.743  1.00  0.00     0.198 A 
ATOM     71  C   UNL A   1      41.128  27.551  26.671  1.00  0.00     0.198 A 
ATOM     72  F   UNL A   1      41.792  29.498  27.812  1.00  0.00    -0.203 F 
ATOM     73  F   UNL A   1      39.033  24.790  27.729  1.00  0.00    -0.200 F 
ATOM     74  C   UNL A   1      40.430  26.352  26.642  1.00  0.00     0.200 A 
ATOM     75  F   UNL A   1      41.842  27.935  25.603  1.00  0.00    -0.200 F 
ATOM     76  F   UNL A   1      40.484  25.570  25.556  1.00  0.00    -0.200 F 
ENDBRANCH  52  66
BRANCH  53  77
ATOM     77  C   UNL A   1      39.436  33.878  36.943  1.00  0.00     0.064 A 
ATOM     78  C   UNL A   1      38.683  33.440  38.041  1.00  0.00     0.173 A 
ATOM     79  C   UNL A   1      40.043  35.139  37.027  1.00  0.00     0.173 A 
ATOM     80  F   UNL A   1      38.068  32.249  37.996  1.00  0.00    -0.203 F 
ATOM     81  C   UNL A   1      38.526  34.239  39.170  1.00  0.00     0.198 A 
ATOM     82  C   UNL A   1      39.905  35.928  38.167  1.00  0.00     0.198 A 
ATOM     83  F   UNL A   1      40.779  35.600  36.004  1.00  0.00    -0.203 F 
ATOM     84  F   UNL A   1      37.768  33.813  40.190  1.00  0.00    -0.200 F 
ATOM     85  C   UNL A   1      39.142  35.480  39.235  1.00  0.00     0.200 A 
ATOM     86  F   UNL A   1      40.511  37.122  38.231  1.00  0.00    -0.200 F 
ATOM     87  F   UNL A   1      38.994  36.248  40.323  1.00  0.00    -0.200 F 
ENDBRANCH  53  77
BRANCH  65  88
ATOM     88  C   UNL A   1      43.762  28.697  35.235  1.00  0.00     0.064 A 
ATOM     89  C   UNL A   1      45.075  29.163  35.079  1.00  0.00     0.173 A 
ATOM     90  C   UNL A   1      43.539  27.636  36.123  1.00  0.00     0.173 A 
ATOM     91  F   UNL A   1      45.339  30.166  34.226  1.00  0.00    -0.203 F 
ATOM     92  C   UNL A   1      46.128  28.575  35.774  1.00  0.00     0.198 A 
ATOM     93  C   UNL A   1      44.590  27.066  36.836  1.00  0.00     0.198 A 
ATOM     94  F   UNL A   1      42.299  27.158  36.309  1.00  0.00    -0.203 F 
ATOM     95  F   UNL A   1      47.381  29.010  35.582  1.00  0.00    -0.200 F 
ATOM     96  C   UNL A   1      45.884  27.533  36.657  1.00  0.00     0.200 A 
ATOM     97  F   UNL A   1      44.352  26.067  37.696  1.00  0.00    -0.200 F 
ATOM     98  F   UNL A   1      46.898  26.973  37.330  1.00  0.00    -0.200 F 
ENDBRANCH  65  88
ENDBRANCH  39  40
ENDBRANCH  31  34
ENDBRANCH  29  30
ENDBRANCH  28  29
ENDBRANCH  27  28
ENDBRANCH   1  27
TORSDOF 15
ENDMDL
MODEL 3
REMARK VINA RESULT:     -12.8      0.559      7.172
REMARK SMILES COc1ccc(NS(=O)(=O)c2ccc(Cl)c(C(=O)NCCCCNC(=O)c3ccc(-c4c5nc(c(-c6c(F)c(F)c(F)c(F)c6F)c6ccc([nH]6)c(-c6c(F)c(F)c(F)c(F)c6F)c6nc(c(-c7c(F)c(F)c(F)c(F)c7F)c7ccc4[nH]7)C=C6)C=C5)cc3)c2)cc1Cl
REMARK SMILES IDX 20 1 19 2 17 3 18 4 16 6 11 7 12 8 90 9 13 10 14 11 15 12
REMARK SMILES IDX 8 13 9 14 10 15 7 16 6 18 3 19 4 20 92 21 5 22 91 23 93 24
REMARK SMILES IDX 2 25 1 26 21 27 22 28 23 29 24 30 25 31 26 33 27 34 28 35
REMARK SMILES IDX 89 36 29 37 88 38 30 39 31 40 32 41 82 42 33 43 87 44 81 45
REMARK SMILES IDX 83 46 34 47 86 48 80 49 79 50 35 52 67 53 47 54 66 55 48 56
REMARK SMILES IDX 51 57 65 58 84 59 49 60 50 61 64 63 85 64 52 65 36 66 37 67
REMARK SMILES IDX 45 68 38 69 39 70 43 71 46 72 40 73 41 74 44 75 42 76 68 77
REMARK SMILES IDX 69 78 77 79 70 80 71 81 75 82 78 83 72 84 73 85 76 86 74 87
REMARK SMILES IDX 53 88 54 89 62 90 55 91 56 92 60 93 63 94 57 95 58 96 61 97
REMARK SMILES IDX 59 98
REMARK H PARENT 19 5 7 17 24 32 83 51 51 62
REMARK Flexibility Score: inf
ROOT
ATOM      1  C   UNL A   1      32.884  30.128  26.166  1.00  0.00     0.116 C 
ENDROOT
BRANCH   1   2
ATOM      2  N   UNL A   1      33.340  29.730  24.850  1.00  0.00    -0.352 N 
ATOM      3  C   UNL A   1      33.122  28.593  24.114  1.00  0.00     0.252 C 
ATOM      4  O   UNL A   1      33.910  28.359  23.194  1.00  0.00    -0.269 OA
ATOM      5  H   UNL A   1      33.909  30.396  24.401  1.00  0.00     0.163 HD
BRANCH   3   6
ATOM      6  C   UNL A   1      31.891  27.761  24.203  1.00  0.00     0.059 A 
ATOM      7  C   UNL A   1      31.085  25.622  25.084  1.00  0.00     0.088 A 
ATOM      8  C   UNL A   1      29.857  25.819  24.456  1.00  0.00     0.024 A 
ATOM      9  C   UNL A   1      32.073  26.603  24.989  1.00  0.00     0.037 A 
ATOM     10  C   UNL A   1      29.624  27.009  23.766  1.00  0.00     0.023 A 
ATOM     11  C   UNL A   1      30.625  27.990  23.657  1.00  0.00     0.053 A 
ATOM     12  Cl  UNL A   1      30.107  29.480  22.972  1.00  0.00    -0.083 Cl
BRANCH   7  13
ATOM     13  S   UNL A   1      31.348  24.064  25.907  1.00  0.00     0.261 S 
ATOM     14  O   UNL A   1      31.137  23.033  24.909  1.00  0.00    -0.201 OA
ATOM     15  O   UNL A   1      30.563  24.115  27.117  1.00  0.00    -0.201 OA
BRANCH  13  16
ATOM     16  N   UNL A   1      32.938  24.005  26.403  1.00  0.00    -0.280 N 
ATOM     17  H   UNL A   1      33.126  24.333  27.312  1.00  0.00     0.180 HD
BRANCH  16  18
ATOM     18  C   UNL A   1      34.057  23.532  25.659  1.00  0.00     0.051 A 
ATOM     19  C   UNL A   1      36.441  22.373  24.764  1.00  0.00     0.137 A 
ATOM     20  C   UNL A   1      36.335  23.760  24.868  1.00  0.00     0.050 A 
ATOM     21  C   UNL A   1      35.328  21.569  25.018  1.00  0.00     0.085 A 
ATOM     22  C   UNL A   1      35.130  24.341  25.273  1.00  0.00     0.030 A 
ATOM     23  C   UNL A   1      34.138  22.150  25.462  1.00  0.00     0.051 A 
ATOM     24  Cl  UNL A   1      35.397  19.852  24.862  1.00  0.00    -0.080 Cl
BRANCH  19  25
ATOM     25  O   UNL A   1      37.684  21.831  24.582  1.00  0.00    -0.495 OA
ATOM     26  C   UNL A   1      38.449  21.864  25.783  1.00  0.00     0.278 C 
ENDBRANCH  19  25
ENDBRANCH  16  18
ENDBRANCH  13  16
ENDBRANCH   7  13
ENDBRANCH   3   6
ENDBRANCH   1   2
BRANCH   1  27
ATOM     27  C   UNL A   1      31.543  30.856  26.020  1.00  0.00     0.023 C 
BRANCH  27  28
ATOM     28  C   UNL A   1      31.376  32.076  26.926  1.00  0.00     0.023 C 
BRANCH  28  29
ATOM     29  C   UNL A   1      32.660  32.856  27.178  1.00  0.00     0.116 C 
BRANCH  29  30
ATOM     30  N   UNL A   1      32.419  34.229  27.604  1.00  0.00    -0.352 N 
ATOM     31  C   UNL A   1      33.046  34.956  28.584  1.00  0.00     0.251 C 
ATOM     32  H   UNL A   1      31.705  34.702  27.120  1.00  0.00     0.163 HD
ATOM     33  O   UNL A   1      32.650  36.078  28.880  1.00  0.00    -0.269 OA
BRANCH  31  34
ATOM     34  C   UNL A   1      34.183  34.359  29.309  1.00  0.00     0.039 A 
ATOM     35  C   UNL A   1      33.922  33.532  30.403  1.00  0.00     0.014 A 
ATOM     36  C   UNL A   1      35.495  34.589  28.887  1.00  0.00     0.014 A 
ATOM     37  C   UNL A   1      34.977  32.874  31.035  1.00  0.00     0.010 A 
ATOM     38  C   UNL A   1      36.538  33.883  29.474  1.00  0.00     0.010 A 
ATOM     39  C   UNL A   1      36.287  33.018  30.551  1.00  0.00    -0.014 A 
BRANCH  39  40
ATOM     40  C   UNL A   1      37.415  32.272  31.155  1.00  0.00     0.031 A 
ATOM     41  C   UNL A   1      37.908  32.644  32.522  1.00  0.00     0.074 A 
ATOM     42  C   UNL A   1      38.041  31.321  30.437  1.00  0.00     0.049 A 
ATOM     43  N   UNL A   1      38.937  32.181  33.185  1.00  0.00    -0.248 NA
ATOM     44  C   UNL A   1      37.162  33.699  33.227  1.00  0.00     0.031 C 
ATOM     45  C   UNL A   1      37.683  30.912  29.078  1.00  0.00     0.029 A 
ATOM     46  N   UNL A   1      39.121  30.535  30.748  1.00  0.00    -0.354 N 
ATOM     47  C   UNL A   1      38.975  32.903  34.370  1.00  0.00     0.074 A 
ATOM     48  C   UNL A   1      37.895  33.864  34.318  1.00  0.00     0.031 C 
ATOM     49  C   UNL A   1      38.519  29.940  28.678  1.00  0.00     0.029 A 
ATOM     50  C   UNL A   1      39.487  29.679  29.739  1.00  0.00     0.049 A 
ATOM     51  H   UNL A   1      39.590  30.580  31.613  1.00  0.00     0.167 HD
ATOM     52  C   UNL A   1      39.823  32.760  35.415  1.00  0.00     0.037 A 
ATOM     53  C   UNL A   1      40.494  28.789  29.678  1.00  0.00     0.037 A 
ATOM     54  C   UNL A   1      40.871  31.777  35.477  1.00  0.00     0.049 A 
ATOM     55  C   UNL A   1      41.408  28.635  30.863  1.00  0.00     0.074 A 
ATOM     56  C   UNL A   1      41.738  31.502  36.519  1.00  0.00     0.029 A 
ATOM     57  N   UNL A   1      41.190  30.903  34.448  1.00  0.00    -0.354 N 
ATOM     58  N   UNL A   1      41.396  29.277  32.005  1.00  0.00    -0.248 NA
ATOM     59  C   UNL A   1      42.473  27.628  30.750  1.00  0.00     0.031 C 
ATOM     60  C   UNL A   1      42.604  30.482  36.110  1.00  0.00     0.029 A 
ATOM     61  C   UNL A   1      42.253  30.098  34.826  1.00  0.00     0.049 A 
ATOM     62  H   UNL A   1      40.731  30.861  33.578  1.00  0.00     0.167 HD
ATOM     63  C   UNL A   1      42.433  28.741  32.754  1.00  0.00     0.074 A 
ATOM     64  C   UNL A   1      43.045  27.709  31.943  1.00  0.00     0.031 C 
ATOM     65  C   UNL A   1      42.843  29.073  34.003  1.00  0.00     0.037 A 
BRANCH  52  66
ATOM     66  C   UNL A   1      39.643  33.686  36.580  1.00  0.00     0.064 A 
ATOM     67  C   UNL A   1      38.840  33.338  37.677  1.00  0.00     0.173 A 
ATOM     68  C   UNL A   1      40.295  34.926  36.611  1.00  0.00     0.173 A 
ATOM     69  F   UNL A   1      38.181  32.168  37.687  1.00  0.00    -0.203 F 
ATOM     70  C   UNL A   1      38.674  34.211  38.749  1.00  0.00     0.198 A 
ATOM     71  C   UNL A   1      40.149  35.786  37.698  1.00  0.00     0.198 A 
ATOM     72  F   UNL A   1      41.077  35.306  35.589  1.00  0.00    -0.203 F 
ATOM     73  F   UNL A   1      37.863  33.877  39.762  1.00  0.00    -0.200 F 
ATOM     74  C   UNL A   1      39.333  35.430  38.762  1.00  0.00     0.200 A 
ATOM     75  F   UNL A   1      40.793  36.961  37.713  1.00  0.00    -0.200 F 
ATOM     76  F   UNL A   1      39.175  36.268  39.795  1.00  0.00    -0.200 F 
ENDBRANCH  52  66
BRANCH  53  77
ATOM     77  C   UNL A   1      40.673  27.954  28.463  1.00  0.00     0.064 A 
ATOM     78  C   UNL A   1      41.463  28.404  27.396  1.00  0.00     0.173 A 
ATOM     79  C   UNL A   1      40.064  26.697  28.343  1.00  0.00     0.173 A 
ATOM     80  F   UNL A   1      42.046  29.609  27.459  1.00  0.00    -0.203 F 
ATOM     81  C   UNL A   1      41.623  27.634  26.247  1.00  0.00     0.198 A 
ATOM     82  C   UNL A   1      40.246  25.917  27.203  1.00  0.00     0.198 A 
ATOM     83  F   UNL A   1      39.303  26.221  29.341  1.00  0.00    -0.203 F 
ATOM     84  F   UNL A   1      42.352  28.104  25.225  1.00  0.00    -0.200 F 
ATOM     85  C   UNL A   1      41.019  26.389  26.153  1.00  0.00     0.200 A 
ATOM     86  F   UNL A   1      39.669  24.710  27.120  1.00  0.00    -0.200 F 
ATOM     87  F   UNL A   1      41.177  25.647  25.048  1.00  0.00    -0.200 F 
ENDBRANCH  53  77
BRANCH  65  88
ATOM     88  C   UNL A   1      43.991  28.298  34.574  1.00  0.00     0.064 A 
ATOM     89  C   UNL A   1      43.786  27.117  35.301  1.00  0.00     0.173 A 
ATOM     90  C   UNL A   1      45.311  28.719  34.357  1.00  0.00     0.173 A 
ATOM     91  F   UNL A   1      42.540  26.685  35.548  1.00  0.00    -0.203 F 
ATOM     92  C   UNL A   1      44.862  26.394  35.807  1.00  0.00     0.198 A 
ATOM     93  C   UNL A   1      46.386  27.981  34.842  1.00  0.00     0.198 A 
ATOM     94  F   UNL A   1      45.558  29.841  33.663  1.00  0.00    -0.203 F 
ATOM     95  F   UNL A   1      44.643  25.289  36.531  1.00  0.00    -0.200 F 
ATOM     96  C   UNL A   1      46.161  26.822  35.571  1.00  0.00     0.200 A 
ATOM     97  F   UNL A   1      47.640  28.390  34.606  1.00  0.00    -0.200 F 
ATOM     98  F   UNL A   1      47.196  26.121  36.053  1.00  0.00    -0.200 F 
ENDBRANCH  65  88
ENDBRANCH  39  40
ENDBRANCH  31  34
ENDBRANCH  29  30
ENDBRANCH  28  29
ENDBRANCH  27  28
ENDBRANCH   1  27
TORSDOF 15
ENDMDL
