MODEL 1
REMARK VINA RESULT:     -12.8      0.000      0.000
REMARK SMILES CCC[N@@H+]1CC2(CCN(c3nccnc3C)CC2)C[C@H]1C(=O)NCCCCNC(=O)c1ccc(-c2c3nc(c(-c4c(F)c(F)c(F)c(F)c4F)c4ccc([nH]4)c(-c4c(F)c(F)c(F)c(F)c4F)c4nc(c(-c5c(F)c(F)c(F)c(F)c5F)c5ccc2[nH]5)C=C4)C=C3)cc1
REMARK SMILES IDX 25 1 24 2 23 3 21 4 22 5 20 7 4 8 5 9 6 11 19 12 7 13 18 14
REMARK SMILES IDX 8 15 17 16 9 17 3 18 2 19 1 20 10 21 11 22 15 23 12 24 14 25
REMARK SMILES IDX 16 26 13 27 26 28 27 29 28 30 29 31 30 33 31 34 32 35 93 36
REMARK SMILES IDX 33 37 92 38 34 39 35 40 36 41 86 42 37 43 91 44 85 45 87 46
REMARK SMILES IDX 38 47 90 48 84 49 83 50 39 52 71 53 51 54 70 55 52 56 55 57
REMARK SMILES IDX 69 58 88 59 53 60 54 61 68 63 89 64 56 65 40 66 41 67 49 68
REMARK SMILES IDX 42 69 43 70 47 71 50 72 44 73 45 74 48 75 46 76 72 77 73 78
REMARK SMILES IDX 81 79 74 80 75 81 79 82 82 83 76 84 77 85 80 86 78 87 57 88
REMARK SMILES IDX 58 89 66 90 59 91 60 92 64 93 67 94 61 95 62 96 65 97 63 98
REMARK H PARENT 23 6 4 10 28 32 87 51 55 62
REMARK Flexibility Score: inf
ROOT
ATOM      1  C   UNL A   1      32.806  28.944  23.958  1.00  0.00     0.023 C 
ENDROOT
BRANCH   1   2
ATOM      2  C   UNL A   1      31.934  28.368  22.856  1.00  0.00     0.116 C 
BRANCH   2   3
ATOM      3  N   UNL A   1      32.593  27.520  21.909  1.00  0.00    -0.351 N 
ATOM      4  C   UNL A   1      32.923  26.201  22.013  1.00  0.00     0.278 C 
ATOM      5  O   UNL A   1      33.310  25.670  20.961  1.00  0.00    -0.268 OA
ATOM      6  H   UNL A   1      32.845  27.951  21.060  1.00  0.00     0.163 HD
BRANCH   4   7
ATOM      7  C   UNL A   1      32.846  25.341  23.314  1.00  0.00     0.274 C 
ATOM      8  N   UNL A   1      32.427  23.955  23.063  1.00  0.00    -0.324 N 
ATOM      9  C   UNL A   1      33.533  23.043  23.405  1.00  0.00     0.270 C 
ATOM     10  H   UNL A   1      32.233  23.838  22.069  1.00  0.00     0.348 HD
ATOM     11  C   UNL A   1      34.596  23.822  24.218  1.00  0.00     0.029 C 
ATOM     12  C   UNL A   1      34.036  25.265  24.266  1.00  0.00     0.088 C 
ATOM     13  C   UNL A   1      36.044  23.924  23.650  1.00  0.00     0.034 C 
ATOM     14  C   UNL A   1      34.736  23.129  25.611  1.00  0.00     0.034 C 
ATOM     15  C   UNL A   1      36.783  22.595  23.584  1.00  0.00     0.119 C 
ATOM     16  C   UNL A   1      35.507  21.790  25.521  1.00  0.00     0.119 C 
ATOM     17  N   UNL A   1      36.805  22.082  24.940  1.00  0.00    -0.355 N 
BRANCH   8  18
ATOM     18  C   UNL A   1      31.134  23.620  23.696  1.00  0.00     0.262 C 
BRANCH  18  19
ATOM     19  C   UNL A   1      30.915  23.831  25.213  1.00  0.00     0.058 C 
ATOM     20  C   UNL A   1      30.763  22.574  26.066  1.00  0.00     0.010 C 
ENDBRANCH  18  19
ENDBRANCH   8  18
BRANCH  17  21
ATOM     21  C   UNL A   1      37.902  21.334  25.322  1.00  0.00     0.150 A 
ATOM     22  N   UNL A   1      37.914  20.016  25.016  1.00  0.00    -0.236 NA
ATOM     23  C   UNL A   1      38.978  21.913  26.034  1.00  0.00     0.080 A 
ATOM     24  C   UNL A   1      39.001  19.315  25.413  1.00  0.00     0.133 A 
ATOM     25  N   UNL A   1      40.063  21.191  26.438  1.00  0.00    -0.256 NA
ATOM     26  C   UNL A   1      38.942  23.325  26.542  1.00  0.00     0.071 C 
ATOM     27  C   UNL A   1      40.049  19.887  26.107  1.00  0.00     0.131 A 
ENDBRANCH  17  21
ENDBRANCH   4   7
ENDBRANCH   2   3
ENDBRANCH   1   2
BRANCH   1  28
ATOM     28  C   UNL A   1      32.048  29.645  25.080  1.00  0.00     0.023 C 
BRANCH  28  29
ATOM     29  C   UNL A   1      32.860  29.990  26.329  1.00  0.00     0.116 C 
BRANCH  29  30
ATOM     30  N   UNL A   1      32.684  31.350  26.822  1.00  0.00    -0.352 N 
ATOM     31  C   UNL A   1      33.586  32.112  27.537  1.00  0.00     0.251 C 
ATOM     32  H   UNL A   1      31.820  31.777  26.620  1.00  0.00     0.163 HD
ATOM     33  O   UNL A   1      33.309  33.237  27.918  1.00  0.00    -0.269 OA
BRANCH  31  34
ATOM     34  C   UNL A   1      34.886  31.502  27.887  1.00  0.00     0.039 A 
ATOM     35  C   UNL A   1      35.997  32.332  28.049  1.00  0.00     0.014 A 
ATOM     36  C   UNL A   1      34.958  30.141  28.194  1.00  0.00     0.014 A 
ATOM     37  C   UNL A   1      37.156  31.819  28.634  1.00  0.00     0.010 A 
ATOM     38  C   UNL A   1      36.089  29.649  28.836  1.00  0.00     0.010 A 
ATOM     39  C   UNL A   1      37.186  30.489  29.086  1.00  0.00    -0.014 A 
BRANCH  39  40
ATOM     40  C   UNL A   1      38.329  29.967  29.876  1.00  0.00     0.031 A 
ATOM     41  C   UNL A   1      38.555  30.448  31.278  1.00  0.00     0.074 A 
ATOM     42  C   UNL A   1      39.222  29.144  29.291  1.00  0.00     0.049 A 
ATOM     43  N   UNL A   1      39.561  30.214  32.082  1.00  0.00    -0.248 NA
ATOM     44  C   UNL A   1      37.528  31.339  31.841  1.00  0.00     0.031 C 
ATOM     45  C   UNL A   1      39.145  28.651  27.915  1.00  0.00     0.029 A 
ATOM     46  N   UNL A   1      40.385  28.597  29.773  1.00  0.00    -0.354 N 
ATOM     47  C   UNL A   1      39.300  30.944  33.233  1.00  0.00     0.074 A 
ATOM     48  C   UNL A   1      38.065  31.664  33.008  1.00  0.00     0.031 C 
ATOM     49  C   UNL A   1      40.206  27.866  27.667  1.00  0.00     0.029 A 
ATOM     50  C   UNL A   1      41.059  27.832  28.851  1.00  0.00     0.049 A 
ATOM     51  H   UNL A   1      40.708  28.739  30.692  1.00  0.00     0.167 HD
ATOM     52  C   UNL A   1      40.017  30.994  34.380  1.00  0.00     0.037 A 
ATOM     53  C   UNL A   1      42.239  27.190  28.944  1.00  0.00     0.037 A 
ATOM     54  C   UNL A   1      41.224  30.247  34.614  1.00  0.00     0.049 A 
ATOM     55  C   UNL A   1      43.017  27.263  30.229  1.00  0.00     0.074 A 
ATOM     56  C   UNL A   1      41.967  30.150  35.777  1.00  0.00     0.029 A 
ATOM     57  N   UNL A   1      41.868  29.472  33.661  1.00  0.00    -0.354 N 
ATOM     58  N   UNL A   1      42.720  27.892  31.339  1.00  0.00    -0.248 NA
ATOM     59  C   UNL A   1      44.297  26.540  30.273  1.00  0.00     0.031 C 
ATOM     60  C   UNL A   1      43.084  29.351  35.517  1.00  0.00     0.029 A 
ATOM     61  C   UNL A   1      43.018  28.918  34.201  1.00  0.00     0.049 A 
ATOM     62  H   UNL A   1      41.555  29.334  32.738  1.00  0.00     0.167 HD
ATOM     63  C   UNL A   1      43.765  27.634  32.216  1.00  0.00     0.074 A 
ATOM     64  C   UNL A   1      44.696  26.773  31.516  1.00  0.00     0.031 C 
ATOM     65  C   UNL A   1      43.938  28.073  33.486  1.00  0.00     0.037 A 
BRANCH  52  66
ATOM     66  C   UNL A   1      39.507  31.882  35.475  1.00  0.00     0.064 A 
ATOM     67  C   UNL A   1      38.568  31.429  36.413  1.00  0.00     0.173 A 
ATOM     68  C   UNL A   1      39.985  33.194  35.605  1.00  0.00     0.173 A 
ATOM     69  F   UNL A   1      38.072  30.185  36.322  1.00  0.00    -0.203 F 
ATOM     70  C   UNL A   1      38.102  32.266  37.422  1.00  0.00     0.198 A 
ATOM     71  C   UNL A   1      39.537  34.020  36.633  1.00  0.00     0.198 A 
ATOM     72  F   UNL A   1      40.887  33.676  34.736  1.00  0.00    -0.203 F 
ATOM     73  F   UNL A   1      37.169  31.826  38.277  1.00  0.00    -0.200 F 
ATOM     74  C   UNL A   1      38.592  33.558  37.536  1.00  0.00     0.200 A 
ATOM     75  F   UNL A   1      40.018  35.267  36.747  1.00  0.00    -0.200 F 
ATOM     76  F   UNL A   1      38.145  34.362  38.511  1.00  0.00    -0.200 F 
ENDBRANCH  52  66
BRANCH  53  77
ATOM     77  C   UNL A   1      42.756  26.418  27.785  1.00  0.00     0.064 A 
ATOM     78  C   UNL A   1      42.412  25.070  27.610  1.00  0.00     0.173 A 
ATOM     79  C   UNL A   1      43.601  27.006  26.833  1.00  0.00     0.173 A 
ATOM     80  F   UNL A   1      41.625  24.459  28.508  1.00  0.00    -0.203 F 
ATOM     81  C   UNL A   1      42.902  24.336  26.532  1.00  0.00     0.198 A 
ATOM     82  C   UNL A   1      44.071  26.277  25.742  1.00  0.00     0.198 A 
ATOM     83  F   UNL A   1      43.959  28.292  26.955  1.00  0.00    -0.203 F 
ATOM     84  F   UNL A   1      42.586  23.040  26.408  1.00  0.00    -0.200 F 
ATOM     85  C   UNL A   1      43.727  24.942  25.595  1.00  0.00     0.200 A 
ATOM     86  F   UNL A   1      44.859  26.868  24.833  1.00  0.00    -0.200 F 
ATOM     87  F   UNL A   1      44.194  24.236  24.556  1.00  0.00    -0.200 F 
ENDBRANCH  53  77
BRANCH  65  88
ATOM     88  C   UNL A   1      45.181  27.634  34.200  1.00  0.00     0.064 A 
ATOM     89  C   UNL A   1      46.332  28.435  34.219  1.00  0.00     0.173 A 
ATOM     90  C   UNL A   1      45.206  26.427  34.914  1.00  0.00     0.173 A 
ATOM     91  F   UNL A   1      46.361  29.589  33.536  1.00  0.00    -0.203 F 
ATOM     92  C   UNL A   1      47.468  28.036  34.917  1.00  0.00     0.198 A 
ATOM     93  C   UNL A   1      46.335  26.044  35.632  1.00  0.00     0.198 A 
ATOM     94  F   UNL A   1      44.127  25.629  34.929  1.00  0.00    -0.203 F 
ATOM     95  F   UNL A   1      48.569  28.799  34.894  1.00  0.00    -0.200 F 
ATOM     96  C   UNL A   1      47.466  26.846  35.629  1.00  0.00     0.200 A 
ATOM     97  F   UNL A   1      46.327  24.899  36.329  1.00  0.00    -0.200 F 
ATOM     98  F   UNL A   1      48.557  26.469  36.310  1.00  0.00    -0.200 F 
ENDBRANCH  65  88
ENDBRANCH  39  40
ENDBRANCH  31  34
ENDBRANCH  29  30
ENDBRANCH  28  29
ENDBRANCH   1  28
TORSDOF 14
ENDMDL
MODEL 2
REMARK VINA RESULT:     -12.8      0.511      7.161
REMARK SMILES CCC[N@@H+]1CC2(CCN(c3nccnc3C)CC2)C[C@H]1C(=O)NCCCCNC(=O)c1ccc(-c2c3nc(c(-c4c(F)c(F)c(F)c(F)c4F)c4ccc([nH]4)c(-c4c(F)c(F)c(F)c(F)c4F)c4nc(c(-c5c(F)c(F)c(F)c(F)c5F)c5ccc2[nH]5)C=C4)C=C3)cc1
REMARK SMILES IDX 25 1 24 2 23 3 21 4 22 5 20 7 4 8 5 9 6 11 19 12 7 13 18 14
REMARK SMILES IDX 8 15 17 16 9 17 3 18 2 19 1 20 10 21 11 22 15 23 12 24 14 25
REMARK SMILES IDX 16 26 13 27 26 28 27 29 28 30 29 31 30 33 31 34 32 35 93 36
REMARK SMILES IDX 33 37 92 38 34 39 35 40 36 41 86 42 37 43 91 44 85 45 87 46
REMARK SMILES IDX 38 47 90 48 84 49 83 50 39 52 71 53 51 54 70 55 52 56 55 57
REMARK SMILES IDX 69 58 88 59 53 60 54 61 68 63 89 64 56 65 40 66 41 67 49 68
REMARK SMILES IDX 42 69 43 70 47 71 50 72 44 73 45 74 48 75 46 76 72 77 73 78
REMARK SMILES IDX 81 79 74 80 75 81 79 82 82 83 76 84 77 85 80 86 78 87 57 88
REMARK SMILES IDX 58 89 66 90 59 91 60 92 64 93 67 94 61 95 62 96 65 97 63 98
REMARK H PARENT 23 6 4 10 28 32 87 51 55 62
REMARK Flexibility Score: inf
ROOT
ATOM      1  C   UNL A   1      32.816  28.945  24.052  1.00  0.00     0.023 C 
ENDROOT
BRANCH   1   2
ATOM      2  C   UNL A   1      31.949  28.377  22.941  1.00  0.00     0.116 C 
BRANCH   2   3
ATOM      3  N   UNL A   1      32.608  27.515  22.006  1.00  0.00    -0.351 N 
ATOM      4  C   UNL A   1      32.959  26.204  22.140  1.00  0.00     0.278 C 
ATOM      5  O   UNL A   1      33.340  25.652  21.096  1.00  0.00    -0.268 OA
ATOM      6  H   UNL A   1      32.840  27.927  21.143  1.00  0.00     0.163 HD
BRANCH   4   7
ATOM      7  C   UNL A   1      32.916  25.377  23.464  1.00  0.00     0.274 C 
ATOM      8  N   UNL A   1      32.461  23.995  23.264  1.00  0.00    -0.324 N 
ATOM      9  C   UNL A   1      33.561  23.070  23.586  1.00  0.00     0.270 C 
ATOM     10  H   UNL A   1      32.227  23.858  22.281  1.00  0.00     0.348 HD
ATOM     11  C   UNL A   1      34.669  23.846  24.340  1.00  0.00     0.029 C 
ATOM     12  C   UNL A   1      34.139  25.300  24.373  1.00  0.00     0.088 C 
ATOM     13  C   UNL A   1      36.096  23.905  23.716  1.00  0.00     0.034 C 
ATOM     14  C   UNL A   1      34.848  23.184  25.743  1.00  0.00     0.034 C 
ATOM     15  C   UNL A   1      36.805  22.560  23.655  1.00  0.00     0.119 C 
ATOM     16  C   UNL A   1      35.589  21.827  25.658  1.00  0.00     0.119 C 
ATOM     17  N   UNL A   1      36.869  22.079  25.021  1.00  0.00    -0.355 N 
BRANCH   8  18
ATOM     18  C   UNL A   1      31.186  23.701  23.952  1.00  0.00     0.262 C 
BRANCH  18  19
ATOM     19  C   UNL A   1      31.168  22.925  25.291  1.00  0.00     0.058 C 
ATOM     20  C   UNL A   1      31.207  23.760  26.569  1.00  0.00     0.010 C 
ENDBRANCH  18  19
ENDBRANCH   8  18
BRANCH  17  21
ATOM     21  C   UNL A   1      37.965  21.319  25.380  1.00  0.00     0.150 A 
ATOM     22  N   UNL A   1      37.964  20.005  25.058  1.00  0.00    -0.236 NA
ATOM     23  C   UNL A   1      39.054  21.881  26.086  1.00  0.00     0.080 A 
ATOM     24  C   UNL A   1      39.050  19.290  25.433  1.00  0.00     0.133 A 
ATOM     25  N   UNL A   1      40.138  21.146  26.468  1.00  0.00    -0.256 NA
ATOM     26  C   UNL A   1      39.034  23.287  26.612  1.00  0.00     0.071 C 
ATOM     27  C   UNL A   1      40.111  19.846  26.121  1.00  0.00     0.131 A 
ENDBRANCH  17  21
ENDBRANCH   4   7
ENDBRANCH   2   3
ENDBRANCH   1   2
BRANCH   1  28
ATOM     28  C   UNL A   1      32.061  29.359  25.310  1.00  0.00     0.023 C 
BRANCH  28  29
ATOM     29  C   UNL A   1      32.913  29.892  26.463  1.00  0.00     0.116 C 
BRANCH  29  30
ATOM     30  N   UNL A   1      32.612  31.259  26.870  1.00  0.00    -0.352 N 
ATOM     31  C   UNL A   1      33.442  32.146  27.526  1.00  0.00     0.251 C 
ATOM     32  H   UNL A   1      31.711  31.588  26.651  1.00  0.00     0.163 HD
ATOM     33  O   UNL A   1      33.061  33.262  27.838  1.00  0.00    -0.269 OA
BRANCH  31  34
ATOM     34  C   UNL A   1      34.795  31.684  27.900  1.00  0.00     0.039 A 
ATOM     35  C   UNL A   1      35.830  32.618  27.966  1.00  0.00     0.014 A 
ATOM     36  C   UNL A   1      34.991  30.366  28.322  1.00  0.00     0.014 A 
ATOM     37  C   UNL A   1      37.038  32.261  28.568  1.00  0.00     0.010 A 
ATOM     38  C   UNL A   1      36.170  30.033  28.980  1.00  0.00     0.010 A 
ATOM     39  C   UNL A   1      37.192  30.984  29.133  1.00  0.00    -0.014 A 
BRANCH  39  40
ATOM     40  C   UNL A   1      38.387  30.634  29.941  1.00  0.00     0.031 A 
ATOM     41  C   UNL A   1      39.431  29.718  29.379  1.00  0.00     0.074 A 
ATOM     42  C   UNL A   1      38.472  31.055  31.220  1.00  0.00     0.049 A 
ATOM     43  N   UNL A   1      40.475  29.191  29.967  1.00  0.00    -0.248 NA
ATOM     44  C   UNL A   1      39.262  29.312  27.975  1.00  0.00     0.031 C 
ATOM     45  C   UNL A   1      37.491  31.901  31.901  1.00  0.00     0.029 A 
ATOM     46  N   UNL A   1      39.418  30.805  32.183  1.00  0.00    -0.354 N 
ATOM     47  C   UNL A   1      41.072  28.378  29.015  1.00  0.00     0.074 A 
ATOM     48  C   UNL A   1      40.252  28.444  27.825  1.00  0.00     0.031 C 
ATOM     49  C   UNL A   1      37.892  32.110  33.166  1.00  0.00     0.029 A 
ATOM     50  C   UNL A   1      39.134  31.381  33.398  1.00  0.00     0.049 A 
ATOM     51  H   UNL A   1      40.224  30.263  32.019  1.00  0.00     0.167 HD
ATOM     52  C   UNL A   1      42.212  27.656  29.120  1.00  0.00     0.037 A 
ATOM     53  C   UNL A   1      39.793  31.316  34.570  1.00  0.00     0.037 A 
ATOM     54  C   UNL A   1      43.046  27.622  30.292  1.00  0.00     0.049 A 
ATOM     55  C   UNL A   1      41.056  30.505  34.661  1.00  0.00     0.074 A 
ATOM     56  C   UNL A   1      44.272  27.004  30.462  1.00  0.00     0.029 A 
ATOM     57  N   UNL A   1      42.733  28.231  31.499  1.00  0.00    -0.354 N 
ATOM     58  N   UNL A   1      41.656  29.803  33.730  1.00  0.00    -0.248 NA
ATOM     59  C   UNL A   1      41.733  30.472  35.966  1.00  0.00     0.031 C 
ATOM     60  C   UNL A   1      44.682  27.201  31.784  1.00  0.00     0.029 A 
ATOM     61  C   UNL A   1      43.728  27.975  32.428  1.00  0.00     0.049 A 
ATOM     62  H   UNL A   1      41.924  28.765  31.669  1.00  0.00     0.167 HD
ATOM     63  C   UNL A   1      42.782  29.257  34.328  1.00  0.00     0.074 A 
ATOM     64  C   UNL A   1      42.795  29.723  35.699  1.00  0.00     0.031 C 
ATOM     65  C   UNL A   1      43.719  28.439  33.791  1.00  0.00     0.037 A 
BRANCH  52  66
ATOM     66  C   UNL A   1      42.630  26.847  27.928  1.00  0.00     0.064 A 
ATOM     67  C   UNL A   1      42.231  25.512  27.768  1.00  0.00     0.173 A 
ATOM     68  C   UNL A   1      43.418  27.423  26.920  1.00  0.00     0.173 A 
ATOM     69  F   UNL A   1      41.488  24.913  28.712  1.00  0.00    -0.203 F 
ATOM     70  C   UNL A   1      42.629  24.774  26.658  1.00  0.00     0.198 A 
ATOM     71  C   UNL A   1      43.791  26.689  25.798  1.00  0.00     0.198 A 
ATOM     72  F   UNL A   1      43.823  28.698  27.023  1.00  0.00    -0.203 F 
ATOM     73  F   UNL A   1      42.275  23.486  26.550  1.00  0.00    -0.200 F 
ATOM     74  C   UNL A   1      43.403  25.365  25.670  1.00  0.00     0.200 A 
ATOM     75  F   UNL A   1      44.532  27.264  24.839  1.00  0.00    -0.200 F 
ATOM     76  F   UNL A   1      43.783  24.652  24.600  1.00  0.00    -0.200 F 
ENDBRANCH  52  66
BRANCH  53  77
ATOM     77  C   UNL A   1      39.271  32.043  35.756  1.00  0.00     0.064 A 
ATOM     78  C   UNL A   1      38.393  31.418  36.651  1.00  0.00     0.173 A 
ATOM     79  C   UNL A   1      39.637  33.370  36.019  1.00  0.00     0.173 A 
ATOM     80  F   UNL A   1      37.996  30.156  36.428  1.00  0.00    -0.203 F 
ATOM     81  C   UNL A   1      37.890  32.096  37.759  1.00  0.00     0.198 A 
ATOM     82  C   UNL A   1      39.153  34.041  37.141  1.00  0.00     0.198 A 
ATOM     83  F   UNL A   1      40.476  34.013  35.193  1.00  0.00    -0.203 F 
ATOM     84  F   UNL A   1      37.023  31.487  38.579  1.00  0.00    -0.200 F 
ATOM     85  C   UNL A   1      38.275  33.406  38.006  1.00  0.00     0.200 A 
ATOM     86  F   UNL A   1      39.536  35.302  37.382  1.00  0.00    -0.200 F 
ATOM     87  F   UNL A   1      37.795  34.057  39.075  1.00  0.00    -0.200 F 
ENDBRANCH  53  77
BRANCH  65  88
ATOM     88  C   UNL A   1      44.836  27.994  34.687  1.00  0.00     0.064 A 
ATOM     89  C   UNL A   1      44.758  26.793  35.407  1.00  0.00     0.173 A 
ATOM     90  C   UNL A   1      46.015  28.747  34.786  1.00  0.00     0.173 A 
ATOM     91  F   UNL A   1      43.644  26.048  35.356  1.00  0.00    -0.203 F 
ATOM     92  C   UNL A   1      45.816  26.370  36.206  1.00  0.00     0.198 A 
ATOM     93  C   UNL A   1      47.081  28.308  35.566  1.00  0.00     0.198 A 
ATOM     94  F   UNL A   1      46.139  29.901  34.113  1.00  0.00    -0.203 F 
ATOM     95  F   UNL A   1      45.707  25.237  36.913  1.00  0.00    -0.200 F 
ATOM     96  C   UNL A   1      46.979  27.122  36.279  1.00  0.00     0.200 A 
ATOM     97  F   UNL A   1      48.208  29.030  35.627  1.00  0.00    -0.200 F 
ATOM     98  F   UNL A   1      48.001  26.707  37.040  1.00  0.00    -0.200 F 
ENDBRANCH  65  88
ENDBRANCH  39  40
ENDBRANCH  31  34
ENDBRANCH  29  30
ENDBRANCH  28  29
ENDBRANCH   1  28
TORSDOF 14
ENDMDL
MODEL 3
REMARK VINA RESULT:     -12.6      4.646      8.746
REMARK SMILES CCC[N@@H+]1CC2(CCN(c3nccnc3C)CC2)C[C@H]1C(=O)NCCCCNC(=O)c1ccc(-c2c3nc(c(-c4c(F)c(F)c(F)c(F)c4F)c4ccc([nH]4)c(-c4c(F)c(F)c(F)c(F)c4F)c4nc(c(-c5c(F)c(F)c(F)c(F)c5F)c5ccc2[nH]5)C=C4)C=C3)cc1
REMARK SMILES IDX 25 1 24 2 23 3 21 4 22 5 20 7 4 8 5 9 6 11 19 12 7 13 18 14
REMARK SMILES IDX 8 15 17 16 9 17 3 18 2 19 1 20 10 21 11 22 15 23 12 24 14 25
REMARK SMILES IDX 16 26 13 27 26 28 27 29 28 30 29 31 30 33 31 34 32 35 93 36
REMARK SMILES IDX 33 37 92 38 34 39 35 40 36 41 86 42 37 43 91 44 85 45 87 46
REMARK SMILES IDX 38 47 90 48 84 49 83 50 39 52 71 53 51 54 70 55 52 56 55 57
REMARK SMILES IDX 69 58 88 59 53 60 54 61 68 63 89 64 56 65 40 66 41 67 49 68
REMARK SMILES IDX 42 69 43 70 47 71 50 72 44 73 45 74 48 75 46 76 72 77 73 78
REMARK SMILES IDX 81 79 74 80 75 81 79 82 82 83 76 84 77 85 80 86 78 87 57 88
REMARK SMILES IDX 58 89 66 90 59 91 60 92 64 93 67 94 61 95 62 96 65 97 63 98
REMARK H PARENT 23 6 4 10 28 32 87 51 55 62
REMARK Flexibility Score: inf
ROOT
ATOM      1  C   UNL A   1      37.331  22.162  24.598  1.00  0.00     0.023 C 
ENDROOT
BRANCH   1   2
ATOM      2  C   UNL A   1      36.985  23.426  25.368  1.00  0.00     0.116 C 
BRANCH   2   3
ATOM      3  N   UNL A   1      36.129  23.258  26.504  1.00  0.00    -0.351 N 
ATOM      4  C   UNL A   1      34.822  22.872  26.550  1.00  0.00     0.278 C 
ATOM      5  O   UNL A   1      34.388  22.618  27.684  1.00  0.00    -0.268 OA
ATOM      6  H   UNL A   1      36.543  23.448  27.376  1.00  0.00     0.163 HD
BRANCH   4   7
ATOM      7  C   UNL A   1      33.868  22.728  25.322  1.00  0.00     0.274 C 
ATOM      8  N   UNL A   1      32.514  22.298  25.694  1.00  0.00    -0.324 N 
ATOM      9  C   UNL A   1      31.558  23.374  25.378  1.00  0.00     0.270 C 
ATOM     10  H   UNL A   1      32.475  22.143  26.701  1.00  0.00     0.348 HD
ATOM     11  C   UNL A   1      32.254  24.414  24.466  1.00  0.00     0.029 C 
ATOM     12  C   UNL A   1      33.699  23.876  24.331  1.00  0.00     0.088 C 
ATOM     13  C   UNL A   1      32.370  25.886  24.965  1.00  0.00     0.034 C 
ATOM     14  C   UNL A   1      31.455  24.485  23.125  1.00  0.00     0.034 C 
ATOM     15  C   UNL A   1      31.036  26.605  25.102  1.00  0.00     0.119 C 
ATOM     16  C   UNL A   1      30.112  25.238  23.285  1.00  0.00     0.119 C 
ATOM     17  N   UNL A   1      30.422  26.563  23.790  1.00  0.00    -0.355 N 
BRANCH   8  18
ATOM     18  C   UNL A   1      32.157  20.974  25.141  1.00  0.00     0.262 C 
BRANCH  18  19
ATOM     19  C   UNL A   1      32.802  20.461  23.832  1.00  0.00     0.058 C 
ATOM     20  C   UNL A   1      32.156  20.915  22.525  1.00  0.00     0.010 C 
ENDBRANCH  18  19
ENDBRANCH   8  18
BRANCH  17  21
ATOM     21  C   UNL A   1      29.628  27.632  23.422  1.00  0.00     0.150 A 
ATOM     22  N   UNL A   1      28.285  27.486  23.503  1.00  0.00    -0.236 NA
ATOM     23  C   UNL A   1      30.188  28.841  22.949  1.00  0.00     0.080 A 
ATOM     24  C   UNL A   1      27.539  28.550  23.126  1.00  0.00     0.133 A 
ATOM     25  N   UNL A   1      29.423  29.902  22.562  1.00  0.00    -0.256 NA
ATOM     26  C   UNL A   1      31.657  28.998  22.683  1.00  0.00     0.071 C 
ATOM     27  C   UNL A   1      28.093  29.729  22.666  1.00  0.00     0.131 A 
ENDBRANCH  17  21
ENDBRANCH   4   7
ENDBRANCH   2   3
ENDBRANCH   1   2
BRANCH   1  28
ATOM     28  C   UNL A   1      37.796  20.991  25.457  1.00  0.00     0.023 C 
BRANCH  28  29
ATOM     29  C   UNL A   1      39.250  21.037  25.927  1.00  0.00     0.116 C 
BRANCH  29  30
ATOM     30  N   UNL A   1      39.954  19.762  25.876  1.00  0.00    -0.352 N 
ATOM     31  C   UNL A   1      41.295  19.527  26.111  1.00  0.00     0.251 C 
ATOM     32  H   UNL A   1      39.410  18.974  25.648  1.00  0.00     0.163 HD
ATOM     33  O   UNL A   1      41.773  18.410  26.010  1.00  0.00    -0.269 OA
BRANCH  31  34
ATOM     34  C   UNL A   1      42.156  20.686  26.429  1.00  0.00     0.039 A 
ATOM     35  C   UNL A   1      42.661  21.456  25.380  1.00  0.00     0.014 A 
ATOM     36  C   UNL A   1      42.333  21.080  27.758  1.00  0.00     0.014 A 
ATOM     37  C   UNL A   1      43.246  22.693  25.659  1.00  0.00     0.010 A 
ATOM     38  C   UNL A   1      42.855  22.340  28.027  1.00  0.00     0.010 A 
ATOM     39  C   UNL A   1      43.290  23.168  26.980  1.00  0.00    -0.014 A 
BRANCH  39  40
ATOM     40  C   UNL A   1      43.732  24.551  27.291  1.00  0.00     0.031 A 
ATOM     41  C   UNL A   1      42.738  25.568  27.767  1.00  0.00     0.074 A 
ATOM     42  C   UNL A   1      45.005  24.916  27.037  1.00  0.00     0.049 A 
ATOM     43  N   UNL A   1      42.898  26.851  27.966  1.00  0.00    -0.248 NA
ATOM     44  C   UNL A   1      41.374  25.082  28.024  1.00  0.00     0.031 C 
ATOM     45  C   UNL A   1      46.051  24.034  26.516  1.00  0.00     0.029 A 
ATOM     46  N   UNL A   1      45.629  26.132  27.159  1.00  0.00    -0.354 N 
ATOM     47  C   UNL A   1      41.652  27.329  28.348  1.00  0.00     0.074 A 
ATOM     48  C   UNL A   1      40.738  26.209  28.311  1.00  0.00     0.031 C 
ATOM     49  C   UNL A   1      47.189  24.734  26.375  1.00  0.00     0.029 A 
ATOM     50  C   UNL A   1      46.943  26.122  26.756  1.00  0.00     0.049 A 
ATOM     51  H   UNL A   1      45.178  26.937  27.503  1.00  0.00     0.167 HD
ATOM     52  C   UNL A   1      41.309  28.586  28.715  1.00  0.00     0.037 A 
ATOM     53  C   UNL A   1      47.843  27.121  26.686  1.00  0.00     0.037 A 
ATOM     54  C   UNL A   1      42.229  29.690  28.788  1.00  0.00     0.049 A 
ATOM     55  C   UNL A   1      47.435  28.509  27.098  1.00  0.00     0.074 A 
ATOM     56  C   UNL A   1      42.001  30.975  29.245  1.00  0.00     0.029 A 
ATOM     57  N   UNL A   1      43.556  29.637  28.385  1.00  0.00    -0.354 N 
ATOM     58  N   UNL A   1      46.274  28.933  27.534  1.00  0.00    -0.248 NA
ATOM     59  C   UNL A   1      48.461  29.559  27.002  1.00  0.00     0.031 C 
ATOM     60  C   UNL A   1      43.177  31.713  29.080  1.00  0.00     0.029 A 
ATOM     61  C   UNL A   1      44.150  30.877  28.554  1.00  0.00     0.049 A 
ATOM     62  H   UNL A   1      44.008  28.837  28.033  1.00  0.00     0.167 HD
ATOM     63  C   UNL A   1      46.430  30.291  27.777  1.00  0.00     0.074 A 
ATOM     64  C   UNL A   1      47.805  30.618  27.457  1.00  0.00     0.031 C 
ATOM     65  C   UNL A   1      45.516  31.186  28.221  1.00  0.00     0.037 A 
BRANCH  52  66
ATOM     66  C   UNL A   1      39.874  28.833  29.075  1.00  0.00     0.064 A 
ATOM     67  C   UNL A   1      39.406  28.668  30.387  1.00  0.00     0.173 A 
ATOM     68  C   UNL A   1      38.962  29.266  28.102  1.00  0.00     0.173 A 
ATOM     69  F   UNL A   1      40.238  28.243  31.351  1.00  0.00    -0.203 F 
ATOM     70  C   UNL A   1      38.071  28.898  30.705  1.00  0.00     0.198 A 
ATOM     71  C   UNL A   1      37.634  29.522  28.429  1.00  0.00     0.198 A 
ATOM     72  F   UNL A   1      39.360  29.443  26.832  1.00  0.00    -0.203 F 
ATOM     73  F   UNL A   1      37.636  28.688  31.955  1.00  0.00    -0.200 F 
ATOM     74  C   UNL A   1      37.188  29.332  29.728  1.00  0.00     0.200 A 
ATOM     75  F   UNL A   1      36.782  29.950  27.486  1.00  0.00    -0.200 F 
ATOM     76  F   UNL A   1      35.903  29.556  30.037  1.00  0.00    -0.200 F 
ENDBRANCH  52  66
BRANCH  53  77
ATOM     77  C   UNL A   1      49.222  26.844  26.210  1.00  0.00     0.064 A 
ATOM     78  C   UNL A   1      49.552  26.972  24.853  1.00  0.00     0.173 A 
ATOM     79  C   UNL A   1      50.237  26.451  27.094  1.00  0.00     0.173 A 
ATOM     80  F   UNL A   1      48.609  27.324  23.967  1.00  0.00    -0.203 F 
ATOM     81  C   UNL A   1      50.840  26.703  24.397  1.00  0.00     0.198 A 
ATOM     82  C   UNL A   1      51.531  26.205  26.641  1.00  0.00     0.198 A 
ATOM     83  F   UNL A   1      49.973  26.316  28.402  1.00  0.00    -0.203 F 
ATOM     84  F   UNL A   1      51.119  26.797  23.090  1.00  0.00    -0.200 F 
ATOM     85  C   UNL A   1      51.831  26.326  25.292  1.00  0.00     0.200 A 
ATOM     86  F   UNL A   1      52.488  25.852  27.510  1.00  0.00    -0.200 F 
ATOM     87  F   UNL A   1      53.071  26.072  24.853  1.00  0.00    -0.200 F 
ENDBRANCH  53  77
BRANCH  65  88
ATOM     88  C   UNL A   1      45.970  32.606  28.386  1.00  0.00     0.064 A 
ATOM     89  C   UNL A   1      45.823  33.542  27.352  1.00  0.00     0.173 A 
ATOM     90  C   UNL A   1      46.509  33.047  29.604  1.00  0.00     0.173 A 
ATOM     91  F   UNL A   1      45.328  33.163  26.164  1.00  0.00    -0.203 F 
ATOM     92  C   UNL A   1      46.211  34.867  27.528  1.00  0.00     0.198 A 
ATOM     93  C   UNL A   1      46.873  34.378  29.784  1.00  0.00     0.198 A 
ATOM     94  F   UNL A   1      46.666  32.189  30.623  1.00  0.00    -0.203 F 
ATOM     95  F   UNL A   1      46.094  35.737  26.517  1.00  0.00    -0.200 F 
ATOM     96  C   UNL A   1      46.729  35.285  28.745  1.00  0.00     0.200 A 
ATOM     97  F   UNL A   1      47.362  34.783  30.964  1.00  0.00    -0.200 F 
ATOM     98  F   UNL A   1      47.092  36.564  28.917  1.00  0.00    -0.200 F 
ENDBRANCH  65  88
ENDBRANCH  39  40
ENDBRANCH  31  34
ENDBRANCH  29  30
ENDBRANCH  28  29
ENDBRANCH   1  28
TORSDOF 14
ENDMDL
