MODEL 1
REMARK VINA RESULT:     -14.3      0.000      0.000
REMARK SMILES O=C(NCCCCNC(=O)[C@H]1CN(C(=O)C[C@H]2NC(=O)c3ccccc32)C[C@@H]1c1ccc(F)cc1)c1ccc(-c2c3nc(c(-c4c(F)c(F)c(F)c(F)c4F)c4ccc([nH]4)c(-c4c(F)c(F)c(F)c(F)c4F)c4nc(c(-c5c(F)c(F)c(F)c(F)c5F)c5ccc2[nH]5)C=C4)C=C3)cc1
REMARK SMILES IDX 6 1 5 2 4 3 3 4 1 5 2 6 36 8 37 9 98 10 38 11 97 12 39 13
REMARK SMILES IDX 40 14 41 15 91 16 42 17 96 18 90 19 92 20 43 21 95 22 89 23
REMARK SMILES IDX 88 24 44 26 76 27 56 28 75 29 57 30 60 31 74 32 93 33 58 34
REMARK SMILES IDX 59 35 73 37 94 38 61 39 45 40 46 41 54 42 47 43 48 44 52 45
REMARK SMILES IDX 55 46 49 47 50 48 53 49 51 50 77 51 78 52 86 53 79 54 80 55
REMARK SMILES IDX 84 56 87 57 81 58 82 59 85 60 83 61 62 62 63 63 71 64 64 65
REMARK SMILES IDX 65 66 69 67 72 68 66 69 67 70 70 71 68 72 7 73 8 74 9 75
REMARK SMILES IDX 10 77 11 78 12 79 28 80 13 81 27 82 29 83 30 84 35 85 31 86
REMARK SMILES IDX 34 87 32 88 33 89 14 90 15 91 16 92 17 93 18 94 26 95 19 96
REMARK SMILES IDX 21 98 25 99 20 100 22 101 24 102 23 103
REMARK H PARENT 3 7 92 25 60 36 8 76 18 97
REMARK Flexibility Score: inf
ROOT
ATOM      1  C   UNL A   1      31.953  30.436  26.880  1.00  0.00     0.023 C 
ENDROOT
BRANCH   1   2
ATOM      2  C   UNL A   1      31.634  31.924  26.883  1.00  0.00     0.023 C 
BRANCH   2   3
ATOM      3  C   UNL A   1      32.807  32.817  27.255  1.00  0.00     0.116 C 
BRANCH   3   4
ATOM      4  N   UNL A   1      32.408  34.162  27.650  1.00  0.00    -0.352 N 
ATOM      5  O   UNL A   1      32.453  36.025  28.941  1.00  0.00    -0.269 OA
ATOM      6  C   UNL A   1      32.956  34.953  28.630  1.00  0.00     0.251 C 
ATOM      7  H   UNL A   1      31.651  34.551  27.153  1.00  0.00     0.163 HD
BRANCH   6   8
ATOM      8  C   UNL A   1      34.152  34.456  29.330  1.00  0.00     0.039 A 
ATOM      9  C   UNL A   1      35.420  34.690  28.787  1.00  0.00     0.014 A 
ATOM     10  C   UNL A   1      33.993  33.675  30.474  1.00  0.00     0.014 A 
ATOM     11  C   UNL A   1      36.514  34.011  29.300  1.00  0.00     0.010 A 
ATOM     12  C   UNL A   1      35.112  33.078  31.049  1.00  0.00     0.010 A 
ATOM     13  C   UNL A   1      36.374  33.219  30.449  1.00  0.00    -0.014 A 
BRANCH  13  14
ATOM     14  C   UNL A   1      37.570  32.609  31.073  1.00  0.00     0.031 A 
ATOM     15  C   UNL A   1      38.317  31.503  30.393  1.00  0.00     0.074 A 
ATOM     16  C   UNL A   1      37.943  33.045  32.290  1.00  0.00     0.049 A 
ATOM     17  N   UNL A   1      39.308  30.780  30.849  1.00  0.00    -0.248 NA
ATOM     18  C   UNL A   1      37.895  31.155  29.028  1.00  0.00     0.031 C 
ATOM     19  C   UNL A   1      37.287  34.123  33.032  1.00  0.00     0.029 A 
ATOM     20  N   UNL A   1      38.951  32.633  33.122  1.00  0.00    -0.354 N 
ATOM     21  C   UNL A   1      39.605  29.869  29.845  1.00  0.00     0.074 A 
ATOM     22  C   UNL A   1      38.682  30.120  28.760  1.00  0.00     0.031 C 
ATOM     23  C   UNL A   1      37.920  34.301  34.198  1.00  0.00     0.029 A 
ATOM     24  C   UNL A   1      38.967  33.295  34.323  1.00  0.00     0.049 A 
ATOM     25  H   UNL A   1      39.599  31.931  32.881  1.00  0.00     0.167 HD
ATOM     26  C   UNL A   1      40.565  28.914  29.842  1.00  0.00     0.037 A 
ATOM     27  C   UNL A   1      39.709  33.089  35.426  1.00  0.00     0.037 A 
ATOM     28  C   UNL A   1      41.481  28.695  30.932  1.00  0.00     0.049 A 
ATOM     29  C   UNL A   1      40.727  31.990  35.422  1.00  0.00     0.074 A 
ATOM     30  C   UNL A   1      42.528  27.793  31.006  1.00  0.00     0.029 A 
ATOM     31  N   UNL A   1      41.450  29.371  32.144  1.00  0.00    -0.354 N 
ATOM     32  N   UNL A   1      41.025  31.153  34.458  1.00  0.00    -0.248 NA
ATOM     33  C   UNL A   1      41.508  31.799  36.649  1.00  0.00     0.031 C 
ATOM     34  C   UNL A   1      43.079  27.870  32.287  1.00  0.00     0.029 A 
ATOM     35  C   UNL A   1      42.432  28.876  32.987  1.00  0.00     0.049 A 
ATOM     36  H   UNL A   1      40.824  30.097  32.371  1.00  0.00     0.167 HD
ATOM     37  C   UNL A   1      42.040  30.349  34.951  1.00  0.00     0.074 A 
ATOM     38  C   UNL A   1      42.308  30.799  36.302  1.00  0.00     0.031 C 
ATOM     39  C   UNL A   1      42.691  29.336  34.331  1.00  0.00     0.037 A 
BRANCH  26  40
ATOM     40  C   UNL A   1      40.655  28.004  28.649  1.00  0.00     0.064 A 
ATOM     41  C   UNL A   1      41.417  28.380  27.531  1.00  0.00     0.173 A 
ATOM     42  C   UNL A   1      39.949  26.793  28.579  1.00  0.00     0.173 A 
ATOM     43  F   UNL A   1      42.105  29.533  27.538  1.00  0.00    -0.203 F 
ATOM     44  C   UNL A   1      41.463  27.584  26.390  1.00  0.00     0.198 A 
ATOM     45  C   UNL A   1      40.027  25.981  27.450  1.00  0.00     0.198 A 
ATOM     46  F   UNL A   1      39.210  26.381  29.621  1.00  0.00    -0.203 F 
ATOM     47  F   UNL A   1      42.173  27.983  25.325  1.00  0.00    -0.200 F 
ATOM     48  C   UNL A   1      40.776  26.382  26.353  1.00  0.00     0.200 A 
ATOM     49  F   UNL A   1      39.382  24.807  27.426  1.00  0.00    -0.200 F 
ATOM     50  F   UNL A   1      40.839  25.605  25.262  1.00  0.00    -0.200 F 
ENDBRANCH  26  40
BRANCH  27  51
ATOM     51  C   UNL A   1      39.480  33.963  36.603  1.00  0.00     0.064 A 
ATOM     52  C   UNL A   1      40.160  35.183  36.745  1.00  0.00     0.173 A 
ATOM     53  C   UNL A   1      38.678  33.532  37.666  1.00  0.00     0.173 A 
ATOM     54  F   UNL A   1      40.954  35.627  35.760  1.00  0.00    -0.203 F 
ATOM     55  C   UNL A   1      40.082  35.916  37.926  1.00  0.00     0.198 A 
ATOM     56  C   UNL A   1      38.578  34.281  38.837  1.00  0.00     0.198 A 
ATOM     57  F   UNL A   1      38.004  32.377  37.572  1.00  0.00    -0.203 F 
ATOM     58  F   UNL A   1      40.795  37.042  38.062  1.00  0.00    -0.200 F 
ATOM     59  C   UNL A   1      39.291  35.463  38.972  1.00  0.00     0.200 A 
ATOM     60  F   UNL A   1      37.805  33.848  39.841  1.00  0.00    -0.200 F 
ATOM     61  F   UNL A   1      39.226  36.161  40.114  1.00  0.00    -0.200 F 
ENDBRANCH  27  51
BRANCH  39  62
ATOM     62  C   UNL A   1      43.789  28.640  35.080  1.00  0.00     0.064 A 
ATOM     63  C   UNL A   1      45.123  29.039  34.899  1.00  0.00     0.173 A 
ATOM     64  C   UNL A   1      43.540  27.497  35.850  1.00  0.00     0.173 A 
ATOM     65  F   UNL A   1      45.411  30.125  34.165  1.00  0.00    -0.203 F 
ATOM     66  C   UNL A   1      46.170  28.291  35.428  1.00  0.00     0.198 A 
ATOM     67  C   UNL A   1      44.591  26.768  36.402  1.00  0.00     0.198 A 
ATOM     68  F   UNL A   1      42.282  27.087  36.063  1.00  0.00    -0.203 F 
ATOM     69  F   UNL A   1      47.439  28.656  35.190  1.00  0.00    -0.200 F 
ATOM     70  C   UNL A   1      45.904  27.155  36.175  1.00  0.00     0.200 A 
ATOM     71  F   UNL A   1      44.333  25.681  37.141  1.00  0.00    -0.200 F 
ATOM     72  F   UNL A   1      46.914  26.427  36.671  1.00  0.00    -0.200 F 
ENDBRANCH  39  62
ENDBRANCH  13  14
ENDBRANCH   6   8
ENDBRANCH   3   4
ENDBRANCH   2   3
ENDBRANCH   1   2
BRANCH   1  73
ATOM     73  C   UNL A   1      33.387  30.103  26.479  1.00  0.00     0.116 C 
BRANCH  73  74
ATOM     74  N   UNL A   1      33.588  28.689  26.271  1.00  0.00    -0.356 N 
ATOM     75  C   UNL A   1      33.259  27.862  25.251  1.00  0.00     0.225 C 
ATOM     76  H   UNL A   1      34.054  28.239  27.013  1.00  0.00     0.163 HD
ATOM     77  O   UNL A   1      33.629  26.688  25.371  1.00  0.00    -0.275 OA
BRANCH  75  78
ATOM     78  C   UNL A   1      32.410  28.245  24.038  1.00  0.00     0.107 C 
ATOM     79  C   UNL A   1      33.025  27.701  22.760  1.00  0.00     0.133 C 
ATOM     80  C   UNL A   1      30.928  27.807  24.003  1.00  0.00     0.053 C 
ATOM     81  N   UNL A   1      32.228  26.535  22.437  1.00  0.00    -0.341 N 
ATOM     82  C   UNL A   1      30.873  26.693  22.929  1.00  0.00     0.128 C 
BRANCH  80  83
ATOM     83  C   UNL A   1      29.876  28.842  23.616  1.00  0.00    -0.042 A 
ATOM     84  C   UNL A   1      30.138  30.193  23.926  1.00  0.00     0.007 A 
ATOM     85  C   UNL A   1      28.618  28.515  23.086  1.00  0.00     0.007 A 
ATOM     86  C   UNL A   1      29.162  31.173  23.752  1.00  0.00     0.039 A 
ATOM     87  C   UNL A   1      27.647  29.502  22.897  1.00  0.00     0.039 A 
ATOM     88  C   UNL A   1      27.921  30.817  23.243  1.00  0.00     0.123 A 
ATOM     89  F   UNL A   1      26.972  31.750  23.100  1.00  0.00    -0.207 F 
ENDBRANCH  80  83
BRANCH  81  90
ATOM     90  C   UNL A   1      32.601  25.391  21.778  1.00  0.00     0.225 C 
ATOM     91  O   UNL A   1      33.249  25.431  20.731  1.00  0.00    -0.275 OA
BRANCH  90  92
ATOM     92  C   UNL A   1      32.224  24.059  22.372  1.00  0.00     0.130 C 
BRANCH  92  93
ATOM     93  C   UNL A   1      33.509  23.302  22.667  1.00  0.00     0.123 C 
ATOM     94  N   UNL A   1      34.455  24.094  23.436  1.00  0.00    -0.345 N 
ATOM     95  C   UNL A   1      33.292  22.124  23.571  1.00  0.00    -0.012 A 
ATOM     96  C   UNL A   1      34.829  23.498  24.620  1.00  0.00     0.252 C 
ATOM     97  H   UNL A   1      34.794  24.969  23.141  1.00  0.00     0.164 HD
ATOM     98  C   UNL A   1      34.090  22.238  24.710  1.00  0.00     0.045 A 
ATOM     99  C   UNL A   1      32.483  21.015  23.393  1.00  0.00     0.007 A 
ATOM    100  O   UNL A   1      35.628  23.930  25.428  1.00  0.00    -0.269 OA
ATOM    101  C   UNL A   1      34.126  21.273  25.695  1.00  0.00     0.014 A 
ATOM    102  C   UNL A   1      32.493  20.027  24.382  1.00  0.00     0.000 A 
ATOM    103  C   UNL A   1      33.311  20.151  25.520  1.00  0.00     0.001 A 
ENDBRANCH  92  93
ENDBRANCH  90  92
ENDBRANCH  81  90
ENDBRANCH  75  78
ENDBRANCH  73  74
ENDBRANCH   1  73
TORSDOF 15
ENDMDL
MODEL 2
REMARK VINA RESULT:     -14.2      0.236      1.099
REMARK SMILES O=C(NCCCCNC(=O)[C@H]1CN(C(=O)C[C@H]2NC(=O)c3ccccc32)C[C@@H]1c1ccc(F)cc1)c1ccc(-c2c3nc(c(-c4c(F)c(F)c(F)c(F)c4F)c4ccc([nH]4)c(-c4c(F)c(F)c(F)c(F)c4F)c4nc(c(-c5c(F)c(F)c(F)c(F)c5F)c5ccc2[nH]5)C=C4)C=C3)cc1
REMARK SMILES IDX 6 1 5 2 4 3 3 4 1 5 2 6 36 8 37 9 98 10 38 11 97 12 39 13
REMARK SMILES IDX 40 14 41 15 91 16 42 17 96 18 90 19 92 20 43 21 95 22 89 23
REMARK SMILES IDX 88 24 44 26 76 27 56 28 75 29 57 30 60 31 74 32 93 33 58 34
REMARK SMILES IDX 59 35 73 37 94 38 61 39 45 40 46 41 54 42 47 43 48 44 52 45
REMARK SMILES IDX 55 46 49 47 50 48 53 49 51 50 77 51 78 52 86 53 79 54 80 55
REMARK SMILES IDX 84 56 87 57 81 58 82 59 85 60 83 61 62 62 63 63 71 64 64 65
REMARK SMILES IDX 65 66 69 67 72 68 66 69 67 70 70 71 68 72 7 73 8 74 9 75
REMARK SMILES IDX 10 77 11 78 12 79 28 80 13 81 27 82 29 83 30 84 35 85 31 86
REMARK SMILES IDX 34 87 32 88 33 89 14 90 15 91 16 92 17 93 18 94 26 95 19 96
REMARK SMILES IDX 21 98 25 99 20 100 22 101 24 102 23 103
REMARK H PARENT 3 7 92 25 60 36 8 76 18 97
REMARK Flexibility Score: inf
ROOT
ATOM      1  C   UNL A   1      31.947  30.436  26.889  1.00  0.00     0.023 C 
ENDROOT
BRANCH   1   2
ATOM      2  C   UNL A   1      31.644  31.928  26.875  1.00  0.00     0.023 C 
BRANCH   2   3
ATOM      3  C   UNL A   1      32.819  32.810  27.263  1.00  0.00     0.116 C 
BRANCH   3   4
ATOM      4  N   UNL A   1      32.427  34.160  27.647  1.00  0.00    -0.352 N 
ATOM      5  O   UNL A   1      32.476  36.032  28.926  1.00  0.00    -0.269 OA
ATOM      6  C   UNL A   1      32.975  34.955  28.624  1.00  0.00     0.251 C 
ATOM      7  H   UNL A   1      31.675  34.551  27.143  1.00  0.00     0.163 HD
BRANCH   6   8
ATOM      8  C   UNL A   1      34.164  34.455  29.334  1.00  0.00     0.039 A 
ATOM      9  C   UNL A   1      35.435  34.677  28.797  1.00  0.00     0.014 A 
ATOM     10  C   UNL A   1      33.993  33.683  30.482  1.00  0.00     0.014 A 
ATOM     11  C   UNL A   1      36.523  33.995  29.320  1.00  0.00     0.010 A 
ATOM     12  C   UNL A   1      35.105  33.083  31.068  1.00  0.00     0.010 A 
ATOM     13  C   UNL A   1      36.371  33.212  30.474  1.00  0.00    -0.014 A 
BRANCH  13  14
ATOM     14  C   UNL A   1      37.560  32.599  31.109  1.00  0.00     0.031 A 
ATOM     15  C   UNL A   1      38.298  31.477  30.445  1.00  0.00     0.074 A 
ATOM     16  C   UNL A   1      37.935  33.047  32.320  1.00  0.00     0.049 A 
ATOM     17  N   UNL A   1      39.281  30.750  30.913  1.00  0.00    -0.248 NA
ATOM     18  C   UNL A   1      37.876  31.115  29.084  1.00  0.00     0.031 C 
ATOM     19  C   UNL A   1      37.288  34.141  33.047  1.00  0.00     0.029 A 
ATOM     20  N   UNL A   1      38.937  32.636  33.160  1.00  0.00    -0.354 N 
ATOM     21  C   UNL A   1      39.572  29.824  29.921  1.00  0.00     0.074 A 
ATOM     22  C   UNL A   1      38.653  30.069  28.831  1.00  0.00     0.031 C 
ATOM     23  C   UNL A   1      37.919  34.328  34.212  1.00  0.00     0.029 A 
ATOM     24  C   UNL A   1      38.957  33.313  34.352  1.00  0.00     0.049 A 
ATOM     25  H   UNL A   1      39.578  31.925  32.930  1.00  0.00     0.167 HD
ATOM     26  C   UNL A   1      40.522  28.859  29.933  1.00  0.00     0.037 A 
ATOM     27  C   UNL A   1      39.694  33.115  35.460  1.00  0.00     0.037 A 
ATOM     28  C   UNL A   1      41.434  28.646  31.028  1.00  0.00     0.049 A 
ATOM     29  C   UNL A   1      40.701  32.007  35.473  1.00  0.00     0.074 A 
ATOM     30  C   UNL A   1      42.472  27.735  31.115  1.00  0.00     0.029 A 
ATOM     31  N   UNL A   1      41.407  29.338  32.231  1.00  0.00    -0.354 N 
ATOM     32  N   UNL A   1      40.994  31.154  34.520  1.00  0.00    -0.248 NA
ATOM     33  C   UNL A   1      41.477  31.824  36.704  1.00  0.00     0.031 C 
ATOM     34  C   UNL A   1      43.020  27.823  32.397  1.00  0.00     0.029 A 
ATOM     35  C   UNL A   1      42.382  28.844  33.083  1.00  0.00     0.049 A 
ATOM     36  H   UNL A   1      40.787  30.072  32.447  1.00  0.00     0.167 HD
ATOM     37  C   UNL A   1      41.999  30.347  35.027  1.00  0.00     0.074 A 
ATOM     38  C   UNL A   1      42.269  30.811  36.372  1.00  0.00     0.031 C 
ATOM     39  C   UNL A   1      42.643  29.319  34.421  1.00  0.00     0.037 A 
BRANCH  26  40
ATOM     40  C   UNL A   1      40.606  27.933  28.752  1.00  0.00     0.064 A 
ATOM     41  C   UNL A   1      41.373  28.289  27.630  1.00  0.00     0.173 A 
ATOM     42  C   UNL A   1      39.891  26.728  28.697  1.00  0.00     0.173 A 
ATOM     43  F   UNL A   1      42.070  29.435  27.623  1.00  0.00    -0.203 F 
ATOM     44  C   UNL A   1      41.414  27.477  26.500  1.00  0.00     0.198 A 
ATOM     45  C   UNL A   1      39.963  25.900  27.578  1.00  0.00     0.198 A 
ATOM     46  F   UNL A   1      39.147  26.335  29.743  1.00  0.00    -0.203 F 
ATOM     47  F   UNL A   1      42.128  27.857  25.431  1.00  0.00    -0.200 F 
ATOM     48  C   UNL A   1      40.717  26.280  26.478  1.00  0.00     0.200 A 
ATOM     49  F   UNL A   1      39.309  24.731  27.569  1.00  0.00    -0.200 F 
ATOM     50  F   UNL A   1      40.775  25.489  25.397  1.00  0.00    -0.200 F 
ENDBRANCH  26  40
BRANCH  27  51
ATOM     51  C   UNL A   1      39.470  34.006  36.625  1.00  0.00     0.064 A 
ATOM     52  C   UNL A   1      40.144  35.233  36.741  1.00  0.00     0.173 A 
ATOM     53  C   UNL A   1      38.683  33.587  37.703  1.00  0.00     0.173 A 
ATOM     54  F   UNL A   1      40.925  35.666  35.741  1.00  0.00    -0.203 F 
ATOM     55  C   UNL A   1      40.072  35.985  37.910  1.00  0.00     0.198 A 
ATOM     56  C   UNL A   1      38.589  34.355  38.862  1.00  0.00     0.198 A 
ATOM     57  F   UNL A   1      38.015  32.426  37.634  1.00  0.00    -0.203 F 
ATOM     58  F   UNL A   1      40.779  37.117  38.021  1.00  0.00    -0.200 F 
ATOM     59  C   UNL A   1      39.295  35.543  38.971  1.00  0.00     0.200 A 
ATOM     60  F   UNL A   1      37.829  33.932  39.882  1.00  0.00    -0.200 F 
ATOM     61  F   UNL A   1      39.236  36.259  40.102  1.00  0.00    -0.200 F 
ENDBRANCH  27  51
BRANCH  39  62
ATOM     62  C   UNL A   1      43.732  28.623  35.181  1.00  0.00     0.064 A 
ATOM     63  C   UNL A   1      43.413  27.584  36.070  1.00  0.00     0.173 A 
ATOM     64  C   UNL A   1      45.057  29.077  35.144  1.00  0.00     0.173 A 
ATOM     65  F   UNL A   1      42.156  27.120  36.145  1.00  0.00    -0.203 F 
ATOM     66  C   UNL A   1      44.374  27.056  36.926  1.00  0.00     0.198 A 
ATOM     67  C   UNL A   1      46.022  28.524  35.982  1.00  0.00     0.198 A 
ATOM     68  F   UNL A   1      45.412  30.056  34.299  1.00  0.00    -0.203 F 
ATOM     69  F   UNL A   1      44.033  26.108  37.811  1.00  0.00    -0.200 F 
ATOM     70  C   UNL A   1      45.676  27.529  36.884  1.00  0.00     0.200 A 
ATOM     71  F   UNL A   1      47.286  28.968  35.927  1.00  0.00    -0.200 F 
ATOM     72  F   UNL A   1      46.598  27.029  37.719  1.00  0.00    -0.200 F 
ENDBRANCH  39  62
ENDBRANCH  13  14
ENDBRANCH   6   8
ENDBRANCH   3   4
ENDBRANCH   2   3
ENDBRANCH   1   2
BRANCH   1  73
ATOM     73  C   UNL A   1      33.380  30.084  26.502  1.00  0.00     0.116 C 
BRANCH  73  74
ATOM     74  N   UNL A   1      33.570  28.664  26.316  1.00  0.00    -0.356 N 
ATOM     75  C   UNL A   1      33.245  27.827  25.304  1.00  0.00     0.225 C 
ATOM     76  H   UNL A   1      34.021  28.221  27.070  1.00  0.00     0.163 HD
ATOM     77  O   UNL A   1      33.601  26.651  25.446  1.00  0.00    -0.275 OA
BRANCH  75  78
ATOM     78  C   UNL A   1      32.415  28.201  24.076  1.00  0.00     0.107 C 
ATOM     79  C   UNL A   1      33.052  27.650  22.811  1.00  0.00     0.133 C 
ATOM     80  C   UNL A   1      30.934  27.760  24.019  1.00  0.00     0.053 C 
ATOM     81  N   UNL A   1      32.262  26.480  22.483  1.00  0.00    -0.341 N 
ATOM     82  C   UNL A   1      30.899  26.639  22.952  1.00  0.00     0.128 C 
BRANCH  80  83
ATOM     83  C   UNL A   1      29.887  28.791  23.609  1.00  0.00    -0.042 A 
ATOM     84  C   UNL A   1      30.156  30.147  23.887  1.00  0.00     0.007 A 
ATOM     85  C   UNL A   1      28.627  28.458  23.087  1.00  0.00     0.007 A 
ATOM     86  C   UNL A   1      29.184  31.128  23.690  1.00  0.00     0.039 A 
ATOM     87  C   UNL A   1      27.661  29.445  22.875  1.00  0.00     0.039 A 
ATOM     88  C   UNL A   1      27.942  30.766  23.191  1.00  0.00     0.123 A 
ATOM     89  F   UNL A   1      26.997  31.700  23.026  1.00  0.00    -0.207 F 
ENDBRANCH  80  83
BRANCH  81  90
ATOM     90  C   UNL A   1      32.647  25.333  21.837  1.00  0.00     0.225 C 
ATOM     91  O   UNL A   1      33.320  25.367  20.806  1.00  0.00    -0.275 OA
BRANCH  90  92
ATOM     92  C   UNL A   1      32.251  24.004  22.427  1.00  0.00     0.130 C 
BRANCH  92  93
ATOM     93  C   UNL A   1      33.527  23.247  22.761  1.00  0.00     0.123 C 
ATOM     94  N   UNL A   1      34.438  24.030  23.578  1.00  0.00    -0.345 N 
ATOM     95  C   UNL A   1      33.279  22.055  23.639  1.00  0.00    -0.012 A 
ATOM     96  C   UNL A   1      34.768  23.419  24.768  1.00  0.00     0.252 C 
ATOM     97  H   UNL A   1      34.786  24.911  23.309  1.00  0.00     0.164 HD
ATOM     98  C   UNL A   1      34.030  22.155  24.810  1.00  0.00     0.045 A 
ATOM     99  C   UNL A   1      32.481  20.946  23.413  1.00  0.00     0.007 A 
ATOM    100  O   UNL A   1      35.533  23.841  25.612  1.00  0.00    -0.269 OA
ATOM    101  C   UNL A   1      34.031  21.176  25.782  1.00  0.00     0.014 A 
ATOM    102  C   UNL A   1      32.456  19.944  24.387  1.00  0.00     0.000 A 
ATOM    103  C   UNL A   1      33.228  20.055  25.559  1.00  0.00     0.001 A 
ENDBRANCH  92  93
ENDBRANCH  90  92
ENDBRANCH  81  90
ENDBRANCH  75  78
ENDBRANCH  73  74
ENDBRANCH   1  73
TORSDOF 15
ENDMDL
MODEL 3
REMARK VINA RESULT:     -14.1      5.406     11.186
REMARK SMILES O=C(NCCCCNC(=O)[C@H]1CN(C(=O)C[C@H]2NC(=O)c3ccccc32)C[C@@H]1c1ccc(F)cc1)c1ccc(-c2c3nc(c(-c4c(F)c(F)c(F)c(F)c4F)c4ccc([nH]4)c(-c4c(F)c(F)c(F)c(F)c4F)c4nc(c(-c5c(F)c(F)c(F)c(F)c5F)c5ccc2[nH]5)C=C4)C=C3)cc1
REMARK SMILES IDX 6 1 5 2 4 3 3 4 1 5 2 6 36 8 37 9 98 10 38 11 97 12 39 13
REMARK SMILES IDX 40 14 41 15 91 16 42 17 96 18 90 19 92 20 43 21 95 22 89 23
REMARK SMILES IDX 88 24 44 26 76 27 56 28 75 29 57 30 60 31 74 32 93 33 58 34
REMARK SMILES IDX 59 35 73 37 94 38 61 39 45 40 46 41 54 42 47 43 48 44 52 45
REMARK SMILES IDX 55 46 49 47 50 48 53 49 51 50 77 51 78 52 86 53 79 54 80 55
REMARK SMILES IDX 84 56 87 57 81 58 82 59 85 60 83 61 62 62 63 63 71 64 64 65
REMARK SMILES IDX 65 66 69 67 72 68 66 69 67 70 70 71 68 72 7 73 8 74 9 75
REMARK SMILES IDX 10 77 11 78 12 79 28 80 13 81 27 82 29 83 30 84 35 85 31 86
REMARK SMILES IDX 34 87 32 88 33 89 14 90 15 91 16 92 17 93 18 94 26 95 19 96
REMARK SMILES IDX 21 98 25 99 20 100 22 101 24 102 23 103
REMARK H PARENT 3 7 92 25 60 36 8 76 18 97
REMARK Flexibility Score: inf
ROOT
ATOM      1  C   UNL A   1      37.672  21.209  24.626  1.00  0.00     0.023 C 
ENDROOT
BRANCH   1   2
ATOM      2  C   UNL A   1      38.338  19.891  24.998  1.00  0.00     0.023 C 
BRANCH   2   3
ATOM      3  C   UNL A   1      39.464  20.022  26.011  1.00  0.00     0.116 C 
BRANCH   3   4
ATOM      4  N   UNL A   1      40.468  18.972  25.899  1.00  0.00    -0.352 N 
ATOM      5  O   UNL A   1      42.577  18.147  25.779  1.00  0.00    -0.269 OA
ATOM      6  C   UNL A   1      41.832  19.092  26.008  1.00  0.00     0.251 C 
ATOM      7  H   UNL A   1      40.127  18.065  25.721  1.00  0.00     0.163 HD
BRANCH   6   8
ATOM      8  C   UNL A   1      42.383  20.408  26.373  1.00  0.00     0.039 A 
ATOM      9  C   UNL A   1      42.465  20.775  27.720  1.00  0.00     0.014 A 
ATOM     10  C   UNL A   1      42.723  21.305  25.362  1.00  0.00     0.014 A 
ATOM     11  C   UNL A   1      42.738  22.093  28.050  1.00  0.00     0.010 A 
ATOM     12  C   UNL A   1      43.099  22.602  25.703  1.00  0.00     0.010 A 
ATOM     13  C   UNL A   1      43.081  23.012  27.046  1.00  0.00    -0.014 A 
BRANCH  13  14
ATOM     14  C   UNL A   1      43.506  24.381  27.415  1.00  0.00     0.031 A 
ATOM     15  C   UNL A   1      42.517  25.388  27.916  1.00  0.00     0.074 A 
ATOM     16  C   UNL A   1      44.799  24.711  27.247  1.00  0.00     0.049 A 
ATOM     17  N   UNL A   1      42.697  26.660  28.170  1.00  0.00    -0.248 NA
ATOM     18  C   UNL A   1      41.147  24.914  28.157  1.00  0.00     0.031 C 
ATOM     19  C   UNL A   1      45.842  23.799  26.774  1.00  0.00     0.029 A 
ATOM     20  N   UNL A   1      45.456  25.898  27.440  1.00  0.00    -0.354 N 
ATOM     21  C   UNL A   1      41.459  27.146  28.565  1.00  0.00     0.074 A 
ATOM     22  C   UNL A   1      40.531  26.037  28.505  1.00  0.00     0.031 C 
ATOM     23  C   UNL A   1      47.010  24.452  26.732  1.00  0.00     0.029 A 
ATOM     24  C   UNL A   1      46.782  25.847  27.091  1.00  0.00     0.049 A 
ATOM     25  H   UNL A   1      45.020  26.707  27.794  1.00  0.00     0.167 HD
ATOM     26  C   UNL A   1      41.138  28.406  28.941  1.00  0.00     0.037 A 
ATOM     27  C   UNL A   1      47.706  26.820  27.019  1.00  0.00     0.037 A 
ATOM     28  C   UNL A   1      42.087  29.489  29.005  1.00  0.00     0.049 A 
ATOM     29  C   UNL A   1      47.317  28.220  27.386  1.00  0.00     0.074 A 
ATOM     30  C   UNL A   1      41.878  30.789  29.430  1.00  0.00     0.029 A 
ATOM     31  N   UNL A   1      43.418  29.404  28.620  1.00  0.00    -0.354 N 
ATOM     32  N   UNL A   1      46.152  28.667  27.789  1.00  0.00    -0.248 NA
ATOM     33  C   UNL A   1      48.357  29.250  27.286  1.00  0.00     0.031 C 
ATOM     34  C   UNL A   1      43.058  31.508  29.228  1.00  0.00     0.029 A 
ATOM     35  C   UNL A   1      44.030  30.639  28.755  1.00  0.00     0.049 A 
ATOM     36  H   UNL A   1      43.862  28.586  28.299  1.00  0.00     0.167 HD
ATOM     37  C   UNL A   1      46.321  30.024  28.011  1.00  0.00     0.074 A 
ATOM     38  C   UNL A   1      47.702  30.329  27.698  1.00  0.00     0.031 C 
ATOM     39  C   UNL A   1      45.409  30.929  28.444  1.00  0.00     0.037 A 
BRANCH  26  40
ATOM     40  C   UNL A   1      39.703  28.703  29.273  1.00  0.00     0.064 A 
ATOM     41  C   UNL A   1      38.846  29.228  28.292  1.00  0.00     0.173 A 
ATOM     42  C   UNL A   1      39.185  28.529  30.565  1.00  0.00     0.173 A 
ATOM     43  F   UNL A   1      39.290  29.425  27.041  1.00  0.00    -0.203 F 
ATOM     44  C   UNL A   1      37.530  29.570  28.593  1.00  0.00     0.198 A 
ATOM     45  C   UNL A   1      37.857  28.839  30.854  1.00  0.00     0.198 A 
ATOM     46  F   UNL A   1      39.957  28.026  31.540  1.00  0.00    -0.203 F 
ATOM     47  F   UNL A   1      36.744  30.099  27.645  1.00  0.00    -0.200 F 
ATOM     48  C   UNL A   1      37.035  29.368  29.870  1.00  0.00     0.200 A 
ATOM     49  F   UNL A   1      37.373  28.619  32.083  1.00  0.00    -0.200 F 
ATOM     50  F   UNL A   1      35.762  29.678  30.154  1.00  0.00    -0.200 F 
ENDBRANCH  26  40
BRANCH  27  51
ATOM     51  C   UNL A   1      49.075  26.462  26.574  1.00  0.00     0.064 A 
ATOM     52  C   UNL A   1      50.057  26.063  27.495  1.00  0.00     0.173 A 
ATOM     53  C   UNL A   1      49.462  26.640  25.241  1.00  0.00     0.173 A 
ATOM     54  F   UNL A   1      49.738  25.898  28.787  1.00  0.00    -0.203 F 
ATOM     55  C   UNL A   1      51.384  25.897  27.106  1.00  0.00     0.198 A 
ATOM     56  C   UNL A   1      50.785  26.447  24.847  1.00  0.00     0.198 A 
ATOM     57  F   UNL A   1      48.557  27.014  24.325  1.00  0.00    -0.203 F 
ATOM     58  F   UNL A   1      52.314  25.583  28.018  1.00  0.00    -0.200 F 
ATOM     59  C   UNL A   1      51.746  26.092  25.781  1.00  0.00     0.200 A 
ATOM     60  F   UNL A   1      51.130  26.624  23.565  1.00  0.00    -0.200 F 
ATOM     61  F   UNL A   1      53.025  25.947  25.408  1.00  0.00    -0.200 F 
ENDBRANCH  27  51
BRANCH  39  62
ATOM     62  C   UNL A   1      45.860  32.346  28.641  1.00  0.00     0.064 A 
ATOM     63  C   UNL A   1      45.811  33.253  27.570  1.00  0.00     0.173 A 
ATOM     64  C   UNL A   1      46.472  32.761  29.830  1.00  0.00     0.173 A 
ATOM     65  F   UNL A   1      45.240  32.898  26.409  1.00  0.00    -0.203 F 
ATOM     66  C   UNL A   1      46.400  34.509  27.670  1.00  0.00     0.198 A 
ATOM     67  C   UNL A   1      47.034  34.031  29.936  1.00  0.00     0.198 A 
ATOM     68  F   UNL A   1      46.528  31.935  30.885  1.00  0.00    -0.203 F 
ATOM     69  F   UNL A   1      46.396  35.335  26.614  1.00  0.00    -0.200 F 
ATOM     70  C   UNL A   1      47.013  34.896  28.851  1.00  0.00     0.200 A 
ATOM     71  F   UNL A   1      47.610  34.413  31.084  1.00  0.00    -0.200 F 
ATOM     72  F   UNL A   1      47.593  36.101  28.942  1.00  0.00    -0.200 F 
ENDBRANCH  39  62
ENDBRANCH  13  14
ENDBRANCH   6   8
ENDBRANCH   3   4
ENDBRANCH   2   3
ENDBRANCH   1   2
BRANCH   1  73
ATOM     73  C   UNL A   1      37.622  22.228  25.760  1.00  0.00     0.116 C 
BRANCH  73  74
ATOM     74  N   UNL A   1      36.659  23.277  25.518  1.00  0.00    -0.356 N 
ATOM     75  C   UNL A   1      35.308  23.307  25.587  1.00  0.00     0.225 C 
ATOM     76  H   UNL A   1      37.063  24.134  25.251  1.00  0.00     0.163 HD
ATOM     77  O   UNL A   1      34.784  24.404  25.358  1.00  0.00    -0.275 OA
BRANCH  75  78
ATOM     78  C   UNL A   1      34.406  22.097  25.833  1.00  0.00     0.107 C 
ATOM     79  C   UNL A   1      33.464  22.359  26.997  1.00  0.00     0.133 C 
ATOM     80  C   UNL A   1      33.507  21.596  24.679  1.00  0.00     0.053 C 
ATOM     81  N   UNL A   1      32.192  22.668  26.376  1.00  0.00    -0.341 N 
ATOM     82  C   UNL A   1      32.070  21.991  25.100  1.00  0.00     0.128 C 
BRANCH  80  83
ATOM     83  C   UNL A   1      33.481  20.100  24.379  1.00  0.00    -0.042 A 
ATOM     84  C   UNL A   1      34.606  19.336  24.752  1.00  0.00     0.007 A 
ATOM     85  C   UNL A   1      32.463  19.469  23.647  1.00  0.00     0.007 A 
ATOM     86  C   UNL A   1      34.727  18.000  24.369  1.00  0.00     0.039 A 
ATOM     87  C   UNL A   1      32.579  18.126  23.279  1.00  0.00     0.039 A 
ATOM     88  C   UNL A   1      33.713  17.408  23.631  1.00  0.00     0.123 A 
ATOM     89  F   UNL A   1      33.837  16.135  23.238  1.00  0.00    -0.207 F 
ENDBRANCH  80  83
BRANCH  81  90
ATOM     90  C   UNL A   1      31.183  23.477  26.834  1.00  0.00     0.225 C 
ATOM     91  O   UNL A   1      30.172  23.012  27.364  1.00  0.00    -0.275 OA
BRANCH  90  92
ATOM     92  C   UNL A   1      31.338  24.970  26.703  1.00  0.00     0.130 C 
BRANCH  92  93
ATOM     93  C   UNL A   1      31.205  25.323  25.230  1.00  0.00     0.123 C 
ATOM     94  N   UNL A   1      29.828  25.261  24.768  1.00  0.00    -0.345 N 
ATOM     95  C   UNL A   1      31.559  26.752  24.943  1.00  0.00    -0.012 A 
ATOM     96  C   UNL A   1      29.383  26.445  24.222  1.00  0.00     0.252 C 
ATOM     97  H   UNL A   1      29.268  24.454  24.838  1.00  0.00     0.164 HD
ATOM     98  C   UNL A   1      30.486  27.401  24.330  1.00  0.00     0.045 A 
ATOM     99  C   UNL A   1      32.747  27.427  25.170  1.00  0.00     0.007 A 
ATOM    100  O   UNL A   1      28.289  26.652  23.733  1.00  0.00    -0.269 OA
ATOM    101  C   UNL A   1      30.548  28.715  23.915  1.00  0.00     0.014 A 
ATOM    102  C   UNL A   1      32.831  28.763  24.767  1.00  0.00     0.000 A 
ATOM    103  C   UNL A   1      31.744  29.400  24.140  1.00  0.00     0.001 A 
ENDBRANCH  92  93
ENDBRANCH  90  92
ENDBRANCH  81  90
ENDBRANCH  75  78
ENDBRANCH  73  74
ENDBRANCH   1  73
TORSDOF 15
ENDMDL
