MODEL 1
REMARK VINA RESULT:     -12.0      0.000      0.000
REMARK SMILES CCCCn1cc(C(N)=O)c2cc(C(=O)NCCCCNC(=O)c3ccc(-c4c5nc(c(-c6c(F)c(F)c(F)c(F)c6F)c6ccc([nH]6)c(-c6c(F)c(F)c(F)c(F)c6F)c6nc(c(-c7c(F)c(F)c(F)c(F)c7F)c7ccc4[nH]7)C=C6)C=C5)cc3)cnc21
REMARK SMILES IDX 18 1 17 2 16 3 14 4 15 5 13 7 5 8 6 9 89 10 7 11 11 12 88 13
REMARK SMILES IDX 12 14 87 15 4 16 3 17 2 18 1 19 8 20 9 21 10 22 19 25 20 26
REMARK SMILES IDX 21 27 22 28 23 30 24 31 25 32 86 33 26 34 85 35 27 36 28 37
REMARK SMILES IDX 29 38 79 39 30 40 84 41 78 42 80 43 31 44 83 45 77 46 76 47
REMARK SMILES IDX 32 49 64 50 44 51 63 52 45 53 48 54 62 55 81 56 46 57 47 58
REMARK SMILES IDX 61 60 82 61 49 62 33 63 34 64 42 65 35 66 36 67 40 68 43 69
REMARK SMILES IDX 37 70 38 71 41 72 39 73 65 74 66 75 74 76 67 77 68 78 72 79
REMARK SMILES IDX 75 80 69 81 70 82 73 83 71 84 50 85 51 86 59 87 52 88 53 89
REMARK SMILES IDX 57 90 60 91 54 92 55 93 58 94 56 95
REMARK H PARENT 16 6 9 23 9 24 21 29 80 48 48 59
REMARK Flexibility Score: inf
ROOT
ATOM      1  C   UNL A   1      41.095  21.210  27.470  1.00  0.00     0.023 C 
ENDROOT
BRANCH   1   2
ATOM      2  C   UNL A   1      40.007  21.361  26.403  1.00  0.00     0.116 C 
BRANCH   2   3
ATOM      3  N   UNL A   1      39.464  22.704  26.405  1.00  0.00    -0.352 N 
ATOM      4  C   UNL A   1      38.227  23.224  26.131  1.00  0.00     0.252 C 
ATOM      5  O   UNL A   1      38.123  24.451  26.212  1.00  0.00    -0.269 OA
ATOM      6  H   UNL A   1      40.125  23.388  26.659  1.00  0.00     0.163 HD
BRANCH   4   7
ATOM      7  C   UNL A   1      37.018  22.432  25.783  1.00  0.00     0.058 A 
ATOM      8  N   UNL A   1      33.507  20.481  25.071  1.00  0.00    -0.332 N 
ATOM      9  C   UNL A   1      32.560  21.417  25.375  1.00  0.00     0.102 A 
ATOM     10  C   UNL A   1      34.745  21.048  25.218  1.00  0.00     0.140 A 
ATOM     11  C   UNL A   1      33.173  22.541  25.915  1.00  0.00     0.066 A 
ATOM     12  C   UNL A   1      34.585  22.295  25.825  1.00  0.00     0.032 A 
ATOM     13  N   UNL A   1      35.902  20.480  24.827  1.00  0.00    -0.237 NA
ATOM     14  C   UNL A   1      35.775  22.974  26.158  1.00  0.00     0.028 A 
ATOM     15  C   UNL A   1      36.995  21.238  25.085  1.00  0.00     0.127 A 
BRANCH   8  16
ATOM     16  C   UNL A   1      33.254  19.136  24.583  1.00  0.00     0.123 C 
BRANCH  16  17
ATOM     17  C   UNL A   1      32.653  18.170  25.615  1.00  0.00     0.022 C 
BRANCH  17  18
ATOM     18  C   UNL A   1      33.016  16.688  25.462  1.00  0.00    -0.002 C 
ATOM     19  C   UNL A   1      33.694  16.347  24.143  1.00  0.00     0.004 C 
ENDBRANCH  17  18
ENDBRANCH  16  17
ENDBRANCH   8  16
BRANCH  11  20
ATOM     20  C   UNL A   1      32.379  23.670  26.396  1.00  0.00     0.250 C 
ATOM     21  N   UNL A   1      32.169  24.708  25.536  1.00  0.00    -0.366 N 
ATOM     22  O   UNL A   1      31.893  23.714  27.515  1.00  0.00    -0.269 OA
ATOM     23  H   UNL A   1      32.556  24.684  24.631  1.00  0.00     0.159 HD
ATOM     24  H   UNL A   1      31.631  25.482  25.820  1.00  0.00     0.159 HD
ENDBRANCH  11  20
ENDBRANCH   4   7
ENDBRANCH   2   3
ENDBRANCH   1   2
BRANCH   1  25
ATOM     25  C   UNL A   1      42.150  20.136  27.158  1.00  0.00     0.023 C 
BRANCH  25  26
ATOM     26  C   UNL A   1      42.191  19.701  25.698  1.00  0.00     0.116 C 
BRANCH  26  27
ATOM     27  N   UNL A   1      43.554  19.590  25.190  1.00  0.00    -0.352 N 
ATOM     28  C   UNL A   1      44.411  20.607  24.832  1.00  0.00     0.251 C 
ATOM     29  H   UNL A   1      43.905  18.676  25.092  1.00  0.00     0.163 HD
ATOM     30  O   UNL A   1      45.353  20.405  24.076  1.00  0.00    -0.269 OA
BRANCH  28  31
ATOM     31  C   UNL A   1      44.191  21.947  25.394  1.00  0.00     0.039 A 
ATOM     32  C   UNL A   1      43.249  22.814  24.835  1.00  0.00     0.014 A 
ATOM     33  C   UNL A   1      44.964  22.333  26.490  1.00  0.00     0.014 A 
ATOM     34  C   UNL A   1      43.061  24.060  25.421  1.00  0.00     0.010 A 
ATOM     35  C   UNL A   1      44.694  23.508  27.141  1.00  0.00     0.010 A 
ATOM     36  C   UNL A   1      43.787  24.394  26.575  1.00  0.00    -0.014 A 
BRANCH  36  37
ATOM     37  C   UNL A   1      43.550  25.656  27.253  1.00  0.00     0.031 A 
ATOM     38  C   UNL A   1      44.496  26.743  26.889  1.00  0.00     0.074 A 
ATOM     39  C   UNL A   1      42.458  25.876  28.012  1.00  0.00     0.049 A 
ATOM     40  N   UNL A   1      45.377  27.296  27.653  1.00  0.00    -0.248 NA
ATOM     41  C   UNL A   1      44.562  27.184  25.487  1.00  0.00     0.031 C 
ATOM     42  C   UNL A   1      41.294  25.012  28.229  1.00  0.00     0.029 A 
ATOM     43  N   UNL A   1      42.129  26.997  28.706  1.00  0.00    -0.354 N 
ATOM     44  C   UNL A   1      45.997  28.277  26.886  1.00  0.00     0.074 A 
ATOM     45  C   UNL A   1      45.568  28.062  25.529  1.00  0.00     0.031 C 
ATOM     46  C   UNL A   1      40.303  25.724  28.809  1.00  0.00     0.029 A 
ATOM     47  C   UNL A   1      40.815  27.040  29.148  1.00  0.00     0.049 A 
ATOM     48  H   UNL A   1      42.773  27.722  28.880  1.00  0.00     0.167 HD
ATOM     49  C   UNL A   1      46.649  29.317  27.479  1.00  0.00     0.037 A 
ATOM     50  C   UNL A   1      40.196  28.105  29.715  1.00  0.00     0.037 A 
ATOM     51  C   UNL A   1      46.914  29.039  28.867  1.00  0.00     0.049 A 
ATOM     52  C   UNL A   1      41.265  28.989  30.255  1.00  0.00     0.074 A 
ATOM     53  C   UNL A   1      47.640  28.068  29.531  1.00  0.00     0.029 A 
ATOM     54  N   UNL A   1      46.071  29.578  29.808  1.00  0.00    -0.354 N 
ATOM     55  N   UNL A   1      42.044  28.649  31.245  1.00  0.00    -0.248 NA
ATOM     56  C   UNL A   1      41.790  30.021  29.371  1.00  0.00     0.031 C 
ATOM     57  C   UNL A   1      46.843  27.727  30.662  1.00  0.00     0.029 A 
ATOM     58  C   UNL A   1      45.726  28.565  30.668  1.00  0.00     0.049 A 
ATOM     59  H   UNL A   1      45.770  30.514  29.857  1.00  0.00     0.167 HD
ATOM     60  C   UNL A   1      43.305  29.089  30.869  1.00  0.00     0.074 A 
ATOM     61  C   UNL A   1      43.076  29.983  29.735  1.00  0.00     0.031 C 
ATOM     62  C   UNL A   1      44.437  28.464  31.311  1.00  0.00     0.037 A 
BRANCH  49  63
ATOM     63  C   UNL A   1      46.732  30.711  26.915  1.00  0.00     0.064 A 
ATOM     64  C   UNL A   1      47.972  31.381  26.918  1.00  0.00     0.173 A 
ATOM     65  C   UNL A   1      45.604  31.516  26.657  1.00  0.00     0.173 A 
ATOM     66  F   UNL A   1      49.109  30.714  27.171  1.00  0.00    -0.203 F 
ATOM     67  C   UNL A   1      48.062  32.766  26.758  1.00  0.00     0.198 A 
ATOM     68  C   UNL A   1      45.703  32.890  26.444  1.00  0.00     0.198 A 
ATOM     69  F   UNL A   1      44.357  31.034  26.715  1.00  0.00    -0.203 F 
ATOM     70  F   UNL A   1      49.246  33.376  26.898  1.00  0.00    -0.200 F 
ATOM     71  C   UNL A   1      46.926  33.520  26.527  1.00  0.00     0.200 A 
ATOM     72  F   UNL A   1      44.588  33.606  26.242  1.00  0.00    -0.200 F 
ATOM     73  F   UNL A   1      47.001  34.853  26.436  1.00  0.00    -0.200 F 
ENDBRANCH  49  63
BRANCH  50  74
ATOM     74  C   UNL A   1      38.806  28.567  29.475  1.00  0.00     0.064 A 
ATOM     75  C   UNL A   1      37.926  28.821  30.541  1.00  0.00     0.173 A 
ATOM     76  C   UNL A   1      38.397  29.033  28.208  1.00  0.00     0.173 A 
ATOM     77  F   UNL A   1      38.257  28.457  31.788  1.00  0.00    -0.203 F 
ATOM     78  C   UNL A   1      36.725  29.516  30.353  1.00  0.00     0.198 A 
ATOM     79  C   UNL A   1      37.198  29.720  28.022  1.00  0.00     0.198 A 
ATOM     80  F   UNL A   1      39.199  28.914  27.140  1.00  0.00    -0.203 F 
ATOM     81  F   UNL A   1      35.940  29.791  31.405  1.00  0.00    -0.200 F 
ATOM     82  C   UNL A   1      36.367  29.974  29.096  1.00  0.00     0.200 A 
ATOM     83  F   UNL A   1      36.885  30.192  26.806  1.00  0.00    -0.200 F 
ATOM     84  F   UNL A   1      35.248  30.692  28.927  1.00  0.00    -0.200 F 
ENDBRANCH  50  74
BRANCH  62  85
ATOM     85  C   UNL A   1      44.307  27.417  32.384  1.00  0.00     0.064 A 
ATOM     86  C   UNL A   1      44.178  26.040  32.127  1.00  0.00     0.173 A 
ATOM     87  C   UNL A   1      44.511  27.803  33.715  1.00  0.00     0.173 A 
ATOM     88  F   UNL A   1      44.077  25.577  30.877  1.00  0.00    -0.203 F 
ATOM     89  C   UNL A   1      44.228  25.101  33.158  1.00  0.00     0.198 A 
ATOM     90  C   UNL A   1      44.596  26.862  34.737  1.00  0.00     0.198 A 
ATOM     91  F   UNL A   1      44.696  29.098  34.016  1.00  0.00    -0.203 F 
ATOM     92  F   UNL A   1      44.107  23.794  32.882  1.00  0.00    -0.200 F 
ATOM     93  C   UNL A   1      44.448  25.513  34.460  1.00  0.00     0.200 A 
ATOM     94  F   UNL A   1      44.860  27.262  35.989  1.00  0.00    -0.200 F 
ATOM     95  F   UNL A   1      44.548  24.609  35.445  1.00  0.00    -0.200 F 
ENDBRANCH  62  85
ENDBRANCH  36  37
ENDBRANCH  28  31
ENDBRANCH  26  27
ENDBRANCH  25  26
ENDBRANCH   1  25
TORSDOF 15
ENDMDL
MODEL 2
REMARK VINA RESULT:     -11.9      2.952      5.235
REMARK SMILES CCCCn1cc(C(N)=O)c2cc(C(=O)NCCCCNC(=O)c3ccc(-c4c5nc(c(-c6c(F)c(F)c(F)c(F)c6F)c6ccc([nH]6)c(-c6c(F)c(F)c(F)c(F)c6F)c6nc(c(-c7c(F)c(F)c(F)c(F)c7F)c7ccc4[nH]7)C=C6)C=C5)cc3)cnc21
REMARK SMILES IDX 18 1 17 2 16 3 14 4 15 5 13 7 5 8 6 9 89 10 7 11 11 12 88 13
REMARK SMILES IDX 12 14 87 15 4 16 3 17 2 18 1 19 8 20 9 21 10 22 19 25 20 26
REMARK SMILES IDX 21 27 22 28 23 30 24 31 25 32 86 33 26 34 85 35 27 36 28 37
REMARK SMILES IDX 29 38 79 39 30 40 84 41 78 42 80 43 31 44 83 45 77 46 76 47
REMARK SMILES IDX 32 49 64 50 44 51 63 52 45 53 48 54 62 55 81 56 46 57 47 58
REMARK SMILES IDX 61 60 82 61 49 62 33 63 34 64 42 65 35 66 36 67 40 68 43 69
REMARK SMILES IDX 37 70 38 71 41 72 39 73 65 74 66 75 74 76 67 77 68 78 72 79
REMARK SMILES IDX 75 80 69 81 70 82 73 83 71 84 50 85 51 86 59 87 52 88 53 89
REMARK SMILES IDX 57 90 60 91 54 92 55 93 58 94 56 95
REMARK H PARENT 16 6 9 23 9 24 21 29 80 48 48 59
REMARK Flexibility Score: inf
ROOT
ATOM      1  C   UNL A   1      35.741  22.512  23.916  1.00  0.00     0.023 C 
ENDROOT
BRANCH   1   2
ATOM      2  C   UNL A   1      34.888  23.640  23.330  1.00  0.00     0.116 C 
BRANCH   2   3
ATOM      3  N   UNL A   1      33.504  23.232  23.206  1.00  0.00    -0.352 N 
ATOM      4  C   UNL A   1      32.316  23.782  23.607  1.00  0.00     0.252 C 
ATOM      5  O   UNL A   1      31.300  23.132  23.348  1.00  0.00    -0.269 OA
ATOM      6  H   UNL A   1      33.394  22.375  22.733  1.00  0.00     0.163 HD
BRANCH   4   7
ATOM      7  C   UNL A   1      32.161  25.096  24.286  1.00  0.00     0.058 A 
ATOM      8  N   UNL A   1      31.717  28.856  25.804  1.00  0.00    -0.332 N 
ATOM      9  C   UNL A   1      31.063  29.522  24.807  1.00  0.00     0.102 A 
ATOM     10  C   UNL A   1      31.872  27.548  25.428  1.00  0.00     0.140 A 
ATOM     11  C   UNL A   1      30.963  28.704  23.689  1.00  0.00     0.066 A 
ATOM     12  C   UNL A   1      31.499  27.433  24.087  1.00  0.00     0.032 A 
ATOM     13  N   UNL A   1      32.306  26.562  26.236  1.00  0.00    -0.237 NA
ATOM     14  C   UNL A   1      31.705  26.168  23.499  1.00  0.00     0.028 A 
ATOM     15  C   UNL A   1      32.379  25.353  25.628  1.00  0.00     0.127 A 
BRANCH   8  16
ATOM     16  C   UNL A   1      32.105  29.410  27.090  1.00  0.00     0.123 C 
BRANCH  16  17
ATOM     17  C   UNL A   1      33.489  30.074  27.125  1.00  0.00     0.022 C 
BRANCH  17  18
ATOM     18  C   UNL A   1      34.692  29.145  27.325  1.00  0.00    -0.002 C 
ATOM     19  C   UNL A   1      36.017  29.872  27.499  1.00  0.00     0.004 C 
ENDBRANCH  17  18
ENDBRANCH  16  17
ENDBRANCH   8  16
BRANCH  11  20
ATOM     20  C   UNL A   1      30.367  29.198  22.448  1.00  0.00     0.250 C 
ATOM     21  N   UNL A   1      31.158  29.936  21.617  1.00  0.00    -0.366 N 
ATOM     22  O   UNL A   1      29.212  28.967  22.126  1.00  0.00    -0.269 OA
ATOM     23  H   UNL A   1      32.090  30.128  21.867  1.00  0.00     0.159 HD
ATOM     24  H   UNL A   1      30.795  30.278  20.768  1.00  0.00     0.159 HD
ENDBRANCH  11  20
ENDBRANCH   4   7
ENDBRANCH   2   3
ENDBRANCH   1   2
BRANCH   1  25
ATOM     25  C   UNL A   1      36.093  22.684  25.403  1.00  0.00     0.023 C 
BRANCH  25  26
ATOM     26  C   UNL A   1      37.485  23.251  25.656  1.00  0.00     0.116 C 
BRANCH  26  27
ATOM     27  N   UNL A   1      38.416  22.239  26.145  1.00  0.00    -0.352 N 
ATOM     28  C   UNL A   1      39.651  22.432  26.720  1.00  0.00     0.251 C 
ATOM     29  H   UNL A   1      38.124  21.303  26.052  1.00  0.00     0.163 HD
ATOM     30  O   UNL A   1      40.489  21.539  26.736  1.00  0.00    -0.269 OA
BRANCH  28  31
ATOM     31  C   UNL A   1      39.946  23.729  27.344  1.00  0.00     0.039 A 
ATOM     32  C   UNL A   1      41.156  23.948  28.007  1.00  0.00     0.014 A 
ATOM     33  C   UNL A   1      38.973  24.727  27.271  1.00  0.00     0.014 A 
ATOM     34  C   UNL A   1      41.397  25.202  28.557  1.00  0.00     0.010 A 
ATOM     35  C   UNL A   1      39.259  25.997  27.703  1.00  0.00     0.010 A 
ATOM     36  C   UNL A   1      40.442  26.218  28.395  1.00  0.00    -0.014 A 
BRANCH  36  37
ATOM     37  C   UNL A   1      40.704  27.558  28.889  1.00  0.00     0.031 A 
ATOM     38  C   UNL A   1      41.903  28.213  28.305  1.00  0.00     0.074 A 
ATOM     39  C   UNL A   1      39.834  28.222  29.677  1.00  0.00     0.049 A 
ATOM     40  N   UNL A   1      42.995  28.524  28.917  1.00  0.00    -0.248 NA
ATOM     41  C   UNL A   1      41.950  28.433  26.851  1.00  0.00     0.031 C 
ATOM     42  C   UNL A   1      38.485  27.831  30.098  1.00  0.00     0.029 A 
ATOM     43  N   UNL A   1      39.965  29.463  30.214  1.00  0.00    -0.354 N 
ATOM     44  C   UNL A   1      43.809  29.140  27.972  1.00  0.00     0.074 A 
ATOM     45  C   UNL A   1      43.184  28.921  26.694  1.00  0.00     0.031 C 
ATOM     46  C   UNL A   1      37.849  28.900  30.628  1.00  0.00     0.029 A 
ATOM     47  C   UNL A   1      38.794  29.998  30.730  1.00  0.00     0.049 A 
ATOM     48  H   UNL A   1      40.824  29.945  30.234  1.00  0.00     0.167 HD
ATOM     49  C   UNL A   1      44.824  29.964  28.357  1.00  0.00     0.037 A 
ATOM     50  C   UNL A   1      38.620  31.269  31.170  1.00  0.00     0.037 A 
ATOM     51  C   UNL A   1      45.139  29.783  29.751  1.00  0.00     0.049 A 
ATOM     52  C   UNL A   1      39.970  31.801  31.499  1.00  0.00     0.074 A 
ATOM     53  C   UNL A   1      45.582  28.712  30.504  1.00  0.00     0.029 A 
ATOM     54  N   UNL A   1      44.627  30.682  30.653  1.00  0.00    -0.354 N 
ATOM     55  N   UNL A   1      40.704  31.340  32.475  1.00  0.00    -0.248 NA
ATOM     56  C   UNL A   1      40.699  32.482  30.437  1.00  0.00     0.031 C 
ATOM     57  C   UNL A   1      44.849  28.797  31.724  1.00  0.00     0.029 A 
ATOM     58  C   UNL A   1      44.072  29.955  31.676  1.00  0.00     0.049 A 
ATOM     59  H   UNL A   1      44.652  31.664  30.580  1.00  0.00     0.167 HD
ATOM     60  C   UNL A   1      41.988  31.282  31.955  1.00  0.00     0.074 A 
ATOM     61  C   UNL A   1      41.935  32.058  30.716  1.00  0.00     0.031 C 
ATOM     62  C   UNL A   1      42.899  30.372  32.410  1.00  0.00     0.037 A 
BRANCH  49  63
ATOM     63  C   UNL A   1      45.290  31.171  27.585  1.00  0.00     0.064 A 
ATOM     64  C   UNL A   1      46.627  31.229  27.141  1.00  0.00     0.173 A 
ATOM     65  C   UNL A   1      44.575  32.385  27.530  1.00  0.00     0.173 A 
ATOM     66  F   UNL A   1      47.404  30.136  27.167  1.00  0.00    -0.203 F 
ATOM     67  C   UNL A   1      47.222  32.431  26.751  1.00  0.00     0.198 A 
ATOM     68  C   UNL A   1      45.157  33.572  27.090  1.00  0.00     0.198 A 
ATOM     69  F   UNL A   1      43.330  32.501  28.006  1.00  0.00    -0.203 F 
ATOM     70  F   UNL A   1      48.529  32.463  26.461  1.00  0.00    -0.200 F 
ATOM     71  C   UNL A   1      46.489  33.603  26.732  1.00  0.00     0.200 A 
ATOM     72  F   UNL A   1      44.435  34.701  27.098  1.00  0.00    -0.200 F 
ATOM     73  F   UNL A   1      47.072  34.767  26.420  1.00  0.00    -0.200 F 
ENDBRANCH  49  63
BRANCH  50  74
ATOM     74  C   UNL A   1      37.436  32.138  30.955  1.00  0.00     0.064 A 
ATOM     75  C   UNL A   1      37.151  32.685  29.693  1.00  0.00     0.173 A 
ATOM     76  C   UNL A   1      36.408  32.227  31.917  1.00  0.00     0.173 A 
ATOM     77  F   UNL A   1      38.052  32.601  28.704  1.00  0.00    -0.203 F 
ATOM     78  C   UNL A   1      35.909  33.265  29.405  1.00  0.00     0.198 A 
ATOM     79  C   UNL A   1      35.173  32.809  31.631  1.00  0.00     0.198 A 
ATOM     80  F   UNL A   1      36.547  31.665  33.126  1.00  0.00    -0.203 F 
ATOM     81  F   UNL A   1      35.654  33.723  28.172  1.00  0.00    -0.200 F 
ATOM     82  C   UNL A   1      34.918  33.317  30.372  1.00  0.00     0.200 A 
ATOM     83  F   UNL A   1      34.210  32.815  32.565  1.00  0.00    -0.200 F 
ATOM     84  F   UNL A   1      33.708  33.815  30.079  1.00  0.00    -0.200 F 
ENDBRANCH  50  74
BRANCH  62  85
ATOM     85  C   UNL A   1      42.559  29.566  33.636  1.00  0.00     0.064 A 
ATOM     86  C   UNL A   1      41.921  28.313  33.600  1.00  0.00     0.173 A 
ATOM     87  C   UNL A   1      43.067  29.991  34.870  1.00  0.00     0.173 A 
ATOM     88  F   UNL A   1      41.493  27.788  32.447  1.00  0.00    -0.203 F 
ATOM     89  C   UNL A   1      41.779  27.538  34.750  1.00  0.00     0.198 A 
ATOM     90  C   UNL A   1      42.956  29.199  36.010  1.00  0.00     0.198 A 
ATOM     91  F   UNL A   1      43.735  31.153  34.957  1.00  0.00    -0.203 F 
ATOM     92  F   UNL A   1      41.170  26.344  34.686  1.00  0.00    -0.200 F 
ATOM     93  C   UNL A   1      42.306  27.977  35.952  1.00  0.00     0.200 A 
ATOM     94  F   UNL A   1      43.513  29.607  37.159  1.00  0.00    -0.200 F 
ATOM     95  F   UNL A   1      42.217  27.210  37.048  1.00  0.00    -0.200 F 
ENDBRANCH  62  85
ENDBRANCH  36  37
ENDBRANCH  28  31
ENDBRANCH  26  27
ENDBRANCH  25  26
ENDBRANCH   1  25
TORSDOF 15
ENDMDL
MODEL 3
REMARK VINA RESULT:     -11.9      2.958      8.642
REMARK SMILES CCCCn1cc(C(N)=O)c2cc(C(=O)NCCCCNC(=O)c3ccc(-c4c5nc(c(-c6c(F)c(F)c(F)c(F)c6F)c6ccc([nH]6)c(-c6c(F)c(F)c(F)c(F)c6F)c6nc(c(-c7c(F)c(F)c(F)c(F)c7F)c7ccc4[nH]7)C=C6)C=C5)cc3)cnc21
REMARK SMILES IDX 18 1 17 2 16 3 14 4 15 5 13 7 5 8 6 9 89 10 7 11 11 12 88 13
REMARK SMILES IDX 12 14 87 15 4 16 3 17 2 18 1 19 8 20 9 21 10 22 19 25 20 26
REMARK SMILES IDX 21 27 22 28 23 30 24 31 25 32 86 33 26 34 85 35 27 36 28 37
REMARK SMILES IDX 29 38 79 39 30 40 84 41 78 42 80 43 31 44 83 45 77 46 76 47
REMARK SMILES IDX 32 49 64 50 44 51 63 52 45 53 48 54 62 55 81 56 46 57 47 58
REMARK SMILES IDX 61 60 82 61 49 62 33 63 34 64 42 65 35 66 36 67 40 68 43 69
REMARK SMILES IDX 37 70 38 71 41 72 39 73 65 74 66 75 74 76 67 77 68 78 72 79
REMARK SMILES IDX 75 80 69 81 70 82 73 83 71 84 50 85 51 86 59 87 52 88 53 89
REMARK SMILES IDX 57 90 60 91 54 92 55 93 58 94 56 95
REMARK H PARENT 16 6 9 23 9 24 21 29 80 48 48 59
REMARK Flexibility Score: inf
ROOT
ATOM      1  C   UNL A   1      32.191  28.171  27.235  1.00  0.00     0.023 C 
ENDROOT
BRANCH   1   2
ATOM      2  C   UNL A   1      31.786  27.232  26.095  1.00  0.00     0.116 C 
BRANCH   2   3
ATOM      3  N   UNL A   1      30.991  26.129  26.592  1.00  0.00    -0.352 N 
ATOM      4  C   UNL A   1      31.155  24.769  26.593  1.00  0.00     0.252 C 
ATOM      5  O   UNL A   1      30.241  24.111  27.096  1.00  0.00    -0.269 OA
ATOM      6  H   UNL A   1      30.153  26.418  27.022  1.00  0.00     0.163 HD
BRANCH   4   7
ATOM      7  C   UNL A   1      32.346  24.046  26.073  1.00  0.00     0.058 A 
ATOM      8  N   UNL A   1      35.469  21.747  24.809  1.00  0.00    -0.332 N 
ATOM      9  C   UNL A   1      34.936  20.491  24.760  1.00  0.00     0.102 A 
ATOM     10  C   UNL A   1      34.484  22.628  25.170  1.00  0.00     0.140 A 
ATOM     11  C   UNL A   1      33.648  20.512  25.282  1.00  0.00     0.066 A 
ATOM     12  C   UNL A   1      33.363  21.891  25.559  1.00  0.00     0.032 A 
ATOM     13  N   UNL A   1      34.602  23.969  25.138  1.00  0.00    -0.237 NA
ATOM     14  C   UNL A   1      32.285  22.641  26.074  1.00  0.00     0.028 A 
ATOM     15  C   UNL A   1      33.488  24.623  25.548  1.00  0.00     0.127 A 
BRANCH   8  16
ATOM     16  C   UNL A   1      36.829  22.113  24.450  1.00  0.00     0.123 C 
BRANCH  16  17
ATOM     17  C   UNL A   1      37.923  21.528  25.356  1.00  0.00     0.022 C 
BRANCH  17  18
ATOM     18  C   UNL A   1      38.686  22.522  26.239  1.00  0.00    -0.002 C 
ATOM     19  C   UNL A   1      38.145  23.943  26.189  1.00  0.00     0.004 C 
ENDBRANCH  17  18
ENDBRANCH  16  17
ENDBRANCH   8  16
BRANCH  11  20
ATOM     20  C   UNL A   1      32.872  19.280  25.415  1.00  0.00     0.250 C 
ATOM     21  N   UNL A   1      32.907  18.637  26.617  1.00  0.00    -0.366 N 
ATOM     22  O   UNL A   1      32.194  18.820  24.509  1.00  0.00    -0.269 OA
ATOM     23  H   UNL A   1      33.450  18.999  27.354  1.00  0.00     0.159 HD
ATOM     24  H   UNL A   1      32.389  17.810  26.748  1.00  0.00     0.159 HD
ENDBRANCH  11  20
ENDBRANCH   4   7
ENDBRANCH   2   3
ENDBRANCH   1   2
BRANCH   1  25
ATOM     25  C   UNL A   1      32.559  29.596  26.789  1.00  0.00     0.023 C 
BRANCH  25  26
ATOM     26  C   UNL A   1      34.020  29.967  27.018  1.00  0.00     0.116 C 
BRANCH  26  27
ATOM     27  N   UNL A   1      34.176  31.336  27.499  1.00  0.00    -0.352 N 
ATOM     28  C   UNL A   1      35.043  31.802  28.461  1.00  0.00     0.251 C 
ATOM     29  H   UNL A   1      33.590  32.009  27.083  1.00  0.00     0.163 HD
ATOM     30  O   UNL A   1      34.831  32.855  29.049  1.00  0.00    -0.269 OA
BRANCH  28  31
ATOM     31  C   UNL A   1      36.253  31.023  28.760  1.00  0.00     0.039 A 
ATOM     32  C   UNL A   1      36.177  29.652  29.022  1.00  0.00     0.014 A 
ATOM     33  C   UNL A   1      37.475  31.696  28.792  1.00  0.00     0.014 A 
ATOM     34  C   UNL A   1      37.354  28.957  29.273  1.00  0.00     0.010 A 
ATOM     35  C   UNL A   1      38.644  30.991  28.916  1.00  0.00     0.010 A 
ATOM     36  C   UNL A   1      38.581  29.637  29.214  1.00  0.00    -0.014 A 
BRANCH  36  37
ATOM     37  C   UNL A   1      39.830  28.917  29.391  1.00  0.00     0.031 A 
ATOM     38  C   UNL A   1      40.230  28.707  30.807  1.00  0.00     0.074 A 
ATOM     39  C   UNL A   1      40.480  28.332  28.365  1.00  0.00     0.049 A 
ATOM     40  N   UNL A   1      41.247  29.222  31.412  1.00  0.00    -0.248 NA
ATOM     41  C   UNL A   1      39.335  27.942  31.689  1.00  0.00     0.031 C 
ATOM     42  C   UNL A   1      40.066  28.198  26.965  1.00  0.00     0.029 A 
ATOM     43  N   UNL A   1      41.653  27.648  28.395  1.00  0.00    -0.354 N 
ATOM     44  C   UNL A   1      41.228  28.714  32.706  1.00  0.00     0.074 A 
ATOM     45  C   UNL A   1      39.955  28.059  32.866  1.00  0.00     0.031 C 
ATOM     46  C   UNL A   1      40.857  27.295  26.344  1.00  0.00     0.029 A 
ATOM     47  C   UNL A   1      41.924  26.912  27.251  1.00  0.00     0.049 A 
ATOM     48  H   UNL A   1      42.263  27.674  29.168  1.00  0.00     0.167 HD
ATOM     49  C   UNL A   1      42.359  28.697  33.466  1.00  0.00     0.037 A 
ATOM     50  C   UNL A   1      42.936  26.024  27.091  1.00  0.00     0.037 A 
ATOM     51  C   UNL A   1      43.364  29.572  32.918  1.00  0.00     0.049 A 
ATOM     52  C   UNL A   1      43.974  26.365  28.103  1.00  0.00     0.074 A 
ATOM     53  C   UNL A   1      43.424  30.931  32.672  1.00  0.00     0.029 A 
ATOM     54  N   UNL A   1      44.366  29.015  32.161  1.00  0.00    -0.354 N 
ATOM     55  N   UNL A   1      44.662  27.474  28.077  1.00  0.00    -0.248 NA
ATOM     56  C   UNL A   1      43.879  25.718  29.404  1.00  0.00     0.031 C 
ATOM     57  C   UNL A   1      44.088  31.044  31.415  1.00  0.00     0.029 A 
ATOM     58  C   UNL A   1      44.467  29.762  31.014  1.00  0.00     0.049 A 
ATOM     59  H   UNL A   1      44.908  28.227  32.396  1.00  0.00     0.167 HD
ATOM     60  C   UNL A   1      44.714  27.888  29.400  1.00  0.00     0.074 A 
ATOM     61  C   UNL A   1      44.269  26.733  30.180  1.00  0.00     0.031 C 
ATOM     62  C   UNL A   1      44.823  29.209  29.728  1.00  0.00     0.037 A 
BRANCH  49  63
ATOM     63  C   UNL A   1      42.692  27.640  34.486  1.00  0.00     0.064 A 
ATOM     64  C   UNL A   1      43.359  26.470  34.072  1.00  0.00     0.173 A 
ATOM     65  C   UNL A   1      42.122  27.594  35.775  1.00  0.00     0.173 A 
ATOM     66  F   UNL A   1      43.922  26.398  32.856  1.00  0.00    -0.203 F 
ATOM     67  C   UNL A   1      43.379  25.315  34.858  1.00  0.00     0.198 A 
ATOM     68  C   UNL A   1      42.189  26.457  36.579  1.00  0.00     0.198 A 
ATOM     69  F   UNL A   1      41.379  28.596  36.262  1.00  0.00    -0.203 F 
ATOM     70  F   UNL A   1      43.911  24.187  34.370  1.00  0.00    -0.200 F 
ATOM     71  C   UNL A   1      42.788  25.308  36.108  1.00  0.00     0.200 A 
ATOM     72  F   UNL A   1      41.594  26.465  37.780  1.00  0.00    -0.200 F 
ATOM     73  F   UNL A   1      42.750  24.186  36.837  1.00  0.00    -0.200 F 
ENDBRANCH  49  63
BRANCH  50  74
ATOM     74  C   UNL A   1      42.878  24.711  26.401  1.00  0.00     0.064 A 
ATOM     75  C   UNL A   1      43.705  24.426  25.302  1.00  0.00     0.173 A 
ATOM     76  C   UNL A   1      42.207  23.611  26.975  1.00  0.00     0.173 A 
ATOM     77  F   UNL A   1      44.418  25.404  24.725  1.00  0.00    -0.203 F 
ATOM     78  C   UNL A   1      43.867  23.120  24.822  1.00  0.00     0.198 A 
ATOM     79  C   UNL A   1      42.365  22.312  26.493  1.00  0.00     0.198 A 
ATOM     80  F   UNL A   1      41.459  23.761  28.078  1.00  0.00    -0.203 F 
ATOM     81  F   UNL A   1      44.710  22.880  23.808  1.00  0.00    -0.200 F 
ATOM     82  C   UNL A   1      43.204  22.063  25.424  1.00  0.00     0.200 A 
ATOM     83  F   UNL A   1      41.749  21.294  27.113  1.00  0.00    -0.200 F 
ATOM     84  F   UNL A   1      43.407  20.806  25.005  1.00  0.00    -0.200 F 
ENDBRANCH  50  74
BRANCH  62  85
ATOM     85  C   UNL A   1      45.100  30.201  28.630  1.00  0.00     0.064 A 
ATOM     86  C   UNL A   1      44.098  30.838  27.876  1.00  0.00     0.173 A 
ATOM     87  C   UNL A   1      46.412  30.662  28.469  1.00  0.00     0.173 A 
ATOM     88  F   UNL A   1      42.807  30.527  28.039  1.00  0.00    -0.203 F 
ATOM     89  C   UNL A   1      44.402  31.868  26.986  1.00  0.00     0.198 A 
ATOM     90  C   UNL A   1      46.710  31.714  27.607  1.00  0.00     0.198 A 
ATOM     91  F   UNL A   1      47.404  30.132  29.202  1.00  0.00    -0.203 F 
ATOM     92  F   UNL A   1      43.425  32.460  26.283  1.00  0.00    -0.200 F 
ATOM     93  C   UNL A   1      45.707  32.312  26.861  1.00  0.00     0.200 A 
ATOM     94  F   UNL A   1      47.966  32.175  27.528  1.00  0.00    -0.200 F 
ATOM     95  F   UNL A   1      45.995  33.337  26.047  1.00  0.00    -0.200 F 
ENDBRANCH  62  85
ENDBRANCH  36  37
ENDBRANCH  28  31
ENDBRANCH  26  27
ENDBRANCH  25  26
ENDBRANCH   1  25
TORSDOF 15
ENDMDL
