MODEL 1
REMARK VINA RESULT:     -12.2      0.000      0.000
REMARK SMILES CC1(C)[C@H](C(=O)Nc2ccccc2C(N)=O)[C@@H]1C(=O)NCCCCNC(=O)c1ccc(-c2c3nc(c(-c4c(F)c(F)c(F)c(F)c4F)c4ccc([nH]4)c(-c4c(F)c(F)c(F)c(F)c4F)c4nc(c(-c5c(F)c(F)c(F)c(F)c5F)c5ccc2[nH]5)C=C4)C=C3)cc1
REMARK SMILES IDX 22 1 21 2 20 3 18 4 19 5 17 7 1 8 2 9 3 10 4 11 5 12 6 13
REMARK SMILES IDX 7 14 8 16 9 17 13 18 10 19 12 20 11 21 14 22 15 23 16 24
REMARK SMILES IDX 23 27 24 28 25 29 26 30 27 32 28 33 29 34 90 35 30 36 89 37
REMARK SMILES IDX 31 38 32 39 33 40 83 41 34 42 88 43 82 44 84 45 35 46 87 47
REMARK SMILES IDX 81 48 80 49 36 51 68 52 48 53 67 54 49 55 52 56 66 57 85 58
REMARK SMILES IDX 50 59 51 60 65 62 86 63 53 64 37 65 38 66 46 67 39 68 40 69
REMARK SMILES IDX 44 70 47 71 41 72 42 73 45 74 43 75 69 76 70 77 78 78 71 79
REMARK SMILES IDX 72 80 76 81 79 82 73 83 74 84 77 85 75 86 54 87 55 88 63 89
REMARK SMILES IDX 56 90 57 91 61 92 64 93 58 94 59 95 62 96 60 97
REMARK H PARENT 20 6 7 15 15 25 15 26 25 31 84 50 52 61
REMARK Flexibility Score: inf
ROOT
ATOM      1  C   UNL A   1      31.579  30.606  26.601  1.00  0.00     0.023 C 
ENDROOT
BRANCH   1   2
ATOM      2  C   UNL A   1      31.520  30.201  25.135  1.00  0.00     0.116 C 
BRANCH   2   3
ATOM      3  N   UNL A   1      32.765  29.630  24.685  1.00  0.00    -0.356 N 
ATOM      4  C   UNL A   1      32.957  28.547  23.879  1.00  0.00     0.224 C 
ATOM      5  O   UNL A   1      34.088  28.077  23.795  1.00  0.00    -0.275 OA
ATOM      6  H   UNL A   1      33.583  30.079  25.001  1.00  0.00     0.163 HD
BRANCH   4   7
ATOM      7  C   UNL A   1      31.804  27.911  23.171  1.00  0.00     0.098 C 
ATOM      8  C   UNL A   1      29.512  26.731  23.697  1.00  0.00     0.013 C 
ATOM      9  C   UNL A   1      31.023  26.799  23.890  1.00  0.00    -0.011 C 
ATOM     10  C   UNL A   1      31.389  26.552  25.328  1.00  0.00     0.013 C 
ATOM     11  C   UNL A   1      31.784  26.492  22.616  1.00  0.00     0.098 C 
BRANCH  11  12
ATOM     12  C   UNL A   1      33.036  25.882  22.102  1.00  0.00     0.228 C 
ATOM     13  O   UNL A   1      33.413  26.282  20.995  1.00  0.00    -0.274 OA
ATOM     14  N   UNL A   1      33.908  25.067  22.761  1.00  0.00    -0.325 N 
ATOM     15  H   UNL A   1      34.781  24.976  22.315  1.00  0.00     0.169 HD
BRANCH  14  16
ATOM     16  C   UNL A   1      33.800  24.342  23.939  1.00  0.00     0.053 A 
ATOM     17  C   UNL A   1      34.738  24.682  24.924  1.00  0.00     0.027 A 
ATOM     18  C   UNL A   1      32.862  23.326  24.172  1.00  0.00     0.063 A 
ATOM     19  C   UNL A   1      34.649  24.134  26.198  1.00  0.00     0.002 A 
ATOM     20  C   UNL A   1      32.794  22.764  25.458  1.00  0.00     0.016 A 
ATOM     21  C   UNL A   1      33.659  23.195  26.472  1.00  0.00     0.001 A 
BRANCH  18  22
ATOM     22  C   UNL A   1      32.025  22.784  23.062  1.00  0.00     0.250 C 
ATOM     23  N   UNL A   1      30.710  23.156  23.012  1.00  0.00    -0.366 N 
ATOM     24  O   UNL A   1      32.473  22.028  22.212  1.00  0.00    -0.269 OA
ATOM     25  H   UNL A   1      30.344  23.765  23.694  1.00  0.00     0.159 HD
ATOM     26  H   UNL A   1      30.130  22.816  22.293  1.00  0.00     0.159 HD
ENDBRANCH  18  22
ENDBRANCH  14  16
ENDBRANCH  11  12
ENDBRANCH   4   7
ENDBRANCH   2   3
ENDBRANCH   1   2
BRANCH   1  27
ATOM     27  C   UNL A   1      31.413  32.104  26.860  1.00  0.00     0.023 C 
BRANCH  27  28
ATOM     28  C   UNL A   1      32.709  32.892  27.012  1.00  0.00     0.116 C 
BRANCH  28  29
ATOM     29  N   UNL A   1      32.515  34.185  27.645  1.00  0.00    -0.352 N 
ATOM     30  C   UNL A   1      33.145  34.729  28.736  1.00  0.00     0.251 C 
ATOM     31  H   UNL A   1      31.829  34.757  27.229  1.00  0.00     0.163 HD
ATOM     32  O   UNL A   1      32.729  35.769  29.237  1.00  0.00    -0.269 OA
BRANCH  30  33
ATOM     33  C   UNL A   1      34.319  34.051  29.325  1.00  0.00     0.039 A 
ATOM     34  C   UNL A   1      34.113  32.994  30.214  1.00  0.00     0.014 A 
ATOM     35  C   UNL A   1      35.618  34.466  29.019  1.00  0.00     0.014 A 
ATOM     36  C   UNL A   1      35.210  32.326  30.761  1.00  0.00     0.010 A 
ATOM     37  C   UNL A   1      36.707  33.738  29.485  1.00  0.00     0.010 A 
ATOM     38  C   UNL A   1      36.516  32.677  30.384  1.00  0.00    -0.014 A 
BRANCH  38  39
ATOM     39  C   UNL A   1      37.694  31.988  30.972  1.00  0.00     0.031 A 
ATOM     40  C   UNL A   1      38.149  32.337  32.364  1.00  0.00     0.074 A 
ATOM     41  C   UNL A   1      38.372  31.076  30.248  1.00  0.00     0.049 A 
ATOM     42  N   UNL A   1      39.164  31.872  33.047  1.00  0.00    -0.248 NA
ATOM     43  C   UNL A   1      37.376  33.369  33.074  1.00  0.00     0.031 C 
ATOM     44  C   UNL A   1      38.062  30.686  28.872  1.00  0.00     0.029 A 
ATOM     45  N   UNL A   1      39.466  30.312  30.571  1.00  0.00    -0.354 N 
ATOM     46  C   UNL A   1      39.157  32.563  34.252  1.00  0.00     0.074 A 
ATOM     47  C   UNL A   1      38.084  33.529  34.180  1.00  0.00     0.031 C 
ATOM     48  C   UNL A   1      38.923  29.732  28.481  1.00  0.00     0.029 A 
ATOM     49  C   UNL A   1      39.866  29.469  29.564  1.00  0.00     0.049 A 
ATOM     50  H   UNL A   1      39.920  30.363  31.443  1.00  0.00     0.167 HD
ATOM     51  C   UNL A   1      39.950  32.387  35.336  1.00  0.00     0.037 A 
ATOM     52  C   UNL A   1      40.880  28.583  29.521  1.00  0.00     0.037 A 
ATOM     53  C   UNL A   1      41.000  31.406  35.413  1.00  0.00     0.049 A 
ATOM     54  C   UNL A   1      41.749  28.406  30.739  1.00  0.00     0.074 A 
ATOM     55  C   UNL A   1      41.832  31.114  36.479  1.00  0.00     0.029 A 
ATOM     56  N   UNL A   1      41.362  30.556  34.378  1.00  0.00    -0.354 N 
ATOM     57  N   UNL A   1      41.690  29.019  31.897  1.00  0.00    -0.248 NA
ATOM     58  C   UNL A   1      42.816  27.400  30.648  1.00  0.00     0.031 C 
ATOM     59  C   UNL A   1      42.733  30.124  36.073  1.00  0.00     0.029 A 
ATOM     60  C   UNL A   1      42.417  29.750  34.776  1.00  0.00     0.049 A 
ATOM     61  H   UNL A   1      40.933  30.528  33.492  1.00  0.00     0.167 HD
ATOM     62  C   UNL A   1      42.680  28.443  32.684  1.00  0.00     0.074 A 
ATOM     63  C   UNL A   1      43.317  27.425  31.874  1.00  0.00     0.031 C 
ATOM     64  C   UNL A   1      43.027  28.728  33.964  1.00  0.00     0.037 A 
BRANCH  51  65
ATOM     65  C   UNL A   1      39.708  33.274  36.525  1.00  0.00     0.064 A 
ATOM     66  C   UNL A   1      38.820  32.910  37.550  1.00  0.00     0.173 A 
ATOM     67  C   UNL A   1      40.391  34.492  36.655  1.00  0.00     0.173 A 
ATOM     68  F   UNL A   1      38.131  31.762  37.471  1.00  0.00    -0.203 F 
ATOM     69  C   UNL A   1      38.597  33.749  38.638  1.00  0.00     0.198 A 
ATOM     70  C   UNL A   1      40.193  35.312  37.764  1.00  0.00     0.198 A 
ATOM     71  F   UNL A   1      41.255  34.889  35.709  1.00  0.00    -0.203 F 
ATOM     72  F   UNL A   1      37.698  33.407  39.572  1.00  0.00    -0.200 F 
ATOM     73  C   UNL A   1      39.290  34.945  38.749  1.00  0.00     0.200 A 
ATOM     74  F   UNL A   1      40.875  36.460  37.876  1.00  0.00    -0.200 F 
ATOM     75  F   UNL A   1      39.079  35.748  39.801  1.00  0.00    -0.200 F 
ENDBRANCH  51  65
BRANCH  52  76
ATOM     76  C   UNL A   1      41.108  27.767  28.299  1.00  0.00     0.064 A 
ATOM     77  C   UNL A   1      40.489  26.519  28.137  1.00  0.00     0.173 A 
ATOM     78  C   UNL A   1      41.962  28.206  27.277  1.00  0.00     0.173 A 
ATOM     79  F   UNL A   1      39.677  26.046  29.095  1.00  0.00    -0.203 F 
ATOM     80  C   UNL A   1      40.738  25.729  27.017  1.00  0.00     0.198 A 
ATOM     81  C   UNL A   1      42.185  27.430  26.141  1.00  0.00     0.198 A 
ATOM     82  F   UNL A   1      42.574  29.395  27.377  1.00  0.00    -0.203 F 
ATOM     83  F   UNL A   1      40.178  24.516  26.917  1.00  0.00    -0.200 F 
ATOM     84  C   UNL A   1      41.583  26.187  26.017  1.00  0.00     0.200 A 
ATOM     85  F   UNL A   1      42.989  27.884  25.170  1.00  0.00    -0.200 F 
ATOM     86  F   UNL A   1      41.823  25.427  24.940  1.00  0.00    -0.200 F 
ENDBRANCH  52  76
BRANCH  64  87
ATOM     87  C   UNL A   1      44.099  27.883  34.593  1.00  0.00     0.064 A 
ATOM     88  C   UNL A   1      45.449  28.264  34.587  1.00  0.00     0.173 A 
ATOM     89  C   UNL A   1      43.761  26.682  35.237  1.00  0.00     0.173 A 
ATOM     90  F   UNL A   1      45.829  29.397  33.976  1.00  0.00    -0.203 F 
ATOM     91  C   UNL A   1      46.424  27.455  35.166  1.00  0.00     0.198 A 
ATOM     92  C   UNL A   1      44.733  25.895  35.848  1.00  0.00     0.198 A 
ATOM     93  F   UNL A   1      42.483  26.276  35.283  1.00  0.00    -0.203 F 
ATOM     94  F   UNL A   1      47.715  27.807  35.091  1.00  0.00    -0.200 F 
ATOM     95  C   UNL A   1      46.064  26.275  35.801  1.00  0.00     0.200 A 
ATOM     96  F   UNL A   1      44.380  24.767  36.479  1.00  0.00    -0.200 F 
ATOM     97  F   UNL A   1      47.004  25.502  36.361  1.00  0.00    -0.200 F 
ENDBRANCH  64  87
ENDBRANCH  38  39
ENDBRANCH  30  33
ENDBRANCH  28  29
ENDBRANCH  27  28
ENDBRANCH   1  27
TORSDOF 14
ENDMDL
MODEL 2
REMARK VINA RESULT:     -12.1      0.384      1.629
REMARK SMILES CC1(C)[C@H](C(=O)Nc2ccccc2C(N)=O)[C@@H]1C(=O)NCCCCNC(=O)c1ccc(-c2c3nc(c(-c4c(F)c(F)c(F)c(F)c4F)c4ccc([nH]4)c(-c4c(F)c(F)c(F)c(F)c4F)c4nc(c(-c5c(F)c(F)c(F)c(F)c5F)c5ccc2[nH]5)C=C4)C=C3)cc1
REMARK SMILES IDX 22 1 21 2 20 3 18 4 19 5 17 7 1 8 2 9 3 10 4 11 5 12 6 13
REMARK SMILES IDX 7 14 8 16 9 17 13 18 10 19 12 20 11 21 14 22 15 23 16 24
REMARK SMILES IDX 23 27 24 28 25 29 26 30 27 32 28 33 29 34 90 35 30 36 89 37
REMARK SMILES IDX 31 38 32 39 33 40 83 41 34 42 88 43 82 44 84 45 35 46 87 47
REMARK SMILES IDX 81 48 80 49 36 51 68 52 48 53 67 54 49 55 52 56 66 57 85 58
REMARK SMILES IDX 50 59 51 60 65 62 86 63 53 64 37 65 38 66 46 67 39 68 40 69
REMARK SMILES IDX 44 70 47 71 41 72 42 73 45 74 43 75 69 76 70 77 78 78 71 79
REMARK SMILES IDX 72 80 76 81 79 82 73 83 74 84 77 85 75 86 54 87 55 88 63 89
REMARK SMILES IDX 56 90 57 91 61 92 64 93 58 94 59 95 62 96 60 97
REMARK H PARENT 20 6 7 15 15 25 15 26 25 31 84 50 52 61
REMARK Flexibility Score: inf
ROOT
ATOM      1  C   UNL A   1      31.650  30.696  26.711  1.00  0.00     0.023 C 
ENDROOT
BRANCH   1   2
ATOM      2  C   UNL A   1      31.494  30.158  25.296  1.00  0.00     0.116 C 
BRANCH   2   3
ATOM      3  N   UNL A   1      32.727  29.603  24.793  1.00  0.00    -0.356 N 
ATOM      4  C   UNL A   1      32.898  28.535  23.963  1.00  0.00     0.224 C 
ATOM      5  O   UNL A   1      34.028  28.075  23.832  1.00  0.00    -0.275 OA
ATOM      6  H   UNL A   1      33.552  30.054  25.087  1.00  0.00     0.163 HD
BRANCH   4   7
ATOM      7  C   UNL A   1      31.725  27.902  23.287  1.00  0.00     0.098 C 
ATOM      8  C   UNL A   1      29.456  26.708  23.874  1.00  0.00     0.013 C 
ATOM      9  C   UNL A   1      30.972  26.779  24.020  1.00  0.00    -0.011 C 
ATOM     10  C   UNL A   1      31.384  26.520  25.442  1.00  0.00     0.013 C 
ATOM     11  C   UNL A   1      31.693  26.487  22.719  1.00  0.00     0.098 C 
BRANCH  11  12
ATOM     12  C   UNL A   1      32.930  25.887  22.160  1.00  0.00     0.228 C 
ATOM     13  O   UNL A   1      33.278  26.310  21.051  1.00  0.00    -0.274 OA
ATOM     14  N   UNL A   1      33.818  25.058  22.778  1.00  0.00    -0.325 N 
ATOM     15  H   UNL A   1      34.679  24.976  22.308  1.00  0.00     0.169 HD
BRANCH  14  16
ATOM     16  C   UNL A   1      33.740  24.310  23.944  1.00  0.00     0.053 A 
ATOM     17  C   UNL A   1      34.775  24.545  24.861  1.00  0.00     0.027 A 
ATOM     18  C   UNL A   1      32.743  23.365  24.225  1.00  0.00     0.063 A 
ATOM     19  C   UNL A   1      34.737  23.968  26.125  1.00  0.00     0.002 A 
ATOM     20  C   UNL A   1      32.727  22.772  25.498  1.00  0.00     0.016 A 
ATOM     21  C   UNL A   1      33.697  23.102  26.452  1.00  0.00     0.001 A 
BRANCH  18  22
ATOM     22  C   UNL A   1      31.784  22.923  23.171  1.00  0.00     0.250 C 
ATOM     23  N   UNL A   1      32.234  22.049  22.220  1.00  0.00    -0.366 N 
ATOM     24  O   UNL A   1      30.626  23.316  23.131  1.00  0.00    -0.269 OA
ATOM     25  H   UNL A   1      33.166  21.729  22.248  1.00  0.00     0.159 HD
ATOM     26  H   UNL A   1      31.627  21.737  21.511  1.00  0.00     0.159 HD
ENDBRANCH  18  22
ENDBRANCH  14  16
ENDBRANCH  11  12
ENDBRANCH   4   7
ENDBRANCH   2   3
ENDBRANCH   1   2
BRANCH   1  27
ATOM     27  C   UNL A   1      31.433  32.204  26.851  1.00  0.00     0.023 C 
BRANCH  27  28
ATOM     28  C   UNL A   1      32.701  33.042  26.968  1.00  0.00     0.116 C 
BRANCH  28  29
ATOM     29  N   UNL A   1      32.478  34.316  27.631  1.00  0.00    -0.352 N 
ATOM     30  C   UNL A   1      33.077  34.836  28.752  1.00  0.00     0.251 C 
ATOM     31  H   UNL A   1      31.796  34.892  27.216  1.00  0.00     0.163 HD
ATOM     32  O   UNL A   1      32.638  35.857  29.270  1.00  0.00    -0.269 OA
BRANCH  30  33
ATOM     33  C   UNL A   1      34.244  34.154  29.350  1.00  0.00     0.039 A 
ATOM     34  C   UNL A   1      34.027  33.138  30.283  1.00  0.00     0.014 A 
ATOM     35  C   UNL A   1      35.547  34.526  29.007  1.00  0.00     0.014 A 
ATOM     36  C   UNL A   1      35.117  32.466  30.840  1.00  0.00     0.010 A 
ATOM     37  C   UNL A   1      36.626  33.790  29.487  1.00  0.00     0.010 A 
ATOM     38  C   UNL A   1      36.425  32.771  30.430  1.00  0.00    -0.014 A 
BRANCH  38  39
ATOM     39  C   UNL A   1      37.595  32.078  31.027  1.00  0.00     0.031 A 
ATOM     40  C   UNL A   1      38.060  32.449  32.410  1.00  0.00     0.074 A 
ATOM     41  C   UNL A   1      38.258  31.143  30.319  1.00  0.00     0.049 A 
ATOM     42  N   UNL A   1      39.072  31.983  33.099  1.00  0.00    -0.248 NA
ATOM     43  C   UNL A   1      37.304  33.505  33.103  1.00  0.00     0.031 C 
ATOM     44  C   UNL A   1      37.938  30.730  28.952  1.00  0.00     0.029 A 
ATOM     45  N   UNL A   1      39.343  30.370  30.654  1.00  0.00    -0.354 N 
ATOM     46  C   UNL A   1      39.078  32.699  34.290  1.00  0.00     0.074 A 
ATOM     47  C   UNL A   1      38.018  33.677  34.203  1.00  0.00     0.031 C 
ATOM     48  C   UNL A   1      38.784  29.757  28.578  1.00  0.00     0.029 A 
ATOM     49  C   UNL A   1      39.728  29.503  29.662  1.00  0.00     0.049 A 
ATOM     50  H   UNL A   1      39.801  30.433  31.523  1.00  0.00     0.167 HD
ATOM     51  C   UNL A   1      39.873  32.533  35.375  1.00  0.00     0.037 A 
ATOM     52  C   UNL A   1      40.730  28.603  29.634  1.00  0.00     0.037 A 
ATOM     53  C   UNL A   1      40.910  31.539  35.467  1.00  0.00     0.049 A 
ATOM     54  C   UNL A   1      41.601  28.438  30.852  1.00  0.00     0.074 A 
ATOM     55  C   UNL A   1      41.742  31.258  36.537  1.00  0.00     0.029 A 
ATOM     56  N   UNL A   1      41.257  30.664  34.449  1.00  0.00    -0.354 N 
ATOM     57  N   UNL A   1      41.555  29.074  31.997  1.00  0.00    -0.248 NA
ATOM     58  C   UNL A   1      42.654  27.416  30.777  1.00  0.00     0.031 C 
ATOM     59  C   UNL A   1      42.628  30.248  36.147  1.00  0.00     0.029 A 
ATOM     60  C   UNL A   1      42.302  29.852  34.859  1.00  0.00     0.049 A 
ATOM     61  H   UNL A   1      40.824  30.625  33.565  1.00  0.00     0.167 HD
ATOM     62  C   UNL A   1      42.540  28.501  32.793  1.00  0.00     0.074 A 
ATOM     63  C   UNL A   1      43.160  27.459  32.000  1.00  0.00     0.031 C 
ATOM     64  C   UNL A   1      42.895  28.806  34.065  1.00  0.00     0.037 A 
BRANCH  51  65
ATOM     65  C   UNL A   1      39.647  33.446  36.547  1.00  0.00     0.064 A 
ATOM     66  C   UNL A   1      40.284  34.694  36.646  1.00  0.00     0.173 A 
ATOM     67  C   UNL A   1      38.764  33.081  37.574  1.00  0.00     0.173 A 
ATOM     68  F   UNL A   1      41.149  35.088  35.698  1.00  0.00    -0.203 F 
ATOM     69  C   UNL A   1      40.074  35.522  37.744  1.00  0.00     0.198 A 
ATOM     70  C   UNL A   1      38.529  33.930  38.653  1.00  0.00     0.198 A 
ATOM     71  F   UNL A   1      38.124  31.903  37.531  1.00  0.00    -0.203 F 
ATOM     72  F   UNL A   1      40.742  36.681  37.844  1.00  0.00    -0.200 F 
ATOM     73  C   UNL A   1      39.190  35.144  38.743  1.00  0.00     0.200 A 
ATOM     74  F   UNL A   1      37.662  33.569  39.610  1.00  0.00    -0.200 F 
ATOM     75  F   UNL A   1      38.984  35.946  39.796  1.00  0.00    -0.200 F 
ENDBRANCH  51  65
BRANCH  52  76
ATOM     76  C   UNL A   1      40.943  27.760  28.427  1.00  0.00     0.064 A 
ATOM     77  C   UNL A   1      41.810  28.169  27.402  1.00  0.00     0.173 A 
ATOM     78  C   UNL A   1      40.273  26.539  28.262  1.00  0.00     0.173 A 
ATOM     79  F   UNL A   1      42.461  29.337  27.503  1.00  0.00    -0.203 F 
ATOM     80  C   UNL A   1      41.974  27.406  26.248  1.00  0.00     0.198 A 
ATOM     81  C   UNL A   1      40.463  25.760  27.122  1.00  0.00     0.198 A 
ATOM     82  F   UNL A   1      39.439  26.097  29.214  1.00  0.00    -0.203 F 
ATOM     83  F   UNL A   1      42.763  27.850  25.261  1.00  0.00    -0.200 F 
ATOM     84  C   UNL A   1      41.303  26.200  26.111  1.00  0.00     0.200 A 
ATOM     85  F   UNL A   1      39.826  24.588  27.001  1.00  0.00    -0.200 F 
ATOM     86  F   UNL A   1      41.461  25.466  25.001  1.00  0.00    -0.200 F 
ENDBRANCH  52  76
BRANCH  64  87
ATOM     87  C   UNL A   1      43.958  27.960  34.707  1.00  0.00     0.064 A 
ATOM     88  C   UNL A   1      45.314  28.318  34.681  1.00  0.00     0.173 A 
ATOM     89  C   UNL A   1      43.606  26.781  35.384  1.00  0.00     0.173 A 
ATOM     90  F   UNL A   1      45.708  29.428  34.039  1.00  0.00    -0.203 F 
ATOM     91  C   UNL A   1      46.281  27.507  35.273  1.00  0.00     0.198 A 
ATOM     92  C   UNL A   1      44.569  25.994  36.007  1.00  0.00     0.198 A 
ATOM     93  F   UNL A   1      42.321  26.398  35.450  1.00  0.00    -0.203 F 
ATOM     94  F   UNL A   1      47.576  27.836  35.179  1.00  0.00    -0.200 F 
ATOM     95  C   UNL A   1      45.906  26.350  35.941  1.00  0.00     0.200 A 
ATOM     96  F   UNL A   1      44.203  24.888  36.670  1.00  0.00    -0.200 F 
ATOM     97  F   UNL A   1      46.837  25.575  36.513  1.00  0.00    -0.200 F 
ENDBRANCH  64  87
ENDBRANCH  38  39
ENDBRANCH  30  33
ENDBRANCH  28  29
ENDBRANCH  27  28
ENDBRANCH   1  27
TORSDOF 14
ENDMDL
MODEL 3
REMARK VINA RESULT:     -12.1      5.305      9.519
REMARK SMILES CC1(C)[C@H](C(=O)Nc2ccccc2C(N)=O)[C@@H]1C(=O)NCCCCNC(=O)c1ccc(-c2c3nc(c(-c4c(F)c(F)c(F)c(F)c4F)c4ccc([nH]4)c(-c4c(F)c(F)c(F)c(F)c4F)c4nc(c(-c5c(F)c(F)c(F)c(F)c5F)c5ccc2[nH]5)C=C4)C=C3)cc1
REMARK SMILES IDX 22 1 21 2 20 3 18 4 19 5 17 7 1 8 2 9 3 10 4 11 5 12 6 13
REMARK SMILES IDX 7 14 8 16 9 17 13 18 10 19 12 20 11 21 14 22 15 23 16 24
REMARK SMILES IDX 23 27 24 28 25 29 26 30 27 32 28 33 29 34 90 35 30 36 89 37
REMARK SMILES IDX 31 38 32 39 33 40 83 41 34 42 88 43 82 44 84 45 35 46 87 47
REMARK SMILES IDX 81 48 80 49 36 51 68 52 48 53 67 54 49 55 52 56 66 57 85 58
REMARK SMILES IDX 50 59 51 60 65 62 86 63 53 64 37 65 38 66 46 67 39 68 40 69
REMARK SMILES IDX 44 70 47 71 41 72 42 73 45 74 43 75 69 76 70 77 78 78 71 79
REMARK SMILES IDX 72 80 76 81 79 82 73 83 74 84 77 85 75 86 54 87 55 88 63 89
REMARK SMILES IDX 56 90 57 91 61 92 64 93 58 94 59 95 62 96 60 97
REMARK H PARENT 20 6 7 15 15 25 15 26 25 31 84 50 52 61
REMARK Flexibility Score: inf
ROOT
ATOM      1  C   UNL A   1      37.266  20.777  24.717  1.00  0.00     0.023 C 
ENDROOT
BRANCH   1   2
ATOM      2  C   UNL A   1      35.878  20.525  25.288  1.00  0.00     0.116 C 
BRANCH   2   3
ATOM      3  N   UNL A   1      35.538  21.479  26.315  1.00  0.00    -0.356 N 
ATOM      4  C   UNL A   1      34.349  22.113  26.520  1.00  0.00     0.224 C 
ATOM      5  O   UNL A   1      34.321  23.058  27.303  1.00  0.00    -0.275 OA
ATOM      6  H   UNL A   1      36.257  21.700  26.950  1.00  0.00     0.163 HD
BRANCH   4   7
ATOM      7  C   UNL A   1      33.129  21.709  25.758  1.00  0.00     0.098 C 
ATOM      8  C   UNL A   1      32.253  21.548  23.283  1.00  0.00     0.013 C 
ATOM      9  C   UNL A   1      32.846  22.388  24.408  1.00  0.00    -0.011 C 
ATOM     10  C   UNL A   1      33.921  23.300  23.884  1.00  0.00     0.013 C 
ATOM     11  C   UNL A   1      31.884  22.568  25.565  1.00  0.00     0.098 C 
BRANCH  11  12
ATOM     12  C   UNL A   1      31.472  23.521  26.626  1.00  0.00     0.228 C 
ATOM     13  O   UNL A   1      30.962  23.015  27.633  1.00  0.00    -0.274 OA
ATOM     14  N   UNL A   1      31.734  24.856  26.707  1.00  0.00    -0.325 N 
ATOM     15  H   UNL A   1      31.576  25.238  27.600  1.00  0.00     0.169 HD
BRANCH  14  16
ATOM     16  C   UNL A   1      32.182  25.777  25.771  1.00  0.00     0.053 A 
ATOM     17  C   UNL A   1      33.382  26.419  26.109  1.00  0.00     0.027 A 
ATOM     18  C   UNL A   1      31.517  26.097  24.579  1.00  0.00     0.063 A 
ATOM     19  C   UNL A   1      34.012  27.256  25.196  1.00  0.00     0.002 A 
ATOM     20  C   UNL A   1      32.153  26.961  23.672  1.00  0.00     0.016 A 
ATOM     21  C   UNL A   1      33.410  27.505  23.966  1.00  0.00     0.001 A 
BRANCH  18  22
ATOM     22  C   UNL A   1      30.129  25.614  24.320  1.00  0.00     0.250 C 
ATOM     23  N   UNL A   1      29.941  24.724  23.299  1.00  0.00    -0.366 N 
ATOM     24  O   UNL A   1      29.171  25.986  24.983  1.00  0.00    -0.269 OA
ATOM     25  H   UNL A   1      30.709  24.421  22.762  1.00  0.00     0.159 HD
ATOM     26  H   UNL A   1      29.038  24.386  23.102  1.00  0.00     0.159 HD
ENDBRANCH  18  22
ENDBRANCH  14  16
ENDBRANCH  11  12
ENDBRANCH   4   7
ENDBRANCH   2   3
ENDBRANCH   1   2
BRANCH   1  27
ATOM     27  C   UNL A   1      38.270  19.647  24.948  1.00  0.00     0.023 C 
BRANCH  27  28
ATOM     28  C   UNL A   1      39.285  19.887  26.059  1.00  0.00     0.116 C 
BRANCH  28  29
ATOM     29  N   UNL A   1      40.415  18.975  26.001  1.00  0.00    -0.352 N 
ATOM     30  C   UNL A   1      41.760  19.246  26.028  1.00  0.00     0.251 C 
ATOM     31  H   UNL A   1      40.181  18.021  25.931  1.00  0.00     0.163 HD
ATOM     32  O   UNL A   1      42.574  18.358  25.793  1.00  0.00    -0.269 OA
BRANCH  30  33
ATOM     33  C   UNL A   1      42.233  20.615  26.321  1.00  0.00     0.039 A 
ATOM     34  C   UNL A   1      42.518  21.473  25.257  1.00  0.00     0.014 A 
ATOM     35  C   UNL A   1      42.412  21.047  27.638  1.00  0.00     0.014 A 
ATOM     36  C   UNL A   1      42.942  22.778  25.515  1.00  0.00     0.010 A 
ATOM     37  C   UNL A   1      42.738  22.374  27.894  1.00  0.00     0.010 A 
ATOM     38  C   UNL A   1      43.034  23.247  26.836  1.00  0.00    -0.014 A 
BRANCH  38  39
ATOM     39  C   UNL A   1      43.501  24.627  27.127  1.00  0.00     0.031 A 
ATOM     40  C   UNL A   1      42.540  25.640  27.690  1.00  0.00     0.074 A 
ATOM     41  C   UNL A   1      44.773  24.979  26.858  1.00  0.00     0.049 A 
ATOM     42  N   UNL A   1      42.741  26.899  27.989  1.00  0.00    -0.248 NA
ATOM     43  C   UNL A   1      41.159  25.186  27.921  1.00  0.00     0.031 C 
ATOM     44  C   UNL A   1      45.787  24.105  26.267  1.00  0.00     0.029 A 
ATOM     45  N   UNL A   1      45.430  26.170  27.046  1.00  0.00    -0.354 N 
ATOM     46  C   UNL A   1      41.514  27.383  28.425  1.00  0.00     0.074 A 
ATOM     47  C   UNL A   1      40.559  26.307  28.285  1.00  0.00     0.031 C 
ATOM     48  C   UNL A   1      46.946  24.778  26.173  1.00  0.00     0.029 A 
ATOM     49  C   UNL A   1      46.748  26.138  26.662  1.00  0.00     0.049 A 
ATOM     50  H   UNL A   1      44.998  26.970  27.422  1.00  0.00     0.167 HD
ATOM     51  C   UNL A   1      41.216  28.604  28.932  1.00  0.00     0.037 A 
ATOM     52  C   UNL A   1      47.690  27.101  26.702  1.00  0.00     0.037 A 
ATOM     53  C   UNL A   1      42.176  29.664  29.094  1.00  0.00     0.049 A 
ATOM     54  C   UNL A   1      47.333  28.451  27.268  1.00  0.00     0.074 A 
ATOM     55  C   UNL A   1      41.988  30.922  29.638  1.00  0.00     0.029 A 
ATOM     56  N   UNL A   1      43.507  29.587  28.712  1.00  0.00    -0.354 N 
ATOM     57  N   UNL A   1      46.186  28.876  27.741  1.00  0.00    -0.248 NA
ATOM     58  C   UNL A   1      48.409  29.450  27.321  1.00  0.00     0.031 C 
ATOM     59  C   UNL A   1      43.193  31.626  29.536  1.00  0.00     0.029 A 
ATOM     60  C   UNL A   1      44.149  30.782  28.993  1.00  0.00     0.049 A 
ATOM     61  H   UNL A   1      43.933  28.799  28.302  1.00  0.00     0.167 HD
ATOM     62  C   UNL A   1      46.414  30.173  28.186  1.00  0.00     0.074 A 
ATOM     63  C   UNL A   1      47.811  30.459  27.937  1.00  0.00     0.031 C 
ATOM     64  C   UNL A   1      45.545  31.045  28.756  1.00  0.00     0.037 A 
BRANCH  51  65
ATOM     65  C   UNL A   1      39.793  28.854  29.347  1.00  0.00     0.064 A 
ATOM     66  C   UNL A   1      38.842  29.374  28.454  1.00  0.00     0.173 A 
ATOM     67  C   UNL A   1      39.367  28.548  30.649  1.00  0.00     0.173 A 
ATOM     68  F   UNL A   1      39.198  29.696  27.201  1.00  0.00    -0.203 F 
ATOM     69  C   UNL A   1      37.532  29.612  28.858  1.00  0.00     0.198 A 
ATOM     70  C   UNL A   1      38.046  28.754  31.038  1.00  0.00     0.198 A 
ATOM     71  F   UNL A   1      40.231  28.046  31.543  1.00  0.00    -0.203 F 
ATOM     72  F   UNL A   1      36.660  30.166  28.004  1.00  0.00    -0.200 F 
ATOM     73  C   UNL A   1      37.132  29.294  30.147  1.00  0.00     0.200 A 
ATOM     74  F   UNL A   1      37.658  28.432  32.280  1.00  0.00    -0.200 F 
ATOM     75  F   UNL A   1      35.869  29.518  30.533  1.00  0.00    -0.200 F 
ENDBRANCH  51  65
BRANCH  52  76
ATOM     76  C   UNL A   1      49.071  26.816  26.229  1.00  0.00     0.064 A 
ATOM     77  C   UNL A   1      49.455  27.096  24.909  1.00  0.00     0.173 A 
ATOM     78  C   UNL A   1      50.028  26.242  27.077  1.00  0.00     0.173 A 
ATOM     79  F   UNL A   1      48.570  27.629  24.053  1.00  0.00    -0.203 F 
ATOM     80  C   UNL A   1      50.733  26.784  24.448  1.00  0.00     0.198 A 
ATOM     81  C   UNL A   1      51.316  25.961  26.624  1.00  0.00     0.198 A 
ATOM     82  F   UNL A   1      49.716  25.960  28.350  1.00  0.00    -0.203 F 
ATOM     83  F   UNL A   1      51.053  27.009  23.167  1.00  0.00    -0.200 F 
ATOM     84  C   UNL A   1      51.664  26.221  25.307  1.00  0.00     0.200 A 
ATOM     85  F   UNL A   1      52.218  25.431  27.462  1.00  0.00    -0.200 F 
ATOM     86  F   UNL A   1      52.892  25.921  24.863  1.00  0.00    -0.200 F 
ENDBRANCH  52  76
BRANCH  64  87
ATOM     87  C   UNL A   1      46.095  32.367  29.211  1.00  0.00     0.064 A 
ATOM     88  C   UNL A   1      46.620  32.554  30.498  1.00  0.00     0.173 A 
ATOM     89  C   UNL A   1      46.118  33.461  28.330  1.00  0.00     0.173 A 
ATOM     90  F   UNL A   1      46.613  31.546  31.384  1.00  0.00    -0.203 F 
ATOM     91  C   UNL A   1      47.111  33.795  30.899  1.00  0.00     0.198 A 
ATOM     92  C   UNL A   1      46.644  34.688  28.721  1.00  0.00     0.198 A 
ATOM     93  F   UNL A   1      45.639  33.334  27.083  1.00  0.00    -0.203 F 
ATOM     94  F   UNL A   1      47.549  33.967  32.154  1.00  0.00    -0.200 F 
ATOM     95  C   UNL A   1      47.128  34.858  30.008  1.00  0.00     0.200 A 
ATOM     96  F   UNL A   1      46.679  35.708  27.852  1.00  0.00    -0.200 F 
ATOM     97  F   UNL A   1      47.605  36.049  30.394  1.00  0.00    -0.200 F 
ENDBRANCH  64  87
ENDBRANCH  38  39
ENDBRANCH  30  33
ENDBRANCH  28  29
ENDBRANCH  27  28
ENDBRANCH   1  27
TORSDOF 14
ENDMDL
