MODEL 1
REMARK VINA RESULT:     -13.1      0.000      0.000
REMARK SMILES O=C(NCCCCNC(=O)c1cnccc1-c1cccc(C(F)(F)F)c1)c1ccc(-c2c3nc(c(-c4c(F)c(F)c(F)c(F)c4F)c4ccc([nH]4)c(-c4c(F)c(F)c(F)c(F)c4F)c4nc(c(-c5c(F)c(F)c(F)c(F)c5F)c5ccc2[nH]5)C=C4)C=C3)cc1
REMARK SMILES IDX 5 1 4 2 3 3 1 4 2 5 27 7 28 8 89 9 29 10 88 11 30 12 31 13
REMARK SMILES IDX 32 14 82 15 33 16 87 17 81 18 83 19 34 20 86 21 80 22 79 23
REMARK SMILES IDX 35 25 67 26 47 27 66 28 48 29 51 30 65 31 84 32 49 33 50 34
REMARK SMILES IDX 64 36 85 37 52 38 36 39 37 40 45 41 38 42 39 43 43 44 46 45
REMARK SMILES IDX 40 46 41 47 44 48 42 49 68 50 69 51 77 52 70 53 71 54 75 55
REMARK SMILES IDX 78 56 72 57 73 58 76 59 74 60 53 61 54 62 62 63 55 64 56 65
REMARK SMILES IDX 60 66 63 67 57 68 58 69 61 70 59 71 6 72 7 73 8 74 9 75
REMARK SMILES IDX 10 77 11 78 12 79 16 80 13 81 15 82 14 83 17 84 18 85 26 86
REMARK SMILES IDX 19 87 21 88 20 89 22 90 23 91 24 92 25 93
REMARK H PARENT 3 6 83 24 51 35 8 76
REMARK Flexibility Score: inf
ROOT
ATOM      1  C   UNL A   1      31.317  32.094  26.741  1.00  0.00     0.023 C 
ENDROOT
BRANCH   1   2
ATOM      2  C   UNL A   1      32.611  32.749  27.208  1.00  0.00     0.116 C 
BRANCH   2   3
ATOM      3  N   UNL A   1      32.427  34.130  27.626  1.00  0.00    -0.352 N 
ATOM      4  O   UNL A   1      32.682  35.951  28.938  1.00  0.00    -0.269 OA
ATOM      5  C   UNL A   1      33.069  34.830  28.619  1.00  0.00     0.251 C 
ATOM      6  H   UNL A   1      31.745  34.636  27.126  1.00  0.00     0.163 HD
BRANCH   5   7
ATOM      7  C   UNL A   1      34.222  34.223  29.316  1.00  0.00     0.039 A 
ATOM      8  C   UNL A   1      34.028  33.455  30.466  1.00  0.00     0.014 A 
ATOM      9  C   UNL A   1      35.509  34.409  28.803  1.00  0.00     0.014 A 
ATOM     10  C   UNL A   1      35.126  32.983  31.176  1.00  0.00     0.010 A 
ATOM     11  C   UNL A   1      36.607  33.858  29.469  1.00  0.00     0.010 A 
ATOM     12  C   UNL A   1      36.424  33.152  30.668  1.00  0.00    -0.014 A 
BRANCH  12  13
ATOM     13  C   UNL A   1      37.558  32.469  31.338  1.00  0.00     0.031 A 
ATOM     14  C   UNL A   1      38.259  31.301  30.707  1.00  0.00     0.074 A 
ATOM     15  C   UNL A   1      37.942  32.922  32.548  1.00  0.00     0.049 A 
ATOM     16  N   UNL A   1      39.240  30.578  31.183  1.00  0.00    -0.248 NA
ATOM     17  C   UNL A   1      37.798  30.881  29.374  1.00  0.00     0.031 C 
ATOM     18  C   UNL A   1      37.316  34.040  33.262  1.00  0.00     0.029 A 
ATOM     19  N   UNL A   1      38.938  32.509  33.394  1.00  0.00    -0.354 N 
ATOM     20  C   UNL A   1      39.502  29.609  30.224  1.00  0.00     0.074 A 
ATOM     21  C   UNL A   1      38.569  29.826  29.140  1.00  0.00     0.031 C 
ATOM     22  C   UNL A   1      37.954  34.235  34.424  1.00  0.00     0.029 A 
ATOM     23  C   UNL A   1      38.984  33.215  34.570  1.00  0.00     0.049 A 
ATOM     24  H   UNL A   1      39.561  31.776  33.178  1.00  0.00     0.167 HD
ATOM     25  C   UNL A   1      40.441  28.632  30.256  1.00  0.00     0.037 A 
ATOM     26  C   UNL A   1      39.743  33.039  35.667  1.00  0.00     0.037 A 
ATOM     27  C   UNL A   1      41.383  28.447  31.332  1.00  0.00     0.049 A 
ATOM     28  C   UNL A   1      40.749  31.923  35.679  1.00  0.00     0.074 A 
ATOM     29  C   UNL A   1      42.431  27.545  31.412  1.00  0.00     0.029 A 
ATOM     30  N   UNL A   1      41.382  29.164  32.519  1.00  0.00    -0.354 N 
ATOM     31  N   UNL A   1      41.038  31.063  34.735  1.00  0.00    -0.248 NA
ATOM     32  C   UNL A   1      41.525  31.747  36.913  1.00  0.00     0.031 C 
ATOM     33  C   UNL A   1      43.023  27.672  32.672  1.00  0.00     0.029 A 
ATOM     34  C   UNL A   1      42.379  28.690  33.357  1.00  0.00     0.049 A 
ATOM     35  H   UNL A   1      40.765  29.900  32.733  1.00  0.00     0.167 HD
ATOM     36  C   UNL A   1      42.031  30.247  35.255  1.00  0.00     0.074 A 
ATOM     37  C   UNL A   1      42.318  30.735  36.587  1.00  0.00     0.031 C 
ATOM     38  C   UNL A   1      42.642  29.182  34.685  1.00  0.00     0.037 A 
BRANCH  25  39
ATOM     39  C   UNL A   1      40.504  27.663  29.112  1.00  0.00     0.064 A 
ATOM     40  C   UNL A   1      39.689  26.524  29.061  1.00  0.00     0.173 A 
ATOM     41  C   UNL A   1      41.312  27.944  27.997  1.00  0.00     0.173 A 
ATOM     42  F   UNL A   1      38.903  26.209  30.101  1.00  0.00    -0.203 F 
ATOM     43  C   UNL A   1      39.683  25.699  27.938  1.00  0.00     0.198 A 
ATOM     44  C   UNL A   1      41.285  27.129  26.868  1.00  0.00     0.198 A 
ATOM     45  F   UNL A   1      42.103  29.027  27.993  1.00  0.00    -0.203 F 
ATOM     46  F   UNL A   1      38.907  24.606  27.916  1.00  0.00    -0.200 F 
ATOM     47  C   UNL A   1      40.471  26.009  26.839  1.00  0.00     0.200 A 
ATOM     48  F   UNL A   1      42.037  27.439  25.803  1.00  0.00    -0.200 F 
ATOM     49  F   UNL A   1      40.445  25.227  25.751  1.00  0.00    -0.200 F 
ENDBRANCH  25  39
BRANCH  26  50
ATOM     50  C   UNL A   1      39.541  33.905  36.857  1.00  0.00     0.064 A 
ATOM     51  C   UNL A   1      40.140  35.169  36.947  1.00  0.00     0.173 A 
ATOM     52  C   UNL A   1      38.752  33.478  37.936  1.00  0.00     0.173 A 
ATOM     53  F   UNL A   1      40.921  35.612  35.950  1.00  0.00    -0.203 F 
ATOM     54  C   UNL A   1      39.978  35.961  38.081  1.00  0.00     0.198 A 
ATOM     55  C   UNL A   1      38.561  34.287  39.053  1.00  0.00     0.198 A 
ATOM     56  F   UNL A   1      38.152  32.280  37.898  1.00  0.00    -0.203 F 
ATOM     57  F   UNL A   1      40.607  37.141  38.165  1.00  0.00    -0.200 F 
ATOM     58  C   UNL A   1      39.184  35.523  39.130  1.00  0.00     0.200 A 
ATOM     59  F   UNL A   1      37.778  33.866  40.056  1.00  0.00    -0.200 F 
ATOM     60  F   UNL A   1      39.028  36.287  40.219  1.00  0.00    -0.200 F 
ENDBRANCH  26  50
BRANCH  38  61
ATOM     61  C   UNL A   1      43.681  28.474  35.502  1.00  0.00     0.064 A 
ATOM     62  C   UNL A   1      43.332  27.454  36.399  1.00  0.00     0.173 A 
ATOM     63  C   UNL A   1      45.041  28.794  35.365  1.00  0.00     0.173 A 
ATOM     64  F   UNL A   1      42.042  27.128  36.581  1.00  0.00    -0.203 F 
ATOM     65  C   UNL A   1      44.304  26.792  37.142  1.00  0.00     0.198 A 
ATOM     66  C   UNL A   1      46.012  28.109  36.087  1.00  0.00     0.198 A 
ATOM     67  F   UNL A   1      45.426  29.761  34.518  1.00  0.00    -0.203 F 
ATOM     68  F   UNL A   1      43.943  25.852  38.026  1.00  0.00    -0.200 F 
ATOM     69  C   UNL A   1      45.643  27.114  36.979  1.00  0.00     0.200 A 
ATOM     70  F   UNL A   1      47.307  28.412  35.920  1.00  0.00    -0.200 F 
ATOM     71  F   UNL A   1      46.579  26.468  37.689  1.00  0.00    -0.200 F 
ENDBRANCH  38  61
ENDBRANCH  12  13
ENDBRANCH   5   7
ENDBRANCH   2   3
ENDBRANCH   1   2
BRANCH   1  72
ATOM     72  C   UNL A   1      31.486  30.909  25.792  1.00  0.00     0.023 C 
BRANCH  72  73
ATOM     73  C   UNL A   1      32.315  29.754  26.338  1.00  0.00     0.116 C 
BRANCH  73  74
ATOM     74  N   UNL A   1      31.524  28.607  26.739  1.00  0.00    -0.352 N 
ATOM     75  C   UNL A   1      31.351  27.414  26.085  1.00  0.00     0.253 C 
ATOM     76  H   UNL A   1      31.048  28.696  27.597  1.00  0.00     0.163 HD
ATOM     77  O   UNL A   1      30.653  26.535  26.582  1.00  0.00    -0.269 OA
BRANCH  75  78
ATOM     78  C   UNL A   1      31.948  27.187  24.758  1.00  0.00     0.065 A 
ATOM     79  C   UNL A   1      33.258  26.721  24.756  1.00  0.00     0.125 A 
ATOM     80  C   UNL A   1      31.302  27.424  23.530  1.00  0.00    -0.003 A 
ATOM     81  N   UNL A   1      33.952  26.421  23.634  1.00  0.00    -0.264 NA
ATOM     82  C   UNL A   1      32.023  27.117  22.363  1.00  0.00     0.029 A 
ATOM     83  C   UNL A   1      33.317  26.623  22.464  1.00  0.00     0.111 A 
BRANCH  80  84
ATOM     84  C   UNL A   1      29.928  27.952  23.419  1.00  0.00    -0.017 A 
ATOM     85  C   UNL A   1      28.822  27.087  23.502  1.00  0.00     0.009 A 
ATOM     86  C   UNL A   1      29.680  29.329  23.282  1.00  0.00     0.021 A 
ATOM     87  C   UNL A   1      27.517  27.580  23.501  1.00  0.00     0.001 A 
ATOM     88  C   UNL A   1      28.370  29.839  23.274  1.00  0.00     0.056 A 
ATOM     89  C   UNL A   1      27.293  28.950  23.395  1.00  0.00     0.013 A 
BRANCH  88  90
ATOM     90  C   UNL A   1      28.109  31.321  23.157  1.00  0.00     0.416 C 
ATOM     91  F   UNL A   1      27.022  31.716  23.877  1.00  0.00    -0.166 F 
ATOM     92  F   UNL A   1      29.153  32.065  23.620  1.00  0.00    -0.166 F 
ATOM     93  F   UNL A   1      27.887  31.742  21.882  1.00  0.00    -0.166 F 
ENDBRANCH  88  90
ENDBRANCH  80  84
ENDBRANCH  75  78
ENDBRANCH  73  74
ENDBRANCH  72  73
ENDBRANCH   1  72
TORSDOF 13
ENDMDL
MODEL 2
REMARK VINA RESULT:     -13.0      0.791      1.781
REMARK SMILES O=C(NCCCCNC(=O)c1cnccc1-c1cccc(C(F)(F)F)c1)c1ccc(-c2c3nc(c(-c4c(F)c(F)c(F)c(F)c4F)c4ccc([nH]4)c(-c4c(F)c(F)c(F)c(F)c4F)c4nc(c(-c5c(F)c(F)c(F)c(F)c5F)c5ccc2[nH]5)C=C4)C=C3)cc1
REMARK SMILES IDX 5 1 4 2 3 3 1 4 2 5 27 7 28 8 89 9 29 10 88 11 30 12 31 13
REMARK SMILES IDX 32 14 82 15 33 16 87 17 81 18 83 19 34 20 86 21 80 22 79 23
REMARK SMILES IDX 35 25 67 26 47 27 66 28 48 29 51 30 65 31 84 32 49 33 50 34
REMARK SMILES IDX 64 36 85 37 52 38 36 39 37 40 45 41 38 42 39 43 43 44 46 45
REMARK SMILES IDX 40 46 41 47 44 48 42 49 68 50 69 51 77 52 70 53 71 54 75 55
REMARK SMILES IDX 78 56 72 57 73 58 76 59 74 60 53 61 54 62 62 63 55 64 56 65
REMARK SMILES IDX 60 66 63 67 57 68 58 69 61 70 59 71 6 72 7 73 8 74 9 75
REMARK SMILES IDX 10 77 11 78 12 79 16 80 13 81 15 82 14 83 17 84 18 85 26 86
REMARK SMILES IDX 19 87 21 88 20 89 22 90 23 91 24 92 25 93
REMARK H PARENT 3 6 83 24 51 35 8 76
REMARK Flexibility Score: inf
ROOT
ATOM      1  C   UNL A   1      31.265  31.873  26.501  1.00  0.00     0.023 C 
ENDROOT
BRANCH   1   2
ATOM      2  C   UNL A   1      32.573  32.510  26.955  1.00  0.00     0.116 C 
BRANCH   2   3
ATOM      3  N   UNL A   1      32.407  33.881  27.410  1.00  0.00    -0.352 N 
ATOM      4  O   UNL A   1      32.702  35.667  28.760  1.00  0.00    -0.269 OA
ATOM      5  C   UNL A   1      33.075  34.552  28.406  1.00  0.00     0.251 C 
ATOM      6  H   UNL A   1      31.718  34.402  26.938  1.00  0.00     0.163 HD
BRANCH   5   7
ATOM      7  C   UNL A   1      34.239  33.921  29.062  1.00  0.00     0.039 A 
ATOM      8  C   UNL A   1      34.057  32.877  29.971  1.00  0.00     0.014 A 
ATOM      9  C   UNL A   1      35.527  34.367  28.751  1.00  0.00     0.014 A 
ATOM     10  C   UNL A   1      35.148  32.366  30.666  1.00  0.00     0.010 A 
ATOM     11  C   UNL A   1      36.632  33.792  29.385  1.00  0.00     0.010 A 
ATOM     12  C   UNL A   1      36.449  32.795  30.357  1.00  0.00    -0.014 A 
BRANCH  12  13
ATOM     13  C   UNL A   1      37.606  32.096  30.968  1.00  0.00     0.031 A 
ATOM     14  C   UNL A   1      38.376  31.046  30.220  1.00  0.00     0.074 A 
ATOM     15  C   UNL A   1      37.947  32.423  32.230  1.00  0.00     0.049 A 
ATOM     16  N   UNL A   1      39.387  30.322  30.630  1.00  0.00    -0.248 NA
ATOM     17  C   UNL A   1      37.959  30.763  28.838  1.00  0.00     0.031 C 
ATOM     18  C   UNL A   1      37.252  33.416  33.055  1.00  0.00     0.029 A 
ATOM     19  N   UNL A   1      38.950  31.963  33.043  1.00  0.00    -0.354 N 
ATOM     20  C   UNL A   1      39.713  29.486  29.571  1.00  0.00     0.074 A 
ATOM     21  C   UNL A   1      38.787  29.782  28.499  1.00  0.00     0.031 C 
ATOM     22  C   UNL A   1      37.861  33.506  34.245  1.00  0.00     0.029 A 
ATOM     23  C   UNL A   1      38.941  32.528  34.295  1.00  0.00     0.049 A 
ATOM     24  H   UNL A   1      39.613  31.292  32.757  1.00  0.00     0.167 HD
ATOM     25  C   UNL A   1      40.700  28.561  29.509  1.00  0.00     0.037 A 
ATOM     26  C   UNL A   1      39.691  32.263  35.379  1.00  0.00     0.037 A 
ATOM     27  C   UNL A   1      41.635  28.297  30.576  1.00  0.00     0.049 A 
ATOM     28  C   UNL A   1      40.752  31.204  35.283  1.00  0.00     0.074 A 
ATOM     29  C   UNL A   1      42.726  27.446  30.574  1.00  0.00     0.029 A 
ATOM     30  N   UNL A   1      41.577  28.869  31.838  1.00  0.00    -0.354 N 
ATOM     31  N   UNL A   1      41.100  30.476  34.252  1.00  0.00    -0.248 NA
ATOM     32  C   UNL A   1      41.518  30.923  36.505  1.00  0.00     0.031 C 
ATOM     33  C   UNL A   1      43.291  27.454  31.852  1.00  0.00     0.029 A 
ATOM     34  C   UNL A   1      42.584  28.351  32.637  1.00  0.00     0.049 A 
ATOM     35  H   UNL A   1      40.920  29.544  32.124  1.00  0.00     0.167 HD
ATOM     36  C   UNL A   1      42.126  29.655  34.695  1.00  0.00     0.074 A 
ATOM     37  C   UNL A   1      42.367  29.998  36.081  1.00  0.00     0.031 C 
ATOM     38  C   UNL A   1      42.801  28.696  34.018  1.00  0.00     0.037 A 
BRANCH  25  39
ATOM     39  C   UNL A   1      40.832  27.737  28.262  1.00  0.00     0.064 A 
ATOM     40  C   UNL A   1      41.624  28.149  27.182  1.00  0.00     0.173 A 
ATOM     41  C   UNL A   1      40.246  26.461  28.197  1.00  0.00     0.173 A 
ATOM     42  F   UNL A   1      42.202  29.360  27.192  1.00  0.00    -0.203 F 
ATOM     43  C   UNL A   1      41.822  27.318  26.081  1.00  0.00     0.198 A 
ATOM     44  C   UNL A   1      40.465  25.624  27.107  1.00  0.00     0.198 A 
ATOM     45  F   UNL A   1      39.486  26.015  29.210  1.00  0.00    -0.203 F 
ATOM     46  F   UNL A   1      42.571  27.739  25.053  1.00  0.00    -0.200 F 
ATOM     47  C   UNL A   1      41.253  26.053  26.050  1.00  0.00     0.200 A 
ATOM     48  F   UNL A   1      39.926  24.397  27.086  1.00  0.00    -0.200 F 
ATOM     49  F   UNL A   1      41.466  25.246  25.001  1.00  0.00    -0.200 F 
ENDBRANCH  25  39
BRANCH  26  50
ATOM     50  C   UNL A   1      39.425  32.972  36.657  1.00  0.00     0.064 A 
ATOM     51  C   UNL A   1      38.475  32.497  37.570  1.00  0.00     0.173 A 
ATOM     52  C   UNL A   1      40.113  34.152  36.985  1.00  0.00     0.173 A 
ATOM     53  F   UNL A   1      37.778  31.385  37.292  1.00  0.00    -0.203 F 
ATOM     54  C   UNL A   1      38.204  33.187  38.749  1.00  0.00     0.198 A 
ATOM     55  C   UNL A   1      39.866  34.820  38.181  1.00  0.00     0.198 A 
ATOM     56  F   UNL A   1      41.036  34.647  36.148  1.00  0.00    -0.203 F 
ATOM     57  F   UNL A   1      37.251  32.740  39.578  1.00  0.00    -0.200 F 
ATOM     58  C   UNL A   1      38.903  34.344  39.057  1.00  0.00     0.200 A 
ATOM     59  F   UNL A   1      40.558  35.928  38.481  1.00  0.00    -0.200 F 
ATOM     60  F   UNL A   1      38.643  35.005  40.192  1.00  0.00    -0.200 F 
ENDBRANCH  26  50
BRANCH  38  61
ATOM     61  C   UNL A   1      43.862  27.950  34.770  1.00  0.00     0.064 A 
ATOM     62  C   UNL A   1      43.591  26.719  35.384  1.00  0.00     0.173 A 
ATOM     63  C   UNL A   1      45.170  28.452  34.850  1.00  0.00     0.173 A 
ATOM     64  F   UNL A   1      42.349  26.208  35.353  1.00  0.00    -0.203 F 
ATOM     65  C   UNL A   1      44.585  26.026  36.067  1.00  0.00     0.198 A 
ATOM     66  C   UNL A   1      46.169  27.742  35.507  1.00  0.00     0.198 A 
ATOM     67  F   UNL A   1      45.480  29.625  34.278  1.00  0.00    -0.203 F 
ATOM     68  F   UNL A   1      44.292  24.872  36.683  1.00  0.00    -0.200 F 
ATOM     69  C   UNL A   1      45.875  26.533  36.120  1.00  0.00     0.200 A 
ATOM     70  F   UNL A   1      47.417  28.226  35.549  1.00  0.00    -0.200 F 
ATOM     71  F   UNL A   1      46.834  25.859  36.770  1.00  0.00    -0.200 F 
ENDBRANCH  38  61
ENDBRANCH  12  13
ENDBRANCH   5   7
ENDBRANCH   2   3
ENDBRANCH   1   2
BRANCH   1  72
ATOM     72  C   UNL A   1      31.405  30.566  25.725  1.00  0.00     0.023 C 
BRANCH  72  73
ATOM     73  C   UNL A   1      32.190  29.470  26.436  1.00  0.00     0.116 C 
BRANCH  73  74
ATOM     74  N   UNL A   1      31.394  28.303  26.764  1.00  0.00    -0.352 N 
ATOM     75  C   UNL A   1      31.262  27.131  26.064  1.00  0.00     0.253 C 
ATOM     76  H   UNL A   1      30.880  28.359  27.603  1.00  0.00     0.163 HD
ATOM     77  O   UNL A   1      30.553  26.230  26.501  1.00  0.00    -0.269 OA
BRANCH  75  78
ATOM     78  C   UNL A   1      31.918  26.955  24.757  1.00  0.00     0.065 A 
ATOM     79  C   UNL A   1      33.185  26.380  24.790  1.00  0.00     0.125 A 
ATOM     80  C   UNL A   1      31.368  27.336  23.519  1.00  0.00    -0.003 A 
ATOM     81  N   UNL A   1      33.918  26.107  23.686  1.00  0.00    -0.264 NA
ATOM     82  C   UNL A   1      32.132  27.057  22.372  1.00  0.00     0.029 A 
ATOM     83  C   UNL A   1      33.373  26.449  22.503  1.00  0.00     0.111 A 
BRANCH  80  84
ATOM     84  C   UNL A   1      30.051  27.985  23.376  1.00  0.00    -0.017 A 
ATOM     85  C   UNL A   1      28.868  27.234  23.503  1.00  0.00     0.009 A 
ATOM     86  C   UNL A   1      29.934  29.370  23.165  1.00  0.00     0.021 A 
ATOM     87  C   UNL A   1      27.615  27.848  23.471  1.00  0.00     0.001 A 
ATOM     88  C   UNL A   1      28.678  30.001  23.127  1.00  0.00     0.056 A 
ATOM     89  C   UNL A   1      27.522  29.226  23.292  1.00  0.00     0.013 A 
BRANCH  88  90
ATOM     90  C   UNL A   1      28.558  31.492  22.930  1.00  0.00     0.416 C 
ATOM     91  F   UNL A   1      27.278  31.935  23.076  1.00  0.00    -0.166 F 
ATOM     92  F   UNL A   1      29.299  32.191  23.836  1.00  0.00    -0.166 F 
ATOM     93  F   UNL A   1      28.966  31.922  21.705  1.00  0.00    -0.166 F 
ENDBRANCH  88  90
ENDBRANCH  80  84
ENDBRANCH  75  78
ENDBRANCH  73  74
ENDBRANCH  72  73
ENDBRANCH   1  72
TORSDOF 13
ENDMDL
MODEL 3
REMARK VINA RESULT:     -13.0      6.485     11.898
REMARK SMILES O=C(NCCCCNC(=O)c1cnccc1-c1cccc(C(F)(F)F)c1)c1ccc(-c2c3nc(c(-c4c(F)c(F)c(F)c(F)c4F)c4ccc([nH]4)c(-c4c(F)c(F)c(F)c(F)c4F)c4nc(c(-c5c(F)c(F)c(F)c(F)c5F)c5ccc2[nH]5)C=C4)C=C3)cc1
REMARK SMILES IDX 5 1 4 2 3 3 1 4 2 5 27 7 28 8 89 9 29 10 88 11 30 12 31 13
REMARK SMILES IDX 32 14 82 15 33 16 87 17 81 18 83 19 34 20 86 21 80 22 79 23
REMARK SMILES IDX 35 25 67 26 47 27 66 28 48 29 51 30 65 31 84 32 49 33 50 34
REMARK SMILES IDX 64 36 85 37 52 38 36 39 37 40 45 41 38 42 39 43 43 44 46 45
REMARK SMILES IDX 40 46 41 47 44 48 42 49 68 50 69 51 77 52 70 53 71 54 75 55
REMARK SMILES IDX 78 56 72 57 73 58 76 59 74 60 53 61 54 62 62 63 55 64 56 65
REMARK SMILES IDX 60 66 63 67 57 68 58 69 61 70 59 71 6 72 7 73 8 74 9 75
REMARK SMILES IDX 10 77 11 78 12 79 16 80 13 81 15 82 14 83 17 84 18 85 26 86
REMARK SMILES IDX 19 87 21 88 20 89 22 90 23 91 24 92 25 93
REMARK H PARENT 3 6 83 24 51 35 8 76
REMARK Flexibility Score: inf
ROOT
ATOM      1  C   UNL A   1      37.997  19.645  24.841  1.00  0.00     0.023 C 
ENDROOT
BRANCH   1   2
ATOM      2  C   UNL A   1      39.126  20.125  25.746  1.00  0.00     0.116 C 
BRANCH   2   3
ATOM      3  N   UNL A   1      40.192  19.145  25.888  1.00  0.00    -0.352 N 
ATOM      4  O   UNL A   1      42.319  18.405  26.055  1.00  0.00    -0.269 OA
ATOM      5  C   UNL A   1      41.533  19.346  26.112  1.00  0.00     0.251 C 
ATOM      6  H   UNL A   1      39.913  18.204  25.813  1.00  0.00     0.163 HD
BRANCH   5   7
ATOM      7  C   UNL A   1      42.030  20.706  26.408  1.00  0.00     0.039 A 
ATOM      8  C   UNL A   1      42.236  21.623  25.375  1.00  0.00     0.014 A 
ATOM      9  C   UNL A   1      42.277  21.073  27.734  1.00  0.00     0.014 A 
ATOM     10  C   UNL A   1      42.809  22.860  25.652  1.00  0.00     0.010 A 
ATOM     11  C   UNL A   1      42.770  22.349  28.020  1.00  0.00     0.010 A 
ATOM     12  C   UNL A   1      43.052  23.247  26.979  1.00  0.00    -0.014 A 
BRANCH  12  13
ATOM     13  C   UNL A   1      43.476  24.641  27.260  1.00  0.00     0.031 A 
ATOM     14  C   UNL A   1      42.518  25.661  27.801  1.00  0.00     0.074 A 
ATOM     15  C   UNL A   1      44.757  24.974  27.004  1.00  0.00     0.049 A 
ATOM     16  N   UNL A   1      42.729  26.926  28.064  1.00  0.00    -0.248 NA
ATOM     17  C   UNL A   1      41.145  25.214  28.078  1.00  0.00     0.031 C 
ATOM     18  C   UNL A   1      45.768  24.063  26.458  1.00  0.00     0.029 A 
ATOM     19  N   UNL A   1      45.431  26.157  27.162  1.00  0.00    -0.354 N 
ATOM     20  C   UNL A   1      41.517  27.431  28.515  1.00  0.00     0.074 A 
ATOM     21  C   UNL A   1      40.567  26.340  28.482  1.00  0.00     0.031 C 
ATOM     22  C   UNL A   1      46.934  24.713  26.346  1.00  0.00     0.029 A 
ATOM     23  C   UNL A   1      46.738  26.101  26.744  1.00  0.00     0.049 A 
ATOM     24  H   UNL A   1      45.018  26.968  27.539  1.00  0.00     0.167 HD
ATOM     25  C   UNL A   1      41.235  28.692  28.920  1.00  0.00     0.037 A 
ATOM     26  C   UNL A   1      47.668  27.068  26.649  1.00  0.00     0.037 A 
ATOM     27  C   UNL A   1      42.200  29.763  28.975  1.00  0.00     0.049 A 
ATOM     28  C   UNL A   1      47.307  28.463  27.074  1.00  0.00     0.074 A 
ATOM     29  C   UNL A   1      42.032  31.049  29.459  1.00  0.00     0.029 A 
ATOM     30  N   UNL A   1      43.506  29.676  28.517  1.00  0.00    -0.354 N 
ATOM     31  N   UNL A   1      46.180  28.908  27.571  1.00  0.00    -0.248 NA
ATOM     32  C   UNL A   1      48.343  29.492  26.915  1.00  0.00     0.031 C 
ATOM     33  C   UNL A   1      43.215  31.759  29.236  1.00  0.00     0.029 A 
ATOM     34  C   UNL A   1      44.138  30.901  28.662  1.00  0.00     0.049 A 
ATOM     35  H   UNL A   1      43.922  28.865  28.147  1.00  0.00     0.167 HD
ATOM     36  C   UNL A   1      46.370  30.264  27.789  1.00  0.00     0.074 A 
ATOM     37  C   UNL A   1      47.733  30.564  27.401  1.00  0.00     0.031 C 
ATOM     38  C   UNL A   1      45.492  31.182  28.259  1.00  0.00     0.037 A 
BRANCH  25  39
ATOM     39  C   UNL A   1      39.826  29.016  29.325  1.00  0.00     0.064 A 
ATOM     40  C   UNL A   1      38.871  29.452  28.397  1.00  0.00     0.173 A 
ATOM     41  C   UNL A   1      39.400  28.773  30.642  1.00  0.00     0.173 A 
ATOM     42  F   UNL A   1      39.228  29.703  27.128  1.00  0.00    -0.203 F 
ATOM     43  C   UNL A   1      37.542  29.639  28.772  1.00  0.00     0.198 A 
ATOM     44  C   UNL A   1      38.067  28.938  31.006  1.00  0.00     0.198 A 
ATOM     45  F   UNL A   1      40.273  28.345  31.566  1.00  0.00    -0.203 F 
ATOM     46  F   UNL A   1      36.648  30.071  27.872  1.00  0.00    -0.200 F 
ATOM     47  C   UNL A   1      37.139  29.369  30.072  1.00  0.00     0.200 A 
ATOM     48  F   UNL A   1      37.677  28.663  32.259  1.00  0.00    -0.200 F 
ATOM     49  F   UNL A   1      35.855  29.526  30.424  1.00  0.00    -0.200 F 
ENDBRANCH  25  39
BRANCH  26  50
ATOM     50  C   UNL A   1      49.005  26.759  26.081  1.00  0.00     0.064 A 
ATOM     51  C   UNL A   1      50.034  26.246  26.882  1.00  0.00     0.173 A 
ATOM     52  C   UNL A   1      49.284  26.984  24.723  1.00  0.00     0.173 A 
ATOM     53  F   UNL A   1      49.823  26.034  28.189  1.00  0.00    -0.203 F 
ATOM     54  C   UNL A   1      51.298  25.994  26.352  1.00  0.00     0.198 A 
ATOM     55  C   UNL A   1      50.536  26.696  24.188  1.00  0.00     0.198 A 
ATOM     56  F   UNL A   1      48.333  27.469  23.913  1.00  0.00    -0.203 F 
ATOM     57  F   UNL A   1      52.280  25.556  27.151  1.00  0.00    -0.200 F 
ATOM     58  C   UNL A   1      51.547  26.213  25.005  1.00  0.00     0.200 A 
ATOM     59  F   UNL A   1      50.765  26.893  22.883  1.00  0.00    -0.200 F 
ATOM     60  F   UNL A   1      52.761  25.968  24.497  1.00  0.00    -0.200 F 
ENDBRANCH  26  50
BRANCH  38  61
ATOM     61  C   UNL A   1      45.980  32.595  28.376  1.00  0.00     0.064 A 
ATOM     62  C   UNL A   1      45.807  33.514  27.332  1.00  0.00     0.173 A 
ATOM     63  C   UNL A   1      46.597  33.044  29.554  1.00  0.00     0.173 A 
ATOM     64  F   UNL A   1      45.242  33.126  26.177  1.00  0.00    -0.203 F 
ATOM     65  C   UNL A   1      46.250  34.828  27.455  1.00  0.00     0.198 A 
ATOM     66  C   UNL A   1      47.010  34.365  29.685  1.00  0.00     0.198 A 
ATOM     67  F   UNL A   1      46.783  32.203  30.582  1.00  0.00    -0.203 F 
ATOM     68  F   UNL A   1      46.113  35.677  26.427  1.00  0.00    -0.200 F 
ATOM     69  C   UNL A   1      46.842  35.254  28.634  1.00  0.00     0.200 A 
ATOM     70  F   UNL A   1      47.572  34.780  30.828  1.00  0.00    -0.200 F 
ATOM     71  F   UNL A   1      47.259  36.523  28.754  1.00  0.00    -0.200 F 
ENDBRANCH  38  61
ENDBRANCH  12  13
ENDBRANCH   5   7
ENDBRANCH   2   3
ENDBRANCH   1   2
BRANCH   1  72
ATOM     72  C   UNL A   1      36.670  20.384  25.001  1.00  0.00     0.023 C 
BRANCH  72  73
ATOM     73  C   UNL A   1      36.748  21.898  24.849  1.00  0.00     0.116 C 
BRANCH  73  74
ATOM     74  N   UNL A   1      36.121  22.395  23.639  1.00  0.00    -0.352 N 
ATOM     75  C   UNL A   1      34.869  22.932  23.481  1.00  0.00     0.253 C 
ATOM     76  H   UNL A   1      36.669  22.341  22.822  1.00  0.00     0.163 HD
ATOM     77  O   UNL A   1      34.503  23.324  22.376  1.00  0.00    -0.269 OA
BRANCH  75  78
ATOM     78  C   UNL A   1      33.927  22.997  24.611  1.00  0.00     0.065 A 
ATOM     79  C   UNL A   1      33.994  24.148  25.388  1.00  0.00     0.125 A 
ATOM     80  C   UNL A   1      33.005  21.990  24.953  1.00  0.00    -0.003 A 
ATOM     81  N   UNL A   1      33.181  24.397  26.441  1.00  0.00    -0.264 NA
ATOM     82  C   UNL A   1      32.163  22.245  26.050  1.00  0.00     0.029 A 
ATOM     83  C   UNL A   1      32.282  23.440  26.745  1.00  0.00     0.111 A 
BRANCH  80  84
ATOM     84  C   UNL A   1      32.878  20.716  24.218  1.00  0.00    -0.017 A 
ATOM     85  C   UNL A   1      32.156  20.657  23.013  1.00  0.00     0.009 A 
ATOM     86  C   UNL A   1      33.513  19.544  24.666  1.00  0.00     0.021 A 
ATOM     87  C   UNL A   1      32.110  19.487  22.254  1.00  0.00     0.001 A 
ATOM     88  C   UNL A   1      33.471  18.357  23.914  1.00  0.00     0.056 A 
ATOM     89  C   UNL A   1      32.771  18.344  22.699  1.00  0.00     0.013 A 
BRANCH  88  90
ATOM     90  C   UNL A   1      34.178  17.109  24.382  1.00  0.00     0.416 C 
ATOM     91  F   UNL A   1      35.501  17.321  24.627  1.00  0.00    -0.166 F 
ATOM     92  F   UNL A   1      33.656  16.629  25.547  1.00  0.00    -0.166 F 
ATOM     93  F   UNL A   1      34.122  16.078  23.496  1.00  0.00    -0.166 F 
ENDBRANCH  88  90
ENDBRANCH  80  84
ENDBRANCH  75  78
ENDBRANCH  73  74
ENDBRANCH  72  73
ENDBRANCH   1  72
TORSDOF 13
ENDMDL
