MODEL 1
REMARK VINA RESULT:     -13.2      0.000      0.000
REMARK SMILES O=C(NCCCCNC(=O)c1cccn2c(=O)c3ccc(Cl)cc3nc12)c1ccc(-c2c3nc(c(-c4c(F)c(F)c(F)c(F)c4F)c4ccc([nH]4)c(-c4c(F)c(F)c(F)c(F)c4F)c4nc(c(-c5c(F)c(F)c(F)c(F)c5F)c5ccc2[nH]5)C=C4)C=C3)cc1
REMARK SMILES IDX 4 1 3 2 1 3 2 4 27 6 28 7 89 8 29 9 88 10 30 11 31 12 32 13
REMARK SMILES IDX 82 14 33 15 87 16 81 17 83 18 34 19 86 20 80 21 79 22 35 24
REMARK SMILES IDX 67 25 47 26 66 27 48 28 51 29 65 30 84 31 49 32 50 33 64 35
REMARK SMILES IDX 85 36 52 37 36 38 37 39 45 40 38 41 39 42 43 43 46 44 40 45
REMARK SMILES IDX 41 46 44 47 42 48 68 49 69 50 77 51 70 52 71 53 75 54 78 55
REMARK SMILES IDX 72 56 73 57 76 58 74 59 53 60 54 61 62 62 55 63 56 64 60 65
REMARK SMILES IDX 63 66 57 67 58 68 61 69 59 70 5 71 6 72 7 73 8 74 9 75 10 77
REMARK SMILES IDX 11 78 12 79 26 80 13 81 15 82 25 83 14 84 16 85 24 86 17 87
REMARK SMILES IDX 18 88 23 89 19 90 21 91 20 92 22 93
REMARK H PARENT 3 5 83 23 51 34 8 76
REMARK Flexibility Score: inf
ROOT
ATOM      1  C   UNL A   1      32.541  32.476  26.892  1.00  0.00     0.116 C 
ENDROOT
BRANCH   1   2
ATOM      2  N   UNL A   1      32.358  33.828  27.389  1.00  0.00    -0.352 N 
ATOM      3  O   UNL A   1      32.596  35.604  28.748  1.00  0.00    -0.269 OA
ATOM      4  C   UNL A   1      33.004  34.496  28.400  1.00  0.00     0.251 C 
ATOM      5  H   UNL A   1      31.661  34.348  26.929  1.00  0.00     0.163 HD
BRANCH   4   6
ATOM      6  C   UNL A   1      34.172  33.899  29.086  1.00  0.00     0.039 A 
ATOM      7  C   UNL A   1      35.446  34.395  28.794  1.00  0.00     0.014 A 
ATOM      8  C   UNL A   1      34.034  32.825  29.967  1.00  0.00     0.014 A 
ATOM      9  C   UNL A   1      36.571  33.828  29.397  1.00  0.00     0.010 A 
ATOM     10  C   UNL A   1      35.142  32.330  30.648  1.00  0.00     0.010 A 
ATOM     11  C   UNL A   1      36.428  32.794  30.336  1.00  0.00    -0.014 A 
BRANCH  11  12
ATOM     12  C   UNL A   1      37.616  32.113  30.909  1.00  0.00     0.031 A 
ATOM     13  C   UNL A   1      38.070  32.460  32.303  1.00  0.00     0.074 A 
ATOM     14  C   UNL A   1      38.291  31.198  30.189  1.00  0.00     0.049 A 
ATOM     15  N   UNL A   1      39.078  31.985  32.989  1.00  0.00    -0.248 NA
ATOM     16  C   UNL A   1      37.308  33.502  33.011  1.00  0.00     0.031 C 
ATOM     17  C   UNL A   1      37.977  30.806  28.816  1.00  0.00     0.029 A 
ATOM     18  N   UNL A   1      39.376  30.423  30.518  1.00  0.00    -0.354 N 
ATOM     19  C   UNL A   1      39.074  32.679  34.192  1.00  0.00     0.074 A 
ATOM     20  C   UNL A   1      38.018  33.660  34.116  1.00  0.00     0.031 C 
ATOM     21  C   UNL A   1      38.819  29.830  28.435  1.00  0.00     0.029 A 
ATOM     22  C   UNL A   1      39.750  29.549  29.526  1.00  0.00     0.049 A 
ATOM     23  H   UNL A   1      39.840  30.487  31.383  1.00  0.00     0.167 HD
ATOM     24  C   UNL A   1      39.851  32.486  35.284  1.00  0.00     0.037 A 
ATOM     25  C   UNL A   1      40.725  28.620  29.506  1.00  0.00     0.037 A 
ATOM     26  C   UNL A   1      40.863  31.471  35.380  1.00  0.00     0.049 A 
ATOM     27  C   UNL A   1      41.589  28.432  30.724  1.00  0.00     0.074 A 
ATOM     28  C   UNL A   1      41.645  31.136  36.469  1.00  0.00     0.029 A 
ATOM     29  N   UNL A   1      41.229  30.625  34.343  1.00  0.00    -0.354 N 
ATOM     30  N   UNL A   1      41.524  29.040  31.884  1.00  0.00    -0.248 NA
ATOM     31  C   UNL A   1      42.665  27.434  30.631  1.00  0.00     0.031 C 
ATOM     32  C   UNL A   1      42.517  30.117  36.079  1.00  0.00     0.029 A 
ATOM     33  C   UNL A   1      42.251  29.790  34.757  1.00  0.00     0.049 A 
ATOM     34  H   UNL A   1      40.821  30.619  33.446  1.00  0.00     0.167 HD
ATOM     35  C   UNL A   1      42.537  28.493  32.660  1.00  0.00     0.074 A 
ATOM     36  C   UNL A   1      43.193  27.490  31.847  1.00  0.00     0.031 C 
ATOM     37  C   UNL A   1      42.892  28.799  33.932  1.00  0.00     0.037 A 
BRANCH  24  38
ATOM     38  C   UNL A   1      39.614  33.373  36.470  1.00  0.00     0.064 A 
ATOM     39  C   UNL A   1      38.744  32.996  37.505  1.00  0.00     0.173 A 
ATOM     40  C   UNL A   1      40.285  34.599  36.590  1.00  0.00     0.173 A 
ATOM     41  F   UNL A   1      38.070  31.839  37.432  1.00  0.00    -0.203 F 
ATOM     42  C   UNL A   1      38.528  33.829  38.599  1.00  0.00     0.198 A 
ATOM     43  C   UNL A   1      40.090  35.415  37.701  1.00  0.00     0.198 A 
ATOM     44  F   UNL A   1      41.131  35.004  35.631  1.00  0.00    -0.203 F 
ATOM     45  F   UNL A   1      37.650  33.473  39.548  1.00  0.00    -0.200 F 
ATOM     46  C   UNL A   1      39.205  35.034  38.700  1.00  0.00     0.200 A 
ATOM     47  F   UNL A   1      40.755  36.574  37.804  1.00  0.00    -0.200 F 
ATOM     48  F   UNL A   1      39.001  35.833  39.757  1.00  0.00    -0.200 F 
ENDBRANCH  24  38
BRANCH  25  49
ATOM     49  C   UNL A   1      40.894  27.765  28.303  1.00  0.00     0.064 A 
ATOM     50  C   UNL A   1      41.706  28.183  27.240  1.00  0.00     0.173 A 
ATOM     51  C   UNL A   1      40.289  26.505  28.208  1.00  0.00     0.173 A 
ATOM     52  F   UNL A   1      42.290  29.390  27.276  1.00  0.00    -0.203 F 
ATOM     53  C   UNL A   1      41.908  27.369  26.127  1.00  0.00     0.198 A 
ATOM     54  C   UNL A   1      40.510  25.682  27.104  1.00  0.00     0.198 A 
ATOM     55  F   UNL A   1      39.505  26.059  29.201  1.00  0.00    -0.203 F 
ATOM     56  F   UNL A   1      42.673  27.800  25.114  1.00  0.00    -0.200 F 
ATOM     57  C   UNL A   1      41.318  26.116  26.063  1.00  0.00     0.200 A 
ATOM     58  F   UNL A   1      39.948  24.466  27.054  1.00  0.00    -0.200 F 
ATOM     59  F   UNL A   1      41.526  25.327  25.001  1.00  0.00    -0.200 F 
ENDBRANCH  25  49
BRANCH  37  60
ATOM     60  C   UNL A   1      44.049  28.061  34.535  1.00  0.00     0.064 A 
ATOM     61  C   UNL A   1      45.335  28.617  34.540  1.00  0.00     0.173 A 
ATOM     62  C   UNL A   1      43.847  26.856  35.226  1.00  0.00     0.173 A 
ATOM     63  F   UNL A   1      45.578  29.761  33.884  1.00  0.00    -0.203 F 
ATOM     64  C   UNL A   1      46.379  27.995  35.221  1.00  0.00     0.198 A 
ATOM     65  C   UNL A   1      44.885  26.252  35.926  1.00  0.00     0.198 A 
ATOM     66  F   UNL A   1      42.629  26.292  35.259  1.00  0.00    -0.203 F 
ATOM     67  F   UNL A   1      47.604  28.537  35.204  1.00  0.00    -0.200 F 
ATOM     68  C   UNL A   1      46.150  26.821  35.924  1.00  0.00     0.200 A 
ATOM     69  F   UNL A   1      44.658  25.128  36.621  1.00  0.00    -0.200 F 
ATOM     70  F   UNL A   1      47.148  26.243  36.606  1.00  0.00    -0.200 F 
ENDBRANCH  37  60
ENDBRANCH  11  12
ENDBRANCH   4   6
ENDBRANCH   1   2
BRANCH   1  71
ATOM     71  C   UNL A   1      31.234  31.800  26.501  1.00  0.00     0.023 C 
BRANCH  71  72
ATOM     72  C   UNL A   1      31.377  30.481  25.748  1.00  0.00     0.023 C 
BRANCH  72  73
ATOM     73  C   UNL A   1      32.780  29.887  25.729  1.00  0.00     0.116 C 
BRANCH  73  74
ATOM     74  N   UNL A   1      33.278  29.639  24.386  1.00  0.00    -0.352 N 
ATOM     75  C   UNL A   1      32.967  28.621  23.523  1.00  0.00     0.255 C 
ATOM     76  H   UNL A   1      33.929  30.295  24.047  1.00  0.00     0.163 HD
ATOM     77  O   UNL A   1      33.471  28.591  22.403  1.00  0.00    -0.269 OA
BRANCH  75  78
ATOM     78  C   UNL A   1      31.991  27.603  23.969  1.00  0.00     0.083 A 
ATOM     79  C   UNL A   1      30.688  27.836  23.737  1.00  0.00     0.019 A 
ATOM     80  C   UNL A   1      32.413  26.331  24.638  1.00  0.00     0.153 A 
ATOM     81  C   UNL A   1      29.683  26.947  24.250  1.00  0.00     0.019 A 
ATOM     82  N   UNL A   1      31.383  25.514  25.120  1.00  0.00    -0.267 N 
ATOM     83  N   UNL A   1      33.671  26.039  24.766  1.00  0.00    -0.229 NA
ATOM     84  C   UNL A   1      30.048  25.853  24.927  1.00  0.00     0.096 A 
ATOM     85  C   UNL A   1      31.669  24.336  25.816  1.00  0.00     0.265 A 
ATOM     86  C   UNL A   1      34.030  24.823  25.353  1.00  0.00     0.080 A 
ATOM     87  O   UNL A   1      30.827  23.612  26.345  1.00  0.00    -0.268 OA
ATOM     88  C   UNL A   1      33.089  23.954  25.899  1.00  0.00     0.066 A 
ATOM     89  C   UNL A   1      35.379  24.459  25.376  1.00  0.00     0.049 A 
ATOM     90  C   UNL A   1      33.476  22.739  26.479  1.00  0.00     0.017 A 
ATOM     91  C   UNL A   1      35.770  23.244  25.942  1.00  0.00     0.043 A 
ATOM     92  C   UNL A   1      34.825  22.384  26.498  1.00  0.00     0.021 A 
ATOM     93  Cl  UNL A   1      37.432  22.798  25.948  1.00  0.00    -0.084 Cl
ENDBRANCH  75  78
ENDBRANCH  73  74
ENDBRANCH  72  73
ENDBRANCH  71  72
ENDBRANCH   1  71
TORSDOF 11
ENDMDL
MODEL 2
REMARK VINA RESULT:     -13.2      5.233     10.803
REMARK SMILES O=C(NCCCCNC(=O)c1cccn2c(=O)c3ccc(Cl)cc3nc12)c1ccc(-c2c3nc(c(-c4c(F)c(F)c(F)c(F)c4F)c4ccc([nH]4)c(-c4c(F)c(F)c(F)c(F)c4F)c4nc(c(-c5c(F)c(F)c(F)c(F)c5F)c5ccc2[nH]5)C=C4)C=C3)cc1
REMARK SMILES IDX 4 1 3 2 1 3 2 4 27 6 28 7 89 8 29 9 88 10 30 11 31 12 32 13
REMARK SMILES IDX 82 14 33 15 87 16 81 17 83 18 34 19 86 20 80 21 79 22 35 24
REMARK SMILES IDX 67 25 47 26 66 27 48 28 51 29 65 30 84 31 49 32 50 33 64 35
REMARK SMILES IDX 85 36 52 37 36 38 37 39 45 40 38 41 39 42 43 43 46 44 40 45
REMARK SMILES IDX 41 46 44 47 42 48 68 49 69 50 77 51 70 52 71 53 75 54 78 55
REMARK SMILES IDX 72 56 73 57 76 58 74 59 53 60 54 61 62 62 55 63 56 64 60 65
REMARK SMILES IDX 63 66 57 67 58 68 61 69 59 70 5 71 6 72 7 73 8 74 9 75 10 77
REMARK SMILES IDX 11 78 12 79 26 80 13 81 15 82 25 83 14 84 16 85 24 86 17 87
REMARK SMILES IDX 18 88 23 89 19 90 21 91 20 92 22 93
REMARK H PARENT 3 5 83 23 51 34 8 76
REMARK Flexibility Score: inf
ROOT
ATOM      1  C   UNL A   1      38.916  20.161  25.776  1.00  0.00     0.116 C 
ENDROOT
BRANCH   1   2
ATOM      2  N   UNL A   1      40.022  19.223  25.866  1.00  0.00    -0.352 N 
ATOM      3  O   UNL A   1      42.152  18.509  25.968  1.00  0.00    -0.269 OA
ATOM      4  C   UNL A   1      41.362  19.449  26.060  1.00  0.00     0.251 C 
ATOM      5  H   UNL A   1      39.770  18.276  25.773  1.00  0.00     0.163 HD
BRANCH   4   6
ATOM      6  C   UNL A   1      41.873  20.805  26.360  1.00  0.00     0.039 A 
ATOM      7  C   UNL A   1      42.227  21.111  27.678  1.00  0.00     0.014 A 
ATOM      8  C   UNL A   1      41.955  21.793  25.376  1.00  0.00     0.014 A 
ATOM      9  C   UNL A   1      42.677  22.392  28.001  1.00  0.00     0.010 A 
ATOM     10  C   UNL A   1      42.503  23.036  25.676  1.00  0.00     0.010 A 
ATOM     11  C   UNL A   1      42.826  23.365  26.999  1.00  0.00    -0.014 A 
BRANCH  11  12
ATOM     12  C   UNL A   1      43.206  24.760  27.340  1.00  0.00     0.031 A 
ATOM     13  C   UNL A   1      44.592  25.251  27.018  1.00  0.00     0.074 A 
ATOM     14  C   UNL A   1      42.322  25.580  27.939  1.00  0.00     0.049 A 
ATOM     15  N   UNL A   1      45.126  26.427  27.231  1.00  0.00    -0.248 NA
ATOM     16  C   UNL A   1      45.516  24.283  26.404  1.00  0.00     0.031 C 
ATOM     17  C   UNL A   1      40.965  25.211  28.339  1.00  0.00     0.029 A 
ATOM     18  N   UNL A   1      42.433  26.899  28.306  1.00  0.00    -0.354 N 
ATOM     19  C   UNL A   1      46.439  26.329  26.790  1.00  0.00     0.074 A 
ATOM     20  C   UNL A   1      46.650  24.964  26.373  1.00  0.00     0.031 C 
ATOM     21  C   UNL A   1      40.351  26.290  28.853  1.00  0.00     0.029 A 
ATOM     22  C   UNL A   1      41.281  27.418  28.846  1.00  0.00     0.049 A 
ATOM     23  H   UNL A   1      43.258  27.422  28.193  1.00  0.00     0.167 HD
ATOM     24  C   UNL A   1      47.376  27.302  26.696  1.00  0.00     0.037 A 
ATOM     25  C   UNL A   1      41.005  28.665  29.274  1.00  0.00     0.037 A 
ATOM     26  C   UNL A   1      47.148  28.674  27.057  1.00  0.00     0.049 A 
ATOM     27  C   UNL A   1      42.065  29.729  29.178  1.00  0.00     0.074 A 
ATOM     28  C   UNL A   1      48.001  29.753  26.921  1.00  0.00     0.029 A 
ATOM     29  N   UNL A   1      45.977  29.153  27.625  1.00  0.00    -0.354 N 
ATOM     30  N   UNL A   1      43.278  29.644  28.685  1.00  0.00    -0.248 NA
ATOM     31  C   UNL A   1      41.723  31.061  29.698  1.00  0.00     0.031 C 
ATOM     32  C   UNL A   1      47.363  30.878  27.448  1.00  0.00     0.029 A 
ATOM     33  C   UNL A   1      46.097  30.508  27.877  1.00  0.00     0.049 A 
ATOM     34  H   UNL A   1      45.178  28.609  27.819  1.00  0.00     0.167 HD
ATOM     35  C   UNL A   1      43.837  30.906  28.825  1.00  0.00     0.074 A 
ATOM     36  C   UNL A   1      42.827  31.747  29.433  1.00  0.00     0.031 C 
ATOM     37  C   UNL A   1      45.079  31.327  28.484  1.00  0.00     0.037 A 
BRANCH  24  38
ATOM     38  C   UNL A   1      48.722  26.920  26.156  1.00  0.00     0.064 A 
ATOM     39  C   UNL A   1      49.034  27.065  24.795  1.00  0.00     0.173 A 
ATOM     40  C   UNL A   1      49.722  26.432  27.010  1.00  0.00     0.173 A 
ATOM     41  F   UNL A   1      48.108  27.516  23.935  1.00  0.00    -0.203 F 
ATOM     42  C   UNL A   1      50.284  26.703  24.304  1.00  0.00     0.198 A 
ATOM     43  C   UNL A   1      50.983  26.101  26.520  1.00  0.00     0.198 A 
ATOM     44  F   UNL A   1      49.478  26.280  28.320  1.00  0.00    -0.203 F 
ATOM     45  F   UNL A   1      50.540  26.798  22.991  1.00  0.00    -0.200 F 
ATOM     46  C   UNL A   1      51.260  26.228  25.166  1.00  0.00     0.200 A 
ATOM     47  F   UNL A   1      51.929  25.654  27.357  1.00  0.00    -0.200 F 
ATOM     48  F   UNL A   1      52.466  25.885  24.692  1.00  0.00    -0.200 F 
ENDBRANCH  24  38
BRANCH  25  49
ATOM     49  C   UNL A   1      39.645  28.978  29.783  1.00  0.00     0.064 A 
ATOM     50  C   UNL A   1      39.325  28.776  31.133  1.00  0.00     0.173 A 
ATOM     51  C   UNL A   1      38.657  29.522  28.952  1.00  0.00     0.173 A 
ATOM     52  F   UNL A   1      40.232  28.239  31.964  1.00  0.00    -0.203 F 
ATOM     53  C   UNL A   1      38.067  29.108  31.631  1.00  0.00     0.198 A 
ATOM     54  C   UNL A   1      37.406  29.875  29.456  1.00  0.00     0.198 A 
ATOM     55  F   UNL A   1      38.916  29.737  27.653  1.00  0.00    -0.203 F 
ATOM     56  F   UNL A   1      37.780  28.886  32.922  1.00  0.00    -0.200 F 
ATOM     57  C   UNL A   1      37.112  29.666  30.795  1.00  0.00     0.200 A 
ATOM     58  F   UNL A   1      36.491  30.427  28.648  1.00  0.00    -0.200 F 
ATOM     59  F   UNL A   1      35.908  30.002  31.279  1.00  0.00    -0.200 F 
ENDBRANCH  25  49
BRANCH  37  60
ATOM     60  C   UNL A   1      45.440  32.755  28.764  1.00  0.00     0.064 A 
ATOM     61  C   UNL A   1      46.147  33.107  29.922  1.00  0.00     0.173 A 
ATOM     62  C   UNL A   1      45.193  33.755  27.812  1.00  0.00     0.173 A 
ATOM     63  F   UNL A   1      46.396  32.187  30.866  1.00  0.00    -0.203 F 
ATOM     64  C   UNL A   1      46.600  34.409  30.114  1.00  0.00     0.198 A 
ATOM     65  C   UNL A   1      45.669  35.049  27.995  1.00  0.00     0.198 A 
ATOM     66  F   UNL A   1      44.529  33.463  26.682  1.00  0.00    -0.203 F 
ATOM     67  F   UNL A   1      47.264  34.728  31.233  1.00  0.00    -0.200 F 
ATOM     68  C   UNL A   1      46.373  35.375  29.144  1.00  0.00     0.200 A 
ATOM     69  F   UNL A   1      45.466  35.977  27.048  1.00  0.00    -0.200 F 
ATOM     70  F   UNL A   1      46.839  36.620  29.315  1.00  0.00    -0.200 F 
ENDBRANCH  37  60
ENDBRANCH  11  12
ENDBRANCH   4   6
ENDBRANCH   1   2
BRANCH   1  71
ATOM     71  C   UNL A   1      37.897  19.783  24.711  1.00  0.00     0.023 C 
BRANCH  71  72
ATOM     72  C   UNL A   1      36.458  20.199  25.002  1.00  0.00     0.023 C 
BRANCH  72  73
ATOM     73  C   UNL A   1      36.292  21.564  25.660  1.00  0.00     0.116 C 
BRANCH  73  74
ATOM     74  N   UNL A   1      35.178  21.617  26.593  1.00  0.00    -0.352 N 
ATOM     75  C   UNL A   1      33.882  22.003  26.370  1.00  0.00     0.255 C 
ATOM     76  H   UNL A   1      35.382  21.335  27.514  1.00  0.00     0.163 HD
ATOM     77  O   UNL A   1      33.062  21.953  27.283  1.00  0.00    -0.269 OA
BRANCH  75  78
ATOM     78  C   UNL A   1      33.508  22.434  25.005  1.00  0.00     0.083 A 
ATOM     79  C   UNL A   1      33.131  21.488  24.127  1.00  0.00     0.019 A 
ATOM     80  C   UNL A   1      33.515  23.873  24.592  1.00  0.00     0.153 A 
ATOM     81  C   UNL A   1      32.872  21.825  22.755  1.00  0.00     0.019 A 
ATOM     82  N   UNL A   1      33.261  24.131  23.240  1.00  0.00    -0.267 N 
ATOM     83  N   UNL A   1      33.766  24.806  25.458  1.00  0.00    -0.229 NA
ATOM     84  C   UNL A   1      32.962  23.098  22.356  1.00  0.00     0.096 A 
ATOM     85  C   UNL A   1      33.307  25.434  22.737  1.00  0.00     0.265 A 
ATOM     86  C   UNL A   1      33.719  26.142  25.051  1.00  0.00     0.080 A 
ATOM     87  O   UNL A   1      33.182  25.734  21.550  1.00  0.00    -0.268 OA
ATOM     88  C   UNL A   1      33.512  26.508  23.724  1.00  0.00     0.066 A 
ATOM     89  C   UNL A   1      33.866  27.145  26.013  1.00  0.00     0.049 A 
ATOM     90  C   UNL A   1      33.466  27.856  23.342  1.00  0.00     0.017 A 
ATOM     91  C   UNL A   1      33.810  28.489  25.642  1.00  0.00     0.043 A 
ATOM     92  C   UNL A   1      33.615  28.849  24.310  1.00  0.00     0.021 A 
ATOM     93  Cl  UNL A   1      33.975  29.715  26.838  1.00  0.00    -0.084 Cl
ENDBRANCH  75  78
ENDBRANCH  73  74
ENDBRANCH  72  73
ENDBRANCH  71  72
ENDBRANCH   1  71
TORSDOF 11
ENDMDL
MODEL 3
REMARK VINA RESULT:     -13.2      1.690      2.724
REMARK SMILES O=C(NCCCCNC(=O)c1cccn2c(=O)c3ccc(Cl)cc3nc12)c1ccc(-c2c3nc(c(-c4c(F)c(F)c(F)c(F)c4F)c4ccc([nH]4)c(-c4c(F)c(F)c(F)c(F)c4F)c4nc(c(-c5c(F)c(F)c(F)c(F)c5F)c5ccc2[nH]5)C=C4)C=C3)cc1
REMARK SMILES IDX 4 1 3 2 1 3 2 4 27 6 28 7 89 8 29 9 88 10 30 11 31 12 32 13
REMARK SMILES IDX 82 14 33 15 87 16 81 17 83 18 34 19 86 20 80 21 79 22 35 24
REMARK SMILES IDX 67 25 47 26 66 27 48 28 51 29 65 30 84 31 49 32 50 33 64 35
REMARK SMILES IDX 85 36 52 37 36 38 37 39 45 40 38 41 39 42 43 43 46 44 40 45
REMARK SMILES IDX 41 46 44 47 42 48 68 49 69 50 77 51 70 52 71 53 75 54 78 55
REMARK SMILES IDX 72 56 73 57 76 58 74 59 53 60 54 61 62 62 55 63 56 64 60 65
REMARK SMILES IDX 63 66 57 67 58 68 61 69 59 70 5 71 6 72 7 73 8 74 9 75 10 77
REMARK SMILES IDX 11 78 12 79 26 80 13 81 15 82 25 83 14 84 16 85 24 86 17 87
REMARK SMILES IDX 18 88 23 89 19 90 21 91 20 92 22 93
REMARK H PARENT 3 5 83 23 51 34 8 76
REMARK Flexibility Score: inf
ROOT
ATOM      1  C   UNL A   1      32.989  29.588  25.874  1.00  0.00     0.116 C 
ENDROOT
BRANCH   1   2
ATOM      2  N   UNL A   1      32.704  30.937  26.329  1.00  0.00    -0.352 N 
ATOM      3  O   UNL A   1      32.870  32.799  27.579  1.00  0.00    -0.269 OA
ATOM      4  C   UNL A   1      33.365  31.725  27.239  1.00  0.00     0.251 C 
ATOM      5  H   UNL A   1      31.911  31.353  25.920  1.00  0.00     0.163 HD
BRANCH   4   6
ATOM      6  C   UNL A   1      34.653  31.295  27.828  1.00  0.00     0.039 A 
ATOM      7  C   UNL A   1      34.773  29.982  28.290  1.00  0.00     0.014 A 
ATOM      8  C   UNL A   1      35.721  32.182  27.982  1.00  0.00     0.014 A 
ATOM      9  C   UNL A   1      35.963  29.556  28.884  1.00  0.00     0.010 A 
ATOM     10  C   UNL A   1      36.940  31.731  28.476  1.00  0.00     0.010 A 
ATOM     11  C   UNL A   1      37.061  30.427  28.976  1.00  0.00    -0.014 A 
BRANCH  11  12
ATOM     12  C   UNL A   1      38.296  30.024  29.694  1.00  0.00     0.031 A 
ATOM     13  C   UNL A   1      38.541  30.529  31.091  1.00  0.00     0.074 A 
ATOM     14  C   UNL A   1      39.198  29.219  29.101  1.00  0.00     0.049 A 
ATOM     15  N   UNL A   1      39.551  30.300  31.891  1.00  0.00    -0.248 NA
ATOM     16  C   UNL A   1      37.532  31.441  31.656  1.00  0.00     0.031 C 
ATOM     17  C   UNL A   1      39.096  28.698  27.739  1.00  0.00     0.029 A 
ATOM     18  N   UNL A   1      40.373  28.690  29.575  1.00  0.00    -0.354 N 
ATOM     19  C   UNL A   1      39.301  31.045  33.036  1.00  0.00     0.074 A 
ATOM     20  C   UNL A   1      38.090  31.795  32.802  1.00  0.00     0.031 C 
ATOM     21  C   UNL A   1      40.140  27.885  27.501  1.00  0.00     0.029 A 
ATOM     22  C   UNL A   1      40.999  27.853  28.683  1.00  0.00     0.049 A 
ATOM     23  H   UNL A   1      40.733  28.892  30.468  1.00  0.00     0.167 HD
ATOM     24  C   UNL A   1      39.992  31.068  34.200  1.00  0.00     0.037 A 
ATOM     25  C   UNL A   1      42.130  27.133  28.812  1.00  0.00     0.037 A 
ATOM     26  C   UNL A   1      41.164  30.277  34.453  1.00  0.00     0.049 A 
ATOM     27  C   UNL A   1      42.894  27.185  30.107  1.00  0.00     0.074 A 
ATOM     28  C   UNL A   1      41.888  30.162  35.625  1.00  0.00     0.029 A 
ATOM     29  N   UNL A   1      41.781  29.463  33.515  1.00  0.00    -0.354 N 
ATOM     30  N   UNL A   1      42.605  27.832  31.211  1.00  0.00    -0.248 NA
ATOM     31  C   UNL A   1      44.143  26.412  30.177  1.00  0.00     0.031 C 
ATOM     32  C   UNL A   1      42.971  29.313  35.384  1.00  0.00     0.029 A 
ATOM     33  C   UNL A   1      42.899  28.867  34.072  1.00  0.00     0.049 A 
ATOM     34  H   UNL A   1      41.469  29.328  32.590  1.00  0.00     0.167 HD
ATOM     35  C   UNL A   1      43.624  27.537  32.106  1.00  0.00     0.074 A 
ATOM     36  C   UNL A   1      44.532  26.638  31.425  1.00  0.00     0.031 C 
ATOM     37  C   UNL A   1      43.792  27.976  33.377  1.00  0.00     0.037 A 
BRANCH  24  38
ATOM     38  C   UNL A   1      39.479  31.956  35.295  1.00  0.00     0.064 A 
ATOM     39  C   UNL A   1      38.597  31.477  36.275  1.00  0.00     0.173 A 
ATOM     40  C   UNL A   1      39.896  33.293  35.384  1.00  0.00     0.173 A 
ATOM     41  F   UNL A   1      38.160  30.209  36.228  1.00  0.00    -0.203 F 
ATOM     42  C   UNL A   1      38.124  32.311  37.284  1.00  0.00     0.198 A 
ATOM     43  C   UNL A   1      39.445  34.116  36.413  1.00  0.00     0.198 A 
ATOM     44  F   UNL A   1      40.743  33.800  34.475  1.00  0.00    -0.203 F 
ATOM     45  F   UNL A   1      37.239  31.845  38.177  1.00  0.00    -0.200 F 
ATOM     46  C   UNL A   1      38.553  33.627  37.356  1.00  0.00     0.200 A 
ATOM     47  F   UNL A   1      39.871  35.384  36.489  1.00  0.00    -0.200 F 
ATOM     48  F   UNL A   1      38.101  34.427  38.332  1.00  0.00    -0.200 F 
ENDBRANCH  24  38
BRANCH  25  49
ATOM     49  C   UNL A   1      42.572  26.262  27.693  1.00  0.00     0.064 A 
ATOM     50  C   UNL A   1      42.012  24.989  27.515  1.00  0.00     0.173 A 
ATOM     51  C   UNL A   1      43.524  26.693  26.759  1.00  0.00     0.173 A 
ATOM     52  F   UNL A   1      41.111  24.524  28.394  1.00  0.00    -0.203 F 
ATOM     53  C   UNL A   1      42.386  24.182  26.443  1.00  0.00     0.198 A 
ATOM     54  C   UNL A   1      43.881  25.894  25.674  1.00  0.00     0.198 A 
ATOM     55  F   UNL A   1      44.086  27.904  26.884  1.00  0.00    -0.203 F 
ATOM     56  F   UNL A   1      41.850  22.961  26.306  1.00  0.00    -0.200 F 
ATOM     57  C   UNL A   1      43.313  24.638  25.517  1.00  0.00     0.200 A 
ATOM     58  F   UNL A   1      44.767  26.345  24.775  1.00  0.00    -0.200 F 
ATOM     59  F   UNL A   1      43.660  23.869  24.477  1.00  0.00    -0.200 F 
ENDBRANCH  25  49
BRANCH  37  60
ATOM     60  C   UNL A   1      45.004  27.513  34.127  1.00  0.00     0.064 A 
ATOM     61  C   UNL A   1      44.994  26.307  34.839  1.00  0.00     0.173 A 
ATOM     62  C   UNL A   1      46.218  28.211  34.025  1.00  0.00     0.173 A 
ATOM     63  F   UNL A   1      43.855  25.611  34.973  1.00  0.00    -0.203 F 
ATOM     64  C   UNL A   1      46.159  25.810  35.419  1.00  0.00     0.198 A 
ATOM     65  C   UNL A   1      47.384  27.699  34.584  1.00  0.00     0.198 A 
ATOM     66  F   UNL A   1      46.278  29.365  33.344  1.00  0.00    -0.203 F 
ATOM     67  F   UNL A   1      46.126  24.660  36.106  1.00  0.00    -0.200 F 
ATOM     68  C   UNL A   1      47.354  26.500  35.280  1.00  0.00     0.200 A 
ATOM     69  F   UNL A   1      48.542  28.357  34.432  1.00  0.00    -0.200 F 
ATOM     70  F   UNL A   1      48.481  26.004  35.811  1.00  0.00    -0.200 F 
ENDBRANCH  37  60
ENDBRANCH  11  12
ENDBRANCH   4   6
ENDBRANCH   1   2
BRANCH   1  71
ATOM     71  C   UNL A   1      32.349  29.261  24.532  1.00  0.00     0.023 C 
BRANCH  71  72
ATOM     72  C   UNL A   1      33.314  29.136  23.357  1.00  0.00     0.023 C 
BRANCH  72  73
ATOM     73  C   UNL A   1      33.881  27.741  23.121  1.00  0.00     0.116 C 
BRANCH  73  74
ATOM     74  N   UNL A   1      33.318  27.087  21.951  1.00  0.00    -0.352 N 
ATOM     75  C   UNL A   1      32.249  26.235  21.867  1.00  0.00     0.255 C 
ATOM     76  H   UNL A   1      33.769  27.284  21.097  1.00  0.00     0.163 HD
ATOM     77  O   UNL A   1      31.897  25.798  20.774  1.00  0.00    -0.269 OA
BRANCH  75  78
ATOM     78  C   UNL A   1      31.525  25.901  23.113  1.00  0.00     0.083 A 
ATOM     79  C   UNL A   1      30.318  26.459  23.310  1.00  0.00     0.019 A 
ATOM     80  C   UNL A   1      32.082  24.954  24.131  1.00  0.00     0.153 A 
ATOM     81  C   UNL A   1      29.618  26.272  24.549  1.00  0.00     0.019 A 
ATOM     82  N   UNL A   1      31.353  24.822  25.319  1.00  0.00    -0.267 N 
ATOM     83  N   UNL A   1      33.190  24.319  23.903  1.00  0.00    -0.229 NA
ATOM     84  C   UNL A   1      30.150  25.498  25.501  1.00  0.00     0.096 A 
ATOM     85  C   UNL A   1      31.818  24.013  26.359  1.00  0.00     0.265 A 
ATOM     86  C   UNL A   1      33.659  23.408  24.853  1.00  0.00     0.080 A 
ATOM     87  O   UNL A   1      31.283  23.914  27.463  1.00  0.00    -0.268 OA
ATOM     88  C   UNL A   1      33.032  23.228  26.084  1.00  0.00     0.066 A 
ATOM     89  C   UNL A   1      34.784  22.637  24.550  1.00  0.00     0.049 A 
ATOM     90  C   UNL A   1      33.520  22.304  27.017  1.00  0.00     0.017 A 
ATOM     91  C   UNL A   1      35.269  21.707  25.470  1.00  0.00     0.043 A 
ATOM     92  C   UNL A   1      34.645  21.540  26.705  1.00  0.00     0.021 A 
ATOM     93  Cl  UNL A   1      36.645  20.751  25.078  1.00  0.00    -0.084 Cl
ENDBRANCH  75  78
ENDBRANCH  73  74
ENDBRANCH  72  73
ENDBRANCH  71  72
ENDBRANCH   1  71
TORSDOF 11
ENDMDL
