MODEL 1
REMARK VINA RESULT:     -12.0      0.000      0.000
REMARK SMILES C[C@H]1C[NH+](CC[C@@H]2CCC[C@]2([NH3+])C(=O)NCCCCNC(=O)c2ccc(-c3c4nc(c(-c5c(F)c(F)c(F)c(F)c5F)c5ccc([nH]5)c(-c5c(F)c(F)c(F)c(F)c5F)c5nc(c(-c6c(F)c(F)c(F)c(F)c6F)c6ccc3[nH]6)C=C5)C=C4)cc2)C[C@H](C)O1
REMARK SMILES IDX 17 1 16 2 15 3 13 4 14 5 11 7 7 8 8 9 9 10 10 11 6 12 5 13
REMARK SMILES IDX 4 14 1 15 2 16 3 17 89 18 87 19 86 20 88 22 12 23 18 27
REMARK SMILES IDX 19 28 20 29 21 30 22 32 23 33 24 34 85 35 25 36 84 37 26 38
REMARK SMILES IDX 27 39 28 40 78 41 29 42 83 43 77 44 79 45 30 46 82 47 76 48
REMARK SMILES IDX 75 49 31 51 63 52 43 53 62 54 44 55 47 56 61 57 80 58 45 59
REMARK SMILES IDX 46 60 60 62 81 63 48 64 32 65 33 66 41 67 34 68 35 69 39 70
REMARK SMILES IDX 42 71 36 72 37 73 40 74 38 75 64 76 65 77 73 78 66 79 67 80
REMARK SMILES IDX 71 81 74 82 68 83 69 84 72 85 70 86 49 87 50 88 58 89 51 90
REMARK SMILES IDX 52 91 56 92 59 93 53 94 54 95 57 96 55 97
REMARK H PARENT 15 6 4 21 12 24 12 25 12 26 20 31 79 50 47 61
REMARK Flexibility Score: inf
ROOT
ATOM      1  C   UNL A   1      37.389  22.014  24.666  1.00  0.00     0.023 C 
ENDROOT
BRANCH   1   2
ATOM      2  C   UNL A   1      36.772  22.926  25.727  1.00  0.00     0.116 C 
BRANCH   2   3
ATOM      3  N   UNL A   1      35.868  22.170  26.565  1.00  0.00    -0.351 N 
ATOM      4  C   UNL A   1      34.520  21.996  26.550  1.00  0.00     0.281 C 
ATOM      5  O   UNL A   1      34.080  21.366  27.523  1.00  0.00    -0.268 OA
ATOM      6  H   UNL A   1      36.320  21.683  27.292  1.00  0.00     0.163 HD
BRANCH   4   7
ATOM      7  C   UNL A   1      33.556  22.495  25.398  1.00  0.00     0.177 C 
ATOM      8  C   UNL A   1      33.235  24.018  25.322  1.00  0.00     0.066 C 
ATOM      9  C   UNL A   1      32.421  24.237  26.611  1.00  0.00     0.011 C 
ATOM     10  C   UNL A   1      31.558  22.984  26.752  1.00  0.00     0.008 C 
ATOM     11  C   UNL A   1      32.129  21.975  25.748  1.00  0.00     0.079 C 
BRANCH   8  12
ATOM     12  C   UNL A   1      34.302  25.106  25.169  1.00  0.00     0.072 C 
BRANCH  12  13
ATOM     13  C   UNL A   1      33.942  26.395  24.417  1.00  0.00     0.262 C 
BRANCH  13  14
ATOM     14  N   UNL A   1      32.991  27.376  24.907  1.00  0.00    -0.331 N 
ATOM     15  C   UNL A   1      30.180  29.573  23.583  1.00  0.00     0.045 C 
ATOM     16  C   UNL A   1      31.027  28.804  24.585  1.00  0.00     0.170 C 
ATOM     17  C   UNL A   1      32.192  28.062  23.888  1.00  0.00     0.294 C 
ATOM     18  O   UNL A   1      31.513  29.748  25.558  1.00  0.00    -0.364 OA
ATOM     19  C   UNL A   1      32.363  29.134  26.545  1.00  0.00     0.170 C 
ATOM     20  C   UNL A   1      33.503  28.333  25.884  1.00  0.00     0.294 C 
ATOM     21  H   UNL A   1      32.356  26.757  25.410  1.00  0.00     0.348 HD
ATOM     22  C   UNL A   1      31.557  28.299  27.541  1.00  0.00     0.045 C 
ENDBRANCH  13  14
ENDBRANCH  12  13
ENDBRANCH   8  12
BRANCH   7  23
ATOM     23  N   UNL A   1      33.944  21.892  24.112  1.00  0.00    -0.345 N 
ATOM     24  H   UNL A   1      34.694  21.218  24.265  1.00  0.00     0.345 HD
ATOM     25  H   UNL A   1      34.266  22.623  23.478  1.00  0.00     0.345 HD
ATOM     26  H   UNL A   1      33.137  21.418  23.703  1.00  0.00     0.345 HD
ENDBRANCH   7  23
ENDBRANCH   4   7
ENDBRANCH   2   3
ENDBRANCH   1   2
BRANCH   1  27
ATOM     27  C   UNL A   1      37.903  20.682  25.190  1.00  0.00     0.023 C 
BRANCH  27  28
ATOM     28  C   UNL A   1      39.262  20.797  25.858  1.00  0.00     0.116 C 
BRANCH  28  29
ATOM     29  N   UNL A   1      40.031  19.555  25.853  1.00  0.00    -0.352 N 
ATOM     30  C   UNL A   1      41.378  19.394  26.083  1.00  0.00     0.251 C 
ATOM     31  H   UNL A   1      39.524  18.733  25.659  1.00  0.00     0.163 HD
ATOM     32  O   UNL A   1      41.916  18.298  25.985  1.00  0.00    -0.269 OA
BRANCH  30  33
ATOM     33  C   UNL A   1      42.176  20.595  26.391  1.00  0.00     0.039 A 
ATOM     34  C   UNL A   1      42.669  21.364  25.337  1.00  0.00     0.014 A 
ATOM     35  C   UNL A   1      42.310  21.021  27.714  1.00  0.00     0.014 A 
ATOM     36  C   UNL A   1      43.216  22.618  25.607  1.00  0.00     0.010 A 
ATOM     37  C   UNL A   1      42.761  22.307  27.969  1.00  0.00     0.010 A 
ATOM     38  C   UNL A   1      43.214  23.120  26.920  1.00  0.00    -0.014 A 
BRANCH  38  39
ATOM     39  C   UNL A   1      43.682  24.492  27.227  1.00  0.00     0.031 A 
ATOM     40  C   UNL A   1      42.710  25.503  27.766  1.00  0.00     0.074 A 
ATOM     41  C   UNL A   1      44.946  24.853  26.929  1.00  0.00     0.049 A 
ATOM     42  N   UNL A   1      42.880  26.781  27.986  1.00  0.00    -0.248 NA
ATOM     43  C   UNL A   1      41.349  25.020  28.052  1.00  0.00     0.031 C 
ATOM     44  C   UNL A   1      45.960  23.981  26.333  1.00  0.00     0.029 A 
ATOM     45  N   UNL A   1      45.589  26.055  27.077  1.00  0.00    -0.354 N 
ATOM     46  C   UNL A   1      41.644  27.257  28.399  1.00  0.00     0.074 A 
ATOM     47  C   UNL A   1      40.719  26.145  28.347  1.00  0.00     0.031 C 
ATOM     48  C   UNL A   1      47.105  24.670  26.195  1.00  0.00     0.029 A 
ATOM     49  C   UNL A   1      46.897  26.037  26.660  1.00  0.00     0.049 A 
ATOM     50  H   UNL A   1      45.153  26.857  27.446  1.00  0.00     0.167 HD
ATOM     51  C   UNL A   1      41.315  28.502  28.812  1.00  0.00     0.037 A 
ATOM     52  C   UNL A   1      47.822  27.015  26.660  1.00  0.00     0.037 A 
ATOM     53  C   UNL A   1      42.251  29.587  28.921  1.00  0.00     0.049 A 
ATOM     54  C   UNL A   1      47.450  28.374  27.187  1.00  0.00     0.074 A 
ATOM     55  C   UNL A   1      42.041  30.866  29.403  1.00  0.00     0.029 A 
ATOM     56  N   UNL A   1      43.587  29.511  28.553  1.00  0.00    -0.354 N 
ATOM     57  N   UNL A   1      46.293  28.796  27.637  1.00  0.00    -0.248 NA
ATOM     58  C   UNL A   1      48.511  29.389  27.213  1.00  0.00     0.031 C 
ATOM     59  C   UNL A   1      43.245  31.572  29.305  1.00  0.00     0.029 A 
ATOM     60  C   UNL A   1      44.212  30.721  28.794  1.00  0.00     0.049 A 
ATOM     61  H   UNL A   1      44.025  28.712  28.177  1.00  0.00     0.167 HD
ATOM     62  C   UNL A   1      46.493  30.113  28.025  1.00  0.00     0.074 A 
ATOM     63  C   UNL A   1      47.885  30.418  27.767  1.00  0.00     0.031 C 
ATOM     64  C   UNL A   1      45.604  30.993  28.546  1.00  0.00     0.037 A 
BRANCH  51  65
ATOM     65  C   UNL A   1      39.885  28.747  29.194  1.00  0.00     0.064 A 
ATOM     66  C   UNL A   1      39.422  28.507  30.498  1.00  0.00     0.173 A 
ATOM     67  C   UNL A   1      38.968  29.234  28.252  1.00  0.00     0.173 A 
ATOM     68  F   UNL A   1      40.256  28.023  31.431  1.00  0.00    -0.203 F 
ATOM     69  C   UNL A   1      38.087  28.713  30.833  1.00  0.00     0.198 A 
ATOM     70  C   UNL A   1      37.640  29.467  28.599  1.00  0.00     0.198 A 
ATOM     71  F   UNL A   1      39.359  29.481  26.993  1.00  0.00    -0.203 F 
ATOM     72  F   UNL A   1      37.657  28.421  32.069  1.00  0.00    -0.200 F 
ATOM     73  C   UNL A   1      37.199  29.198  29.886  1.00  0.00     0.200 A 
ATOM     74  F   UNL A   1      36.784  29.945  27.684  1.00  0.00    -0.200 F 
ATOM     75  F   UNL A   1      35.914  29.397  30.211  1.00  0.00    -0.200 F 
ENDBRANCH  51  65
BRANCH  52  76
ATOM     76  C   UNL A   1      49.203  26.732  26.193  1.00  0.00     0.064 A 
ATOM     77  C   UNL A   1      50.165  26.218  27.076  1.00  0.00     0.173 A 
ATOM     78  C   UNL A   1      49.591  26.963  24.866  1.00  0.00     0.173 A 
ATOM     79  F   UNL A   1      49.844  26.000  28.359  1.00  0.00    -0.203 F 
ATOM     80  C   UNL A   1      51.468  25.968  26.654  1.00  0.00     0.198 A 
ATOM     81  C   UNL A   1      50.890  26.689  24.440  1.00  0.00     0.198 A 
ATOM     82  F   UNL A   1      48.707  27.445  23.982  1.00  0.00    -0.203 F 
ATOM     83  F   UNL A   1      52.378  25.516  27.529  1.00  0.00    -0.200 F 
ATOM     84  C   UNL A   1      51.829  26.199  25.335  1.00  0.00     0.200 A 
ATOM     85  F   UNL A   1      51.233  26.903  23.162  1.00  0.00    -0.200 F 
ATOM     86  F   UNL A   1      53.082  25.957  24.929  1.00  0.00    -0.200 F 
ENDBRANCH  52  76
BRANCH  64  87
ATOM     87  C   UNL A   1      46.118  32.354  28.908  1.00  0.00     0.064 A 
ATOM     88  C   UNL A   1      46.657  32.619  30.173  1.00  0.00     0.173 A 
ATOM     89  C   UNL A   1      46.114  33.387  27.959  1.00  0.00     0.173 A 
ATOM     90  F   UNL A   1      46.668  31.666  31.116  1.00  0.00    -0.203 F 
ATOM     91  C   UNL A   1      47.160  33.880  30.483  1.00  0.00     0.198 A 
ATOM     92  C   UNL A   1      46.639  34.638  28.265  1.00  0.00     0.198 A 
ATOM     93  F   UNL A   1      45.612  33.177  26.732  1.00  0.00    -0.203 F 
ATOM     94  F   UNL A   1      47.639  34.125  31.711  1.00  0.00    -0.200 F 
ATOM     95  C   UNL A   1      47.158  34.885  29.527  1.00  0.00     0.200 A 
ATOM     96  F   UNL A   1      46.646  35.605  27.337  1.00  0.00    -0.200 F 
ATOM     97  F   UNL A   1      47.650  36.096  29.825  1.00  0.00    -0.200 F 
ENDBRANCH  64  87
ENDBRANCH  38  39
ENDBRANCH  30  33
ENDBRANCH  28  29
ENDBRANCH  27  28
ENDBRANCH   1  27
TORSDOF 15
ENDMDL
MODEL 2
REMARK VINA RESULT:     -11.9      4.791      8.951
REMARK SMILES C[C@H]1C[NH+](CC[C@@H]2CCC[C@]2([NH3+])C(=O)NCCCCNC(=O)c2ccc(-c3c4nc(c(-c5c(F)c(F)c(F)c(F)c5F)c5ccc([nH]5)c(-c5c(F)c(F)c(F)c(F)c5F)c5nc(c(-c6c(F)c(F)c(F)c(F)c6F)c6ccc3[nH]6)C=C5)C=C4)cc2)C[C@H](C)O1
REMARK SMILES IDX 17 1 16 2 15 3 13 4 14 5 11 7 7 8 8 9 9 10 10 11 6 12 5 13
REMARK SMILES IDX 4 14 1 15 2 16 3 17 89 18 87 19 86 20 88 22 12 23 18 27
REMARK SMILES IDX 19 28 20 29 21 30 22 32 23 33 24 34 85 35 25 36 84 37 26 38
REMARK SMILES IDX 27 39 28 40 78 41 29 42 83 43 77 44 79 45 30 46 82 47 76 48
REMARK SMILES IDX 75 49 31 51 63 52 43 53 62 54 44 55 47 56 61 57 80 58 45 59
REMARK SMILES IDX 46 60 60 62 81 63 48 64 32 65 33 66 41 67 34 68 35 69 39 70
REMARK SMILES IDX 42 71 36 72 37 73 40 74 38 75 64 76 65 77 73 78 66 79 67 80
REMARK SMILES IDX 71 81 74 82 68 83 69 84 72 85 70 86 49 87 50 88 58 89 51 90
REMARK SMILES IDX 52 91 56 92 59 93 53 94 54 95 57 96 55 97
REMARK H PARENT 15 6 4 21 12 24 12 25 12 26 20 31 79 50 47 61
REMARK Flexibility Score: inf
ROOT
ATOM      1  C   UNL A   1      32.225  27.644  26.873  1.00  0.00     0.023 C 
ENDROOT
BRANCH   1   2
ATOM      2  C   UNL A   1      31.216  26.699  26.221  1.00  0.00     0.116 C 
BRANCH   2   3
ATOM      3  N   UNL A   1      31.248  25.410  26.876  1.00  0.00    -0.351 N 
ATOM      4  C   UNL A   1      31.491  24.150  26.427  1.00  0.00     0.281 C 
ATOM      5  O   UNL A   1      31.303  23.266  27.275  1.00  0.00    -0.268 OA
ATOM      6  H   UNL A   1      31.056  25.454  27.841  1.00  0.00     0.163 HD
BRANCH   4   7
ATOM      7  C   UNL A   1      32.009  23.791  24.975  1.00  0.00     0.177 C 
ATOM      8  C   UNL A   1      32.751  22.435  24.777  1.00  0.00     0.066 C 
ATOM      9  C   UNL A   1      34.041  22.657  25.590  1.00  0.00     0.011 C 
ATOM     10  C   UNL A   1      34.423  24.114  25.337  1.00  0.00     0.008 C 
ATOM     11  C   UNL A   1      33.198  24.752  24.672  1.00  0.00     0.079 C 
BRANCH   8  12
ATOM     12  C   UNL A   1      32.135  21.072  25.106  1.00  0.00     0.072 C 
BRANCH  12  13
ATOM     13  C   UNL A   1      33.024  19.991  25.735  1.00  0.00     0.262 C 
BRANCH  13  14
ATOM     14  N   UNL A   1      33.157  18.646  25.203  1.00  0.00    -0.331 N 
ATOM     15  C   UNL A   1      32.151  15.085  26.093  1.00  0.00     0.045 C 
ATOM     16  C   UNL A   1      32.594  16.263  25.237  1.00  0.00     0.170 C 
ATOM     17  C   UNL A   1      32.689  17.562  26.071  1.00  0.00     0.294 C 
ATOM     18  O   UNL A   1      33.864  15.920  24.651  1.00  0.00    -0.364 OA
ATOM     19  C   UNL A   1      34.402  16.982  23.843  1.00  0.00     0.170 C 
ATOM     20  C   UNL A   1      34.455  18.311  24.624  1.00  0.00     0.294 C 
ATOM     21  H   UNL A   1      32.498  18.706  24.428  1.00  0.00     0.348 HD
ATOM     22  C   UNL A   1      33.657  17.110  22.513  1.00  0.00     0.045 C 
ENDBRANCH  13  14
ENDBRANCH  12  13
ENDBRANCH   8  12
BRANCH   7  23
ATOM     23  N   UNL A   1      30.958  24.059  23.978  1.00  0.00    -0.345 N 
ATOM     24  H   UNL A   1      30.085  24.280  24.456  1.00  0.00     0.345 HD
ATOM     25  H   UNL A   1      30.828  23.234  23.393  1.00  0.00     0.345 HD
ATOM     26  H   UNL A   1      31.238  24.849  23.395  1.00  0.00     0.345 HD
ENDBRANCH   7  23
ENDBRANCH   4   7
ENDBRANCH   2   3
ENDBRANCH   1   2
BRANCH   1  27
ATOM     27  C   UNL A   1      31.778  29.095  26.958  1.00  0.00     0.023 C 
BRANCH  27  28
ATOM     28  C   UNL A   1      32.780  30.057  26.344  1.00  0.00     0.116 C 
BRANCH  28  29
ATOM     29  N   UNL A   1      32.619  31.441  26.784  1.00  0.00    -0.352 N 
ATOM     30  C   UNL A   1      33.494  32.198  27.528  1.00  0.00     0.251 C 
ATOM     31  H   UNL A   1      31.782  31.884  26.516  1.00  0.00     0.163 HD
ATOM     32  O   UNL A   1      33.209  33.334  27.887  1.00  0.00    -0.269 OA
BRANCH  30  33
ATOM     33  C   UNL A   1      34.767  31.580  27.940  1.00  0.00     0.039 A 
ATOM     34  C   UNL A   1      35.889  32.394  28.101  1.00  0.00     0.014 A 
ATOM     35  C   UNL A   1      34.803  30.231  28.295  1.00  0.00     0.014 A 
ATOM     36  C   UNL A   1      37.027  31.870  28.714  1.00  0.00     0.010 A 
ATOM     37  C   UNL A   1      35.896  29.742  28.993  1.00  0.00     0.010 A 
ATOM     38  C   UNL A   1      37.017  30.557  29.214  1.00  0.00    -0.014 A 
BRANCH  38  39
ATOM     39  C   UNL A   1      38.166  30.005  29.970  1.00  0.00     0.031 A 
ATOM     40  C   UNL A   1      38.400  30.447  31.387  1.00  0.00     0.074 A 
ATOM     41  C   UNL A   1      39.047  29.191  29.355  1.00  0.00     0.049 A 
ATOM     42  N   UNL A   1      39.406  30.184  32.181  1.00  0.00    -0.248 NA
ATOM     43  C   UNL A   1      37.390  31.343  31.972  1.00  0.00     0.031 C 
ATOM     44  C   UNL A   1      38.967  28.752  27.960  1.00  0.00     0.029 A 
ATOM     45  N   UNL A   1      40.192  28.599  29.824  1.00  0.00    -0.354 N 
ATOM     46  C   UNL A   1      39.165  30.909  33.340  1.00  0.00     0.074 A 
ATOM     47  C   UNL A   1      37.951  31.666  33.127  1.00  0.00     0.031 C 
ATOM     48  C   UNL A   1      40.001  27.936  27.697  1.00  0.00     0.029 A 
ATOM     49  C   UNL A   1      40.832  27.821  28.890  1.00  0.00     0.049 A 
ATOM     50  H   UNL A   1      40.524  28.721  30.742  1.00  0.00     0.167 HD
ATOM     51  C   UNL A   1      39.878  30.921  34.490  1.00  0.00     0.037 A 
ATOM     52  C   UNL A   1      41.962  27.096  28.992  1.00  0.00     0.037 A 
ATOM     53  C   UNL A   1      41.050  30.120  34.719  1.00  0.00     0.049 A 
ATOM     54  C   UNL A   1      42.700  27.074  30.303  1.00  0.00     0.074 A 
ATOM     55  C   UNL A   1      41.801  29.997  35.873  1.00  0.00     0.029 A 
ATOM     56  N   UNL A   1      41.631  29.291  33.770  1.00  0.00    -0.354 N 
ATOM     57  N   UNL A   1      42.428  27.713  31.415  1.00  0.00    -0.248 NA
ATOM     58  C   UNL A   1      43.897  26.225  30.376  1.00  0.00     0.031 C 
ATOM     59  C   UNL A   1      42.852  29.110  35.616  1.00  0.00     0.029 A 
ATOM     60  C   UNL A   1      42.734  28.655  34.312  1.00  0.00     0.049 A 
ATOM     61  H   UNL A   1      41.305  29.172  32.848  1.00  0.00     0.167 HD
ATOM     62  C   UNL A   1      43.400  27.324  32.326  1.00  0.00     0.074 A 
ATOM     63  C   UNL A   1      44.263  26.384  31.640  1.00  0.00     0.031 C 
ATOM     64  C   UNL A   1      43.566  27.710  33.614  1.00  0.00     0.037 A 
BRANCH  51  65
ATOM     65  C   UNL A   1      39.394  31.817  35.592  1.00  0.00     0.064 A 
ATOM     66  C   UNL A   1      39.823  33.150  35.696  1.00  0.00     0.173 A 
ATOM     67  C   UNL A   1      38.486  31.343  36.548  1.00  0.00     0.173 A 
ATOM     68  F   UNL A   1      40.706  33.645  34.815  1.00  0.00    -0.203 F 
ATOM     69  C   UNL A   1      39.387  33.963  36.737  1.00  0.00     0.198 A 
ATOM     70  C   UNL A   1      38.028  32.170  37.572  1.00  0.00     0.198 A 
ATOM     71  F   UNL A   1      38.044  30.078  36.494  1.00  0.00    -0.203 F 
ATOM     72  F   UNL A   1      39.856  35.214  36.848  1.00  0.00    -0.200 F 
ATOM     73  C   UNL A   1      38.486  33.475  37.670  1.00  0.00     0.200 A 
ATOM     74  F   UNL A   1      37.150  31.699  38.468  1.00  0.00    -0.200 F 
ATOM     75  F   UNL A   1      38.065  34.260  38.672  1.00  0.00    -0.200 F 
ENDBRANCH  51  65
BRANCH  52  76
ATOM     76  C   UNL A   1      42.435  26.291  27.838  1.00  0.00     0.064 A 
ATOM     77  C   UNL A   1      43.392  26.808  26.952  1.00  0.00     0.173 A 
ATOM     78  C   UNL A   1      41.950  24.999  27.595  1.00  0.00     0.173 A 
ATOM     79  F   UNL A   1      43.870  28.048  27.134  1.00  0.00    -0.203 F 
ATOM     80  C   UNL A   1      43.829  26.071  25.854  1.00  0.00     0.198 A 
ATOM     81  C   UNL A   1      42.407  24.253  26.509  1.00  0.00     0.198 A 
ATOM     82  F   UNL A   1      41.041  24.458  28.418  1.00  0.00    -0.203 F 
ATOM     83  F   UNL A   1      44.713  26.605  25.000  1.00  0.00    -0.200 F 
ATOM     84  C   UNL A   1      43.339  24.792  25.636  1.00  0.00     0.200 A 
ATOM     85  F   UNL A   1      41.940  23.013  26.308  1.00  0.00    -0.200 F 
ATOM     86  F   UNL A   1      43.761  24.082  24.581  1.00  0.00    -0.200 F 
ENDBRANCH  52  76
BRANCH  64  87
ATOM     87  C   UNL A   1      44.697  27.089  34.376  1.00  0.00     0.064 A 
ATOM     88  C   UNL A   1      45.957  27.698  34.439  1.00  0.00     0.173 A 
ATOM     89  C   UNL A   1      44.499  25.899  35.092  1.00  0.00     0.173 A 
ATOM     90  F   UNL A   1      46.196  28.829  33.759  1.00  0.00    -0.203 F 
ATOM     91  C   UNL A   1      46.989  27.125  35.178  1.00  0.00     0.198 A 
ATOM     92  C   UNL A   1      45.525  25.343  35.848  1.00  0.00     0.198 A 
ATOM     93  F   UNL A   1      43.307  25.284  35.065  1.00  0.00    -0.203 F 
ATOM     94  F   UNL A   1      48.198  27.704  35.197  1.00  0.00    -0.200 F 
ATOM     95  C   UNL A   1      46.769  25.954  35.889  1.00  0.00     0.200 A 
ATOM     96  F   UNL A   1      45.309  24.217  36.543  1.00  0.00    -0.200 F 
ATOM     97  F   UNL A   1      47.762  25.410  36.606  1.00  0.00    -0.200 F 
ENDBRANCH  64  87
ENDBRANCH  38  39
ENDBRANCH  30  33
ENDBRANCH  28  29
ENDBRANCH  27  28
ENDBRANCH   1  27
TORSDOF 15
ENDMDL
MODEL 3
REMARK VINA RESULT:     -11.9      0.113      1.953
REMARK SMILES C[C@H]1C[NH+](CC[C@@H]2CCC[C@]2([NH3+])C(=O)NCCCCNC(=O)c2ccc(-c3c4nc(c(-c5c(F)c(F)c(F)c(F)c5F)c5ccc([nH]5)c(-c5c(F)c(F)c(F)c(F)c5F)c5nc(c(-c6c(F)c(F)c(F)c(F)c6F)c6ccc3[nH]6)C=C5)C=C4)cc2)C[C@H](C)O1
REMARK SMILES IDX 17 1 16 2 15 3 13 4 14 5 11 7 7 8 8 9 9 10 10 11 6 12 5 13
REMARK SMILES IDX 4 14 1 15 2 16 3 17 89 18 87 19 86 20 88 22 12 23 18 27
REMARK SMILES IDX 19 28 20 29 21 30 22 32 23 33 24 34 85 35 25 36 84 37 26 38
REMARK SMILES IDX 27 39 28 40 78 41 29 42 83 43 77 44 79 45 30 46 82 47 76 48
REMARK SMILES IDX 75 49 31 51 63 52 43 53 62 54 44 55 47 56 61 57 80 58 45 59
REMARK SMILES IDX 46 60 60 62 81 63 48 64 32 65 33 66 41 67 34 68 35 69 39 70
REMARK SMILES IDX 42 71 36 72 37 73 40 74 38 75 64 76 65 77 73 78 66 79 67 80
REMARK SMILES IDX 71 81 74 82 68 83 69 84 72 85 70 86 49 87 50 88 58 89 51 90
REMARK SMILES IDX 52 91 56 92 59 93 53 94 54 95 57 96 55 97
REMARK H PARENT 15 6 4 21 12 24 12 25 12 26 20 31 79 50 47 61
REMARK Flexibility Score: inf
ROOT
ATOM      1  C   UNL A   1      37.400  22.000  24.670  1.00  0.00     0.023 C 
ENDROOT
BRANCH   1   2
ATOM      2  C   UNL A   1      36.731  22.916  25.695  1.00  0.00     0.116 C 
BRANCH   2   3
ATOM      3  N   UNL A   1      35.840  22.149  26.538  1.00  0.00    -0.351 N 
ATOM      4  C   UNL A   1      34.493  21.966  26.535  1.00  0.00     0.281 C 
ATOM      5  O   UNL A   1      34.067  21.329  27.508  1.00  0.00    -0.268 OA
ATOM      6  H   UNL A   1      36.302  21.662  27.258  1.00  0.00     0.163 HD
BRANCH   4   7
ATOM      7  C   UNL A   1      33.515  22.466  25.395  1.00  0.00     0.177 C 
ATOM      8  C   UNL A   1      33.206  23.991  25.312  1.00  0.00     0.066 C 
ATOM      9  C   UNL A   1      32.414  24.226  26.612  1.00  0.00     0.011 C 
ATOM     10  C   UNL A   1      31.544  22.981  26.776  1.00  0.00     0.008 C 
ATOM     11  C   UNL A   1      32.090  21.960  25.771  1.00  0.00     0.079 C 
BRANCH   8  12
ATOM     12  C   UNL A   1      34.280  25.068  25.134  1.00  0.00     0.072 C 
BRANCH  12  13
ATOM     13  C   UNL A   1      33.918  26.355  24.380  1.00  0.00     0.262 C 
BRANCH  13  14
ATOM     14  N   UNL A   1      32.981  27.347  24.880  1.00  0.00    -0.331 N 
ATOM     15  C   UNL A   1      30.190  29.584  23.580  1.00  0.00     0.045 C 
ATOM     16  C   UNL A   1      31.033  28.800  24.575  1.00  0.00     0.170 C 
ATOM     17  C   UNL A   1      32.185  28.047  23.869  1.00  0.00     0.294 C 
ATOM     18  O   UNL A   1      31.536  29.734  25.549  1.00  0.00    -0.364 OA
ATOM     19  C   UNL A   1      32.383  29.105  26.528  1.00  0.00     0.170 C 
ATOM     20  C   UNL A   1      33.510  28.293  25.858  1.00  0.00     0.294 C 
ATOM     21  H   UNL A   1      32.341  26.733  25.383  1.00  0.00     0.348 HD
ATOM     22  C   UNL A   1      31.573  28.276  27.525  1.00  0.00     0.045 C 
ENDBRANCH  13  14
ENDBRANCH  12  13
ENDBRANCH   8  12
BRANCH   7  23
ATOM     23  N   UNL A   1      33.877  21.849  24.106  1.00  0.00    -0.345 N 
ATOM     24  H   UNL A   1      33.639  20.858  24.125  1.00  0.00     0.345 HD
ATOM     25  H   UNL A   1      34.879  21.957  23.949  1.00  0.00     0.345 HD
ATOM     26  H   UNL A   1      33.363  22.310  23.354  1.00  0.00     0.345 HD
ENDBRANCH   7  23
ENDBRANCH   4   7
ENDBRANCH   2   3
ENDBRANCH   1   2
BRANCH   1  27
ATOM     27  C   UNL A   1      37.905  20.678  25.229  1.00  0.00     0.023 C 
BRANCH  27  28
ATOM     28  C   UNL A   1      39.271  20.798  25.883  1.00  0.00     0.116 C 
BRANCH  28  29
ATOM     29  N   UNL A   1      40.046  19.560  25.867  1.00  0.00    -0.352 N 
ATOM     30  C   UNL A   1      41.393  19.405  26.092  1.00  0.00     0.251 C 
ATOM     31  H   UNL A   1      39.541  18.738  25.671  1.00  0.00     0.163 HD
ATOM     32  O   UNL A   1      41.937  18.312  25.985  1.00  0.00    -0.269 OA
BRANCH  30  33
ATOM     33  C   UNL A   1      42.187  20.608  26.404  1.00  0.00     0.039 A 
ATOM     34  C   UNL A   1      42.657  21.396  25.352  1.00  0.00     0.014 A 
ATOM     35  C   UNL A   1      42.340  21.016  27.730  1.00  0.00     0.014 A 
ATOM     36  C   UNL A   1      43.198  22.650  25.632  1.00  0.00     0.010 A 
ATOM     37  C   UNL A   1      42.785  22.301  27.996  1.00  0.00     0.010 A 
ATOM     38  C   UNL A   1      43.214  23.133  26.951  1.00  0.00    -0.014 A 
BRANCH  38  39
ATOM     39  C   UNL A   1      43.676  24.504  27.270  1.00  0.00     0.031 A 
ATOM     40  C   UNL A   1      42.697  25.509  27.809  1.00  0.00     0.074 A 
ATOM     41  C   UNL A   1      44.941  24.870  26.984  1.00  0.00     0.049 A 
ATOM     42  N   UNL A   1      42.863  26.786  28.038  1.00  0.00    -0.248 NA
ATOM     43  C   UNL A   1      41.336  25.021  28.082  1.00  0.00     0.031 C 
ATOM     44  C   UNL A   1      45.962  24.005  26.390  1.00  0.00     0.029 A 
ATOM     45  N   UNL A   1      45.580  26.073  27.145  1.00  0.00    -0.354 N 
ATOM     46  C   UNL A   1      41.622  27.256  28.446  1.00  0.00     0.074 A 
ATOM     47  C   UNL A   1      40.701  26.143  28.380  1.00  0.00     0.031 C 
ATOM     48  C   UNL A   1      47.106  24.697  26.264  1.00  0.00     0.029 A 
ATOM     49  C   UNL A   1      46.892  26.061  26.737  1.00  0.00     0.049 A 
ATOM     50  H   UNL A   1      45.139  26.872  27.516  1.00  0.00     0.167 HD
ATOM     51  C   UNL A   1      41.287  28.498  28.864  1.00  0.00     0.037 A 
ATOM     52  C   UNL A   1      47.814  27.041  26.750  1.00  0.00     0.037 A 
ATOM     53  C   UNL A   1      42.220  29.585  28.987  1.00  0.00     0.049 A 
ATOM     54  C   UNL A   1      47.434  28.396  27.283  1.00  0.00     0.074 A 
ATOM     55  C   UNL A   1      42.003  30.860  29.475  1.00  0.00     0.029 A 
ATOM     56  N   UNL A   1      43.558  29.514  28.628  1.00  0.00    -0.354 N 
ATOM     57  N   UNL A   1      46.273  28.812  27.727  1.00  0.00    -0.248 NA
ATOM     58  C   UNL A   1      48.492  29.413  27.322  1.00  0.00     0.031 C 
ATOM     59  C   UNL A   1      43.206  31.570  29.391  1.00  0.00     0.029 A 
ATOM     60  C   UNL A   1      44.179  30.725  28.881  1.00  0.00     0.049 A 
ATOM     61  H   UNL A   1      44.001  28.719  28.250  1.00  0.00     0.167 HD
ATOM     62  C   UNL A   1      46.467  30.127  28.125  1.00  0.00     0.074 A 
ATOM     63  C   UNL A   1      47.860  30.437  27.879  1.00  0.00     0.031 C 
ATOM     64  C   UNL A   1      45.572  31.002  28.645  1.00  0.00     0.037 A 
BRANCH  51  65
ATOM     65  C   UNL A   1      39.854  28.737  29.237  1.00  0.00     0.064 A 
ATOM     66  C   UNL A   1      38.923  29.220  28.304  1.00  0.00     0.173 A 
ATOM     67  C   UNL A   1      39.403  28.472  30.538  1.00  0.00     0.173 A 
ATOM     68  F   UNL A   1      39.310  29.505  27.052  1.00  0.00    -0.203 F 
ATOM     69  C   UNL A   1      37.602  29.461  28.670  1.00  0.00     0.198 A 
ATOM     70  C   UNL A   1      38.073  28.686  30.892  1.00  0.00     0.198 A 
ATOM     71  F   UNL A   1      40.251  28.008  31.468  1.00  0.00    -0.203 F 
ATOM     72  F   UNL A   1      36.746  29.977  27.776  1.00  0.00    -0.200 F 
ATOM     73  C   UNL A   1      37.177  29.189  29.961  1.00  0.00     0.200 A 
ATOM     74  F   UNL A   1      37.661  28.414  32.138  1.00  0.00    -0.200 F 
ATOM     75  F   UNL A   1      35.904  29.421  30.311  1.00  0.00    -0.200 F 
ENDBRANCH  51  65
BRANCH  52  76
ATOM     76  C   UNL A   1      49.199  26.764  26.291  1.00  0.00     0.064 A 
ATOM     77  C   UNL A   1      49.565  26.982  24.954  1.00  0.00     0.173 A 
ATOM     78  C   UNL A   1      50.180  26.282  27.166  1.00  0.00     0.173 A 
ATOM     79  F   UNL A   1      48.653  27.425  24.075  1.00  0.00    -0.203 F 
ATOM     80  C   UNL A   1      50.855  26.708  24.507  1.00  0.00     0.198 A 
ATOM     81  C   UNL A   1      51.478  26.030  26.723  1.00  0.00     0.198 A 
ATOM     82  F   UNL A   1      49.882  26.065  28.455  1.00  0.00    -0.203 F 
ATOM     83  F   UNL A   1      51.166  26.886  23.216  1.00  0.00    -0.200 F 
ATOM     84  C   UNL A   1      51.812  26.236  25.393  1.00  0.00     0.200 A 
ATOM     85  F   UNL A   1      52.404  25.585  27.584  1.00  0.00    -0.200 F 
ATOM     86  F   UNL A   1      53.053  25.973  24.963  1.00  0.00    -0.200 F 
ENDBRANCH  52  76
BRANCH  64  87
ATOM     87  C   UNL A   1      46.079  32.361  29.019  1.00  0.00     0.064 A 
ATOM     88  C   UNL A   1      46.077  33.421  28.101  1.00  0.00     0.173 A 
ATOM     89  C   UNL A   1      46.526  32.616  30.324  1.00  0.00     0.173 A 
ATOM     90  F   UNL A   1      45.673  33.220  26.838  1.00  0.00    -0.203 F 
ATOM     91  C   UNL A   1      46.521  34.687  28.474  1.00  0.00     0.198 A 
ATOM     92  C   UNL A   1      46.946  33.888  30.698  1.00  0.00     0.198 A 
ATOM     93  F   UNL A   1      46.541  31.633  31.237  1.00  0.00    -0.203 F 
ATOM     94  F   UNL A   1      46.545  35.678  27.572  1.00  0.00    -0.200 F 
ATOM     95  C   UNL A   1      46.947  34.921  29.773  1.00  0.00     0.200 A 
ATOM     96  F   UNL A   1      47.347  34.116  31.957  1.00  0.00    -0.200 F 
ATOM     97  F   UNL A   1      47.366  36.143  30.131  1.00  0.00    -0.200 F 
ENDBRANCH  64  87
ENDBRANCH  38  39
ENDBRANCH  30  33
ENDBRANCH  28  29
ENDBRANCH  27  28
ENDBRANCH   1  27
TORSDOF 15
ENDMDL
