MODEL 1
REMARK VINA RESULT:     -12.1      0.000      0.000
REMARK SMILES CSc1nc(O)nc(C)c1C(=O)N1C[C@@H](O)C[C@@H]1C(=O)NCCCCNC(=O)c1ccc(-c2c3nc(c(-c4c(F)c(F)c(F)c(F)c4F)c4ccc([nH]4)c(-c4c(F)c(F)c(F)c(F)c4F)c4nc(c(-c5c(F)c(F)c(F)c(F)c5F)c5ccc2[nH]5)C=C4)C=C3)cc1
REMARK SMILES IDX 23 1 22 2 21 3 19 4 20 5 18 7 13 8 14 9 15 10 17 11 11 12
REMARK SMILES IDX 12 13 10 14 3 15 4 16 5 17 8 18 7 19 9 20 2 21 1 22 6 23
REMARK SMILES IDX 16 25 24 27 25 28 26 29 27 30 28 32 29 33 30 34 91 35 31 36
REMARK SMILES IDX 90 37 32 38 33 39 34 40 84 41 35 42 89 43 83 44 85 45 36 46
REMARK SMILES IDX 88 47 82 48 81 49 37 51 69 52 49 53 68 54 50 55 53 56 67 57
REMARK SMILES IDX 86 58 51 59 52 60 66 62 87 63 54 64 38 65 39 66 47 67 40 68
REMARK SMILES IDX 41 69 45 70 48 71 42 72 43 73 46 74 44 75 70 76 71 77 79 78
REMARK SMILES IDX 72 79 73 80 77 81 80 82 74 83 75 84 78 85 76 86 55 87 56 88
REMARK SMILES IDX 64 89 57 90 58 91 62 92 65 93 59 94 60 95 63 96 61 97
REMARK H PARENT 21 6 6 24 16 26 26 31 85 50 53 61
REMARK Flexibility Score: inf
ROOT
ATOM      1  C   UNL A   1      31.786  30.176  26.542  1.00  0.00     0.023 C 
ENDROOT
BRANCH   1   2
ATOM      2  C   UNL A   1      31.731  29.667  25.108  1.00  0.00     0.116 C 
BRANCH   2   3
ATOM      3  N   UNL A   1      33.043  29.580  24.506  1.00  0.00    -0.354 N 
ATOM      4  C   UNL A   1      33.541  28.626  23.666  1.00  0.00     0.242 C 
ATOM      5  O   UNL A   1      34.720  28.735  23.327  1.00  0.00    -0.273 OA
ATOM      6  H   UNL A   1      33.663  30.310  24.732  1.00  0.00     0.163 HD
BRANCH   4   7
ATOM      7  C   UNL A   1      32.625  27.460  23.235  1.00  0.00     0.177 C 
ATOM      8  N   UNL A   1      33.024  26.193  23.835  1.00  0.00    -0.324 N 
ATOM      9  C   UNL A   1      32.726  25.118  22.915  1.00  0.00     0.152 C 
ATOM     10  C   UNL A   1      33.040  25.724  21.553  1.00  0.00     0.136 C 
ATOM     11  C   UNL A   1      32.674  27.200  21.720  1.00  0.00     0.069 C 
BRANCH   8  12
ATOM     12  C   UNL A   1      32.991  26.058  25.205  1.00  0.00     0.259 C 
ATOM     13  O   UNL A   1      33.744  26.738  25.899  1.00  0.00    -0.269 OA
BRANCH  12  14
ATOM     14  C   UNL A   1      32.135  24.991  25.821  1.00  0.00     0.093 A 
ATOM     15  C   UNL A   1      32.595  23.795  26.390  1.00  0.00     0.116 A 
ATOM     16  N   UNL A   1      31.779  22.915  27.023  1.00  0.00    -0.188 NA
ATOM     17  C   UNL A   1      30.509  23.264  27.129  1.00  0.00     0.315 A 
ATOM     18  C   UNL A   1      30.757  25.211  25.973  1.00  0.00     0.058 A 
ATOM     19  N   UNL A   1      29.937  24.352  26.637  1.00  0.00    -0.200 NA
ATOM     20  C   UNL A   1      30.036  26.436  25.483  1.00  0.00     0.068 C 
BRANCH  15  21
ATOM     21  S   UNL A   1      34.290  23.232  26.503  1.00  0.00    -0.109 SA
ATOM     22  C   UNL A   1      34.053  21.812  27.598  1.00  0.00     0.092 C 
ENDBRANCH  15  21
BRANCH  17  23
ATOM     23  O   UNL A   1      29.684  22.454  27.840  1.00  0.00    -0.479 OA
ATOM     24  H   UNL A   1      30.013  21.985  28.582  1.00  0.00     0.297 HD
ENDBRANCH  17  23
ENDBRANCH  12  14
ENDBRANCH   8  12
BRANCH  10  25
ATOM     25  O   UNL A   1      32.274  25.158  20.502  1.00  0.00    -0.391 OA
ATOM     26  H   UNL A   1      31.772  24.400  20.841  1.00  0.00     0.211 HD
ENDBRANCH  10  25
ENDBRANCH   4   7
ENDBRANCH   2   3
ENDBRANCH   1   2
BRANCH   1  27
ATOM     27  C   UNL A   1      31.561  31.679  26.696  1.00  0.00     0.023 C 
BRANCH  27  28
ATOM     28  C   UNL A   1      32.794  32.473  27.105  1.00  0.00     0.116 C 
BRANCH  28  29
ATOM     29  N   UNL A   1      32.477  33.834  27.509  1.00  0.00    -0.352 N 
ATOM     30  C   UNL A   1      33.060  34.590  28.495  1.00  0.00     0.251 C 
ATOM     31  H   UNL A   1      31.750  34.271  27.009  1.00  0.00     0.163 HD
ATOM     32  O   UNL A   1      32.600  35.679  28.815  1.00  0.00    -0.269 OA
BRANCH  30  33
ATOM     33  C   UNL A   1      34.241  34.049  29.191  1.00  0.00     0.039 A 
ATOM     34  C   UNL A   1      34.051  33.170  30.258  1.00  0.00     0.014 A 
ATOM     35  C   UNL A   1      35.525  34.362  28.735  1.00  0.00     0.014 A 
ATOM     36  C   UNL A   1      35.159  32.552  30.835  1.00  0.00     0.010 A 
ATOM     37  C   UNL A   1      36.621  33.695  29.268  1.00  0.00     0.010 A 
ATOM     38  C   UNL A   1      36.445  32.791  30.327  1.00  0.00    -0.014 A 
BRANCH  38  39
ATOM     39  C   UNL A   1      37.628  32.128  30.920  1.00  0.00     0.031 A 
ATOM     40  C   UNL A   1      38.090  32.527  32.289  1.00  0.00     0.074 A 
ATOM     41  C   UNL A   1      38.299  31.196  30.216  1.00  0.00     0.049 A 
ATOM     42  N   UNL A   1      39.096  32.069  32.989  1.00  0.00    -0.248 NA
ATOM     43  C   UNL A   1      37.331  33.598  32.956  1.00  0.00     0.031 C 
ATOM     44  C   UNL A   1      37.962  30.757  28.862  1.00  0.00     0.029 A 
ATOM     45  N   UNL A   1      39.403  30.453  30.546  1.00  0.00    -0.354 N 
ATOM     46  C   UNL A   1      39.082  32.787  34.175  1.00  0.00     0.074 A 
ATOM     47  C   UNL A   1      38.017  33.758  34.076  1.00  0.00     0.031 C 
ATOM     48  C   UNL A   1      38.824  29.798  28.488  1.00  0.00     0.029 A 
ATOM     49  C   UNL A   1      39.787  29.574  29.563  1.00  0.00     0.049 A 
ATOM     50  H   UNL A   1      39.876  30.541  31.405  1.00  0.00     0.167 HD
ATOM     51  C   UNL A   1      39.867  32.624  35.265  1.00  0.00     0.037 A 
ATOM     52  C   UNL A   1      40.797  28.683  29.542  1.00  0.00     0.037 A 
ATOM     53  C   UNL A   1      40.921  31.651  35.361  1.00  0.00     0.049 A 
ATOM     54  C   UNL A   1      41.685  28.550  30.749  1.00  0.00     0.074 A 
ATOM     55  C   UNL A   1      41.747  31.379  36.435  1.00  0.00     0.029 A 
ATOM     56  N   UNL A   1      41.294  30.792  34.337  1.00  0.00    -0.354 N 
ATOM     57  N   UNL A   1      41.623  29.185  31.893  1.00  0.00    -0.248 NA
ATOM     58  C   UNL A   1      42.781  27.574  30.662  1.00  0.00     0.031 C 
ATOM     59  C   UNL A   1      42.651  30.384  36.048  1.00  0.00     0.029 A 
ATOM     60  C   UNL A   1      42.358  30.005  34.747  1.00  0.00     0.049 A 
ATOM     61  H   UNL A   1      40.868  30.749  33.450  1.00  0.00     0.167 HD
ATOM     62  C   UNL A   1      42.650  28.672  32.672  1.00  0.00     0.074 A 
ATOM     63  C   UNL A   1      43.318  27.665  31.873  1.00  0.00     0.031 C 
ATOM     64  C   UNL A   1      43.005  29.004  33.938  1.00  0.00     0.037 A 
BRANCH  51  65
ATOM     65  C   UNL A   1      39.601  33.510  36.444  1.00  0.00     0.064 A 
ATOM     66  C   UNL A   1      38.740  33.107  37.478  1.00  0.00     0.173 A 
ATOM     67  C   UNL A   1      40.228  34.758  36.561  1.00  0.00     0.173 A 
ATOM     68  F   UNL A   1      38.104  31.928  37.405  1.00  0.00    -0.203 F 
ATOM     69  C   UNL A   1      38.498  33.934  38.570  1.00  0.00     0.198 A 
ATOM     70  C   UNL A   1      40.005  35.570  37.669  1.00  0.00     0.198 A 
ATOM     71  F   UNL A   1      41.061  35.189  35.601  1.00  0.00    -0.203 F 
ATOM     72  F   UNL A   1      37.636  33.547  39.521  1.00  0.00    -0.200 F 
ATOM     73  C   UNL A   1      39.136  35.161  38.669  1.00  0.00     0.200 A 
ATOM     74  F   UNL A   1      40.630  36.751  37.769  1.00  0.00    -0.200 F 
ATOM     75  F   UNL A   1      38.908  35.952  39.726  1.00  0.00    -0.200 F 
ENDBRANCH  51  65
BRANCH  52  76
ATOM     76  C   UNL A   1      40.978  27.810  28.354  1.00  0.00     0.064 A 
ATOM     77  C   UNL A   1      40.305  26.585  28.259  1.00  0.00     0.173 A 
ATOM     78  C   UNL A   1      41.792  28.195  27.278  1.00  0.00     0.173 A 
ATOM     79  F   UNL A   1      39.531  26.167  29.271  1.00  0.00    -0.203 F 
ATOM     80  C   UNL A   1      40.441  25.774  27.134  1.00  0.00     0.198 A 
ATOM     81  C   UNL A   1      41.909  27.393  26.144  1.00  0.00     0.198 A 
ATOM     82  F   UNL A   1      42.453  29.360  27.319  1.00  0.00    -0.203 F 
ATOM     83  F   UNL A   1      39.804  24.596  27.079  1.00  0.00    -0.200 F 
ATOM     84  C   UNL A   1      41.236  26.183  26.075  1.00  0.00     0.200 A 
ATOM     85  F   UNL A   1      42.669  27.796  25.117  1.00  0.00    -0.200 F 
ATOM     86  F   UNL A   1      41.355  25.409  24.986  1.00  0.00    -0.200 F 
ENDBRANCH  52  76
BRANCH  64  87
ATOM     87  C   UNL A   1      44.155  28.267  34.557  1.00  0.00     0.064 A 
ATOM     88  C   UNL A   1      45.456  28.789  34.527  1.00  0.00     0.173 A 
ATOM     89  C   UNL A   1      43.936  27.081  35.273  1.00  0.00     0.173 A 
ATOM     90  F   UNL A   1      45.718  29.913  33.845  1.00  0.00    -0.203 F 
ATOM     91  C   UNL A   1      46.497  28.146  35.191  1.00  0.00     0.198 A 
ATOM     92  C   UNL A   1      44.973  26.455  35.957  1.00  0.00     0.198 A 
ATOM     93  F   UNL A   1      42.706  26.548  35.337  1.00  0.00    -0.203 F 
ATOM     94  F   UNL A   1      47.738  28.650  35.133  1.00  0.00    -0.200 F 
ATOM     95  C   UNL A   1      46.253  26.987  35.915  1.00  0.00     0.200 A 
ATOM     96  F   UNL A   1      44.733  25.345  36.669  1.00  0.00    -0.200 F 
ATOM     97  F   UNL A   1      47.252  26.384  36.572  1.00  0.00    -0.200 F 
ENDBRANCH  64  87
ENDBRANCH  38  39
ENDBRANCH  30  33
ENDBRANCH  28  29
ENDBRANCH  27  28
ENDBRANCH   1  27
TORSDOF 16
ENDMDL
MODEL 2
REMARK VINA RESULT:     -12.1      0.705      7.436
REMARK SMILES CSc1nc(O)nc(C)c1C(=O)N1C[C@@H](O)C[C@@H]1C(=O)NCCCCNC(=O)c1ccc(-c2c3nc(c(-c4c(F)c(F)c(F)c(F)c4F)c4ccc([nH]4)c(-c4c(F)c(F)c(F)c(F)c4F)c4nc(c(-c5c(F)c(F)c(F)c(F)c5F)c5ccc2[nH]5)C=C4)C=C3)cc1
REMARK SMILES IDX 23 1 22 2 21 3 19 4 20 5 18 7 13 8 14 9 15 10 17 11 11 12
REMARK SMILES IDX 12 13 10 14 3 15 4 16 5 17 8 18 7 19 9 20 2 21 1 22 6 23
REMARK SMILES IDX 16 25 24 27 25 28 26 29 27 30 28 32 29 33 30 34 91 35 31 36
REMARK SMILES IDX 90 37 32 38 33 39 34 40 84 41 35 42 89 43 83 44 85 45 36 46
REMARK SMILES IDX 88 47 82 48 81 49 37 51 69 52 49 53 68 54 50 55 53 56 67 57
REMARK SMILES IDX 86 58 51 59 52 60 66 62 87 63 54 64 38 65 39 66 47 67 40 68
REMARK SMILES IDX 41 69 45 70 48 71 42 72 43 73 46 74 44 75 70 76 71 77 79 78
REMARK SMILES IDX 72 79 73 80 77 81 80 82 74 83 75 84 78 85 76 86 55 87 56 88
REMARK SMILES IDX 64 89 57 90 58 91 62 92 65 93 59 94 60 95 63 96 61 97
REMARK H PARENT 21 6 6 24 16 26 26 31 85 50 53 61
REMARK Flexibility Score: inf
ROOT
ATOM      1  C   UNL A   1      31.778  30.209  26.625  1.00  0.00     0.023 C 
ENDROOT
BRANCH   1   2
ATOM      2  C   UNL A   1      31.591  29.551  25.265  1.00  0.00     0.116 C 
BRANCH   2   3
ATOM      3  N   UNL A   1      32.754  29.703  24.418  1.00  0.00    -0.354 N 
ATOM      4  C   UNL A   1      33.271  28.830  23.505  1.00  0.00     0.242 C 
ATOM      5  O   UNL A   1      34.314  29.160  22.940  1.00  0.00    -0.273 OA
ATOM      6  H   UNL A   1      33.240  30.554  24.513  1.00  0.00     0.163 HD
BRANCH   4   7
ATOM      7  C   UNL A   1      32.553  27.484  23.271  1.00  0.00     0.177 C 
ATOM      8  N   UNL A   1      33.321  26.353  23.776  1.00  0.00    -0.324 N 
ATOM      9  C   UNL A   1      33.078  25.201  22.937  1.00  0.00     0.152 C 
ATOM     10  C   UNL A   1      32.977  25.800  21.539  1.00  0.00     0.136 C 
ATOM     11  C   UNL A   1      32.351  27.174  21.778  1.00  0.00     0.069 C 
BRANCH   8  12
ATOM     12  C   UNL A   1      33.594  26.273  25.124  1.00  0.00     0.259 C 
ATOM     13  O   UNL A   1      34.226  27.175  25.669  1.00  0.00    -0.269 OA
BRANCH  12  14
ATOM     14  C   UNL A   1      33.231  25.028  25.877  1.00  0.00     0.093 A 
ATOM     15  C   UNL A   1      34.099  23.971  26.187  1.00  0.00     0.116 A 
ATOM     16  N   UNL A   1      33.736  22.917  26.960  1.00  0.00    -0.188 NA
ATOM     17  C   UNL A   1      32.516  22.951  27.464  1.00  0.00     0.315 A 
ATOM     18  C   UNL A   1      31.952  24.910  26.446  1.00  0.00     0.058 A 
ATOM     19  N   UNL A   1      31.590  23.875  27.251  1.00  0.00    -0.200 NA
ATOM     20  C   UNL A   1      30.860  25.931  26.291  1.00  0.00     0.068 C 
BRANCH  15  21
ATOM     21  S   UNL A   1      35.829  23.829  25.749  1.00  0.00    -0.109 SA
ATOM     22  C   UNL A   1      35.978  22.027  25.731  1.00  0.00     0.092 C 
ENDBRANCH  15  21
BRANCH  17  23
ATOM     23  O   UNL A   1      32.153  21.962  28.319  1.00  0.00    -0.479 OA
ATOM     24  H   UNL A   1      32.695  21.757  29.055  1.00  0.00     0.297 HD
ENDBRANCH  17  23
ENDBRANCH  12  14
ENDBRANCH   8  12
BRANCH  10  25
ATOM     25  O   UNL A   1      32.152  25.043  20.668  1.00  0.00    -0.391 OA
ATOM     26  H   UNL A   1      32.616  24.232  20.408  1.00  0.00     0.211 HD
ENDBRANCH  10  25
ENDBRANCH   4   7
ENDBRANCH   2   3
ENDBRANCH   1   2
BRANCH   1  27
ATOM     27  C   UNL A   1      31.654  31.732  26.622  1.00  0.00     0.023 C 
BRANCH  27  28
ATOM     28  C   UNL A   1      32.835  32.472  27.237  1.00  0.00     0.116 C 
BRANCH  28  29
ATOM     29  N   UNL A   1      32.528  33.861  27.546  1.00  0.00    -0.352 N 
ATOM     30  C   UNL A   1      33.075  34.659  28.519  1.00  0.00     0.251 C 
ATOM     31  H   UNL A   1      31.839  34.282  26.983  1.00  0.00     0.163 HD
ATOM     32  O   UNL A   1      32.623  35.774  28.751  1.00  0.00    -0.269 OA
BRANCH  30  33
ATOM     33  C   UNL A   1      34.203  34.135  29.307  1.00  0.00     0.039 A 
ATOM     34  C   UNL A   1      33.936  33.335  30.417  1.00  0.00     0.014 A 
ATOM     35  C   UNL A   1      35.518  34.385  28.898  1.00  0.00     0.014 A 
ATOM     36  C   UNL A   1      34.996  32.728  31.090  1.00  0.00     0.010 A 
ATOM     37  C   UNL A   1      36.566  33.727  29.528  1.00  0.00     0.010 A 
ATOM     38  C   UNL A   1      36.313  32.900  30.633  1.00  0.00    -0.014 A 
BRANCH  38  39
ATOM     39  C   UNL A   1      37.445  32.248  31.327  1.00  0.00     0.031 A 
ATOM     40  C   UNL A   1      38.175  31.124  30.655  1.00  0.00     0.074 A 
ATOM     41  C   UNL A   1      37.792  32.645  32.566  1.00  0.00     0.049 A 
ATOM     42  N   UNL A   1      39.193  30.424  31.086  1.00  0.00    -0.248 NA
ATOM     43  C   UNL A   1      37.685  30.718  29.328  1.00  0.00     0.031 C 
ATOM     44  C   UNL A   1      37.129  33.701  33.330  1.00  0.00     0.029 A 
ATOM     45  N   UNL A   1      38.789  32.203  33.398  1.00  0.00    -0.354 N 
ATOM     46  C   UNL A   1      39.467  29.508  30.082  1.00  0.00     0.074 A 
ATOM     47  C   UNL A   1      38.469  29.689  29.052  1.00  0.00     0.031 C 
ATOM     48  C   UNL A   1      37.757  33.847  34.509  1.00  0.00     0.029 A 
ATOM     49  C   UNL A   1      38.848  32.880  34.592  1.00  0.00     0.049 A 
ATOM     50  H   UNL A   1      39.403  31.471  33.162  1.00  0.00     0.167 HD
ATOM     51  C   UNL A   1      40.483  28.618  30.011  1.00  0.00     0.037 A 
ATOM     52  C   UNL A   1      39.696  32.737  35.629  1.00  0.00     0.037 A 
ATOM     53  C   UNL A   1      41.478  28.447  31.035  1.00  0.00     0.049 A 
ATOM     54  C   UNL A   1      40.792  31.711  35.546  1.00  0.00     0.074 A 
ATOM     55  C   UNL A   1      42.572  27.602  31.041  1.00  0.00     0.029 A 
ATOM     56  N   UNL A   1      41.493  29.135  32.239  1.00  0.00    -0.354 N 
ATOM     57  N   UNL A   1      41.087  30.895  34.563  1.00  0.00    -0.248 NA
ATOM     58  C   UNL A   1      41.677  31.588  36.714  1.00  0.00     0.031 C 
ATOM     59  C   UNL A   1      43.226  27.746  32.269  1.00  0.00     0.029 A 
ATOM     60  C   UNL A   1      42.565  28.715  33.009  1.00  0.00     0.049 A 
ATOM     61  H   UNL A   1      40.838  29.820  32.508  1.00  0.00     0.167 HD
ATOM     62  C   UNL A   1      42.201  30.181  34.980  1.00  0.00     0.074 A 
ATOM     63  C   UNL A   1      42.537  30.665  36.303  1.00  0.00     0.031 C 
ATOM     64  C   UNL A   1      42.886  29.214  34.322  1.00  0.00     0.037 A 
BRANCH  51  65
ATOM     65  C   UNL A   1      40.577  27.776  28.774  1.00  0.00     0.064 A 
ATOM     66  C   UNL A   1      41.377  28.164  27.688  1.00  0.00     0.173 A 
ATOM     67  C   UNL A   1      39.886  26.560  28.681  1.00  0.00     0.173 A 
ATOM     68  F   UNL A   1      42.046  29.327  27.723  1.00  0.00    -0.203 F 
ATOM     69  C   UNL A   1      41.460  27.377  26.543  1.00  0.00     0.198 A 
ATOM     70  C   UNL A   1      39.994  25.762  27.546  1.00  0.00     0.198 A 
ATOM     71  F   UNL A   1      39.109  26.143  29.692  1.00  0.00    -0.203 F 
ATOM     72  F   UNL A   1      42.193  27.791  25.500  1.00  0.00    -0.200 F 
ATOM     73  C   UNL A   1      40.775  26.173  26.476  1.00  0.00     0.200 A 
ATOM     74  F   UNL A   1      39.340  24.594  27.485  1.00  0.00    -0.200 F 
ATOM     75  F   UNL A   1      40.862  25.412  25.376  1.00  0.00    -0.200 F 
ENDBRANCH  51  65
BRANCH  52  76
ATOM     76  C   UNL A   1      39.568  33.633  36.806  1.00  0.00     0.064 A 
ATOM     77  C   UNL A   1      40.220  34.874  36.834  1.00  0.00     0.173 A 
ATOM     78  C   UNL A   1      38.769  33.290  37.906  1.00  0.00     0.173 A 
ATOM     79  F   UNL A   1      41.009  35.236  35.812  1.00  0.00    -0.203 F 
ATOM     80  C   UNL A   1      40.080  35.737  37.918  1.00  0.00     0.198 A 
ATOM     81  C   UNL A   1      38.612  34.164  38.981  1.00  0.00     0.198 A 
ATOM     82  F   UNL A   1      38.122  32.116  37.926  1.00  0.00    -0.203 F 
ATOM     83  F   UNL A   1      40.732  36.907  37.928  1.00  0.00    -0.200 F 
ATOM     84  C   UNL A   1      39.270  35.385  38.987  1.00  0.00     0.200 A 
ATOM     85  F   UNL A   1      37.820  33.826  40.007  1.00  0.00    -0.200 F 
ATOM     86  F   UNL A   1      39.124  36.222  40.024  1.00  0.00    -0.200 F 
ENDBRANCH  52  76
BRANCH  64  87
ATOM     87  C   UNL A   1      44.081  28.617  35.003  1.00  0.00     0.064 A 
ATOM     88  C   UNL A   1      43.973  27.456  35.781  1.00  0.00     0.173 A 
ATOM     89  C   UNL A   1      45.360  29.153  34.793  1.00  0.00     0.173 A 
ATOM     90  F   UNL A   1      42.770  26.913  36.022  1.00  0.00    -0.203 F 
ATOM     91  C   UNL A   1      45.104  26.855  36.327  1.00  0.00     0.198 A 
ATOM     92  C   UNL A   1      46.491  28.535  35.317  1.00  0.00     0.198 A 
ATOM     93  F   UNL A   1      45.515  30.259  34.048  1.00  0.00    -0.203 F 
ATOM     94  F   UNL A   1      44.977  25.757  37.085  1.00  0.00    -0.200 F 
ATOM     95  C   UNL A   1      46.362  27.388  36.085  1.00  0.00     0.200 A 
ATOM     96  F   UNL A   1      47.707  29.042  35.069  1.00  0.00    -0.200 F 
ATOM     97  F   UNL A   1      47.451  26.794  36.590  1.00  0.00    -0.200 F 
ENDBRANCH  64  87
ENDBRANCH  38  39
ENDBRANCH  30  33
ENDBRANCH  28  29
ENDBRANCH  27  28
ENDBRANCH   1  27
TORSDOF 16
ENDMDL
MODEL 3
REMARK VINA RESULT:     -12.1      0.790      7.361
REMARK SMILES CSc1nc(O)nc(C)c1C(=O)N1C[C@@H](O)C[C@@H]1C(=O)NCCCCNC(=O)c1ccc(-c2c3nc(c(-c4c(F)c(F)c(F)c(F)c4F)c4ccc([nH]4)c(-c4c(F)c(F)c(F)c(F)c4F)c4nc(c(-c5c(F)c(F)c(F)c(F)c5F)c5ccc2[nH]5)C=C4)C=C3)cc1
REMARK SMILES IDX 23 1 22 2 21 3 19 4 20 5 18 7 13 8 14 9 15 10 17 11 11 12
REMARK SMILES IDX 12 13 10 14 3 15 4 16 5 17 8 18 7 19 9 20 2 21 1 22 6 23
REMARK SMILES IDX 16 25 24 27 25 28 26 29 27 30 28 32 29 33 30 34 91 35 31 36
REMARK SMILES IDX 90 37 32 38 33 39 34 40 84 41 35 42 89 43 83 44 85 45 36 46
REMARK SMILES IDX 88 47 82 48 81 49 37 51 69 52 49 53 68 54 50 55 53 56 67 57
REMARK SMILES IDX 86 58 51 59 52 60 66 62 87 63 54 64 38 65 39 66 47 67 40 68
REMARK SMILES IDX 41 69 45 70 48 71 42 72 43 73 46 74 44 75 70 76 71 77 79 78
REMARK SMILES IDX 72 79 73 80 77 81 80 82 74 83 75 84 78 85 76 86 55 87 56 88
REMARK SMILES IDX 64 89 57 90 58 91 62 92 65 93 59 94 60 95 63 96 61 97
REMARK H PARENT 21 6 6 24 16 26 26 31 85 50 53 61
REMARK Flexibility Score: inf
ROOT
ATOM      1  C   UNL A   1      31.772  30.274  26.767  1.00  0.00     0.023 C 
ENDROOT
BRANCH   1   2
ATOM      2  C   UNL A   1      31.578  29.543  25.445  1.00  0.00     0.116 C 
BRANCH   2   3
ATOM      3  N   UNL A   1      32.683  29.751  24.536  1.00  0.00    -0.354 N 
ATOM      4  C   UNL A   1      33.166  28.920  23.568  1.00  0.00     0.242 C 
ATOM      5  O   UNL A   1      34.165  29.294  22.952  1.00  0.00    -0.273 OA
ATOM      6  H   UNL A   1      33.152  30.612  24.628  1.00  0.00     0.163 HD
BRANCH   4   7
ATOM      7  C   UNL A   1      32.471  27.562  23.336  1.00  0.00     0.177 C 
ATOM      8  N   UNL A   1      33.289  26.439  23.778  1.00  0.00    -0.324 N 
ATOM      9  C   UNL A   1      33.034  25.300  22.925  1.00  0.00     0.152 C 
ATOM     10  C   UNL A   1      32.854  25.927  21.548  1.00  0.00     0.136 C 
ATOM     11  C   UNL A   1      32.207  27.280  21.847  1.00  0.00     0.069 C 
BRANCH   8  12
ATOM     12  C   UNL A   1      33.626  26.336  25.110  1.00  0.00     0.259 C 
ATOM     13  O   UNL A   1      34.281  27.231  25.640  1.00  0.00    -0.269 OA
BRANCH  12  14
ATOM     14  C   UNL A   1      33.303  25.076  25.857  1.00  0.00     0.093 A 
ATOM     15  C   UNL A   1      34.192  24.023  26.116  1.00  0.00     0.116 A 
ATOM     16  N   UNL A   1      33.868  22.954  26.885  1.00  0.00    -0.188 NA
ATOM     17  C   UNL A   1      32.668  22.969  27.438  1.00  0.00     0.315 A 
ATOM     18  C   UNL A   1      32.049  24.938  26.474  1.00  0.00     0.058 A 
ATOM     19  N   UNL A   1      31.728  23.888  27.276  1.00  0.00    -0.200 NA
ATOM     20  C   UNL A   1      30.942  25.952  26.378  1.00  0.00     0.068 C 
BRANCH  15  21
ATOM     21  S   UNL A   1      35.904  23.903  25.608  1.00  0.00    -0.109 SA
ATOM     22  C   UNL A   1      35.694  22.921  24.104  1.00  0.00     0.092 C 
ENDBRANCH  15  21
BRANCH  17  23
ATOM     23  O   UNL A   1      32.347  21.964  28.290  1.00  0.00    -0.479 OA
ATOM     24  H   UNL A   1      32.988  21.318  28.516  1.00  0.00     0.297 HD
ENDBRANCH  17  23
ENDBRANCH  12  14
ENDBRANCH   8  12
BRANCH  10  25
ATOM     25  O   UNL A   1      32.007  25.170  20.698  1.00  0.00    -0.391 OA
ATOM     26  H   UNL A   1      32.447  25.031  19.845  1.00  0.00     0.211 HD
ENDBRANCH  10  25
ENDBRANCH   4   7
ENDBRANCH   2   3
ENDBRANCH   1   2
BRANCH   1  27
ATOM     27  C   UNL A   1      31.655  31.795  26.680  1.00  0.00     0.023 C 
BRANCH  27  28
ATOM     28  C   UNL A   1      32.852  32.561  27.227  1.00  0.00     0.116 C 
BRANCH  28  29
ATOM     29  N   UNL A   1      32.530  33.941  27.559  1.00  0.00    -0.352 N 
ATOM     30  C   UNL A   1      33.071  34.731  28.543  1.00  0.00     0.251 C 
ATOM     31  H   UNL A   1      31.835  34.364  27.005  1.00  0.00     0.163 HD
ATOM     32  O   UNL A   1      32.607  35.837  28.794  1.00  0.00    -0.269 OA
BRANCH  30  33
ATOM     33  C   UNL A   1      34.208  34.207  29.320  1.00  0.00     0.039 A 
ATOM     34  C   UNL A   1      33.952  33.406  30.433  1.00  0.00     0.014 A 
ATOM     35  C   UNL A   1      35.518  34.457  28.898  1.00  0.00     0.014 A 
ATOM     36  C   UNL A   1      35.018  32.799  31.094  1.00  0.00     0.010 A 
ATOM     37  C   UNL A   1      36.572  33.799  29.518  1.00  0.00     0.010 A 
ATOM     38  C   UNL A   1      36.330  32.972  30.625  1.00  0.00    -0.014 A 
BRANCH  38  39
ATOM     39  C   UNL A   1      37.470  32.320  31.308  1.00  0.00     0.031 A 
ATOM     40  C   UNL A   1      38.194  31.198  30.627  1.00  0.00     0.074 A 
ATOM     41  C   UNL A   1      37.827  32.715  32.544  1.00  0.00     0.049 A 
ATOM     42  N   UNL A   1      39.217  30.498  31.048  1.00  0.00    -0.248 NA
ATOM     43  C   UNL A   1      37.693  30.794  29.303  1.00  0.00     0.031 C 
ATOM     44  C   UNL A   1      37.170  33.770  33.316  1.00  0.00     0.029 A 
ATOM     45  N   UNL A   1      38.832  32.274  33.366  1.00  0.00    -0.354 N 
ATOM     46  C   UNL A   1      39.483  29.584  30.040  1.00  0.00     0.074 A 
ATOM     47  C   UNL A   1      38.476  29.766  29.019  1.00  0.00     0.031 C 
ATOM     48  C   UNL A   1      37.809  33.914  34.489  1.00  0.00     0.029 A 
ATOM     49  C   UNL A   1      38.901  32.948  34.560  1.00  0.00     0.049 A 
ATOM     50  H   UNL A   1      39.445  31.542  33.124  1.00  0.00     0.167 HD
ATOM     51  C   UNL A   1      40.500  28.696  29.958  1.00  0.00     0.037 A 
ATOM     52  C   UNL A   1      39.759  32.805  35.590  1.00  0.00     0.037 A 
ATOM     53  C   UNL A   1      41.504  28.524  30.973  1.00  0.00     0.049 A 
ATOM     54  C   UNL A   1      40.856  31.780  35.495  1.00  0.00     0.074 A 
ATOM     55  C   UNL A   1      42.599  27.680  30.968  1.00  0.00     0.029 A 
ATOM     56  N   UNL A   1      41.529  29.210  32.178  1.00  0.00    -0.354 N 
ATOM     57  N   UNL A   1      41.142  30.966  34.508  1.00  0.00    -0.248 NA
ATOM     58  C   UNL A   1      41.751  31.656  36.655  1.00  0.00     0.031 C 
ATOM     59  C   UNL A   1      43.264  27.823  32.190  1.00  0.00     0.029 A 
ATOM     60  C   UNL A   1      42.608  28.790  32.937  1.00  0.00     0.049 A 
ATOM     61  H   UNL A   1      40.876  29.894  32.454  1.00  0.00     0.167 HD
ATOM     62  C   UNL A   1      42.261  30.252  34.913  1.00  0.00     0.074 A 
ATOM     63  C   UNL A   1      42.608  30.735  36.235  1.00  0.00     0.031 C 
ATOM     64  C   UNL A   1      42.941  29.287  34.247  1.00  0.00     0.037 A 
BRANCH  51  65
ATOM     65  C   UNL A   1      40.583  27.855  28.719  1.00  0.00     0.064 A 
ATOM     66  C   UNL A   1      39.885  26.641  28.616  1.00  0.00     0.173 A 
ATOM     67  C   UNL A   1      41.341  28.274  27.617  1.00  0.00     0.173 A 
ATOM     68  F   UNL A   1      39.158  26.190  29.650  1.00  0.00    -0.203 F 
ATOM     69  C   UNL A   1      39.965  25.866  27.463  1.00  0.00     0.198 A 
ATOM     70  C   UNL A   1      41.395  27.509  26.456  1.00  0.00     0.198 A 
ATOM     71  F   UNL A   1      42.025  29.427  27.665  1.00  0.00    -0.203 F 
ATOM     72  F   UNL A   1      39.328  24.688  27.405  1.00  0.00    -0.200 F 
ATOM     73  C   UNL A   1      40.714  26.304  26.381  1.00  0.00     0.200 A 
ATOM     74  F   UNL A   1      42.111  27.938  25.406  1.00  0.00    -0.200 F 
ATOM     75  F   UNL A   1      40.784  25.560  25.269  1.00  0.00    -0.200 F 
ENDBRANCH  51  65
BRANCH  52  76
ATOM     76  C   UNL A   1      39.641  33.699  36.769  1.00  0.00     0.064 A 
ATOM     77  C   UNL A   1      40.283  34.945  36.789  1.00  0.00     0.173 A 
ATOM     78  C   UNL A   1      38.861  33.348  37.881  1.00  0.00     0.173 A 
ATOM     79  F   UNL A   1      41.054  35.315  35.755  1.00  0.00    -0.203 F 
ATOM     80  C   UNL A   1      40.151  35.806  37.875  1.00  0.00     0.198 A 
ATOM     81  C   UNL A   1      38.713  34.220  38.958  1.00  0.00     0.198 A 
ATOM     82  F   UNL A   1      38.224  32.169  37.909  1.00  0.00    -0.203 F 
ATOM     83  F   UNL A   1      40.794  36.982  37.877  1.00  0.00    -0.200 F 
ATOM     84  C   UNL A   1      39.360  35.446  38.955  1.00  0.00     0.200 A 
ATOM     85  F   UNL A   1      37.938  33.874  39.995  1.00  0.00    -0.200 F 
ATOM     86  F   UNL A   1      39.223  36.281  39.996  1.00  0.00    -0.200 F 
ENDBRANCH  52  76
BRANCH  64  87
ATOM     87  C   UNL A   1      44.143  28.690  34.918  1.00  0.00     0.064 A 
ATOM     88  C   UNL A   1      44.038  27.543  35.717  1.00  0.00     0.173 A 
ATOM     89  C   UNL A   1      45.423  29.211  34.675  1.00  0.00     0.173 A 
ATOM     90  F   UNL A   1      42.835  27.016  35.988  1.00  0.00    -0.203 F 
ATOM     91  C   UNL A   1      45.173  26.941  36.251  1.00  0.00     0.198 A 
ATOM     92  C   UNL A   1      46.557  28.591  35.189  1.00  0.00     0.198 A 
ATOM     93  F   UNL A   1      45.574  30.303  33.909  1.00  0.00    -0.203 F 
ATOM     94  F   UNL A   1      45.051  25.857  37.030  1.00  0.00    -0.200 F 
ATOM     95  C   UNL A   1      46.432  27.458  35.978  1.00  0.00     0.200 A 
ATOM     96  F   UNL A   1      47.773  29.083  34.911  1.00  0.00    -0.200 F 
ATOM     97  F   UNL A   1      47.525  26.863  36.474  1.00  0.00    -0.200 F 
ENDBRANCH  64  87
ENDBRANCH  38  39
ENDBRANCH  30  33
ENDBRANCH  28  29
ENDBRANCH  27  28
ENDBRANCH   1  27
TORSDOF 16
ENDMDL
