MODEL 1
REMARK VINA RESULT:     -11.9      0.000      0.000
REMARK SMILES CCc1ccc(C(=O)N2CSC[C@H]2C(=O)NCCCCNC(=O)c2ccc(-c3c4nc(c(-c5c(F)c(F)c(F)c(F)c5F)c5ccc([nH]5)c(-c5c(F)c(F)c(F)c(F)c5F)c5nc(c(-c6c(F)c(F)c(F)c(F)c6F)c6ccc3[nH]6)C=C5)C=C4)cc2)o1
REMARK SMILES IDX 18 1 17 2 16 3 14 4 15 5 13 7 9 8 10 9 11 10 12 11 7 12 8 13
REMARK SMILES IDX 6 14 3 15 4 16 87 17 5 18 2 19 1 20 19 21 20 22 21 23 22 24
REMARK SMILES IDX 23 26 24 27 25 28 86 29 26 30 85 31 27 32 28 33 29 34 79 35
REMARK SMILES IDX 30 36 84 37 78 38 80 39 31 40 83 41 77 42 76 43 32 45 64 46
REMARK SMILES IDX 44 47 63 48 45 49 48 50 62 51 81 52 46 53 47 54 61 56 82 57
REMARK SMILES IDX 49 58 33 59 34 60 42 61 35 62 36 63 40 64 43 65 37 66 38 67
REMARK SMILES IDX 41 68 39 69 65 70 66 71 74 72 67 73 68 74 72 75 75 76 69 77
REMARK SMILES IDX 70 78 73 79 71 80 50 81 51 82 59 83 52 84 53 85 57 86 60 87
REMARK SMILES IDX 54 88 55 89 58 90 56 91
REMARK H PARENT 16 6 21 25 80 44 48 55
REMARK Flexibility Score: inf
ROOT
ATOM      1  C   UNL A   1      31.667  30.443  25.852  1.00  0.00     0.023 C 
ENDROOT
BRANCH   1   2
ATOM      2  C   UNL A   1      31.778  29.294  26.844  1.00  0.00     0.116 C 
BRANCH   2   3
ATOM      3  N   UNL A   1      32.814  28.360  26.477  1.00  0.00    -0.354 N 
ATOM      4  C   UNL A   1      32.801  27.331  25.584  1.00  0.00     0.243 C 
ATOM      5  O   UNL A   1      33.902  26.842  25.302  1.00  0.00    -0.273 OA
ATOM      6  H   UNL A   1      33.669  28.484  26.948  1.00  0.00     0.163 HD
BRANCH   4   7
ATOM      7  C   UNL A   1      31.541  26.913  24.795  1.00  0.00     0.185 C 
ATOM      8  N   UNL A   1      31.566  26.989  23.328  1.00  0.00    -0.314 N 
ATOM      9  C   UNL A   1      31.517  25.727  22.634  1.00  0.00     0.191 C 
ATOM     10  S   UNL A   1      30.653  24.591  23.729  1.00  0.00    -0.138 SA
ATOM     11  C   UNL A   1      31.060  25.527  25.235  1.00  0.00     0.106 C 
BRANCH   8  12
ATOM     12  C   UNL A   1      31.359  28.240  22.751  1.00  0.00     0.290 C 
ATOM     13  O   UNL A   1      32.339  28.971  22.550  1.00  0.00    -0.265 OA
BRANCH  12  14
ATOM     14  C   UNL A   1      29.993  28.695  22.530  1.00  0.00     0.191 A 
ATOM     15  C   UNL A   1      28.467  30.078  21.719  1.00  0.00     0.104 A 
ATOM     16  C   UNL A   1      27.800  29.231  22.574  1.00  0.00     0.046 A 
ATOM     17  O   UNL A   1      29.788  29.750  21.671  1.00  0.00    -0.456 OA
ATOM     18  C   UNL A   1      28.781  28.378  23.126  1.00  0.00     0.056 A 
BRANCH  15  19
ATOM     19  C   UNL A   1      28.028  31.272  20.953  1.00  0.00     0.072 C 
ATOM     20  C   UNL A   1      28.400  32.580  21.625  1.00  0.00     0.012 C 
ENDBRANCH  15  19
ENDBRANCH  12  14
ENDBRANCH   8  12
ENDBRANCH   4   7
ENDBRANCH   2   3
ENDBRANCH   1   2
BRANCH   1  21
ATOM     21  C   UNL A   1      31.403  31.803  26.501  1.00  0.00     0.023 C 
BRANCH  21  22
ATOM     22  C   UNL A   1      32.606  32.433  27.195  1.00  0.00     0.116 C 
BRANCH  22  23
ATOM     23  N   UNL A   1      32.404  33.828  27.558  1.00  0.00    -0.352 N 
ATOM     24  C   UNL A   1      33.091  34.580  28.480  1.00  0.00     0.251 C 
ATOM     25  H   UNL A   1      31.681  34.293  27.079  1.00  0.00     0.163 HD
ATOM     26  O   UNL A   1      32.725  35.717  28.751  1.00  0.00    -0.269 OA
BRANCH  24  27
ATOM     27  C   UNL A   1      34.255  33.989  29.172  1.00  0.00     0.039 A 
ATOM     28  C   UNL A   1      34.033  33.025  30.156  1.00  0.00     0.014 A 
ATOM     29  C   UNL A   1      35.556  34.366  28.831  1.00  0.00     0.014 A 
ATOM     30  C   UNL A   1      35.122  32.395  30.760  1.00  0.00     0.010 A 
ATOM     31  C   UNL A   1      36.637  33.683  29.377  1.00  0.00     0.010 A 
ATOM     32  C   UNL A   1      36.432  32.697  30.352  1.00  0.00    -0.014 A 
BRANCH  32  33
ATOM     33  C   UNL A   1      37.598  32.002  30.955  1.00  0.00     0.031 A 
ATOM     34  C   UNL A   1      38.068  32.378  32.332  1.00  0.00     0.074 A 
ATOM     35  C   UNL A   1      38.256  31.065  30.245  1.00  0.00     0.049 A 
ATOM     36  N   UNL A   1      39.085  31.917  33.016  1.00  0.00    -0.248 NA
ATOM     37  C   UNL A   1      37.312  33.434  33.025  1.00  0.00     0.031 C 
ATOM     38  C   UNL A   1      37.930  30.652  28.879  1.00  0.00     0.029 A 
ATOM     39  N   UNL A   1      39.343  30.294  30.574  1.00  0.00    -0.354 N 
ATOM     40  C   UNL A   1      39.091  32.627  34.209  1.00  0.00     0.074 A 
ATOM     41  C   UNL A   1      38.020  33.595  34.133  1.00  0.00     0.031 C 
ATOM     42  C   UNL A   1      38.781  29.687  28.496  1.00  0.00     0.029 A 
ATOM     43  C   UNL A   1      39.732  29.435  29.574  1.00  0.00     0.049 A 
ATOM     44  H   UNL A   1      39.801  30.350  31.443  1.00  0.00     0.167 HD
ATOM     45  C   UNL A   1      39.897  32.464  35.285  1.00  0.00     0.037 A 
ATOM     46  C   UNL A   1      40.746  28.548  29.533  1.00  0.00     0.037 A 
ATOM     47  C   UNL A   1      40.945  31.481  35.367  1.00  0.00     0.049 A 
ATOM     48  C   UNL A   1      41.629  28.392  30.743  1.00  0.00     0.074 A 
ATOM     49  C   UNL A   1      41.785  31.203  36.430  1.00  0.00     0.029 A 
ATOM     50  N   UNL A   1      41.296  30.615  34.343  1.00  0.00    -0.354 N 
ATOM     51  N   UNL A   1      41.577  29.017  31.894  1.00  0.00    -0.248 NA
ATOM     52  C   UNL A   1      42.707  27.397  30.651  1.00  0.00     0.031 C 
ATOM     53  C   UNL A   1      42.673  30.198  36.035  1.00  0.00     0.029 A 
ATOM     54  C   UNL A   1      42.352  29.813  34.744  1.00  0.00     0.049 A 
ATOM     55  H   UNL A   1      40.860  30.576  33.460  1.00  0.00     0.167 HD
ATOM     56  C   UNL A   1      42.591  28.473  32.671  1.00  0.00     0.074 A 
ATOM     57  C   UNL A   1      43.229  27.451  31.868  1.00  0.00     0.031 C 
ATOM     58  C   UNL A   1      42.965  28.792  33.934  1.00  0.00     0.037 A 
BRANCH  45  59
ATOM     59  C   UNL A   1      39.666  33.356  36.470  1.00  0.00     0.064 A 
ATOM     60  C   UNL A   1      40.289  34.609  36.575  1.00  0.00     0.173 A 
ATOM     61  C   UNL A   1      38.774  32.979  37.485  1.00  0.00     0.173 A 
ATOM     62  F   UNL A   1      41.160  35.011  35.637  1.00  0.00    -0.203 F 
ATOM     63  C   UNL A   1      40.045  35.442  37.664  1.00  0.00     0.198 A 
ATOM     64  C   UNL A   1      38.510  33.828  38.557  1.00  0.00     0.198 A 
ATOM     65  F   UNL A   1      38.149  31.793  37.432  1.00  0.00    -0.203 F 
ATOM     66  F   UNL A   1      40.685  36.614  37.765  1.00  0.00    -0.200 F 
ATOM     67  C   UNL A   1      39.150  35.054  38.649  1.00  0.00     0.200 A 
ATOM     68  F   UNL A   1      37.633  33.458  39.501  1.00  0.00    -0.200 F 
ATOM     69  F   UNL A   1      38.906  35.862  39.690  1.00  0.00    -0.200 F 
ENDBRANCH  45  59
BRANCH  46  70
ATOM     70  C   UNL A   1      40.973  27.724  28.317  1.00  0.00     0.064 A 
ATOM     71  C   UNL A   1      40.385  26.457  28.183  1.00  0.00     0.173 A 
ATOM     72  C   UNL A   1      41.806  28.166  27.279  1.00  0.00     0.173 A 
ATOM     73  F   UNL A   1      39.596  25.979  29.157  1.00  0.00    -0.203 F 
ATOM     74  C   UNL A   1      40.648  25.653  27.076  1.00  0.00     0.198 A 
ATOM     75  C   UNL A   1      42.043  27.375  26.157  1.00  0.00     0.198 A 
ATOM     76  F   UNL A   1      42.388  29.373  27.354  1.00  0.00    -0.203 F 
ATOM     77  F   UNL A   1      40.122  24.422  27.005  1.00  0.00    -0.200 F 
ATOM     78  C   UNL A   1      41.475  26.114  26.063  1.00  0.00     0.200 A 
ATOM     79  F   UNL A   1      42.830  27.830  25.174  1.00  0.00    -0.200 F 
ATOM     80  F   UNL A   1      41.732  25.338  25.001  1.00  0.00    -0.200 F 
ENDBRANCH  46  70
BRANCH  58  81
ATOM     81  C   UNL A   1      44.088  28.002  34.540  1.00  0.00     0.064 A 
ATOM     82  C   UNL A   1      45.419  28.439  34.466  1.00  0.00     0.173 A 
ATOM     83  C   UNL A   1      43.824  26.814  35.239  1.00  0.00     0.173 A 
ATOM     84  F   UNL A   1      45.725  29.561  33.798  1.00  0.00    -0.203 F 
ATOM     85  C   UNL A   1      46.448  27.699  35.043  1.00  0.00     0.198 A 
ATOM     86  C   UNL A   1      44.851  26.094  35.843  1.00  0.00     0.198 A 
ATOM     87  F   UNL A   1      42.568  26.358  35.346  1.00  0.00    -0.203 F 
ATOM     88  F   UNL A   1      47.717  28.108  34.916  1.00  0.00    -0.200 F 
ATOM     89  C   UNL A   1      46.161  26.533  35.738  1.00  0.00     0.200 A 
ATOM     90  F   UNL A   1      44.570  24.976  36.527  1.00  0.00    -0.200 F 
ATOM     91  F   UNL A   1      47.152  25.826  36.300  1.00  0.00    -0.200 F 
ENDBRANCH  58  81
ENDBRANCH  32  33
ENDBRANCH  24  27
ENDBRANCH  22  23
ENDBRANCH  21  22
ENDBRANCH   1  21
TORSDOF 14
ENDMDL
MODEL 2
REMARK VINA RESULT:     -11.9      0.862      7.442
REMARK SMILES CCc1ccc(C(=O)N2CSC[C@H]2C(=O)NCCCCNC(=O)c2ccc(-c3c4nc(c(-c5c(F)c(F)c(F)c(F)c5F)c5ccc([nH]5)c(-c5c(F)c(F)c(F)c(F)c5F)c5nc(c(-c6c(F)c(F)c(F)c(F)c6F)c6ccc3[nH]6)C=C5)C=C4)cc2)o1
REMARK SMILES IDX 18 1 17 2 16 3 14 4 15 5 13 7 9 8 10 9 11 10 12 11 7 12 8 13
REMARK SMILES IDX 6 14 3 15 4 16 87 17 5 18 2 19 1 20 19 21 20 22 21 23 22 24
REMARK SMILES IDX 23 26 24 27 25 28 86 29 26 30 85 31 27 32 28 33 29 34 79 35
REMARK SMILES IDX 30 36 84 37 78 38 80 39 31 40 83 41 77 42 76 43 32 45 64 46
REMARK SMILES IDX 44 47 63 48 45 49 48 50 62 51 81 52 46 53 47 54 61 56 82 57
REMARK SMILES IDX 49 58 33 59 34 60 42 61 35 62 36 63 40 64 43 65 37 66 38 67
REMARK SMILES IDX 41 68 39 69 65 70 66 71 74 72 67 73 68 74 72 75 75 76 69 77
REMARK SMILES IDX 70 78 73 79 71 80 50 81 51 82 59 83 52 84 53 85 57 86 60 87
REMARK SMILES IDX 54 88 55 89 58 90 56 91
REMARK H PARENT 16 6 21 25 80 44 48 55
REMARK Flexibility Score: inf
ROOT
ATOM      1  C   UNL A   1      31.775  30.651  25.992  1.00  0.00     0.023 C 
ENDROOT
BRANCH   1   2
ATOM      2  C   UNL A   1      31.769  29.492  26.979  1.00  0.00     0.116 C 
BRANCH   2   3
ATOM      3  N   UNL A   1      32.806  28.531  26.692  1.00  0.00    -0.354 N 
ATOM      4  C   UNL A   1      32.799  27.440  25.877  1.00  0.00     0.243 C 
ATOM      5  O   UNL A   1      33.901  26.928  25.643  1.00  0.00    -0.273 OA
ATOM      6  H   UNL A   1      33.657  28.688  27.161  1.00  0.00     0.163 HD
BRANCH   4   7
ATOM      7  C   UNL A   1      31.546  26.967  25.108  1.00  0.00     0.185 C 
ATOM      8  N   UNL A   1      31.530  27.076  23.644  1.00  0.00    -0.314 N 
ATOM      9  C   UNL A   1      31.535  25.828  22.923  1.00  0.00     0.191 C 
ATOM     10  S   UNL A   1      30.764  24.622  24.011  1.00  0.00    -0.138 SA
ATOM     11  C   UNL A   1      31.154  25.547  25.528  1.00  0.00     0.106 C 
BRANCH   8  12
ATOM     12  C   UNL A   1      31.239  28.325  23.100  1.00  0.00     0.290 C 
ATOM     13  O   UNL A   1      32.178  29.076  22.802  1.00  0.00    -0.265 OA
BRANCH  12  14
ATOM     14  C   UNL A   1      29.849  28.754  23.028  1.00  0.00     0.191 A 
ATOM     15  C   UNL A   1      28.226  30.256  23.125  1.00  0.00     0.104 A 
ATOM     16  C   UNL A   1      27.607  29.028  23.071  1.00  0.00     0.046 A 
ATOM     17  O   UNL A   1      29.578  30.101  23.080  1.00  0.00    -0.456 OA
ATOM     18  C   UNL A   1      28.643  28.068  23.055  1.00  0.00     0.056 A 
BRANCH  15  19
ATOM     19  C   UNL A   1      27.698  31.632  23.300  1.00  0.00     0.072 C 
ATOM     20  C   UNL A   1      28.763  32.702  23.150  1.00  0.00     0.012 C 
ENDBRANCH  15  19
ENDBRANCH  12  14
ENDBRANCH   8  12
ENDBRANCH   4   7
ENDBRANCH   2   3
ENDBRANCH   1   2
BRANCH   1  21
ATOM     21  C   UNL A   1      31.436  32.005  26.620  1.00  0.00     0.023 C 
BRANCH  21  22
ATOM     22  C   UNL A   1      32.610  32.728  27.270  1.00  0.00     0.116 C 
BRANCH  22  23
ATOM     23  N   UNL A   1      32.329  34.119  27.596  1.00  0.00    -0.352 N 
ATOM     24  C   UNL A   1      32.941  34.919  28.530  1.00  0.00     0.251 C 
ATOM     25  H   UNL A   1      31.605  34.540  27.080  1.00  0.00     0.163 HD
ATOM     26  O   UNL A   1      32.511  36.042  28.763  1.00  0.00    -0.269 OA
BRANCH  24  27
ATOM     27  C   UNL A   1      34.102  34.397  29.280  1.00  0.00     0.039 A 
ATOM     28  C   UNL A   1      33.877  33.708  30.473  1.00  0.00     0.014 A 
ATOM     29  C   UNL A   1      35.401  34.564  28.793  1.00  0.00     0.014 A 
ATOM     30  C   UNL A   1      34.954  33.135  31.149  1.00  0.00     0.010 A 
ATOM     31  C   UNL A   1      36.462  33.927  29.426  1.00  0.00     0.010 A 
ATOM     32  C   UNL A   1      36.252  33.213  30.615  1.00  0.00    -0.014 A 
BRANCH  32  33
ATOM     33  C   UNL A   1      37.399  32.570  31.302  1.00  0.00     0.031 A 
ATOM     34  C   UNL A   1      38.128  31.432  30.643  1.00  0.00     0.074 A 
ATOM     35  C   UNL A   1      37.757  32.983  32.534  1.00  0.00     0.049 A 
ATOM     36  N   UNL A   1      39.128  30.716  31.094  1.00  0.00    -0.248 NA
ATOM     37  C   UNL A   1      37.652  31.022  29.312  1.00  0.00     0.031 C 
ATOM     38  C   UNL A   1      37.094  34.040  33.299  1.00  0.00     0.029 A 
ATOM     39  N   UNL A   1      38.765  32.556  33.362  1.00  0.00    -0.354 N 
ATOM     40  C   UNL A   1      39.394  29.776  30.108  1.00  0.00     0.074 A 
ATOM     41  C   UNL A   1      38.412  29.966  29.063  1.00  0.00     0.031 C 
ATOM     42  C   UNL A   1      37.726  34.197  34.473  1.00  0.00     0.029 A 
ATOM     43  C   UNL A   1      38.818  33.232  34.558  1.00  0.00     0.049 A 
ATOM     44  H   UNL A   1      39.391  31.836  33.124  1.00  0.00     0.167 HD
ATOM     45  C   UNL A   1      40.389  28.859  30.061  1.00  0.00     0.037 A 
ATOM     46  C   UNL A   1      39.653  33.084  35.605  1.00  0.00     0.037 A 
ATOM     47  C   UNL A   1      41.381  28.690  31.090  1.00  0.00     0.049 A 
ATOM     48  C   UNL A   1      40.747  32.051  35.528  1.00  0.00     0.074 A 
ATOM     49  C   UNL A   1      42.458  27.823  31.116  1.00  0.00     0.029 A 
ATOM     50  N   UNL A   1      41.415  29.406  32.277  1.00  0.00    -0.354 N 
ATOM     51  N   UNL A   1      41.034  31.219  34.557  1.00  0.00    -0.248 NA
ATOM     52  C   UNL A   1      41.640  31.945  36.690  1.00  0.00     0.031 C 
ATOM     53  C   UNL A   1      43.119  27.984  32.337  1.00  0.00     0.029 A 
ATOM     54  C   UNL A   1      42.485  28.988  33.050  1.00  0.00     0.049 A 
ATOM     55  H   UNL A   1      40.773  30.108  32.533  1.00  0.00     0.167 HD
ATOM     56  C   UNL A   1      42.154  30.515  34.976  1.00  0.00     0.074 A 
ATOM     57  C   UNL A   1      42.508  31.031  36.281  1.00  0.00     0.031 C 
ATOM     58  C   UNL A   1      42.829  29.525  34.341  1.00  0.00     0.037 A 
BRANCH  45  59
ATOM     59  C   UNL A   1      40.467  27.976  28.849  1.00  0.00     0.064 A 
ATOM     60  C   UNL A   1      41.255  28.323  27.742  1.00  0.00     0.173 A 
ATOM     61  C   UNL A   1      39.789  26.749  28.814  1.00  0.00     0.173 A 
ATOM     62  F   UNL A   1      41.914  29.492  27.720  1.00  0.00    -0.203 F 
ATOM     63  C   UNL A   1      41.344  27.484  26.634  1.00  0.00     0.198 A 
ATOM     64  C   UNL A   1      39.905  25.898  27.717  1.00  0.00     0.198 A 
ATOM     65  F   UNL A   1      39.024  26.367  29.848  1.00  0.00    -0.203 F 
ATOM     66  F   UNL A   1      42.068  27.856  25.570  1.00  0.00    -0.200 F 
ATOM     67  C   UNL A   1      40.676  26.269  26.626  1.00  0.00     0.200 A 
ATOM     68  F   UNL A   1      39.270  24.718  27.717  1.00  0.00    -0.200 F 
ATOM     69  F   UNL A   1      40.773  25.456  25.565  1.00  0.00    -0.200 F 
ENDBRANCH  45  59
BRANCH  46  70
ATOM     70  C   UNL A   1      39.504  33.943  36.810  1.00  0.00     0.064 A 
ATOM     71  C   UNL A   1      40.109  35.207  36.874  1.00  0.00     0.173 A 
ATOM     72  C   UNL A   1      38.786  33.508  37.933  1.00  0.00     0.173 A 
ATOM     73  F   UNL A   1      40.824  35.660  35.834  1.00  0.00    -0.203 F 
ATOM     74  C   UNL A   1      40.030  35.987  38.026  1.00  0.00     0.198 A 
ATOM     75  C   UNL A   1      38.680  34.303  39.073  1.00  0.00     0.198 A 
ATOM     76  F   UNL A   1      38.183  32.310  37.922  1.00  0.00    -0.203 F 
ATOM     77  F   UNL A   1      40.670  37.164  38.081  1.00  0.00    -0.200 F 
ATOM     78  C   UNL A   1      39.312  35.536  39.123  1.00  0.00     0.200 A 
ATOM     79  F   UNL A   1      37.974  33.869  40.125  1.00  0.00    -0.200 F 
ATOM     80  F   UNL A   1      39.240  36.284  40.232  1.00  0.00    -0.200 F 
ENDBRANCH  46  70
BRANCH  58  81
ATOM     81  C   UNL A   1      44.039  28.965  35.030  1.00  0.00     0.064 A 
ATOM     82  C   UNL A   1      45.313  29.524  34.849  1.00  0.00     0.173 A 
ATOM     83  C   UNL A   1      43.915  27.883  35.914  1.00  0.00     0.173 A 
ATOM     84  F   UNL A   1      45.487  30.550  34.004  1.00  0.00    -0.203 F 
ATOM     85  C   UNL A   1      46.424  28.999  35.505  1.00  0.00     0.198 A 
ATOM     86  C   UNL A   1      45.022  27.382  36.594  1.00  0.00     0.198 A 
ATOM     87  F   UNL A   1      42.718  27.318  36.129  1.00  0.00    -0.203 F 
ATOM     88  F   UNL A   1      47.639  29.515  35.278  1.00  0.00    -0.200 F 
ATOM     89  C   UNL A   1      46.275  27.935  36.383  1.00  0.00     0.200 A 
ATOM     90  F   UNL A   1      44.874  26.364  37.453  1.00  0.00    -0.200 F 
ATOM     91  F   UNL A   1      47.344  27.436  37.020  1.00  0.00    -0.200 F 
ENDBRANCH  58  81
ENDBRANCH  32  33
ENDBRANCH  24  27
ENDBRANCH  22  23
ENDBRANCH  21  22
ENDBRANCH   1  21
TORSDOF 14
ENDMDL
MODEL 3
REMARK VINA RESULT:     -11.9      0.371      1.654
REMARK SMILES CCc1ccc(C(=O)N2CSC[C@H]2C(=O)NCCCCNC(=O)c2ccc(-c3c4nc(c(-c5c(F)c(F)c(F)c(F)c5F)c5ccc([nH]5)c(-c5c(F)c(F)c(F)c(F)c5F)c5nc(c(-c6c(F)c(F)c(F)c(F)c6F)c6ccc3[nH]6)C=C5)C=C4)cc2)o1
REMARK SMILES IDX 18 1 17 2 16 3 14 4 15 5 13 7 9 8 10 9 11 10 12 11 7 12 8 13
REMARK SMILES IDX 6 14 3 15 4 16 87 17 5 18 2 19 1 20 19 21 20 22 21 23 22 24
REMARK SMILES IDX 23 26 24 27 25 28 86 29 26 30 85 31 27 32 28 33 29 34 79 35
REMARK SMILES IDX 30 36 84 37 78 38 80 39 31 40 83 41 77 42 76 43 32 45 64 46
REMARK SMILES IDX 44 47 63 48 45 49 48 50 62 51 81 52 46 53 47 54 61 56 82 57
REMARK SMILES IDX 49 58 33 59 34 60 42 61 35 62 36 63 40 64 43 65 37 66 38 67
REMARK SMILES IDX 41 68 39 69 65 70 66 71 74 72 67 73 68 74 72 75 75 76 69 77
REMARK SMILES IDX 70 78 73 79 71 80 50 81 51 82 59 83 52 84 53 85 57 86 60 87
REMARK SMILES IDX 54 88 55 89 58 90 56 91
REMARK H PARENT 16 6 21 25 80 44 48 55
REMARK Flexibility Score: inf
ROOT
ATOM      1  C   UNL A   1      31.690  30.721  26.034  1.00  0.00     0.023 C 
ENDROOT
BRANCH   1   2
ATOM      2  C   UNL A   1      31.786  29.640  27.102  1.00  0.00     0.116 C 
BRANCH   2   3
ATOM      3  N   UNL A   1      32.802  28.663  26.794  1.00  0.00    -0.354 N 
ATOM      4  C   UNL A   1      32.778  27.602  25.942  1.00  0.00     0.243 C 
ATOM      5  O   UNL A   1      33.870  27.070  25.704  1.00  0.00    -0.273 OA
ATOM      6  H   UNL A   1      33.650  28.782  27.279  1.00  0.00     0.163 HD
BRANCH   4   7
ATOM      7  C   UNL A   1      31.523  27.188  25.142  1.00  0.00     0.185 C 
ATOM      8  N   UNL A   1      31.595  27.163  23.675  1.00  0.00    -0.314 N 
ATOM      9  C   UNL A   1      31.507  25.860  23.066  1.00  0.00     0.191 C 
ATOM     10  S   UNL A   1      30.558  24.842  24.205  1.00  0.00    -0.138 SA
ATOM     11  C   UNL A   1      30.964  25.858  25.657  1.00  0.00     0.106 C 
BRANCH   8  12
ATOM     12  C   UNL A   1      31.465  28.379  23.009  1.00  0.00     0.290 C 
ATOM     13  O   UNL A   1      32.484  29.050  22.792  1.00  0.00    -0.265 OA
BRANCH  12  14
ATOM     14  C   UNL A   1      30.129  28.881  22.715  1.00  0.00     0.191 A 
ATOM     15  C   UNL A   1      28.678  30.452  22.144  1.00  0.00     0.104 A 
ATOM     16  C   UNL A   1      27.931  29.370  22.550  1.00  0.00     0.046 A 
ATOM     17  O   UNL A   1      30.006  30.159  22.222  1.00  0.00    -0.456 OA
ATOM     18  C   UNL A   1      28.856  28.384  22.957  1.00  0.00     0.056 A 
BRANCH  15  19
ATOM     19  C   UNL A   1      28.302  31.830  21.742  1.00  0.00     0.072 C 
ATOM     20  C   UNL A   1      28.741  32.883  22.743  1.00  0.00     0.012 C 
ENDBRANCH  15  19
ENDBRANCH  12  14
ENDBRANCH   8  12
ENDBRANCH   4   7
ENDBRANCH   2   3
ENDBRANCH   1   2
BRANCH   1  21
ATOM     21  C   UNL A   1      31.433  32.123  26.589  1.00  0.00     0.023 C 
BRANCH  21  22
ATOM     22  C   UNL A   1      32.644  32.801  27.220  1.00  0.00     0.116 C 
BRANCH  22  23
ATOM     23  N   UNL A   1      32.381  34.159  27.674  1.00  0.00    -0.352 N 
ATOM     24  C   UNL A   1      33.020  34.870  28.660  1.00  0.00     0.251 C 
ATOM     25  H   UNL A   1      31.648  34.628  27.214  1.00  0.00     0.163 HD
ATOM     26  O   UNL A   1      32.604  35.971  29.001  1.00  0.00    -0.269 OA
BRANCH  24  27
ATOM     27  C   UNL A   1      34.195  34.278  29.333  1.00  0.00     0.039 A 
ATOM     28  C   UNL A   1      33.989  33.438  30.428  1.00  0.00     0.014 A 
ATOM     29  C   UNL A   1      35.487  34.531  28.867  1.00  0.00     0.014 A 
ATOM     30  C   UNL A   1      35.080  32.803  31.022  1.00  0.00     0.010 A 
ATOM     31  C   UNL A   1      36.564  33.838  29.410  1.00  0.00     0.010 A 
ATOM     32  C   UNL A   1      36.373  32.973  30.498  1.00  0.00    -0.014 A 
BRANCH  32  33
ATOM     33  C   UNL A   1      37.536  32.269  31.093  1.00  0.00     0.031 A 
ATOM     34  C   UNL A   1      38.024  32.648  32.464  1.00  0.00     0.074 A 
ATOM     35  C   UNL A   1      38.176  31.319  30.383  1.00  0.00     0.049 A 
ATOM     36  N   UNL A   1      39.043  32.179  33.140  1.00  0.00    -0.248 NA
ATOM     37  C   UNL A   1      37.287  33.717  33.158  1.00  0.00     0.031 C 
ATOM     38  C   UNL A   1      37.831  30.902  29.023  1.00  0.00     0.029 A 
ATOM     39  N   UNL A   1      39.257  30.538  30.706  1.00  0.00    -0.354 N 
ATOM     40  C   UNL A   1      39.070  32.897  34.328  1.00  0.00     0.074 A 
ATOM     41  C   UNL A   1      38.009  33.877  34.257  1.00  0.00     0.031 C 
ATOM     42  C   UNL A   1      38.667  29.924  28.637  1.00  0.00     0.029 A 
ATOM     43  C   UNL A   1      39.626  29.668  29.707  1.00  0.00     0.049 A 
ATOM     44  H   UNL A   1      39.724  30.594  31.570  1.00  0.00     0.167 HD
ATOM     45  C   UNL A   1      39.884  32.730  35.397  1.00  0.00     0.037 A 
ATOM     46  C   UNL A   1      40.629  28.769  29.662  1.00  0.00     0.037 A 
ATOM     47  C   UNL A   1      40.922  31.736  35.475  1.00  0.00     0.049 A 
ATOM     48  C   UNL A   1      41.523  28.610  30.864  1.00  0.00     0.074 A 
ATOM     49  C   UNL A   1      41.769  31.455  36.532  1.00  0.00     0.029 A 
ATOM     50  N   UNL A   1      41.252  30.860  34.453  1.00  0.00    -0.354 N 
ATOM     51  N   UNL A   1      41.490  29.243  32.012  1.00  0.00    -0.248 NA
ATOM     52  C   UNL A   1      42.588  27.603  30.768  1.00  0.00     0.031 C 
ATOM     53  C   UNL A   1      42.640  30.437  36.133  1.00  0.00     0.029 A 
ATOM     54  C   UNL A   1      42.303  30.048  34.848  1.00  0.00     0.049 A 
ATOM     55  H   UNL A   1      40.806  30.820  33.575  1.00  0.00     0.167 HD
ATOM     56  C   UNL A   1      42.504  28.692  32.781  1.00  0.00     0.074 A 
ATOM     57  C   UNL A   1      43.123  27.658  31.979  1.00  0.00     0.031 C 
ATOM     58  C   UNL A   1      42.895  29.015  34.039  1.00  0.00     0.037 A 
BRANCH  45  59
ATOM     59  C   UNL A   1      39.675  33.632  36.578  1.00  0.00     0.064 A 
ATOM     60  C   UNL A   1      40.272  34.900  36.645  1.00  0.00     0.173 A 
ATOM     61  C   UNL A   1      38.830  33.248  37.630  1.00  0.00     0.173 A 
ATOM     62  F   UNL A   1      41.099  35.311  35.671  1.00  0.00    -0.203 F 
ATOM     63  C   UNL A   1      40.049  35.742  37.732  1.00  0.00     0.198 A 
ATOM     64  C   UNL A   1      38.585  34.105  38.701  1.00  0.00     0.198 A 
ATOM     65  F   UNL A   1      38.231  32.048  37.614  1.00  0.00    -0.203 F 
ATOM     66  F   UNL A   1      40.664  36.930  37.796  1.00  0.00    -0.200 F 
ATOM     67  C   UNL A   1      39.199  35.347  38.755  1.00  0.00     0.200 A 
ATOM     68  F   UNL A   1      37.752  33.728  39.681  1.00  0.00    -0.200 F 
ATOM     69  F   UNL A   1      38.974  36.163  39.794  1.00  0.00    -0.200 F 
ENDBRANCH  45  59
BRANCH  46  70
ATOM     70  C   UNL A   1      40.834  27.935  28.449  1.00  0.00     0.064 A 
ATOM     71  C   UNL A   1      41.605  28.401  27.374  1.00  0.00     0.173 A 
ATOM     72  C   UNL A   1      40.239  26.671  28.322  1.00  0.00     0.173 A 
ATOM     73  F   UNL A   1      42.178  29.611  27.437  1.00  0.00    -0.203 F 
ATOM     74  C   UNL A   1      41.745  27.651  26.208  1.00  0.00     0.198 A 
ATOM     75  C   UNL A   1      40.406  25.907  27.169  1.00  0.00     0.198 A 
ATOM     76  F   UNL A   1      39.497  26.175  29.324  1.00  0.00    -0.203 F 
ATOM     77  F   UNL A   1      42.436  28.149  25.172  1.00  0.00    -0.200 F 
ATOM     78  C   UNL A   1      41.148  26.403  26.108  1.00  0.00     0.200 A 
ATOM     79  F   UNL A   1      39.840  24.697  27.082  1.00  0.00    -0.200 F 
ATOM     80  F   UNL A   1      41.278  25.685  24.984  1.00  0.00    -0.200 F 
ENDBRANCH  46  70
BRANCH  58  81
ATOM     81  C   UNL A   1      44.015  28.215  34.638  1.00  0.00     0.064 A 
ATOM     82  C   UNL A   1      43.778  27.017  35.328  1.00  0.00     0.173 A 
ATOM     83  C   UNL A   1      45.346  28.633  34.484  1.00  0.00     0.173 A 
ATOM     84  F   UNL A   1      42.523  26.582  35.514  1.00  0.00    -0.203 F 
ATOM     85  C   UNL A   1      44.830  26.282  35.867  1.00  0.00     0.198 A 
ATOM     86  C   UNL A   1      46.398  27.879  34.996  1.00  0.00     0.198 A 
ATOM     87  F   UNL A   1      45.628  29.766  33.826  1.00  0.00    -0.203 F 
ATOM     88  F   UNL A   1      44.576  25.168  36.567  1.00  0.00    -0.200 F 
ATOM     89  C   UNL A   1      46.138  26.709  35.694  1.00  0.00     0.200 A 
ATOM     90  F   UNL A   1      47.662  28.285  34.814  1.00  0.00    -0.200 F 
ATOM     91  F   UNL A   1      47.151  25.996  36.207  1.00  0.00    -0.200 F 
ENDBRANCH  58  81
ENDBRANCH  32  33
ENDBRANCH  24  27
ENDBRANCH  22  23
ENDBRANCH  21  22
ENDBRANCH   1  21
TORSDOF 14
ENDMDL
