MODEL 1
REMARK VINA RESULT:     -11.8      0.000      0.000
REMARK SMILES C[C@H](C(=O)NCCCCNC(=O)c1ccc(-c2c3nc(c(-c4c(F)c(F)c(F)c(F)c4F)c4ccc([nH]4)c(-c4c(F)c(F)c(F)c(F)c4F)c4nc(c(-c5c(F)c(F)c(F)c(F)c5F)c5ccc2[nH]5)C=C4)C=C3)cc1)[C@H](C)n1cnc2cc(F)c(F)cc21
REMARK SMILES IDX 7 1 6 2 5 3 3 4 4 5 2 7 1 8 76 9 77 10 78 11 79 12 88 13
REMARK SMILES IDX 80 14 81 15 87 16 82 17 85 18 83 19 86 20 84 21 8 22 9 23
REMARK SMILES IDX 10 24 11 25 12 27 13 28 14 29 75 30 15 31 74 32 16 33 17 34
REMARK SMILES IDX 18 35 68 36 19 37 73 38 67 39 69 40 20 41 72 42 66 43 65 44
REMARK SMILES IDX 21 46 53 47 33 48 52 49 34 50 37 51 51 52 70 53 35 54 36 55
REMARK SMILES IDX 50 57 71 58 38 59 22 60 23 61 31 62 24 63 25 64 29 65 32 66
REMARK SMILES IDX 26 67 27 68 30 69 28 70 54 71 55 72 63 73 56 74 57 75 61 76
REMARK SMILES IDX 64 77 58 78 59 79 62 80 60 81 39 82 40 83 48 84 41 85 42 86
REMARK SMILES IDX 46 87 49 88 43 89 44 90 47 91 45 92
REMARK H PARENT 5 6 10 26 69 45 37 56
REMARK Flexibility Score: inf
ROOT
ATOM      1  C   UNL A   1      31.062  30.881  25.517  1.00  0.00     0.023 C 
ENDROOT
BRANCH   1   2
ATOM      2  C   UNL A   1      30.114  30.874  24.322  1.00  0.00     0.116 C 
BRANCH   2   3
ATOM      3  N   UNL A   1      30.563  30.040  23.226  1.00  0.00    -0.356 N 
ATOM      4  C   UNL A   1      29.780  29.004  22.793  1.00  0.00     0.224 C 
ATOM      5  O   UNL A   1      29.227  29.114  21.702  1.00  0.00    -0.275 OA
ATOM      6  H   UNL A   1      31.429  30.218  22.793  1.00  0.00     0.163 HD
BRANCH   4   7
ATOM      7  C   UNL A   1      29.686  27.752  23.664  1.00  0.00     0.098 C 
ATOM      8  C   UNL A   1      28.249  27.227  23.569  1.00  0.00     0.020 C 
BRANCH   7   9
ATOM      9  C   UNL A   1      30.716  26.636  23.271  1.00  0.00     0.098 C 
ATOM     10  C   UNL A   1      30.203  25.231  23.603  1.00  0.00     0.032 C 
BRANCH   9  11
ATOM     11  N   UNL A   1      32.079  26.884  23.744  1.00  0.00    -0.327 N 
ATOM     12  C   UNL A   1      33.138  27.133  22.906  1.00  0.00     0.200 A 
ATOM     13  C   UNL A   1      32.467  27.259  25.015  1.00  0.00     0.071 A 
ATOM     14  N   UNL A   1      34.070  27.839  23.503  1.00  0.00    -0.237 NA
ATOM     15  C   UNL A   1      33.621  28.012  24.787  1.00  0.00     0.092 A 
ATOM     16  C   UNL A   1      31.868  27.164  26.278  1.00  0.00     0.071 A 
ATOM     17  C   UNL A   1      34.125  28.833  25.806  1.00  0.00     0.073 A 
ATOM     18  C   UNL A   1      32.383  27.992  27.274  1.00  0.00     0.161 A 
ATOM     19  C   UNL A   1      33.463  28.834  27.034  1.00  0.00     0.161 A 
ATOM     20  F   UNL A   1      31.767  28.015  28.465  1.00  0.00    -0.204 F 
ATOM     21  F   UNL A   1      33.865  29.680  27.993  1.00  0.00    -0.204 F 
ENDBRANCH   9  11
ENDBRANCH   7   9
ENDBRANCH   4   7
ENDBRANCH   2   3
ENDBRANCH   1   2
BRANCH   1  22
ATOM     22  C   UNL A   1      31.022  32.121  26.419  1.00  0.00     0.023 C 
BRANCH  22  23
ATOM     23  C   UNL A   1      32.346  32.563  27.040  1.00  0.00     0.116 C 
BRANCH  23  24
ATOM     24  N   UNL A   1      32.331  33.947  27.477  1.00  0.00    -0.352 N 
ATOM     25  C   UNL A   1      33.066  34.601  28.434  1.00  0.00     0.251 C 
ATOM     26  H   UNL A   1      31.680  34.516  27.004  1.00  0.00     0.163 HD
ATOM     27  O   UNL A   1      32.759  35.754  28.729  1.00  0.00    -0.269 OA
BRANCH  25  28
ATOM     28  C   UNL A   1      34.208  33.958  29.130  1.00  0.00     0.039 A 
ATOM     29  C   UNL A   1      35.501  34.396  28.818  1.00  0.00     0.014 A 
ATOM     30  C   UNL A   1      34.044  32.880  30.005  1.00  0.00     0.014 A 
ATOM     31  C   UNL A   1      36.616  33.783  29.398  1.00  0.00     0.010 A 
ATOM     32  C   UNL A   1      35.155  32.313  30.639  1.00  0.00     0.010 A 
ATOM     33  C   UNL A   1      36.453  32.742  30.326  1.00  0.00    -0.014 A 
BRANCH  33  34
ATOM     34  C   UNL A   1      37.638  32.077  30.933  1.00  0.00     0.031 A 
ATOM     35  C   UNL A   1      38.089  32.446  32.322  1.00  0.00     0.074 A 
ATOM     36  C   UNL A   1      38.325  31.155  30.232  1.00  0.00     0.049 A 
ATOM     37  N   UNL A   1      39.094  31.976  33.021  1.00  0.00    -0.248 NA
ATOM     38  C   UNL A   1      37.326  33.499  33.008  1.00  0.00     0.031 C 
ATOM     39  C   UNL A   1      38.021  30.736  28.864  1.00  0.00     0.029 A 
ATOM     40  N   UNL A   1      39.422  30.402  30.575  1.00  0.00    -0.354 N 
ATOM     41  C   UNL A   1      39.091  32.687  34.215  1.00  0.00     0.074 A 
ATOM     42  C   UNL A   1      38.017  33.652  34.128  1.00  0.00     0.031 C 
ATOM     43  C   UNL A   1      38.890  29.781  28.494  1.00  0.00     0.029 A 
ATOM     44  C   UNL A   1      39.829  29.540  29.586  1.00  0.00     0.049 A 
ATOM     45  H   UNL A   1      39.874  30.473  31.447  1.00  0.00     0.167 HD
ATOM     46  C   UNL A   1      39.896  32.535  35.296  1.00  0.00     0.037 A 
ATOM     47  C   UNL A   1      40.840  28.649  29.566  1.00  0.00     0.037 A 
ATOM     48  C   UNL A   1      40.943  31.553  35.397  1.00  0.00     0.049 A 
ATOM     49  C   UNL A   1      41.708  28.488  30.785  1.00  0.00     0.074 A 
ATOM     50  C   UNL A   1      41.768  31.277  36.475  1.00  0.00     0.029 A 
ATOM     51  N   UNL A   1      41.312  30.684  34.382  1.00  0.00    -0.354 N 
ATOM     52  N   UNL A   1      41.645  29.112  31.937  1.00  0.00    -0.248 NA
ATOM     53  C   UNL A   1      42.780  27.486  30.705  1.00  0.00     0.031 C 
ATOM     54  C   UNL A   1      42.662  30.271  36.096  1.00  0.00     0.029 A 
ATOM     55  C   UNL A   1      42.362  29.883  34.801  1.00  0.00     0.049 A 
ATOM     56  H   UNL A   1      40.888  30.642  33.493  1.00  0.00     0.167 HD
ATOM     57  C   UNL A   1      42.640  28.555  32.727  1.00  0.00     0.074 A 
ATOM     58  C   UNL A   1      43.286  27.534  31.929  1.00  0.00     0.031 C 
ATOM     59  C   UNL A   1      42.986  28.860  34.003  1.00  0.00     0.037 A 
BRANCH  46  60
ATOM     60  C   UNL A   1      39.673  33.457  36.461  1.00  0.00     0.064 A 
ATOM     61  C   UNL A   1      38.811  33.119  37.515  1.00  0.00     0.173 A 
ATOM     62  C   UNL A   1      40.357  34.680  36.541  1.00  0.00     0.173 A 
ATOM     63  F   UNL A   1      38.126  31.965  37.483  1.00  0.00    -0.203 F 
ATOM     64  C   UNL A   1      38.615  33.984  38.589  1.00  0.00     0.198 A 
ATOM     65  C   UNL A   1      40.183  35.529  37.632  1.00  0.00     0.198 A 
ATOM     66  F   UNL A   1      41.201  35.049  35.566  1.00  0.00    -0.203 F 
ATOM     67  F   UNL A   1      37.747  33.661  39.557  1.00  0.00    -0.200 F 
ATOM     68  C   UNL A   1      39.306  35.185  38.650  1.00  0.00     0.200 A 
ATOM     69  F   UNL A   1      40.862  36.683  37.696  1.00  0.00    -0.200 F 
ATOM     70  F   UNL A   1      39.122  36.014  39.686  1.00  0.00    -0.200 F 
ENDBRANCH  46  60
BRANCH  47  71
ATOM     71  C   UNL A   1      41.059  27.803  28.364  1.00  0.00     0.064 A 
ATOM     72  C   UNL A   1      41.913  28.226  27.336  1.00  0.00     0.173 A 
ATOM     73  C   UNL A   1      40.415  26.568  28.210  1.00  0.00     0.173 A 
ATOM     74  F   UNL A   1      42.534  29.412  27.427  1.00  0.00    -0.203 F 
ATOM     75  C   UNL A   1      42.100  27.455  26.191  1.00  0.00     0.198 A 
ATOM     76  C   UNL A   1      40.623  25.784  27.077  1.00  0.00     0.198 A 
ATOM     77  F   UNL A   1      39.591  26.117  29.167  1.00  0.00    -0.203 F 
ATOM     78  F   UNL A   1      42.885  27.906  25.202  1.00  0.00    -0.200 F 
ATOM     79  C   UNL A   1      41.458  26.232  26.064  1.00  0.00     0.200 A 
ATOM     80  F   UNL A   1      40.013  24.597  26.964  1.00  0.00    -0.200 F 
ATOM     81  F   UNL A   1      41.639  25.490  24.964  1.00  0.00    -0.200 F 
ENDBRANCH  47  71
BRANCH  59  82
ATOM     82  C   UNL A   1      44.081  28.047  34.632  1.00  0.00     0.064 A 
ATOM     83  C   UNL A   1      45.423  28.449  34.584  1.00  0.00     0.173 A 
ATOM     84  C   UNL A   1      43.775  26.859  35.313  1.00  0.00     0.173 A 
ATOM     85  F   UNL A   1      45.768  29.570  33.931  1.00  0.00    -0.203 F 
ATOM     86  C   UNL A   1      46.423  27.677  35.168  1.00  0.00     0.198 A 
ATOM     87  C   UNL A   1      44.773  26.104  35.922  1.00  0.00     0.198 A 
ATOM     88  F   UNL A   1      42.506  26.432  35.394  1.00  0.00    -0.203 F 
ATOM     89  F   UNL A   1      47.705  28.053  35.064  1.00  0.00    -0.200 F 
ATOM     90  C   UNL A   1      46.098  26.509  35.841  1.00  0.00     0.200 A 
ATOM     91  F   UNL A   1      44.456  24.982  36.583  1.00  0.00    -0.200 F 
ATOM     92  F   UNL A   1      47.062  25.767  36.404  1.00  0.00    -0.200 F 
ENDBRANCH  59  82
ENDBRANCH  33  34
ENDBRANCH  25  28
ENDBRANCH  23  24
ENDBRANCH  22  23
ENDBRANCH   1  22
TORSDOF 13
ENDMDL
MODEL 2
REMARK VINA RESULT:     -11.6      4.054      8.829
REMARK SMILES C[C@H](C(=O)NCCCCNC(=O)c1ccc(-c2c3nc(c(-c4c(F)c(F)c(F)c(F)c4F)c4ccc([nH]4)c(-c4c(F)c(F)c(F)c(F)c4F)c4nc(c(-c5c(F)c(F)c(F)c(F)c5F)c5ccc2[nH]5)C=C4)C=C3)cc1)[C@H](C)n1cnc2cc(F)c(F)cc21
REMARK SMILES IDX 7 1 6 2 5 3 3 4 4 5 2 7 1 8 76 9 77 10 78 11 79 12 88 13
REMARK SMILES IDX 80 14 81 15 87 16 82 17 85 18 83 19 86 20 84 21 8 22 9 23
REMARK SMILES IDX 10 24 11 25 12 27 13 28 14 29 75 30 15 31 74 32 16 33 17 34
REMARK SMILES IDX 18 35 68 36 19 37 73 38 67 39 69 40 20 41 72 42 66 43 65 44
REMARK SMILES IDX 21 46 53 47 33 48 52 49 34 50 37 51 51 52 70 53 35 54 36 55
REMARK SMILES IDX 50 57 71 58 38 59 22 60 23 61 31 62 24 63 25 64 29 65 32 66
REMARK SMILES IDX 26 67 27 68 30 69 28 70 54 71 55 72 63 73 56 74 57 75 61 76
REMARK SMILES IDX 64 77 58 78 59 79 62 80 60 81 39 82 40 83 48 84 41 85 42 86
REMARK SMILES IDX 46 87 49 88 43 89 44 90 47 91 45 92
REMARK H PARENT 5 6 10 26 69 45 37 56
REMARK Flexibility Score: inf
ROOT
ATOM      1  C   UNL A   1      35.558  23.065  23.646  1.00  0.00     0.023 C 
ENDROOT
BRANCH   1   2
ATOM      2  C   UNL A   1      34.082  22.693  23.562  1.00  0.00     0.116 C 
BRANCH   2   3
ATOM      3  N   UNL A   1      33.424  23.183  22.369  1.00  0.00    -0.356 N 
ATOM      4  C   UNL A   1      33.053  24.498  22.286  1.00  0.00     0.224 C 
ATOM      5  O   UNL A   1      33.679  25.229  21.523  1.00  0.00    -0.275 OA
ATOM      6  H   UNL A   1      33.243  22.572  21.619  1.00  0.00     0.163 HD
BRANCH   4   7
ATOM      7  C   UNL A   1      31.849  24.966  23.103  1.00  0.00     0.098 C 
ATOM      8  C   UNL A   1      30.996  23.732  23.419  1.00  0.00     0.020 C 
BRANCH   7   9
ATOM      9  C   UNL A   1      32.240  25.728  24.417  1.00  0.00     0.098 C 
ATOM     10  C   UNL A   1      31.476  25.206  25.639  1.00  0.00     0.032 C 
BRANCH   9  11
ATOM     11  N   UNL A   1      32.213  27.186  24.295  1.00  0.00    -0.327 N 
ATOM     12  C   UNL A   1      31.274  27.867  23.560  1.00  0.00     0.200 A 
ATOM     13  C   UNL A   1      32.834  28.106  25.117  1.00  0.00     0.071 A 
ATOM     14  N   UNL A   1      31.099  29.087  24.013  1.00  0.00    -0.237 NA
ATOM     15  C   UNL A   1      31.991  29.216  25.047  1.00  0.00     0.092 A 
ATOM     16  C   UNL A   1      33.911  28.035  26.011  1.00  0.00     0.071 A 
ATOM     17  C   UNL A   1      32.112  30.240  25.998  1.00  0.00     0.073 A 
ATOM     18  C   UNL A   1      34.010  29.060  26.948  1.00  0.00     0.161 A 
ATOM     19  C   UNL A   1      33.110  30.120  26.966  1.00  0.00     0.161 A 
ATOM     20  F   UNL A   1      34.958  28.972  27.892  1.00  0.00    -0.204 F 
ATOM     21  F   UNL A   1      33.186  31.034  27.943  1.00  0.00    -0.204 F 
ENDBRANCH   9  11
ENDBRANCH   7   9
ENDBRANCH   4   7
ENDBRANCH   2   3
ENDBRANCH   1   2
BRANCH   1  22
ATOM     22  C   UNL A   1      35.951  24.081  24.726  1.00  0.00     0.023 C 
BRANCH  22  23
ATOM     23  C   UNL A   1      36.347  23.518  26.090  1.00  0.00     0.116 C 
BRANCH  23  24
ATOM     24  N   UNL A   1      37.472  22.604  26.019  1.00  0.00    -0.352 N 
ATOM     25  C   UNL A   1      38.812  22.802  26.241  1.00  0.00     0.251 C 
ATOM     26  H   UNL A   1      37.233  21.683  25.768  1.00  0.00     0.163 HD
ATOM     27  O   UNL A   1      39.596  21.897  25.966  1.00  0.00    -0.269 OA
BRANCH  25  28
ATOM     28  C   UNL A   1      39.344  24.074  26.790  1.00  0.00     0.039 A 
ATOM     29  C   UNL A   1      39.141  24.340  28.150  1.00  0.00     0.014 A 
ATOM     30  C   UNL A   1      39.949  25.045  25.987  1.00  0.00     0.014 A 
ATOM     31  C   UNL A   1      39.566  25.551  28.706  1.00  0.00     0.010 A 
ATOM     32  C   UNL A   1      40.437  26.226  26.556  1.00  0.00     0.010 A 
ATOM     33  C   UNL A   1      40.231  26.502  27.916  1.00  0.00    -0.014 A 
BRANCH  33  34
ATOM     34  C   UNL A   1      40.671  27.798  28.500  1.00  0.00     0.031 A 
ATOM     35  C   UNL A   1      42.125  28.038  28.810  1.00  0.00     0.074 A 
ATOM     36  C   UNL A   1      39.764  28.755  28.774  1.00  0.00     0.049 A 
ATOM     37  N   UNL A   1      42.702  29.101  29.318  1.00  0.00    -0.248 NA
ATOM     38  C   UNL A   1      43.052  26.931  28.537  1.00  0.00     0.031 C 
ATOM     39  C   UNL A   1      38.322  28.636  28.563  1.00  0.00     0.029 A 
ATOM     40  N   UNL A   1      39.922  30.019  29.290  1.00  0.00    -0.354 N 
ATOM     41  C   UNL A   1      44.048  28.781  29.438  1.00  0.00     0.074 A 
ATOM     42  C   UNL A   1      44.197  27.412  28.998  1.00  0.00     0.031 C 
ATOM     43  C   UNL A   1      37.729  29.789  28.916  1.00  0.00     0.029 A 
ATOM     44  C   UNL A   1      38.744  30.717  29.405  1.00  0.00     0.049 A 
ATOM     45  H   UNL A   1      40.796  30.389  29.552  1.00  0.00     0.167 HD
ATOM     46  C   UNL A   1      45.073  29.565  29.858  1.00  0.00     0.037 A 
ATOM     47  C   UNL A   1      38.512  31.969  29.847  1.00  0.00     0.037 A 
ATOM     48  C   UNL A   1      44.932  30.938  30.265  1.00  0.00     0.049 A 
ATOM     49  C   UNL A   1      39.669  32.823  30.291  1.00  0.00     0.074 A 
ATOM     50  C   UNL A   1      45.919  31.834  30.642  1.00  0.00     0.029 A 
ATOM     51  N   UNL A   1      43.725  31.617  30.348  1.00  0.00    -0.354 N 
ATOM     52  N   UNL A   1      40.948  32.536  30.325  1.00  0.00    -0.248 NA
ATOM     53  C   UNL A   1      39.349  34.185  30.743  1.00  0.00     0.031 C 
ATOM     54  C   UNL A   1      45.304  33.040  30.994  1.00  0.00     0.029 A 
ATOM     55  C   UNL A   1      43.941  32.914  30.787  1.00  0.00     0.049 A 
ATOM     56  H   UNL A   1      42.845  31.233  30.127  1.00  0.00     0.167 HD
ATOM     57  C   UNL A   1      41.586  33.686  30.766  1.00  0.00     0.074 A 
ATOM     58  C   UNL A   1      40.556  34.682  30.975  1.00  0.00     0.031 C 
ATOM     59  C   UNL A   1      42.909  33.900  30.976  1.00  0.00     0.037 A 
BRANCH  46  60
ATOM     60  C   UNL A   1      46.444  28.951  29.896  1.00  0.00     0.064 A 
ATOM     61  C   UNL A   1      47.299  28.985  28.785  1.00  0.00     0.173 A 
ATOM     62  C   UNL A   1      46.921  28.351  31.072  1.00  0.00     0.173 A 
ATOM     63  F   UNL A   1      46.888  29.539  27.634  1.00  0.00    -0.203 F 
ATOM     64  C   UNL A   1      48.567  28.412  28.837  1.00  0.00     0.198 A 
ATOM     65  C   UNL A   1      48.202  27.806  31.130  1.00  0.00     0.198 A 
ATOM     66  F   UNL A   1      46.149  28.300  32.168  1.00  0.00    -0.203 F 
ATOM     67  F   UNL A   1      49.345  28.412  27.746  1.00  0.00    -0.200 F 
ATOM     68  C   UNL A   1      49.020  27.829  30.011  1.00  0.00     0.200 A 
ATOM     69  F   UNL A   1      48.643  27.257  32.270  1.00  0.00    -0.200 F 
ATOM     70  F   UNL A   1      50.243  27.284  30.062  1.00  0.00    -0.200 F 
ENDBRANCH  46  60
BRANCH  47  71
ATOM     71  C   UNL A   1      37.128  32.510  29.848  1.00  0.00     0.064 A 
ATOM     72  C   UNL A   1      36.645  33.244  28.755  1.00  0.00     0.173 A 
ATOM     73  C   UNL A   1      36.267  32.319  30.937  1.00  0.00     0.173 A 
ATOM     74  F   UNL A   1      37.440  33.473  27.699  1.00  0.00    -0.203 F 
ATOM     75  C   UNL A   1      35.361  33.783  28.760  1.00  0.00     0.198 A 
ATOM     76  C   UNL A   1      34.973  32.835  30.930  1.00  0.00     0.198 A 
ATOM     77  F   UNL A   1      36.680  31.621  32.005  1.00  0.00    -0.203 F 
ATOM     78  F   UNL A   1      34.941  34.521  27.723  1.00  0.00    -0.200 F 
ATOM     79  C   UNL A   1      34.524  33.574  29.846  1.00  0.00     0.200 A 
ATOM     80  F   UNL A   1      34.162  32.620  31.975  1.00  0.00    -0.200 F 
ATOM     81  F   UNL A   1      33.288  34.091  29.850  1.00  0.00    -0.200 F 
ENDBRANCH  47  71
BRANCH  59  82
ATOM     82  C   UNL A   1      43.323  35.278  31.408  1.00  0.00     0.064 A 
ATOM     83  C   UNL A   1      43.668  36.272  30.480  1.00  0.00     0.173 A 
ATOM     84  C   UNL A   1      43.351  35.612  32.770  1.00  0.00     0.173 A 
ATOM     85  F   UNL A   1      43.671  35.997  29.167  1.00  0.00    -0.203 F 
ATOM     86  C   UNL A   1      44.056  37.540  30.903  1.00  0.00     0.198 A 
ATOM     87  C   UNL A   1      43.711  36.889  33.188  1.00  0.00     0.198 A 
ATOM     88  F   UNL A   1      43.024  34.700  33.698  1.00  0.00    -0.203 F 
ATOM     89  F   UNL A   1      44.433  38.458  30.002  1.00  0.00    -0.200 F 
ATOM     90  C   UNL A   1      44.071  37.851  32.254  1.00  0.00     0.200 A 
ATOM     91  F   UNL A   1      43.713  37.192  34.493  1.00  0.00    -0.200 F 
ATOM     92  F   UNL A   1      44.443  39.073  32.659  1.00  0.00    -0.200 F 
ENDBRANCH  59  82
ENDBRANCH  33  34
ENDBRANCH  25  28
ENDBRANCH  23  24
ENDBRANCH  22  23
ENDBRANCH   1  22
TORSDOF 13
ENDMDL
MODEL 3
REMARK VINA RESULT:     -11.6      3.403      5.277
REMARK SMILES C[C@H](C(=O)NCCCCNC(=O)c1ccc(-c2c3nc(c(-c4c(F)c(F)c(F)c(F)c4F)c4ccc([nH]4)c(-c4c(F)c(F)c(F)c(F)c4F)c4nc(c(-c5c(F)c(F)c(F)c(F)c5F)c5ccc2[nH]5)C=C4)C=C3)cc1)[C@H](C)n1cnc2cc(F)c(F)cc21
REMARK SMILES IDX 7 1 6 2 5 3 3 4 4 5 2 7 1 8 76 9 77 10 78 11 79 12 88 13
REMARK SMILES IDX 80 14 81 15 87 16 82 17 85 18 83 19 86 20 84 21 8 22 9 23
REMARK SMILES IDX 10 24 11 25 12 27 13 28 14 29 75 30 15 31 74 32 16 33 17 34
REMARK SMILES IDX 18 35 68 36 19 37 73 38 67 39 69 40 20 41 72 42 66 43 65 44
REMARK SMILES IDX 21 46 53 47 33 48 52 49 34 50 37 51 51 52 70 53 35 54 36 55
REMARK SMILES IDX 50 57 71 58 38 59 22 60 23 61 31 62 24 63 25 64 29 65 32 66
REMARK SMILES IDX 26 67 27 68 30 69 28 70 54 71 55 72 63 73 56 74 57 75 61 76
REMARK SMILES IDX 64 77 58 78 59 79 62 80 60 81 39 82 40 83 48 84 41 85 42 86
REMARK SMILES IDX 46 87 49 88 43 89 44 90 47 91 45 92
REMARK H PARENT 5 6 10 26 69 45 37 56
REMARK Flexibility Score: inf
ROOT
ATOM      1  C   UNL A   1      31.881  27.478  26.667  1.00  0.00     0.023 C 
ENDROOT
BRANCH   1   2
ATOM      2  C   UNL A   1      31.122  26.837  25.510  1.00  0.00     0.116 C 
BRANCH   2   3
ATOM      3  N   UNL A   1      30.322  25.695  25.899  1.00  0.00    -0.356 N 
ATOM      4  C   UNL A   1      30.920  24.480  26.100  1.00  0.00     0.224 C 
ATOM      5  O   UNL A   1      31.007  24.061  27.251  1.00  0.00    -0.275 OA
ATOM      6  H   UNL A   1      29.349  25.791  26.019  1.00  0.00     0.163 HD
BRANCH   4   7
ATOM      7  C   UNL A   1      31.391  23.692  24.878  1.00  0.00     0.098 C 
ATOM      8  C   UNL A   1      30.640  24.236  23.657  1.00  0.00     0.020 C 
BRANCH   7   9
ATOM      9  C   UNL A   1      32.943  23.752  24.653  1.00  0.00     0.098 C 
ATOM     10  C   UNL A   1      33.305  24.166  23.223  1.00  0.00     0.032 C 
BRANCH   9  11
ATOM     11  N   UNL A   1      33.661  22.563  25.114  1.00  0.00    -0.327 N 
ATOM     12  C   UNL A   1      33.217  21.281  24.903  1.00  0.00     0.200 A 
ATOM     13  C   UNL A   1      34.989  22.479  25.483  1.00  0.00     0.071 A 
ATOM     14  N   UNL A   1      34.209  20.422  24.888  1.00  0.00    -0.237 NA
ATOM     15  C   UNL A   1      35.331  21.167  25.147  1.00  0.00     0.092 A 
ATOM     16  C   UNL A   1      35.938  23.419  25.906  1.00  0.00     0.071 A 
ATOM     17  C   UNL A   1      36.683  20.801  25.074  1.00  0.00     0.073 A 
ATOM     18  C   UNL A   1      37.275  23.034  25.820  1.00  0.00     0.161 A 
ATOM     19  C   UNL A   1      37.641  21.767  25.380  1.00  0.00     0.161 A 
ATOM     20  F   UNL A   1      38.219  23.943  26.107  1.00  0.00    -0.204 F 
ATOM     21  F   UNL A   1      38.940  21.473  25.225  1.00  0.00    -0.204 F 
ENDBRANCH   9  11
ENDBRANCH   7   9
ENDBRANCH   4   7
ENDBRANCH   2   3
ENDBRANCH   1   2
BRANCH   1  22
ATOM     22  C   UNL A   1      33.405  27.572  26.523  1.00  0.00     0.023 C 
BRANCH  22  23
ATOM     23  C   UNL A   1      33.955  28.813  25.821  1.00  0.00     0.116 C 
BRANCH  23  24
ATOM     24  N   UNL A   1      33.738  30.032  26.576  1.00  0.00    -0.352 N 
ATOM     25  C   UNL A   1      34.462  30.610  27.589  1.00  0.00     0.251 C 
ATOM     26  H   UNL A   1      32.929  30.532  26.318  1.00  0.00     0.163 HD
ATOM     27  O   UNL A   1      33.986  31.576  28.179  1.00  0.00    -0.269 OA
BRANCH  25  28
ATOM     28  C   UNL A   1      35.794  30.099  28.000  1.00  0.00     0.039 A 
ATOM     29  C   UNL A   1      35.895  29.441  29.232  1.00  0.00     0.014 A 
ATOM     30  C   UNL A   1      36.951  30.330  27.251  1.00  0.00     0.014 A 
ATOM     31  C   UNL A   1      37.136  28.995  29.696  1.00  0.00     0.010 A 
ATOM     32  C   UNL A   1      38.182  29.823  27.682  1.00  0.00     0.010 A 
ATOM     33  C   UNL A   1      38.292  29.170  28.919  1.00  0.00    -0.014 A 
BRANCH  33  34
ATOM     34  C   UNL A   1      39.617  28.710  29.416  1.00  0.00     0.031 A 
ATOM     35  C   UNL A   1      40.335  29.480  30.493  1.00  0.00     0.074 A 
ATOM     36  C   UNL A   1      40.189  27.611  28.887  1.00  0.00     0.049 A 
ATOM     37  N   UNL A   1      41.493  29.236  31.057  1.00  0.00    -0.248 NA
ATOM     38  C   UNL A   1      39.677  30.699  30.985  1.00  0.00     0.031 C 
ATOM     39  C   UNL A   1      39.622  26.798  27.812  1.00  0.00     0.029 A 
ATOM     40  N   UNL A   1      41.377  26.987  29.185  1.00  0.00    -0.354 N 
ATOM     41  C   UNL A   1      41.706  30.276  31.952  1.00  0.00     0.074 A 
ATOM     42  C   UNL A   1      40.584  31.180  31.823  1.00  0.00     0.031 C 
ATOM     43  C   UNL A   1      40.446  25.767  27.559  1.00  0.00     0.029 A 
ATOM     44  C   UNL A   1      41.611  25.861  28.435  1.00  0.00     0.049 A 
ATOM     45  H   UNL A   1      42.002  27.317  29.872  1.00  0.00     0.167 HD
ATOM     46  C   UNL A   1      42.733  30.453  32.820  1.00  0.00     0.037 A 
ATOM     47  C   UNL A   1      42.644  24.997  28.456  1.00  0.00     0.037 A 
ATOM     48  C   UNL A   1      43.834  29.539  32.974  1.00  0.00     0.049 A 
ATOM     49  C   UNL A   1      43.763  25.207  29.441  1.00  0.00     0.074 A 
ATOM     50  C   UNL A   1      44.887  29.596  33.871  1.00  0.00     0.029 A 
ATOM     51  N   UNL A   1      44.025  28.397  32.209  1.00  0.00    -0.354 N 
ATOM     52  N   UNL A   1      43.914  26.152  30.337  1.00  0.00    -0.248 NA
ATOM     53  C   UNL A   1      44.851  24.218  29.426  1.00  0.00     0.031 C 
ATOM     54  C   UNL A   1      45.736  28.514  33.621  1.00  0.00     0.029 A 
ATOM     55  C   UNL A   1      45.187  27.753  32.602  1.00  0.00     0.049 A 
ATOM     56  H   UNL A   1      43.422  28.091  31.492  1.00  0.00     0.167 HD
ATOM     57  C   UNL A   1      45.088  25.853  31.014  1.00  0.00     0.074 A 
ATOM     58  C   UNL A   1      45.605  24.631  30.434  1.00  0.00     0.031 C 
ATOM     59  C   UNL A   1      45.683  26.529  32.028  1.00  0.00     0.037 A 
BRANCH  46  60
ATOM     60  C   UNL A   1      42.713  31.688  33.675  1.00  0.00     0.064 A 
ATOM     61  C   UNL A   1      43.353  32.871  33.279  1.00  0.00     0.173 A 
ATOM     62  C   UNL A   1      42.015  31.698  34.893  1.00  0.00     0.173 A 
ATOM     63  F   UNL A   1      44.041  32.913  32.127  1.00  0.00    -0.203 F 
ATOM     64  C   UNL A   1      43.325  34.008  34.082  1.00  0.00     0.198 A 
ATOM     65  C   UNL A   1      41.963  32.847  35.680  1.00  0.00     0.198 A 
ATOM     66  F   UNL A   1      41.376  30.597  35.317  1.00  0.00    -0.203 F 
ATOM     67  F   UNL A   1      43.987  35.110  33.705  1.00  0.00    -0.200 F 
ATOM     68  C   UNL A   1      42.624  33.997  35.279  1.00  0.00     0.200 A 
ATOM     69  F   UNL A   1      41.273  32.838  36.830  1.00  0.00    -0.200 F 
ATOM     70  F   UNL A   1      42.592  35.093  36.049  1.00  0.00    -0.200 F 
ENDBRANCH  46  60
BRANCH  47  71
ATOM     71  C   UNL A   1      42.648  23.822  27.545  1.00  0.00     0.064 A 
ATOM     72  C   UNL A   1      42.238  22.561  28.001  1.00  0.00     0.173 A 
ATOM     73  C   UNL A   1      43.071  23.929  26.214  1.00  0.00     0.173 A 
ATOM     74  F   UNL A   1      41.846  22.405  29.274  1.00  0.00    -0.203 F 
ATOM     75  C   UNL A   1      42.269  21.448  27.165  1.00  0.00     0.198 A 
ATOM     76  C   UNL A   1      43.076  22.821  25.370  1.00  0.00     0.198 A 
ATOM     77  F   UNL A   1      43.471  25.114  25.729  1.00  0.00    -0.203 F 
ATOM     78  F   UNL A   1      41.916  20.245  27.640  1.00  0.00    -0.200 F 
ATOM     79  C   UNL A   1      42.684  21.579  25.848  1.00  0.00     0.200 A 
ATOM     80  F   UNL A   1      43.465  22.953  24.094  1.00  0.00    -0.200 F 
ATOM     81  F   UNL A   1      42.712  20.509  25.043  1.00  0.00    -0.200 F 
ENDBRANCH  47  71
BRANCH  59  82
ATOM     82  C   UNL A   1      46.933  25.935  32.610  1.00  0.00     0.064 A 
ATOM     83  C   UNL A   1      46.892  24.984  33.640  1.00  0.00     0.173 A 
ATOM     84  C   UNL A   1      48.190  26.308  32.110  1.00  0.00     0.173 A 
ATOM     85  F   UNL A   1      45.715  24.606  34.162  1.00  0.00    -0.203 F 
ATOM     86  C   UNL A   1      48.064  24.451  34.170  1.00  0.00     0.198 A 
ATOM     87  C   UNL A   1      49.359  25.751  32.622  1.00  0.00     0.198 A 
ATOM     88  F   UNL A   1      48.286  27.208  31.121  1.00  0.00    -0.203 F 
ATOM     89  F   UNL A   1      48.002  23.585  35.190  1.00  0.00    -0.200 F 
ATOM     90  C   UNL A   1      49.295  24.830  33.657  1.00  0.00     0.200 A 
ATOM     91  F   UNL A   1      50.548  26.108  32.117  1.00  0.00    -0.200 F 
ATOM     92  F   UNL A   1      50.422  24.315  34.168  1.00  0.00    -0.200 F 
ENDBRANCH  59  82
ENDBRANCH  33  34
ENDBRANCH  25  28
ENDBRANCH  23  24
ENDBRANCH  22  23
ENDBRANCH   1  22
TORSDOF 13
ENDMDL
