MODEL 1
REMARK VINA RESULT:     -11.9      0.000      0.000
REMARK SMILES CCn1cnc(S(=O)(=O)N[C@]2(C(=O)NCCCCNC(=O)c3ccc(-c4c5nc(c(-c6c(F)c(F)c(F)c(F)c6F)c6ccc([nH]6)c(-c6c(F)c(F)c(F)c(F)c6F)c6nc(c(-c7c(F)c(F)c(F)c(F)c7F)c7ccc4[nH]7)C=C6)C=C5)cc3)CCSC2)c1
REMARK SMILES IDX 15 1 14 2 12 3 13 4 11 6 85 7 88 8 86 9 87 10 10 11 7 13
REMARK SMILES IDX 8 14 9 15 6 16 3 17 4 18 89 19 5 20 2 21 1 22 16 23 17 24
REMARK SMILES IDX 18 25 19 26 20 27 21 29 22 30 23 31 84 32 24 33 83 34 25 35
REMARK SMILES IDX 26 36 27 37 77 38 28 39 82 40 76 41 78 42 29 43 81 44 75 45
REMARK SMILES IDX 74 46 30 48 62 49 42 50 61 51 43 52 46 53 60 54 79 55 44 56
REMARK SMILES IDX 45 57 59 59 80 60 47 61 31 62 32 63 40 64 33 65 34 66 38 67
REMARK SMILES IDX 41 68 35 69 36 70 39 71 37 72 63 73 64 74 72 75 65 76 66 77
REMARK SMILES IDX 70 78 73 79 67 80 68 81 71 82 69 83 48 84 49 85 57 86 50 87
REMARK SMILES IDX 51 88 55 89 58 90 52 91 53 92 56 93 54 94
REMARK H PARENT 14 5 10 12 19 28 78 47 46 58
REMARK Flexibility Score: inf
ROOT
ATOM      1  C   UNL A   1      37.534  21.841  25.594  1.00  0.00     0.116 C 
ENDROOT
BRANCH   1   2
ATOM      2  N   UNL A   1      37.412  22.310  24.220  1.00  0.00    -0.354 N 
ATOM      3  C   UNL A   1      36.359  22.897  23.564  1.00  0.00     0.242 C 
ATOM      4  O   UNL A   1      36.565  23.263  22.400  1.00  0.00    -0.273 OA
ATOM      5  H   UNL A   1      38.220  22.185  23.671  1.00  0.00     0.163 HD
BRANCH   3   6
ATOM      6  C   UNL A   1      34.936  23.063  24.206  1.00  0.00     0.121 C 
ATOM      7  C   UNL A   1      35.121  23.676  25.597  1.00  0.00     0.045 C 
ATOM      8  C   UNL A   1      34.071  23.962  23.321  1.00  0.00     0.103 C 
ATOM      9  C   UNL A   1      33.937  24.560  25.940  1.00  0.00     0.072 C 
ATOM     10  S   UNL A   1      33.375  25.274  24.373  1.00  0.00    -0.159 SA
BRANCH   6  11
ATOM     11  N   UNL A   1      34.361  21.666  24.210  1.00  0.00    -0.193 NA
ATOM     12  H   UNL A   1      34.004  21.520  23.266  1.00  0.00     0.142 HD
BRANCH  11  13
ATOM     13  S   UNL A   1      33.148  21.107  25.237  1.00  0.00     0.260 S 
ATOM     14  O   UNL A   1      31.949  21.867  24.965  1.00  0.00    -0.205 OA
ATOM     15  O   UNL A   1      33.731  21.061  26.561  1.00  0.00    -0.205 OA
BRANCH  13  16
ATOM     16  C   UNL A   1      32.771  19.438  24.867  1.00  0.00     0.188 A 
ATOM     17  N   UNL A   1      32.923  17.268  24.973  1.00  0.00    -0.336 N 
ATOM     18  C   UNL A   1      32.631  17.651  23.690  1.00  0.00     0.201 A 
ATOM     19  C   UNL A   1      32.839  18.384  25.762  1.00  0.00     0.129 A 
ATOM     20  N   UNL A   1      32.550  18.958  23.587  1.00  0.00    -0.224 NA
BRANCH  17  21
ATOM     21  C   UNL A   1      33.389  15.947  25.353  1.00  0.00     0.120 C 
ATOM     22  C   UNL A   1      34.898  15.740  25.257  1.00  0.00     0.027 C 
ENDBRANCH  17  21
ENDBRANCH  13  16
ENDBRANCH  11  13
ENDBRANCH   6  11
ENDBRANCH   3   6
ENDBRANCH   1   2
BRANCH   1  23
ATOM     23  C   UNL A   1      38.930  21.978  26.185  1.00  0.00     0.023 C 
BRANCH  23  24
ATOM     24  C   UNL A   1      39.818  20.739  26.079  1.00  0.00     0.023 C 
BRANCH  24  25
ATOM     25  C   UNL A   1      41.197  20.882  26.719  1.00  0.00     0.116 C 
BRANCH  25  26
ATOM     26  N   UNL A   1      42.243  21.240  25.770  1.00  0.00    -0.352 N 
ATOM     27  C   UNL A   1      42.699  22.504  25.459  1.00  0.00     0.251 C 
ATOM     28  H   UNL A   1      42.675  20.492  25.296  1.00  0.00     0.163 HD
ATOM     29  O   UNL A   1      43.353  22.707  24.443  1.00  0.00    -0.269 OA
BRANCH  27  30
ATOM     30  C   UNL A   1      42.355  23.623  26.352  1.00  0.00     0.039 A 
ATOM     31  C   UNL A   1      43.084  23.817  27.527  1.00  0.00     0.014 A 
ATOM     32  C   UNL A   1      41.338  24.506  25.988  1.00  0.00     0.014 A 
ATOM     33  C   UNL A   1      42.854  24.963  28.285  1.00  0.00     0.010 A 
ATOM     34  C   UNL A   1      41.158  25.678  26.704  1.00  0.00     0.010 A 
ATOM     35  C   UNL A   1      41.915  25.915  27.855  1.00  0.00    -0.014 A 
BRANCH  35  36
ATOM     36  C   UNL A   1      41.867  27.219  28.532  1.00  0.00     0.031 A 
ATOM     37  C   UNL A   1      42.963  28.177  28.182  1.00  0.00     0.074 A 
ATOM     38  C   UNL A   1      40.819  27.675  29.250  1.00  0.00     0.049 A 
ATOM     39  N   UNL A   1      43.785  28.784  28.977  1.00  0.00    -0.248 NA
ATOM     40  C   UNL A   1      43.198  28.464  26.756  1.00  0.00     0.031 C 
ATOM     41  C   UNL A   1      39.514  27.036  29.438  1.00  0.00     0.029 A 
ATOM     42  N   UNL A   1      40.664  28.885  29.870  1.00  0.00    -0.354 N 
ATOM     43  C   UNL A   1      44.547  29.639  28.180  1.00  0.00     0.074 A 
ATOM     44  C   UNL A   1      44.215  29.324  26.815  1.00  0.00     0.031 C 
ATOM     45  C   UNL A   1      38.639  27.943  29.924  1.00  0.00     0.029 A 
ATOM     46  C   UNL A   1      39.354  29.171  30.224  1.00  0.00     0.049 A 
ATOM     47  H   UNL A   1      41.415  29.495  30.051  1.00  0.00     0.167 HD
ATOM     48  C   UNL A   1      45.257  30.672  28.713  1.00  0.00     0.037 A 
ATOM     49  C   UNL A   1      38.869  30.341  30.702  1.00  0.00     0.037 A 
ATOM     50  C   UNL A   1      45.453  30.502  30.128  1.00  0.00     0.049 A 
ATOM     51  C   UNL A   1      40.000  31.118  31.254  1.00  0.00     0.074 A 
ATOM     52  C   UNL A   1      46.094  29.584  30.933  1.00  0.00     0.029 A 
ATOM     53  N   UNL A   1      44.674  31.258  30.963  1.00  0.00    -0.354 N 
ATOM     54  N   UNL A   1      40.644  30.807  32.344  1.00  0.00    -0.248 NA
ATOM     55  C   UNL A   1      40.637  32.124  30.419  1.00  0.00     0.031 C 
ATOM     56  C   UNL A   1      45.338  29.551  32.143  1.00  0.00     0.029 A 
ATOM     57  C   UNL A   1      44.295  30.468  32.014  1.00  0.00     0.049 A 
ATOM     58  H   UNL A   1      44.429  32.201  30.831  1.00  0.00     0.167 HD
ATOM     59  C   UNL A   1      41.938  31.238  32.114  1.00  0.00     0.074 A 
ATOM     60  C   UNL A   1      41.832  32.181  31.010  1.00  0.00     0.031 C 
ATOM     61  C   UNL A   1      42.997  30.559  32.642  1.00  0.00     0.037 A 
BRANCH  48  62
ATOM     62  C   UNL A   1      45.472  32.017  28.049  1.00  0.00     0.064 A 
ATOM     63  C   UNL A   1      44.349  32.808  27.716  1.00  0.00     0.173 A 
ATOM     64  C   UNL A   1      46.683  32.404  27.436  1.00  0.00     0.173 A 
ATOM     65  F   UNL A   1      43.141  32.532  28.231  1.00  0.00    -0.203 F 
ATOM     66  C   UNL A   1      44.414  33.830  26.765  1.00  0.00     0.198 A 
ATOM     67  C   UNL A   1      46.755  33.461  26.528  1.00  0.00     0.198 A 
ATOM     68  F   UNL A   1      47.814  31.709  27.599  1.00  0.00    -0.203 F 
ATOM     69  F   UNL A   1      43.293  34.454  26.377  1.00  0.00    -0.200 F 
ATOM     70  C   UNL A   1      45.616  34.149  26.164  1.00  0.00     0.200 A 
ATOM     71  F   UNL A   1      47.927  33.748  25.944  1.00  0.00    -0.200 F 
ATOM     72  F   UNL A   1      45.671  35.079  25.201  1.00  0.00    -0.200 F 
ENDBRANCH  48  62
BRANCH  49  73
ATOM     73  C   UNL A   1      37.511  30.913  30.574  1.00  0.00     0.064 A 
ATOM     74  C   UNL A   1      36.745  31.223  31.710  1.00  0.00     0.173 A 
ATOM     75  C   UNL A   1      37.043  31.411  29.344  1.00  0.00     0.173 A 
ATOM     76  F   UNL A   1      37.141  30.820  32.925  1.00  0.00    -0.203 F 
ATOM     77  C   UNL A   1      35.594  32.011  31.622  1.00  0.00     0.198 A 
ATOM     78  C   UNL A   1      35.887  32.187  29.257  1.00  0.00     0.198 A 
ATOM     79  F   UNL A   1      37.747  31.231  28.217  1.00  0.00    -0.203 F 
ATOM     80  F   UNL A   1      34.925  32.341  32.736  1.00  0.00    -0.200 F 
ATOM     81  C   UNL A   1      35.171  32.501  30.397  1.00  0.00     0.200 A 
ATOM     82  F   UNL A   1      35.506  32.679  28.069  1.00  0.00    -0.200 F 
ATOM     83  F   UNL A   1      34.103  33.305  30.320  1.00  0.00    -0.200 F 
ENDBRANCH  49  73
BRANCH  61  84
ATOM     84  C   UNL A   1      42.730  29.648  33.802  1.00  0.00     0.064 A 
ATOM     85  C   UNL A   1      42.343  28.302  33.684  1.00  0.00     0.173 A 
ATOM     86  C   UNL A   1      42.971  30.141  35.092  1.00  0.00     0.173 A 
ATOM     87  F   UNL A   1      42.196  27.727  32.483  1.00  0.00    -0.203 F 
ATOM     88  C   UNL A   1      42.144  27.510  34.812  1.00  0.00     0.198 A 
ATOM     89  C   UNL A   1      42.814  29.334  36.215  1.00  0.00     0.198 A 
ATOM     90  F   UNL A   1      43.397  31.402  35.262  1.00  0.00    -0.203 F 
ATOM     91  F   UNL A   1      41.743  26.237  34.677  1.00  0.00    -0.200 F 
ATOM     92  C   UNL A   1      42.384  28.025  36.076  1.00  0.00     0.200 A 
ATOM     93  F   UNL A   1      43.096  29.822  37.431  1.00  0.00    -0.200 F 
ATOM     94  F   UNL A   1      42.224  27.252  37.159  1.00  0.00    -0.200 F 
ENDBRANCH  61  84
ENDBRANCH  35  36
ENDBRANCH  27  30
ENDBRANCH  25  26
ENDBRANCH  24  25
ENDBRANCH  23  24
ENDBRANCH   1  23
TORSDOF 15
ENDMDL
MODEL 2
REMARK VINA RESULT:     -11.7      4.201      9.470
REMARK SMILES CCn1cnc(S(=O)(=O)N[C@]2(C(=O)NCCCCNC(=O)c3ccc(-c4c5nc(c(-c6c(F)c(F)c(F)c(F)c6F)c6ccc([nH]6)c(-c6c(F)c(F)c(F)c(F)c6F)c6nc(c(-c7c(F)c(F)c(F)c(F)c7F)c7ccc4[nH]7)C=C6)C=C5)cc3)CCSC2)c1
REMARK SMILES IDX 15 1 14 2 12 3 13 4 11 6 85 7 88 8 86 9 87 10 10 11 7 13
REMARK SMILES IDX 8 14 9 15 6 16 3 17 4 18 89 19 5 20 2 21 1 22 16 23 17 24
REMARK SMILES IDX 18 25 19 26 20 27 21 29 22 30 23 31 84 32 24 33 83 34 25 35
REMARK SMILES IDX 26 36 27 37 77 38 28 39 82 40 76 41 78 42 29 43 81 44 75 45
REMARK SMILES IDX 74 46 30 48 62 49 42 50 61 51 43 52 46 53 60 54 79 55 44 56
REMARK SMILES IDX 45 57 59 59 80 60 47 61 31 62 32 63 40 64 33 65 34 66 38 67
REMARK SMILES IDX 41 68 35 69 36 70 39 71 37 72 63 73 64 74 72 75 65 76 66 77
REMARK SMILES IDX 70 78 73 79 67 80 68 81 71 82 69 83 48 84 49 85 57 86 50 87
REMARK SMILES IDX 51 88 55 89 58 90 52 91 53 92 56 93 54 94
REMARK H PARENT 14 5 10 12 19 28 78 47 46 58
REMARK Flexibility Score: inf
ROOT
ATOM      1  C   UNL A   1      31.574  27.809  26.485  1.00  0.00     0.116 C 
ENDROOT
BRANCH   1   2
ATOM      2  N   UNL A   1      31.389  26.418  26.880  1.00  0.00    -0.354 N 
ATOM      3  C   UNL A   1      31.435  25.264  26.140  1.00  0.00     0.242 C 
ATOM      4  O   UNL A   1      31.309  24.200  26.762  1.00  0.00    -0.273 OA
ATOM      5  H   UNL A   1      31.200  26.285  27.837  1.00  0.00     0.163 HD
BRANCH   3   6
ATOM      6  C   UNL A   1      31.584  25.253  24.577  1.00  0.00     0.121 C 
ATOM      7  C   UNL A   1      33.037  25.604  24.245  1.00  0.00     0.045 C 
ATOM      8  C   UNL A   1      31.214  23.872  24.032  1.00  0.00     0.103 C 
ATOM      9  C   UNL A   1      33.470  24.891  22.978  1.00  0.00     0.072 C 
ATOM     10  S   UNL A   1      32.575  23.316  22.959  1.00  0.00    -0.159 SA
BRANCH   6  11
ATOM     11  N   UNL A   1      30.571  26.266  24.098  1.00  0.00    -0.193 NA
ATOM     12  H   UNL A   1      29.764  25.719  23.800  1.00  0.00     0.142 HD
BRANCH  11  13
ATOM     13  S   UNL A   1      30.818  27.397  22.873  1.00  0.00     0.260 S 
ATOM     14  O   UNL A   1      30.952  26.680  21.625  1.00  0.00    -0.205 OA
ATOM     15  O   UNL A   1      31.856  28.286  23.350  1.00  0.00    -0.205 OA
BRANCH  13  16
ATOM     16  C   UNL A   1      29.408  28.421  22.708  1.00  0.00     0.188 A 
ATOM     17  N   UNL A   1      28.215  30.240  22.821  1.00  0.00    -0.336 N 
ATOM     18  C   UNL A   1      27.432  29.153  23.107  1.00  0.00     0.201 A 
ATOM     19  C   UNL A   1      29.428  29.769  22.394  1.00  0.00     0.129 A 
ATOM     20  N   UNL A   1      28.126  28.038  23.066  1.00  0.00    -0.224 NA
BRANCH  17  21
ATOM     21  C   UNL A   1      27.845  31.617  23.089  1.00  0.00     0.120 C 
ATOM     22  C   UNL A   1      28.694  32.667  22.378  1.00  0.00     0.027 C 
ENDBRANCH  17  21
ENDBRANCH  13  16
ENDBRANCH  11  13
ENDBRANCH   6  11
ENDBRANCH   3   6
ENDBRANCH   1   2
BRANCH   1  23
ATOM     23  C   UNL A   1      32.341  28.654  27.493  1.00  0.00     0.023 C 
BRANCH  23  24
ATOM     24  C   UNL A   1      32.404  30.150  27.190  1.00  0.00     0.023 C 
BRANCH  24  25
ATOM     25  C   UNL A   1      33.791  30.774  27.329  1.00  0.00     0.116 C 
BRANCH  25  26
ATOM     26  N   UNL A   1      33.866  31.795  28.366  1.00  0.00    -0.352 N 
ATOM     27  C   UNL A   1      34.857  31.962  29.311  1.00  0.00     0.251 C 
ATOM     28  H   UNL A   1      33.123  32.440  28.396  1.00  0.00     0.163 HD
ATOM     29  O   UNL A   1      34.671  32.649  30.308  1.00  0.00    -0.269 OA
BRANCH  27  30
ATOM     30  C   UNL A   1      36.143  31.269  29.121  1.00  0.00     0.039 A 
ATOM     31  C   UNL A   1      37.330  32.004  29.120  1.00  0.00     0.014 A 
ATOM     32  C   UNL A   1      36.163  29.879  28.997  1.00  0.00     0.014 A 
ATOM     33  C   UNL A   1      38.546  31.327  29.095  1.00  0.00     0.010 A 
ATOM     34  C   UNL A   1      37.372  29.205  29.042  1.00  0.00     0.010 A 
ATOM     35  C   UNL A   1      38.570  29.922  29.093  1.00  0.00    -0.014 A 
BRANCH  35  36
ATOM     36  C   UNL A   1      39.851  29.234  29.314  1.00  0.00     0.031 A 
ATOM     37  C   UNL A   1      40.236  29.017  30.745  1.00  0.00     0.074 A 
ATOM     38  C   UNL A   1      40.567  28.613  28.353  1.00  0.00     0.049 A 
ATOM     39  N   UNL A   1      41.329  29.368  31.345  1.00  0.00    -0.248 NA
ATOM     40  C   UNL A   1      39.259  28.359  31.629  1.00  0.00     0.031 C 
ATOM     41  C   UNL A   1      40.202  28.417  26.948  1.00  0.00     0.029 A 
ATOM     42  N   UNL A   1      41.735  27.910  28.472  1.00  0.00    -0.354 N 
ATOM     43  C   UNL A   1      41.250  28.854  32.640  1.00  0.00     0.074 A 
ATOM     44  C   UNL A   1      39.915  28.334  32.790  1.00  0.00     0.031 C 
ATOM     45  C   UNL A   1      41.002  27.474  26.407  1.00  0.00     0.029 A 
ATOM     46  C   UNL A   1      42.025  27.114  27.374  1.00  0.00     0.049 A 
ATOM     47  H   UNL A   1      42.317  27.966  29.264  1.00  0.00     0.167 HD
ATOM     48  C   UNL A   1      42.352  28.728  33.430  1.00  0.00     0.037 A 
ATOM     49  C   UNL A   1      43.014  26.196  27.263  1.00  0.00     0.037 A 
ATOM     50  C   UNL A   1      43.439  29.540  32.950  1.00  0.00     0.049 A 
ATOM     51  C   UNL A   1      44.040  26.499  28.284  1.00  0.00     0.074 A 
ATOM     52  C   UNL A   1      43.661  30.889  32.775  1.00  0.00     0.029 A 
ATOM     53  N   UNL A   1      44.452  28.902  32.285  1.00  0.00    -0.354 N 
ATOM     54  N   UNL A   1      44.836  27.530  28.245  1.00  0.00    -0.248 NA
ATOM     55  C   UNL A   1      43.999  25.790  29.554  1.00  0.00     0.031 C 
ATOM     56  C   UNL A   1      44.540  30.985  31.655  1.00  0.00     0.029 A 
ATOM     57  C   UNL A   1      44.822  29.687  31.228  1.00  0.00     0.049 A 
ATOM     58  H   UNL A   1      44.844  28.031  32.524  1.00  0.00     0.167 HD
ATOM     59  C   UNL A   1      45.048  27.852  29.573  1.00  0.00     0.074 A 
ATOM     60  C   UNL A   1      44.661  26.662  30.317  1.00  0.00     0.031 C 
ATOM     61  C   UNL A   1      45.228  29.151  29.950  1.00  0.00     0.037 A 
BRANCH  48  62
ATOM     62  C   UNL A   1      42.591  27.609  34.423  1.00  0.00     0.064 A 
ATOM     63  C   UNL A   1      43.097  26.373  33.960  1.00  0.00     0.173 A 
ATOM     64  C   UNL A   1      42.041  27.584  35.722  1.00  0.00     0.173 A 
ATOM     65  F   UNL A   1      43.638  26.271  32.736  1.00  0.00    -0.203 F 
ATOM     66  C   UNL A   1      42.964  25.192  34.695  1.00  0.00     0.198 A 
ATOM     67  C   UNL A   1      41.959  26.413  36.476  1.00  0.00     0.198 A 
ATOM     68  F   UNL A   1      41.460  28.659  36.267  1.00  0.00    -0.203 F 
ATOM     69  F   UNL A   1      43.328  24.022  34.151  1.00  0.00    -0.200 F 
ATOM     70  C   UNL A   1      42.385  25.211  35.949  1.00  0.00     0.200 A 
ATOM     71  F   UNL A   1      41.382  26.447  37.685  1.00  0.00    -0.200 F 
ATOM     72  F   UNL A   1      42.190  24.072  36.628  1.00  0.00    -0.200 F 
ENDBRANCH  48  62
BRANCH  49  73
ATOM     73  C   UNL A   1      43.064  24.971  26.437  1.00  0.00     0.064 A 
ATOM     74  C   UNL A   1      43.963  24.856  25.364  1.00  0.00     0.173 A 
ATOM     75  C   UNL A   1      42.418  23.789  26.845  1.00  0.00     0.173 A 
ATOM     76  F   UNL A   1      44.648  25.926  24.937  1.00  0.00    -0.203 F 
ATOM     77  C   UNL A   1      44.222  23.624  24.755  1.00  0.00     0.198 A 
ATOM     78  C   UNL A   1      42.669  22.563  26.229  1.00  0.00     0.198 A 
ATOM     79  F   UNL A   1      41.601  23.785  27.909  1.00  0.00    -0.203 F 
ATOM     80  F   UNL A   1      45.135  23.542  23.778  1.00  0.00    -0.200 F 
ATOM     81  C   UNL A   1      43.583  22.478  25.195  1.00  0.00     0.200 A 
ATOM     82  F   UNL A   1      42.065  21.456  26.685  1.00  0.00    -0.200 F 
ATOM     83  F   UNL A   1      43.875  21.287  24.653  1.00  0.00    -0.200 F 
ENDBRANCH  49  73
BRANCH  61  84
ATOM     84  C   UNL A   1      45.633  30.131  28.890  1.00  0.00     0.064 A 
ATOM     85  C   UNL A   1      44.735  30.801  28.042  1.00  0.00     0.173 A 
ATOM     86  C   UNL A   1      46.989  30.475  28.799  1.00  0.00     0.173 A 
ATOM     87  F   UNL A   1      43.414  30.606  28.140  1.00  0.00    -0.203 F 
ATOM     88  C   UNL A   1      45.188  31.724  27.102  1.00  0.00     0.198 A 
ATOM     89  C   UNL A   1      47.433  31.430  27.890  1.00  0.00     0.198 A 
ATOM     90  F   UNL A   1      47.884  29.909  29.624  1.00  0.00    -0.203 F 
ATOM     91  F   UNL A   1      44.317  32.328  26.280  1.00  0.00    -0.200 F 
ATOM     92  C   UNL A   1      46.535  32.042  27.030  1.00  0.00     0.200 A 
ATOM     93  F   UNL A   1      48.729  31.770  27.859  1.00  0.00    -0.200 F 
ATOM     94  F   UNL A   1      46.965  32.954  26.148  1.00  0.00    -0.200 F 
ENDBRANCH  61  84
ENDBRANCH  35  36
ENDBRANCH  27  30
ENDBRANCH  25  26
ENDBRANCH  24  25
ENDBRANCH  23  24
ENDBRANCH   1  23
TORSDOF 15
ENDMDL
MODEL 3
REMARK VINA RESULT:     -11.6      3.534      8.826
REMARK SMILES CCn1cnc(S(=O)(=O)N[C@]2(C(=O)NCCCCNC(=O)c3ccc(-c4c5nc(c(-c6c(F)c(F)c(F)c(F)c6F)c6ccc([nH]6)c(-c6c(F)c(F)c(F)c(F)c6F)c6nc(c(-c7c(F)c(F)c(F)c(F)c7F)c7ccc4[nH]7)C=C6)C=C5)cc3)CCSC2)c1
REMARK SMILES IDX 15 1 14 2 12 3 13 4 11 6 85 7 88 8 86 9 87 10 10 11 7 13
REMARK SMILES IDX 8 14 9 15 6 16 3 17 4 18 89 19 5 20 2 21 1 22 16 23 17 24
REMARK SMILES IDX 18 25 19 26 20 27 21 29 22 30 23 31 84 32 24 33 83 34 25 35
REMARK SMILES IDX 26 36 27 37 77 38 28 39 82 40 76 41 78 42 29 43 81 44 75 45
REMARK SMILES IDX 74 46 30 48 62 49 42 50 61 51 43 52 46 53 60 54 79 55 44 56
REMARK SMILES IDX 45 57 59 59 80 60 47 61 31 62 32 63 40 64 33 65 34 66 38 67
REMARK SMILES IDX 41 68 35 69 36 70 39 71 37 72 63 73 64 74 72 75 65 76 66 77
REMARK SMILES IDX 70 78 73 79 67 80 68 81 71 82 69 83 48 84 49 85 57 86 50 87
REMARK SMILES IDX 51 88 55 89 58 90 52 91 53 92 56 93 54 94
REMARK H PARENT 14 5 10 12 19 28 78 47 46 58
REMARK Flexibility Score: inf
ROOT
ATOM      1  C   UNL A   1      34.393  28.555  26.987  1.00  0.00     0.116 C 
ENDROOT
BRANCH   1   2
ATOM      2  N   UNL A   1      33.085  28.440  27.619  1.00  0.00    -0.354 N 
ATOM      3  C   UNL A   1      31.951  27.780  27.217  1.00  0.00     0.242 C 
ATOM      4  O   UNL A   1      30.993  27.795  28.001  1.00  0.00    -0.273 OA
ATOM      5  H   UNL A   1      33.001  28.915  28.478  1.00  0.00     0.163 HD
BRANCH   3   6
ATOM      6  C   UNL A   1      31.820  27.076  25.819  1.00  0.00     0.121 C 
ATOM      7  C   UNL A   1      30.352  26.682  25.634  1.00  0.00     0.045 C 
ATOM      8  C   UNL A   1      32.275  28.033  24.715  1.00  0.00     0.103 C 
ATOM      9  C   UNL A   1      29.974  26.752  24.166  1.00  0.00     0.072 C 
ATOM     10  S   UNL A   1      30.960  28.097  23.459  1.00  0.00    -0.159 SA
BRANCH   6  11
ATOM     11  N   UNL A   1      32.776  25.911  25.895  1.00  0.00    -0.193 NA
ATOM     12  H   UNL A   1      33.349  25.978  25.055  1.00  0.00     0.142 HD
BRANCH  11  13
ATOM     13  S   UNL A   1      32.336  24.287  26.006  1.00  0.00     0.260 S 
ATOM     14  O   UNL A   1      31.796  23.884  24.728  1.00  0.00    -0.205 OA
ATOM     15  O   UNL A   1      31.568  24.161  27.226  1.00  0.00    -0.205 OA
BRANCH  13  16
ATOM     16  C   UNL A   1      33.755  23.298  26.279  1.00  0.00     0.188 A 
ATOM     17  N   UNL A   1      35.697  22.404  25.865  1.00  0.00    -0.336 N 
ATOM     18  C   UNL A   1      34.903  21.504  26.525  1.00  0.00     0.201 A 
ATOM     19  C   UNL A   1      35.038  23.605  25.860  1.00  0.00     0.129 A 
ATOM     20  N   UNL A   1      33.715  22.006  26.775  1.00  0.00    -0.224 NA
BRANCH  17  21
ATOM     21  C   UNL A   1      36.927  22.066  25.171  1.00  0.00     0.120 C 
ATOM     22  C   UNL A   1      37.186  20.572  25.004  1.00  0.00     0.027 C 
ENDBRANCH  17  21
ENDBRANCH  13  16
ENDBRANCH  11  13
ENDBRANCH   6  11
ENDBRANCH   3   6
ENDBRANCH   1   2
BRANCH   1  23
ATOM     23  C   UNL A   1      34.968  29.965  26.982  1.00  0.00     0.023 C 
BRANCH  23  24
ATOM     24  C   UNL A   1      34.111  31.032  27.662  1.00  0.00     0.023 C 
BRANCH  24  25
ATOM     25  C   UNL A   1      34.870  32.285  28.092  1.00  0.00     0.116 C 
BRANCH  25  26
ATOM     26  N   UNL A   1      34.752  32.575  29.515  1.00  0.00    -0.352 N 
ATOM     27  C   UNL A   1      35.421  31.966  30.556  1.00  0.00     0.251 C 
ATOM     28  H   UNL A   1      34.121  33.290  29.762  1.00  0.00     0.163 HD
ATOM     29  O   UNL A   1      35.026  32.074  31.711  1.00  0.00    -0.269 OA
BRANCH  27  30
ATOM     30  C   UNL A   1      36.606  31.146  30.255  1.00  0.00     0.039 A 
ATOM     31  C   UNL A   1      37.837  31.767  30.032  1.00  0.00     0.014 A 
ATOM     32  C   UNL A   1      36.496  29.755  30.246  1.00  0.00     0.014 A 
ATOM     33  C   UNL A   1      38.979  30.980  29.901  1.00  0.00     0.010 A 
ATOM     34  C   UNL A   1      37.640  28.977  30.185  1.00  0.00     0.010 A 
ATOM     35  C   UNL A   1      38.888  29.583  30.014  1.00  0.00    -0.014 A 
BRANCH  35  36
ATOM     36  C   UNL A   1      40.127  28.798  30.119  1.00  0.00     0.031 A 
ATOM     37  C   UNL A   1      40.645  28.579  31.506  1.00  0.00     0.074 A 
ATOM     38  C   UNL A   1      40.684  28.101  29.105  1.00  0.00     0.049 A 
ATOM     39  N   UNL A   1      41.820  28.851  31.978  1.00  0.00    -0.248 NA
ATOM     40  C   UNL A   1      39.720  28.019  32.506  1.00  0.00     0.031 C 
ATOM     41  C   UNL A   1      40.157  27.909  27.753  1.00  0.00     0.029 A 
ATOM     42  N   UNL A   1      41.800  27.309  29.120  1.00  0.00    -0.354 N 
ATOM     43  C   UNL A   1      41.840  28.371  33.288  1.00  0.00     0.074 A 
ATOM     44  C   UNL A   1      40.493  27.965  33.592  1.00  0.00     0.031 C 
ATOM     45  C   UNL A   1      40.817  26.893  27.157  1.00  0.00     0.029 A 
ATOM     46  C   UNL A   1      41.907  26.471  28.020  1.00  0.00     0.049 A 
ATOM     47  H   UNL A   1      42.466  27.333  29.844  1.00  0.00     0.167 HD
ATOM     48  C   UNL A   1      43.008  28.172  33.960  1.00  0.00     0.037 A 
ATOM     49  C   UNL A   1      42.803  25.474  27.832  1.00  0.00     0.037 A 
ATOM     50  C   UNL A   1      44.097  28.883  33.346  1.00  0.00     0.049 A 
ATOM     51  C   UNL A   1      43.954  25.712  28.730  1.00  0.00     0.074 A 
ATOM     52  C   UNL A   1      44.404  30.206  33.110  1.00  0.00     0.029 A 
ATOM     53  N   UNL A   1      44.979  28.152  32.596  1.00  0.00    -0.354 N 
ATOM     54  N   UNL A   1      44.819  26.674  28.578  1.00  0.00    -0.248 NA
ATOM     55  C   UNL A   1      43.994  25.034  30.017  1.00  0.00     0.031 C 
ATOM     56  C   UNL A   1      45.163  30.208  31.902  1.00  0.00     0.029 A 
ATOM     57  C   UNL A   1      45.295  28.883  31.484  1.00  0.00     0.049 A 
ATOM     58  H   UNL A   1      45.325  27.258  32.817  1.00  0.00     0.167 HD
ATOM     59  C   UNL A   1      45.197  27.004  29.867  1.00  0.00     0.074 A 
ATOM     60  C   UNL A   1      44.800  25.864  30.681  1.00  0.00     0.031 C 
ATOM     61  C   UNL A   1      45.518  28.291  30.186  1.00  0.00     0.037 A 
BRANCH  48  62
ATOM     62  C   UNL A   1      43.263  27.056  34.954  1.00  0.00     0.064 A 
ATOM     63  C   UNL A   1      43.573  27.385  36.293  1.00  0.00     0.173 A 
ATOM     64  C   UNL A   1      43.543  25.725  34.581  1.00  0.00     0.173 A 
ATOM     65  F   UNL A   1      43.359  28.624  36.761  1.00  0.00    -0.203 F 
ATOM     66  C   UNL A   1      44.210  26.484  37.152  1.00  0.00     0.198 A 
ATOM     67  C   UNL A   1      44.128  24.811  35.459  1.00  0.00     0.198 A 
ATOM     68  F   UNL A   1      43.369  25.287  33.330  1.00  0.00    -0.203 F 
ATOM     69  F   UNL A   1      44.614  26.890  38.364  1.00  0.00    -0.200 F 
ATOM     70  C   UNL A   1      44.496  25.200  36.730  1.00  0.00     0.200 A 
ATOM     71  F   UNL A   1      44.411  23.574  35.029  1.00  0.00    -0.200 F 
ATOM     72  F   UNL A   1      45.169  24.357  37.524  1.00  0.00    -0.200 F 
ENDBRANCH  48  62
BRANCH  49  73
ATOM     73  C   UNL A   1      42.668  24.232  27.040  1.00  0.00     0.064 A 
ATOM     74  C   UNL A   1      43.257  24.114  25.770  1.00  0.00     0.173 A 
ATOM     75  C   UNL A   1      42.184  23.045  27.622  1.00  0.00     0.173 A 
ATOM     76  F   UNL A   1      43.777  25.190  25.162  1.00  0.00    -0.203 F 
ATOM     77  C   UNL A   1      43.381  22.876  25.133  1.00  0.00     0.198 A 
ATOM     78  C   UNL A   1      42.298  21.812  26.979  1.00  0.00     0.198 A 
ATOM     79  F   UNL A   1      41.675  23.046  28.863  1.00  0.00    -0.203 F 
ATOM     80  F   UNL A   1      44.007  22.793  23.952  1.00  0.00    -0.200 F 
ATOM     81  C   UNL A   1      42.910  21.725  25.743  1.00  0.00     0.200 A 
ATOM     82  F   UNL A   1      41.865  20.702  27.594  1.00  0.00    -0.200 F 
ATOM     83  F   UNL A   1      43.082  20.530  25.161  1.00  0.00    -0.200 F 
ENDBRANCH  49  73
BRANCH  61  84
ATOM     84  C   UNL A   1      45.883  29.214  29.062  1.00  0.00     0.064 A 
ATOM     85  C   UNL A   1      44.953  29.915  28.275  1.00  0.00     0.173 A 
ATOM     86  C   UNL A   1      47.243  29.471  28.840  1.00  0.00     0.173 A 
ATOM     87  F   UNL A   1      43.637  29.805  28.496  1.00  0.00    -0.203 F 
ATOM     88  C   UNL A   1      45.372  30.781  27.268  1.00  0.00     0.198 A 
ATOM     89  C   UNL A   1      47.658  30.371  27.863  1.00  0.00     0.198 A 
ATOM     90  F   UNL A   1      48.174  28.874  29.601  1.00  0.00    -0.203 F 
ATOM     91  F   UNL A   1      44.468  31.414  26.507  1.00  0.00    -0.200 F 
ATOM     92  C   UNL A   1      46.724  31.012  27.066  1.00  0.00     0.200 A 
ATOM     93  F   UNL A   1      48.964  30.629  27.706  1.00  0.00    -0.200 F 
ATOM     94  F   UNL A   1      47.126  31.871  26.119  1.00  0.00    -0.200 F 
ENDBRANCH  61  84
ENDBRANCH  35  36
ENDBRANCH  27  30
ENDBRANCH  25  26
ENDBRANCH  24  25
ENDBRANCH  23  24
ENDBRANCH   1  23
TORSDOF 15
ENDMDL
