MODEL 1
REMARK VINA RESULT:     -12.6      0.000      0.000
REMARK SMILES O=C(Cc1cccn1-c1ccc2c(c1)OCCO2)NCCCCNC(=O)c1ccc(-c2c3nc(c(-c4c(F)c(F)c(F)c(F)c4F)c4ccc([nH]4)c(-c4c(F)c(F)c(F)c(F)c4F)c4nc(c(-c5c(F)c(F)c(F)c(F)c5F)c5ccc2[nH]5)C=C4)C=C3)cc1
REMARK SMILES IDX 21 1 20 2 19 3 1 4 2 5 3 7 4 8 5 9 8 10 6 11 7 12 9 13 10 14
REMARK SMILES IDX 14 15 11 16 13 17 12 18 15 19 18 20 16 21 17 22 22 23 23 24
REMARK SMILES IDX 24 25 25 26 26 28 27 29 28 30 89 31 29 32 88 33 30 34 31 35
REMARK SMILES IDX 32 36 82 37 33 38 87 39 81 40 83 41 34 42 86 43 80 44 79 45
REMARK SMILES IDX 35 47 67 48 47 49 66 50 48 51 51 52 65 53 84 54 49 55 50 56
REMARK SMILES IDX 64 58 85 59 52 60 36 61 37 62 45 63 38 64 39 65 43 66 46 67
REMARK SMILES IDX 40 68 41 69 44 70 42 71 68 72 69 73 77 74 70 75 71 76 75 77
REMARK SMILES IDX 78 78 72 79 73 80 76 81 74 82 53 83 54 84 62 85 55 86 56 87
REMARK SMILES IDX 60 88 63 89 57 90 58 91 61 92 59 93
REMARK H PARENT 19 6 24 27 83 46 51 57
REMARK Flexibility Score: inf
ROOT
ATOM      1  C   UNL A   1      36.948  23.051  24.171  1.00  0.00     0.023 C 
ENDROOT
BRANCH   1   2
ATOM      2  C   UNL A   1      35.947  22.884  23.022  1.00  0.00     0.116 C 
BRANCH   2   3
ATOM      3  N   UNL A   1      34.577  22.774  23.487  1.00  0.00    -0.356 N 
ATOM      4  O   UNL A   1      33.607  23.644  21.596  1.00  0.00    -0.275 OA
ATOM      5  C   UNL A   1      33.495  23.149  22.715  1.00  0.00     0.225 C 
ATOM      6  H   UNL A   1      34.413  22.417  24.389  1.00  0.00     0.163 HD
BRANCH   5   7
ATOM      7  C   UNL A   1      32.136  22.916  23.373  1.00  0.00     0.154 C 
BRANCH   7   8
ATOM      8  C   UNL A   1      32.292  22.603  24.835  1.00  0.00     0.032 A 
ATOM      9  C   UNL A   1      32.464  21.347  25.400  1.00  0.00     0.024 A 
ATOM     10  N   UNL A   1      32.410  23.538  25.859  1.00  0.00    -0.320 N 
ATOM     11  C   UNL A   1      32.768  21.515  26.765  1.00  0.00     0.020 A 
ATOM     12  C   UNL A   1      32.775  22.866  27.010  1.00  0.00     0.091 A 
BRANCH  10  13
ATOM     13  C   UNL A   1      32.252  24.946  25.792  1.00  0.00     0.049 A 
ATOM     14  C   UNL A   1      30.986  25.470  25.504  1.00  0.00     0.031 A 
ATOM     15  C   UNL A   1      33.335  25.803  26.020  1.00  0.00     0.077 A 
ATOM     16  C   UNL A   1      30.798  26.851  25.495  1.00  0.00     0.052 A 
ATOM     17  C   UNL A   1      33.133  27.183  26.019  1.00  0.00     0.163 A 
ATOM     18  C   UNL A   1      31.867  27.708  25.751  1.00  0.00     0.161 A 
ATOM     19  O   UNL A   1      34.217  27.968  26.311  1.00  0.00    -0.486 OA
ATOM     20  O   UNL A   1      31.580  29.046  25.773  1.00  0.00    -0.486 OA
ATOM     21  C   UNL A   1      33.815  29.276  26.733  1.00  0.00     0.271 C 
ATOM     22  C   UNL A   1      32.761  29.855  25.803  1.00  0.00     0.271 C 
ENDBRANCH  10  13
ENDBRANCH   7   8
ENDBRANCH   5   7
ENDBRANCH   2   3
ENDBRANCH   1   2
BRANCH   1  23
ATOM     23  C   UNL A   1      36.342  23.429  25.530  1.00  0.00     0.023 C 
BRANCH  23  24
ATOM     24  C   UNL A   1      37.250  24.261  26.433  1.00  0.00     0.116 C 
BRANCH  24  25
ATOM     25  N   UNL A   1      38.513  23.608  26.714  1.00  0.00    -0.352 N 
ATOM     26  C   UNL A   1      39.713  24.199  27.042  1.00  0.00     0.251 C 
ATOM     27  H   UNL A   1      38.512  22.626  26.665  1.00  0.00     0.163 HD
ATOM     28  O   UNL A   1      40.756  23.594  26.817  1.00  0.00    -0.269 OA
BRANCH  26  29
ATOM     29  C   UNL A   1      39.774  25.551  27.653  1.00  0.00     0.039 A 
ATOM     30  C   UNL A   1      39.331  25.698  28.975  1.00  0.00     0.014 A 
ATOM     31  C   UNL A   1      40.147  26.684  26.919  1.00  0.00     0.014 A 
ATOM     32  C   UNL A   1      39.302  26.958  29.568  1.00  0.00     0.010 A 
ATOM     33  C   UNL A   1      40.150  27.944  27.520  1.00  0.00     0.010 A 
ATOM     34  C   UNL A   1      39.732  28.082  28.848  1.00  0.00    -0.014 A 
BRANCH  34  35
ATOM     35  C   UNL A   1      39.898  29.367  29.575  1.00  0.00     0.031 A 
ATOM     36  C   UNL A   1      38.683  30.300  29.363  1.00  0.00     0.074 A 
ATOM     37  C   UNL A   1      41.062  29.547  30.275  1.00  0.00     0.049 A 
ATOM     38  N   UNL A   1      38.583  31.593  29.435  1.00  0.00    -0.248 NA
ATOM     39  C   UNL A   1      37.383  29.698  28.958  1.00  0.00     0.031 C 
ATOM     40  C   UNL A   1      42.104  28.514  30.452  1.00  0.00     0.029 A 
ATOM     41  N   UNL A   1      41.618  30.608  30.971  1.00  0.00    -0.354 N 
ATOM     42  C   UNL A   1      37.217  31.935  29.272  1.00  0.00     0.074 A 
ATOM     43  C   UNL A   1      36.544  30.734  28.889  1.00  0.00     0.031 C 
ATOM     44  C   UNL A   1      43.173  29.007  31.115  1.00  0.00     0.029 A 
ATOM     45  C   UNL A   1      42.949  30.402  31.439  1.00  0.00     0.049 A 
ATOM     46  H   UNL A   1      41.128  31.448  31.130  1.00  0.00     0.167 HD
ATOM     47  C   UNL A   1      36.713  33.168  29.580  1.00  0.00     0.037 A 
ATOM     48  C   UNL A   1      43.823  31.300  31.997  1.00  0.00     0.037 A 
ATOM     49  C   UNL A   1      37.775  34.038  29.949  1.00  0.00     0.049 A 
ATOM     50  C   UNL A   1      43.039  32.526  32.176  1.00  0.00     0.074 A 
ATOM     51  C   UNL A   1      38.769  34.638  29.224  1.00  0.00     0.029 A 
ATOM     52  N   UNL A   1      38.091  34.090  31.281  1.00  0.00    -0.354 N 
ATOM     53  N   UNL A   1      42.154  32.709  33.108  1.00  0.00    -0.248 NA
ATOM     54  C   UNL A   1      43.201  33.608  31.194  1.00  0.00     0.031 C 
ATOM     55  C   UNL A   1      39.875  34.595  30.096  1.00  0.00     0.029 A 
ATOM     56  C   UNL A   1      39.455  34.183  31.366  1.00  0.00     0.049 A 
ATOM     57  H   UNL A   1      37.458  34.063  32.034  1.00  0.00     0.167 HD
ATOM     58  C   UNL A   1      41.440  33.770  32.613  1.00  0.00     0.074 A 
ATOM     59  C   UNL A   1      42.297  34.456  31.673  1.00  0.00     0.031 C 
ATOM     60  C   UNL A   1      40.089  33.689  32.560  1.00  0.00     0.037 A 
BRANCH  47  61
ATOM     61  C   UNL A   1      35.314  33.675  29.828  1.00  0.00     0.064 A 
ATOM     62  C   UNL A   1      34.718  34.507  28.841  1.00  0.00     0.173 A 
ATOM     63  C   UNL A   1      34.719  33.707  31.094  1.00  0.00     0.173 A 
ATOM     64  F   UNL A   1      35.171  34.511  27.577  1.00  0.00    -0.203 F 
ATOM     65  C   UNL A   1      33.714  35.423  29.148  1.00  0.00     0.198 A 
ATOM     66  C   UNL A   1      33.673  34.590  31.384  1.00  0.00     0.198 A 
ATOM     67  F   UNL A   1      35.195  32.967  32.103  1.00  0.00    -0.203 F 
ATOM     68  F   UNL A   1      33.298  36.296  28.221  1.00  0.00    -0.200 F 
ATOM     69  C   UNL A   1      33.206  35.478  30.429  1.00  0.00     0.200 A 
ATOM     70  F   UNL A   1      33.171  34.635  32.627  1.00  0.00    -0.200 F 
ATOM     71  F   UNL A   1      32.296  36.407  30.753  1.00  0.00    -0.200 F 
ENDBRANCH  47  61
BRANCH  48  72
ATOM     72  C   UNL A   1      45.292  31.402  32.379  1.00  0.00     0.064 A 
ATOM     73  C   UNL A   1      46.367  31.581  31.503  1.00  0.00     0.173 A 
ATOM     74  C   UNL A   1      45.673  31.388  33.757  1.00  0.00     0.173 A 
ATOM     75  F   UNL A   1      46.202  31.482  30.180  1.00  0.00    -0.203 F 
ATOM     76  C   UNL A   1      47.675  31.847  31.964  1.00  0.00     0.198 A 
ATOM     77  C   UNL A   1      46.952  31.703  34.217  1.00  0.00     0.198 A 
ATOM     78  F   UNL A   1      44.811  31.064  34.729  1.00  0.00    -0.203 F 
ATOM     79  F   UNL A   1      48.669  32.016  31.082  1.00  0.00    -0.200 F 
ATOM     80  C   UNL A   1      47.956  31.952  33.317  1.00  0.00     0.200 A 
ATOM     81  F   UNL A   1      47.186  31.776  35.536  1.00  0.00    -0.200 F 
ATOM     82  F   UNL A   1      49.183  32.273  33.747  1.00  0.00    -0.200 F 
ENDBRANCH  48  72
BRANCH  60  83
ATOM     83  C   UNL A   1      39.485  32.744  33.576  1.00  0.00     0.064 A 
ATOM     84  C   UNL A   1      39.562  33.064  34.939  1.00  0.00     0.173 A 
ATOM     85  C   UNL A   1      38.936  31.488  33.262  1.00  0.00     0.173 A 
ATOM     86  F   UNL A   1      40.065  34.248  35.319  1.00  0.00    -0.203 F 
ATOM     87  C   UNL A   1      39.121  32.178  35.927  1.00  0.00     0.198 A 
ATOM     88  C   UNL A   1      38.487  30.605  34.247  1.00  0.00     0.198 A 
ATOM     89  F   UNL A   1      38.824  31.091  31.995  1.00  0.00    -0.203 F 
ATOM     90  F   UNL A   1      39.211  32.524  37.219  1.00  0.00    -0.200 F 
ATOM     91  C   UNL A   1      38.585  30.950  35.581  1.00  0.00     0.200 A 
ATOM     92  F   UNL A   1      37.955  29.423  33.897  1.00  0.00    -0.200 F 
ATOM     93  F   UNL A   1      38.147  30.109  36.529  1.00  0.00    -0.200 F 
ENDBRANCH  60  83
ENDBRANCH  34  35
ENDBRANCH  26  29
ENDBRANCH  24  25
ENDBRANCH  23  24
ENDBRANCH   1  23
TORSDOF 13
ENDMDL
MODEL 2
REMARK VINA RESULT:     -12.6      4.635      9.494
REMARK SMILES O=C(Cc1cccn1-c1ccc2c(c1)OCCO2)NCCCCNC(=O)c1ccc(-c2c3nc(c(-c4c(F)c(F)c(F)c(F)c4F)c4ccc([nH]4)c(-c4c(F)c(F)c(F)c(F)c4F)c4nc(c(-c5c(F)c(F)c(F)c(F)c5F)c5ccc2[nH]5)C=C4)C=C3)cc1
REMARK SMILES IDX 21 1 20 2 19 3 1 4 2 5 3 7 4 8 5 9 8 10 6 11 7 12 9 13 10 14
REMARK SMILES IDX 14 15 11 16 13 17 12 18 15 19 18 20 16 21 17 22 22 23 23 24
REMARK SMILES IDX 24 25 25 26 26 28 27 29 28 30 89 31 29 32 88 33 30 34 31 35
REMARK SMILES IDX 32 36 82 37 33 38 87 39 81 40 83 41 34 42 86 43 80 44 79 45
REMARK SMILES IDX 35 47 67 48 47 49 66 50 48 51 51 52 65 53 84 54 49 55 50 56
REMARK SMILES IDX 64 58 85 59 52 60 36 61 37 62 45 63 38 64 39 65 43 66 46 67
REMARK SMILES IDX 40 68 41 69 44 70 42 71 68 72 69 73 77 74 70 75 71 76 75 77
REMARK SMILES IDX 78 78 72 79 73 80 76 81 74 82 53 83 54 84 62 85 55 86 56 87
REMARK SMILES IDX 60 88 63 89 57 90 58 91 61 92 59 93
REMARK H PARENT 19 6 24 27 83 46 51 57
REMARK Flexibility Score: inf
ROOT
ATOM      1  C   UNL A   1      32.442  28.583  27.363  1.00  0.00     0.023 C 
ENDROOT
BRANCH   1   2
ATOM      2  C   UNL A   1      31.310  27.552  27.288  1.00  0.00     0.116 C 
BRANCH   2   3
ATOM      3  N   UNL A   1      31.051  27.106  25.932  1.00  0.00    -0.356 N 
ATOM      4  O   UNL A   1      29.905  25.204  26.514  1.00  0.00    -0.275 OA
ATOM      5  C   UNL A   1      30.337  25.958  25.647  1.00  0.00     0.225 C 
ATOM      6  H   UNL A   1      31.398  27.644  25.185  1.00  0.00     0.163 HD
BRANCH   5   7
ATOM      7  C   UNL A   1      30.141  25.688  24.156  1.00  0.00     0.154 C 
BRANCH   7   8
ATOM      8  C   UNL A   1      30.988  26.611  23.324  1.00  0.00     0.032 A 
ATOM      9  C   UNL A   1      30.602  27.830  22.787  1.00  0.00     0.024 A 
ATOM     10  N   UNL A   1      32.344  26.450  23.057  1.00  0.00    -0.320 N 
ATOM     11  C   UNL A   1      31.743  28.459  22.254  1.00  0.00     0.020 A 
ATOM     12  C   UNL A   1      32.805  27.615  22.474  1.00  0.00     0.091 A 
BRANCH  10  13
ATOM     13  C   UNL A   1      33.177  25.341  23.351  1.00  0.00     0.049 A 
ATOM     14  C   UNL A   1      33.122  24.216  22.520  1.00  0.00     0.031 A 
ATOM     15  C   UNL A   1      34.051  25.368  24.444  1.00  0.00     0.077 A 
ATOM     16  C   UNL A   1      33.977  23.142  22.757  1.00  0.00     0.052 A 
ATOM     17  C   UNL A   1      34.910  24.291  24.666  1.00  0.00     0.163 A 
ATOM     18  C   UNL A   1      34.869  23.176  23.827  1.00  0.00     0.161 A 
ATOM     19  O   UNL A   1      35.785  24.402  25.714  1.00  0.00    -0.486 OA
ATOM     20  O   UNL A   1      35.707  22.100  23.954  1.00  0.00    -0.486 OA
ATOM     21  C   UNL A   1      36.888  23.501  25.570  1.00  0.00     0.271 C 
ATOM     22  C   UNL A   1      36.413  22.105  25.198  1.00  0.00     0.271 C 
ENDBRANCH  10  13
ENDBRANCH   7   8
ENDBRANCH   5   7
ENDBRANCH   2   3
ENDBRANCH   1   2
BRANCH   1  23
ATOM     23  C   UNL A   1      33.513  28.475  26.270  1.00  0.00     0.023 C 
BRANCH  23  24
ATOM     24  C   UNL A   1      34.947  28.695  26.746  1.00  0.00     0.116 C 
BRANCH  24  25
ATOM     25  N   UNL A   1      35.203  30.067  27.142  1.00  0.00    -0.352 N 
ATOM     26  C   UNL A   1      36.177  30.530  27.997  1.00  0.00     0.251 C 
ATOM     27  H   UNL A   1      34.608  30.747  26.752  1.00  0.00     0.163 HD
ATOM     28  O   UNL A   1      36.005  31.598  28.573  1.00  0.00    -0.269 OA
BRANCH  26  29
ATOM     29  C   UNL A   1      37.426  29.764  28.243  1.00  0.00     0.039 A 
ATOM     30  C   UNL A   1      38.392  29.736  27.228  1.00  0.00     0.014 A 
ATOM     31  C   UNL A   1      37.610  28.988  29.394  1.00  0.00     0.014 A 
ATOM     32  C   UNL A   1      39.548  28.974  27.382  1.00  0.00     0.010 A 
ATOM     33  C   UNL A   1      38.781  28.249  29.567  1.00  0.00     0.010 A 
ATOM     34  C   UNL A   1      39.755  28.245  28.563  1.00  0.00    -0.014 A 
BRANCH  34  35
ATOM     35  C   UNL A   1      41.087  27.626  28.788  1.00  0.00     0.031 A 
ATOM     36  C   UNL A   1      41.125  26.162  28.290  1.00  0.00     0.074 A 
ATOM     37  C   UNL A   1      42.041  28.395  29.402  1.00  0.00     0.049 A 
ATOM     38  N   UNL A   1      41.874  25.164  28.647  1.00  0.00    -0.248 NA
ATOM     39  C   UNL A   1      40.133  25.731  27.266  1.00  0.00     0.031 C 
ATOM     40  C   UNL A   1      41.875  29.823  29.746  1.00  0.00     0.029 A 
ATOM     41  N   UNL A   1      43.324  28.156  29.865  1.00  0.00    -0.354 N 
ATOM     42  C   UNL A   1      41.582  24.072  27.792  1.00  0.00     0.074 A 
ATOM     43  C   UNL A   1      40.438  24.454  27.026  1.00  0.00     0.031 C 
ATOM     44  C   UNL A   1      42.950  30.291  30.418  1.00  0.00     0.029 A 
ATOM     45  C   UNL A   1      43.923  29.230  30.586  1.00  0.00     0.049 A 
ATOM     46  H   UNL A   1      43.790  27.303  29.708  1.00  0.00     0.167 HD
ATOM     47  C   UNL A   1      42.381  22.967  27.691  1.00  0.00     0.037 A 
ATOM     48  C   UNL A   1      45.090  29.249  31.308  1.00  0.00     0.037 A 
ATOM     49  C   UNL A   1      43.431  23.050  28.646  1.00  0.00     0.049 A 
ATOM     50  C   UNL A   1      45.711  27.944  31.054  1.00  0.00     0.074 A 
ATOM     51  C   UNL A   1      43.449  22.924  30.009  1.00  0.00     0.029 A 
ATOM     52  N   UNL A   1      44.594  23.642  28.230  1.00  0.00    -0.354 N 
ATOM     53  N   UNL A   1      46.319  27.618  29.954  1.00  0.00    -0.248 NA
ATOM     54  C   UNL A   1      45.579  26.897  32.075  1.00  0.00     0.031 C 
ATOM     55  C   UNL A   1      44.400  23.884  30.408  1.00  0.00     0.029 A 
ATOM     56  C   UNL A   1      45.066  24.382  29.281  1.00  0.00     0.049 A 
ATOM     57  H   UNL A   1      45.010  23.555  27.342  1.00  0.00     0.167 HD
ATOM     58  C   UNL A   1      46.334  26.248  30.038  1.00  0.00     0.074 A 
ATOM     59  C   UNL A   1      46.195  25.909  31.436  1.00  0.00     0.031 C 
ATOM     60  C   UNL A   1      45.897  25.518  28.984  1.00  0.00     0.037 A 
BRANCH  47  61
ATOM     61  C   UNL A   1      42.497  21.871  26.660  1.00  0.00     0.064 A 
ATOM     62  C   UNL A   1      42.025  20.575  27.003  1.00  0.00     0.173 A 
ATOM     63  C   UNL A   1      43.361  21.936  25.561  1.00  0.00     0.173 A 
ATOM     64  F   UNL A   1      41.146  20.404  28.004  1.00  0.00    -0.203 F 
ATOM     65  C   UNL A   1      42.517  19.420  26.399  1.00  0.00     0.198 A 
ATOM     66  C   UNL A   1      43.811  20.775  24.921  1.00  0.00     0.198 A 
ATOM     67  F   UNL A   1      43.871  23.102  25.146  1.00  0.00    -0.203 F 
ATOM     68  F   UNL A   1      42.162  18.216  26.868  1.00  0.00    -0.200 F 
ATOM     69  C   UNL A   1      43.429  19.521  25.369  1.00  0.00     0.200 A 
ATOM     70  F   UNL A   1      44.688  20.875  23.911  1.00  0.00    -0.200 F 
ATOM     71  F   UNL A   1      43.966  18.417  24.834  1.00  0.00    -0.200 F 
ENDBRANCH  47  61
BRANCH  48  72
ATOM     72  C   UNL A   1      45.829  30.142  32.293  1.00  0.00     0.064 A 
ATOM     73  C   UNL A   1      45.597  30.230  33.670  1.00  0.00     0.173 A 
ATOM     74  C   UNL A   1      46.921  30.948  31.845  1.00  0.00     0.173 A 
ATOM     75  F   UNL A   1      44.530  29.647  34.228  1.00  0.00    -0.203 F 
ATOM     76  C   UNL A   1      46.453  30.950  34.530  1.00  0.00     0.198 A 
ATOM     77  C   UNL A   1      47.800  31.616  32.698  1.00  0.00     0.198 A 
ATOM     78  F   UNL A   1      47.188  31.122  30.544  1.00  0.00    -0.203 F 
ATOM     79  F   UNL A   1      46.189  30.997  35.843  1.00  0.00    -0.200 F 
ATOM     80  C   UNL A   1      47.576  31.604  34.050  1.00  0.00     0.200 A 
ATOM     81  F   UNL A   1      48.865  32.253  32.189  1.00  0.00    -0.200 F 
ATOM     82  F   UNL A   1      48.423  32.228  34.879  1.00  0.00    -0.200 F 
ENDBRANCH  48  72
BRANCH  60  83
ATOM     83  C   UNL A   1      46.018  26.223  27.650  1.00  0.00     0.064 A 
ATOM     84  C   UNL A   1      47.291  26.541  27.157  1.00  0.00     0.173 A 
ATOM     85  C   UNL A   1      44.925  26.692  26.900  1.00  0.00     0.173 A 
ATOM     86  F   UNL A   1      48.384  26.121  27.811  1.00  0.00    -0.203 F 
ATOM     87  C   UNL A   1      47.459  27.288  25.987  1.00  0.00     0.198 A 
ATOM     88  C   UNL A   1      45.091  27.431  25.726  1.00  0.00     0.198 A 
ATOM     89  F   UNL A   1      43.676  26.444  27.289  1.00  0.00    -0.203 F 
ATOM     90  F   UNL A   1      48.695  27.568  25.549  1.00  0.00    -0.200 F 
ATOM     91  C   UNL A   1      46.361  27.732  25.273  1.00  0.00     0.200 A 
ATOM     92  F   UNL A   1      44.016  27.843  25.035  1.00  0.00    -0.200 F 
ATOM     93  F   UNL A   1      46.524  28.433  24.142  1.00  0.00    -0.200 F 
ENDBRANCH  60  83
ENDBRANCH  34  35
ENDBRANCH  26  29
ENDBRANCH  24  25
ENDBRANCH  23  24
ENDBRANCH   1  23
TORSDOF 13
ENDMDL
MODEL 3
REMARK VINA RESULT:     -12.6      1.002      1.591
REMARK SMILES O=C(Cc1cccn1-c1ccc2c(c1)OCCO2)NCCCCNC(=O)c1ccc(-c2c3nc(c(-c4c(F)c(F)c(F)c(F)c4F)c4ccc([nH]4)c(-c4c(F)c(F)c(F)c(F)c4F)c4nc(c(-c5c(F)c(F)c(F)c(F)c5F)c5ccc2[nH]5)C=C4)C=C3)cc1
REMARK SMILES IDX 21 1 20 2 19 3 1 4 2 5 3 7 4 8 5 9 8 10 6 11 7 12 9 13 10 14
REMARK SMILES IDX 14 15 11 16 13 17 12 18 15 19 18 20 16 21 17 22 22 23 23 24
REMARK SMILES IDX 24 25 25 26 26 28 27 29 28 30 89 31 29 32 88 33 30 34 31 35
REMARK SMILES IDX 32 36 82 37 33 38 87 39 81 40 83 41 34 42 86 43 80 44 79 45
REMARK SMILES IDX 35 47 67 48 47 49 66 50 48 51 51 52 65 53 84 54 49 55 50 56
REMARK SMILES IDX 64 58 85 59 52 60 36 61 37 62 45 63 38 64 39 65 43 66 46 67
REMARK SMILES IDX 40 68 41 69 44 70 42 71 68 72 69 73 77 74 70 75 71 76 75 77
REMARK SMILES IDX 78 78 72 79 73 80 76 81 74 82 53 83 54 84 62 85 55 86 56 87
REMARK SMILES IDX 60 88 63 89 57 90 58 91 61 92 59 93
REMARK H PARENT 19 6 24 27 83 46 51 57
REMARK Flexibility Score: inf
ROOT
ATOM      1  C   UNL A   1      35.845  21.986  26.341  1.00  0.00     0.023 C 
ENDROOT
BRANCH   1   2
ATOM      2  C   UNL A   1      34.413  21.858  26.873  1.00  0.00     0.116 C 
BRANCH   2   3
ATOM      3  N   UNL A   1      33.421  22.320  25.921  1.00  0.00    -0.356 N 
ATOM      4  O   UNL A   1      31.871  22.978  27.482  1.00  0.00    -0.275 OA
ATOM      5  C   UNL A   1      32.215  22.873  26.308  1.00  0.00     0.225 C 
ATOM      6  H   UNL A   1      33.615  22.235  24.960  1.00  0.00     0.163 HD
BRANCH   5   7
ATOM      7  C   UNL A   1      31.329  23.333  25.152  1.00  0.00     0.154 C 
BRANCH   7   8
ATOM      8  C   UNL A   1      32.155  23.687  23.947  1.00  0.00     0.032 A 
ATOM      9  C   UNL A   1      32.398  22.880  22.844  1.00  0.00     0.024 A 
ATOM     10  N   UNL A   1      32.716  24.932  23.682  1.00  0.00    -0.320 N 
ATOM     11  C   UNL A   1      33.044  23.657  21.862  1.00  0.00     0.020 A 
ATOM     12  C   UNL A   1      33.184  24.921  22.381  1.00  0.00     0.091 A 
BRANCH  10  13
ATOM     13  C   UNL A   1      32.782  26.069  24.526  1.00  0.00     0.049 A 
ATOM     14  C   UNL A   1      33.829  26.165  25.450  1.00  0.00     0.031 A 
ATOM     15  C   UNL A   1      31.827  27.088  24.436  1.00  0.00     0.077 A 
ATOM     16  C   UNL A   1      33.945  27.303  26.245  1.00  0.00     0.052 A 
ATOM     17  C   UNL A   1      31.959  28.228  25.229  1.00  0.00     0.163 A 
ATOM     18  C   UNL A   1      33.013  28.333  26.138  1.00  0.00     0.161 A 
ATOM     19  O   UNL A   1      31.029  29.218  25.051  1.00  0.00    -0.486 OA
ATOM     20  O   UNL A   1      33.234  29.435  26.920  1.00  0.00    -0.486 OA
ATOM     21  C   UNL A   1      31.505  30.476  25.542  1.00  0.00     0.271 C 
ATOM     22  C   UNL A   1      32.117  30.330  26.927  1.00  0.00     0.271 C 
ENDBRANCH  10  13
ENDBRANCH   7   8
ENDBRANCH   5   7
ENDBRANCH   2   3
ENDBRANCH   1   2
BRANCH   1  23
ATOM     23  C   UNL A   1      36.168  23.297  25.612  1.00  0.00     0.023 C 
BRANCH  23  24
ATOM     24  C   UNL A   1      37.179  24.197  26.319  1.00  0.00     0.116 C 
BRANCH  24  25
ATOM     25  N   UNL A   1      38.384  23.490  26.707  1.00  0.00    -0.352 N 
ATOM     26  C   UNL A   1      39.587  24.029  27.105  1.00  0.00     0.251 C 
ATOM     27  H   UNL A   1      38.336  22.508  26.683  1.00  0.00     0.163 HD
ATOM     28  O   UNL A   1      40.610  23.367  26.972  1.00  0.00    -0.269 OA
BRANCH  26  29
ATOM     29  C   UNL A   1      39.675  25.394  27.685  1.00  0.00     0.039 A 
ATOM     30  C   UNL A   1      39.205  25.586  28.991  1.00  0.00     0.014 A 
ATOM     31  C   UNL A   1      40.100  26.496  26.933  1.00  0.00     0.014 A 
ATOM     32  C   UNL A   1      39.200  26.861  29.553  1.00  0.00     0.010 A 
ATOM     33  C   UNL A   1      40.128  27.770  27.503  1.00  0.00     0.010 A 
ATOM     34  C   UNL A   1      39.682  27.954  28.816  1.00  0.00    -0.014 A 
BRANCH  34  35
ATOM     35  C   UNL A   1      39.870  29.251  29.516  1.00  0.00     0.031 A 
ATOM     36  C   UNL A   1      38.660  30.190  29.305  1.00  0.00     0.074 A 
ATOM     37  C   UNL A   1      41.047  29.434  30.195  1.00  0.00     0.049 A 
ATOM     38  N   UNL A   1      38.572  31.485  29.354  1.00  0.00    -0.248 NA
ATOM     39  C   UNL A   1      37.348  29.592  28.931  1.00  0.00     0.031 C 
ATOM     40  C   UNL A   1      42.082  28.395  30.376  1.00  0.00     0.029 A 
ATOM     41  N   UNL A   1      41.621  30.503  30.862  1.00  0.00    -0.354 N 
ATOM     42  C   UNL A   1      37.206  31.835  29.205  1.00  0.00     0.074 A 
ATOM     43  C   UNL A   1      36.518  30.634  28.855  1.00  0.00     0.031 C 
ATOM     44  C   UNL A   1      43.165  28.892  31.013  1.00  0.00     0.029 A 
ATOM     45  C   UNL A   1      42.957  30.294  31.313  1.00  0.00     0.049 A 
ATOM     46  H   UNL A   1      41.142  31.350  31.012  1.00  0.00     0.167 HD
ATOM     47  C   UNL A   1      36.718  33.079  29.497  1.00  0.00     0.037 A 
ATOM     48  C   UNL A   1      43.848  31.195  31.841  1.00  0.00     0.037 A 
ATOM     49  C   UNL A   1      37.793  33.946  29.832  1.00  0.00     0.049 A 
ATOM     50  C   UNL A   1      43.078  32.432  32.007  1.00  0.00     0.074 A 
ATOM     51  C   UNL A   1      38.780  34.524  29.081  1.00  0.00     0.029 A 
ATOM     52  N   UNL A   1      38.129  34.021  31.158  1.00  0.00    -0.354 N 
ATOM     53  N   UNL A   1      42.208  32.639  32.949  1.00  0.00    -0.248 NA
ATOM     54  C   UNL A   1      43.233  33.493  31.003  1.00  0.00     0.031 C 
ATOM     55  C   UNL A   1      39.899  34.488  29.937  1.00  0.00     0.029 A 
ATOM     56  C   UNL A   1      39.495  34.104  31.221  1.00  0.00     0.049 A 
ATOM     57  H   UNL A   1      37.508  34.014  31.921  1.00  0.00     0.167 HD
ATOM     58  C   UNL A   1      41.495  33.698  32.445  1.00  0.00     0.074 A 
ATOM     59  C   UNL A   1      42.344  34.358  31.480  1.00  0.00     0.031 C 
ATOM     60  C   UNL A   1      40.143  33.627  32.414  1.00  0.00     0.037 A 
BRANCH  47  61
ATOM     61  C   UNL A   1      35.327  33.602  29.756  1.00  0.00     0.064 A 
ATOM     62  C   UNL A   1      34.731  34.439  28.773  1.00  0.00     0.173 A 
ATOM     63  C   UNL A   1      34.743  33.643  31.027  1.00  0.00     0.173 A 
ATOM     64  F   UNL A   1      35.174  34.436  27.505  1.00  0.00    -0.203 F 
ATOM     65  C   UNL A   1      33.741  35.368  29.087  1.00  0.00     0.198 A 
ATOM     66  C   UNL A   1      33.710  34.540  31.325  1.00  0.00     0.198 A 
ATOM     67  F   UNL A   1      35.220  32.900  32.033  1.00  0.00    -0.203 F 
ATOM     68  F   UNL A   1      33.328  36.244  28.161  1.00  0.00    -0.200 F 
ATOM     69  C   UNL A   1      33.245  35.431  30.372  1.00  0.00     0.200 A 
ATOM     70  F   UNL A   1      33.220  34.593  32.571  1.00  0.00    -0.200 F 
ATOM     71  F   UNL A   1      32.349  36.372  30.703  1.00  0.00    -0.200 F 
ENDBRANCH  47  61
BRANCH  48  72
ATOM     72  C   UNL A   1      45.323  31.292  32.198  1.00  0.00     0.064 A 
ATOM     73  C   UNL A   1      46.392  31.377  31.300  1.00  0.00     0.173 A 
ATOM     74  C   UNL A   1      45.721  31.375  33.569  1.00  0.00     0.173 A 
ATOM     75  F   UNL A   1      46.208  31.181  29.990  1.00  0.00    -0.203 F 
ATOM     76  C   UNL A   1      47.710  31.647  31.726  1.00  0.00     0.198 A 
ATOM     77  C   UNL A   1      47.012  31.694  33.990  1.00  0.00     0.198 A 
ATOM     78  F   UNL A   1      44.864  31.147  34.572  1.00  0.00    -0.203 F 
ATOM     79  F   UNL A   1      48.697  31.725  30.822  1.00  0.00    -0.200 F 
ATOM     80  C   UNL A   1      48.010  31.849  33.063  1.00  0.00     0.200 A 
ATOM     81  F   UNL A   1      47.263  31.863  35.297  1.00  0.00    -0.200 F 
ATOM     82  F   UNL A   1      49.249  32.173  33.455  1.00  0.00    -0.200 F 
ENDBRANCH  48  72
BRANCH  60  83
ATOM     83  C   UNL A   1      39.547  32.707  33.457  1.00  0.00     0.064 A 
ATOM     84  C   UNL A   1      39.651  33.050  34.813  1.00  0.00     0.173 A 
ATOM     85  C   UNL A   1      38.980  31.452  33.176  1.00  0.00     0.173 A 
ATOM     86  F   UNL A   1      40.172  34.235  35.163  1.00  0.00    -0.203 F 
ATOM     87  C   UNL A   1      39.218  32.188  35.824  1.00  0.00     0.198 A 
ATOM     88  C   UNL A   1      38.539  30.591  34.184  1.00  0.00     0.198 A 
ATOM     89  F   UNL A   1      38.842  31.033  31.918  1.00  0.00    -0.203 F 
ATOM     90  F   UNL A   1      39.333  32.555  37.107  1.00  0.00    -0.200 F 
ATOM     91  C   UNL A   1      38.662  30.959  35.510  1.00  0.00     0.200 A 
ATOM     92  F   UNL A   1      37.988  29.409  33.865  1.00  0.00    -0.200 F 
ATOM     93  F   UNL A   1      38.232  30.140  36.480  1.00  0.00    -0.200 F 
ENDBRANCH  60  83
ENDBRANCH  34  35
ENDBRANCH  26  29
ENDBRANCH  24  25
ENDBRANCH  23  24
ENDBRANCH   1  23
TORSDOF 13
ENDMDL
