MODEL 1
REMARK VINA RESULT:     -11.4      0.000      0.000
REMARK SMILES C=CCN(CC(=O)NCCCCNC(=O)c1ccc(-c2c3nc(c(-c4c(F)c(F)c(F)c(F)c4F)c4ccc([nH]4)c(-c4c(F)c(F)c(F)c(F)c4F)c4nc(c(-c5c(F)c(F)c(F)c(F)c5F)c5ccc2[nH]5)C=C4)C=C3)cc1)C(=O)c1ccc(C[NH3+])cc1
REMARK SMILES IDX 9 1 8 2 6 3 7 4 5 6 4 7 3 8 2 9 1 10 79 11 80 12 81 13 82 14
REMARK SMILES IDX 88 15 83 16 87 17 84 18 85 19 86 20 10 24 11 25 12 26 13 27
REMARK SMILES IDX 14 28 15 30 16 31 17 32 78 33 18 34 77 35 19 36 20 37 21 38
REMARK SMILES IDX 71 39 22 40 76 41 70 42 72 43 23 44 75 45 69 46 68 47 24 49
REMARK SMILES IDX 56 50 36 51 55 52 37 53 40 54 54 55 73 56 38 57 39 58 53 60
REMARK SMILES IDX 74 61 41 62 25 63 26 64 34 65 27 66 28 67 32 68 35 69 29 70
REMARK SMILES IDX 30 71 33 72 31 73 57 74 58 75 66 76 59 77 60 78 64 79 67 80
REMARK SMILES IDX 61 81 62 82 65 83 63 84 42 85 43 86 51 87 44 88 45 89 49 90
REMARK SMILES IDX 52 91 46 92 47 93 50 94 48 95
REMARK H PARENT 8 5 86 21 86 22 86 23 13 29 72 48 40 59
REMARK Flexibility Score: inf
ROOT
ATOM      1  C   UNL A   1      31.711  29.946  25.234  1.00  0.00     0.116 C 
ENDROOT
BRANCH   1   2
ATOM      2  N   UNL A   1      32.921  29.585  24.528  1.00  0.00    -0.355 N 
ATOM      3  C   UNL A   1      33.095  28.876  23.376  1.00  0.00     0.239 C 
ATOM      4  O   UNL A   1      34.193  28.999  22.823  1.00  0.00    -0.273 OA
ATOM      5  H   UNL A   1      33.753  29.902  24.947  1.00  0.00     0.163 HD
BRANCH   3   6
ATOM      6  C   UNL A   1      31.968  28.074  22.690  1.00  0.00     0.220 C 
BRANCH   6   7
ATOM      7  N   UNL A   1      32.002  26.610  22.800  1.00  0.00    -0.326 N 
BRANCH   7   8
ATOM      8  C   UNL A   1      30.823  25.934  23.332  1.00  0.00     0.147 C 
BRANCH   8   9
ATOM      9  C   UNL A   1      30.387  26.547  24.627  1.00  0.00    -0.014 C 
ATOM     10  C   UNL A   1      30.857  26.146  25.816  1.00  0.00     0.006 C 
ENDBRANCH   8   9
ENDBRANCH   7   8
BRANCH   7  11
ATOM     11  C   UNL A   1      33.064  25.815  22.350  1.00  0.00     0.254 C 
ATOM     12  O   UNL A   1      33.507  25.862  21.204  1.00  0.00    -0.269 OA
BRANCH  11  13
ATOM     13  C   UNL A   1      33.721  24.872  23.282  1.00  0.00     0.040 A 
ATOM     14  C   UNL A   1      33.706  23.508  22.980  1.00  0.00     0.014 A 
ATOM     15  C   UNL A   1      34.268  25.316  24.486  1.00  0.00     0.014 A 
ATOM     16  C   UNL A   1      34.301  22.596  23.858  1.00  0.00     0.010 A 
ATOM     17  C   UNL A   1      34.885  24.406  25.348  1.00  0.00     0.010 A 
ATOM     18  C   UNL A   1      34.921  23.039  25.036  1.00  0.00     0.006 A 
BRANCH  18  19
ATOM     19  C   UNL A   1      35.572  22.057  25.975  1.00  0.00     0.295 C 
BRANCH  19  20
ATOM     20  N   UNL A   1      34.895  20.768  25.945  1.00  0.00    -0.354 N 
ATOM     21  H   UNL A   1      33.887  20.916  25.882  1.00  0.00     0.344 HD
ATOM     22  H   UNL A   1      35.110  20.250  26.797  1.00  0.00     0.344 HD
ATOM     23  H   UNL A   1      35.211  20.237  25.134  1.00  0.00     0.344 HD
ENDBRANCH  19  20
ENDBRANCH  18  19
ENDBRANCH  11  13
ENDBRANCH   7  11
ENDBRANCH   6   7
ENDBRANCH   3   6
ENDBRANCH   1   2
BRANCH   1  24
ATOM     24  C   UNL A   1      31.952  30.466  26.649  1.00  0.00     0.023 C 
BRANCH  24  25
ATOM     25  C   UNL A   1      31.637  31.944  26.874  1.00  0.00     0.023 C 
BRANCH  25  26
ATOM     26  C   UNL A   1      32.819  32.820  27.267  1.00  0.00     0.116 C 
BRANCH  26  27
ATOM     27  N   UNL A   1      32.448  34.172  27.651  1.00  0.00    -0.352 N 
ATOM     28  C   UNL A   1      33.010  34.982  28.609  1.00  0.00     0.251 C 
ATOM     29  H   UNL A   1      31.689  34.560  27.159  1.00  0.00     0.163 HD
ATOM     30  O   UNL A   1      32.519  36.078  28.860  1.00  0.00    -0.269 OA
BRANCH  28  31
ATOM     31  C   UNL A   1      34.187  34.509  29.370  1.00  0.00     0.039 A 
ATOM     32  C   UNL A   1      33.983  33.899  30.611  1.00  0.00     0.014 A 
ATOM     33  C   UNL A   1      35.478  34.636  28.852  1.00  0.00     0.014 A 
ATOM     34  C   UNL A   1      35.067  33.350  31.297  1.00  0.00     0.010 A 
ATOM     35  C   UNL A   1      36.544  34.022  29.499  1.00  0.00     0.010 A 
ATOM     36  C   UNL A   1      36.350  33.369  30.727  1.00  0.00    -0.014 A 
BRANCH  36  37
ATOM     37  C   UNL A   1      37.503  32.712  31.391  1.00  0.00     0.031 A 
ATOM     38  C   UNL A   1      38.215  31.575  30.715  1.00  0.00     0.074 A 
ATOM     39  C   UNL A   1      37.859  33.088  32.634  1.00  0.00     0.049 A 
ATOM     40  N   UNL A   1      39.186  30.819  31.165  1.00  0.00    -0.248 NA
ATOM     41  C   UNL A   1      37.753  31.221  29.365  1.00  0.00     0.031 C 
ATOM     42  C   UNL A   1      37.221  34.149  33.413  1.00  0.00     0.029 A 
ATOM     43  N   UNL A   1      38.841  32.610  33.466  1.00  0.00    -0.354 N 
ATOM     44  C   UNL A   1      39.438  29.894  30.161  1.00  0.00     0.074 A 
ATOM     45  C   UNL A   1      38.481  30.146  29.105  1.00  0.00     0.031 C 
ATOM     46  C   UNL A   1      37.844  34.261  34.596  1.00  0.00     0.029 A 
ATOM     47  C   UNL A   1      38.898  33.255  34.677  1.00  0.00     0.049 A 
ATOM     48  H   UNL A   1      39.447  31.875  33.217  1.00  0.00     0.167 HD
ATOM     49  C   UNL A   1      40.397  28.939  30.113  1.00  0.00     0.037 A 
ATOM     50  C   UNL A   1      39.708  33.053  35.734  1.00  0.00     0.037 A 
ATOM     51  C   UNL A   1      41.358  28.704  31.158  1.00  0.00     0.049 A 
ATOM     52  C   UNL A   1      40.751  31.972  35.666  1.00  0.00     0.074 A 
ATOM     53  C   UNL A   1      42.405  27.799  31.183  1.00  0.00     0.029 A 
ATOM     54  N   UNL A   1      41.388  29.381  32.370  1.00  0.00    -0.354 N 
ATOM     55  N   UNL A   1      41.023  31.144  34.688  1.00  0.00    -0.248 NA
ATOM     56  C   UNL A   1      41.601  31.800  36.852  1.00  0.00     0.031 C 
ATOM     57  C   UNL A   1      43.038  27.895  32.426  1.00  0.00     0.029 A 
ATOM     58  C   UNL A   1      42.420  28.896  33.158  1.00  0.00     0.049 A 
ATOM     59  H   UNL A   1      40.767  30.099  32.630  1.00  0.00     0.167 HD
ATOM     60  C   UNL A   1      42.093  30.375  35.124  1.00  0.00     0.074 A 
ATOM     61  C   UNL A   1      42.425  30.841  36.455  1.00  0.00     0.031 C 
ATOM     62  C   UNL A   1      42.743  29.375  34.479  1.00  0.00     0.037 A 
BRANCH  49  63
ATOM     63  C   UNL A   1      40.443  28.074  28.887  1.00  0.00     0.064 A 
ATOM     64  C   UNL A   1      39.737  26.862  28.813  1.00  0.00     0.173 A 
ATOM     65  C   UNL A   1      41.196  28.460  27.769  1.00  0.00     0.173 A 
ATOM     66  F   UNL A   1      39.010  26.440  29.859  1.00  0.00    -0.203 F 
ATOM     67  C   UNL A   1      39.821  26.050  27.685  1.00  0.00     0.198 A 
ATOM     68  C   UNL A   1      41.251  27.661  26.629  1.00  0.00     0.198 A 
ATOM     69  F   UNL A   1      41.885  29.611  27.781  1.00  0.00    -0.203 F 
ATOM     70  F   UNL A   1      39.191  24.866  27.667  1.00  0.00    -0.200 F 
ATOM     71  C   UNL A   1      40.573  26.452  26.592  1.00  0.00     0.200 A 
ATOM     72  F   UNL A   1      41.968  28.057  25.569  1.00  0.00    -0.200 F 
ATOM     73  F   UNL A   1      40.655  25.668  25.509  1.00  0.00    -0.200 F 
ENDBRANCH  49  63
BRANCH  50  74
ATOM     74  C   UNL A   1      39.588  33.925  36.930  1.00  0.00     0.064 A 
ATOM     75  C   UNL A   1      40.249  35.160  36.982  1.00  0.00     0.173 A 
ATOM     76  C   UNL A   1      38.805  33.556  38.033  1.00  0.00     0.173 A 
ATOM     77  F   UNL A   1      41.026  35.546  35.958  1.00  0.00    -0.203 F 
ATOM     78  C   UNL A   1      40.141  35.989  38.096  1.00  0.00     0.198 A 
ATOM     79  C   UNL A   1      38.678  34.397  39.137  1.00  0.00     0.198 A 
ATOM     80  F   UNL A   1      38.150  32.387  38.031  1.00  0.00    -0.203 F 
ATOM     81  F   UNL A   1      40.812  37.148  38.133  1.00  0.00    -0.200 F 
ATOM     82  C   UNL A   1      39.350  35.610  39.170  1.00  0.00     0.200 A 
ATOM     83  F   UNL A   1      37.903  34.034  40.168  1.00  0.00    -0.200 F 
ATOM     84  F   UNL A   1      39.240  36.411  40.238  1.00  0.00    -0.200 F 
ENDBRANCH  50  74
BRANCH  62  85
ATOM     85  C   UNL A   1      43.904  28.740  35.187  1.00  0.00     0.064 A 
ATOM     86  C   UNL A   1      43.735  27.644  36.046  1.00  0.00     0.173 A 
ATOM     87  C   UNL A   1      45.209  29.208  34.968  1.00  0.00     0.173 A 
ATOM     88  F   UNL A   1      42.506  27.169  36.300  1.00  0.00    -0.203 F 
ATOM     89  C   UNL A   1      44.827  27.055  36.677  1.00  0.00     0.198 A 
ATOM     90  C   UNL A   1      46.301  28.599  35.578  1.00  0.00     0.198 A 
ATOM     91  F   UNL A   1      45.425  30.250  34.151  1.00  0.00    -0.203 F 
ATOM     92  F   UNL A   1      44.637  26.037  37.529  1.00  0.00    -0.200 F 
ATOM     93  C   UNL A   1      46.110  27.527  36.436  1.00  0.00     0.200 A 
ATOM     94  F   UNL A   1      47.540  29.047  35.335  1.00  0.00    -0.200 F 
ATOM     95  F   UNL A   1      47.159  26.953  37.039  1.00  0.00    -0.200 F 
ENDBRANCH  62  85
ENDBRANCH  36  37
ENDBRANCH  28  31
ENDBRANCH  26  27
ENDBRANCH  25  26
ENDBRANCH  24  25
ENDBRANCH   1  24
TORSDOF 18
ENDMDL
MODEL 2
REMARK VINA RESULT:     -11.3      0.361      2.005
REMARK SMILES C=CCN(CC(=O)NCCCCNC(=O)c1ccc(-c2c3nc(c(-c4c(F)c(F)c(F)c(F)c4F)c4ccc([nH]4)c(-c4c(F)c(F)c(F)c(F)c4F)c4nc(c(-c5c(F)c(F)c(F)c(F)c5F)c5ccc2[nH]5)C=C4)C=C3)cc1)C(=O)c1ccc(C[NH3+])cc1
REMARK SMILES IDX 9 1 8 2 6 3 7 4 5 6 4 7 3 8 2 9 1 10 79 11 80 12 81 13 82 14
REMARK SMILES IDX 88 15 83 16 87 17 84 18 85 19 86 20 10 24 11 25 12 26 13 27
REMARK SMILES IDX 14 28 15 30 16 31 17 32 78 33 18 34 77 35 19 36 20 37 21 38
REMARK SMILES IDX 71 39 22 40 76 41 70 42 72 43 23 44 75 45 69 46 68 47 24 49
REMARK SMILES IDX 56 50 36 51 55 52 37 53 40 54 54 55 73 56 38 57 39 58 53 60
REMARK SMILES IDX 74 61 41 62 25 63 26 64 34 65 27 66 28 67 32 68 35 69 29 70
REMARK SMILES IDX 30 71 33 72 31 73 57 74 58 75 66 76 59 77 60 78 64 79 67 80
REMARK SMILES IDX 61 81 62 82 65 83 63 84 42 85 43 86 51 87 44 88 45 89 49 90
REMARK SMILES IDX 52 91 46 92 47 93 50 94 48 95
REMARK H PARENT 8 5 86 21 86 22 86 23 13 29 72 48 40 59
REMARK Flexibility Score: inf
ROOT
ATOM      1  C   UNL A   1      31.751  29.844  25.382  1.00  0.00     0.116 C 
ENDROOT
BRANCH   1   2
ATOM      2  N   UNL A   1      32.970  29.572  24.654  1.00  0.00    -0.355 N 
ATOM      3  C   UNL A   1      33.169  28.909  23.479  1.00  0.00     0.239 C 
ATOM      4  O   UNL A   1      34.253  29.109  22.919  1.00  0.00    -0.273 OA
ATOM      5  H   UNL A   1      33.789  29.921  25.075  1.00  0.00     0.163 HD
BRANCH   3   6
ATOM      6  C   UNL A   1      32.080  28.069  22.778  1.00  0.00     0.220 C 
BRANCH   6   7
ATOM      7  N   UNL A   1      32.133  26.609  22.933  1.00  0.00    -0.326 N 
BRANCH   7   8
ATOM      8  C   UNL A   1      31.002  25.946  23.576  1.00  0.00     0.147 C 
BRANCH   8   9
ATOM      9  C   UNL A   1      29.910  26.922  23.888  1.00  0.00    -0.014 C 
ATOM     10  C   UNL A   1      28.614  26.579  23.917  1.00  0.00     0.006 C 
ENDBRANCH   8   9
ENDBRANCH   7   8
BRANCH   7  11
ATOM     11  C   UNL A   1      33.163  25.805  22.430  1.00  0.00     0.254 C 
ATOM     12  O   UNL A   1      33.549  25.849  21.264  1.00  0.00    -0.269 OA
BRANCH  11  13
ATOM     13  C   UNL A   1      33.855  24.854  23.328  1.00  0.00     0.040 A 
ATOM     14  C   UNL A   1      33.944  23.513  22.946  1.00  0.00     0.014 A 
ATOM     15  C   UNL A   1      34.335  25.260  24.573  1.00  0.00     0.014 A 
ATOM     16  C   UNL A   1      34.574  22.591  23.789  1.00  0.00     0.010 A 
ATOM     17  C   UNL A   1      34.988  24.343  25.401  1.00  0.00     0.010 A 
ATOM     18  C   UNL A   1      35.127  23.003  25.012  1.00  0.00     0.006 A 
BRANCH  18  19
ATOM     19  C   UNL A   1      35.816  22.012  25.913  1.00  0.00     0.295 C 
BRANCH  19  20
ATOM     20  N   UNL A   1      34.965  21.635  27.033  1.00  0.00    -0.354 N 
ATOM     21  H   UNL A   1      35.220  22.186  27.853  1.00  0.00     0.344 HD
ATOM     22  H   UNL A   1      35.090  20.644  27.237  1.00  0.00     0.344 HD
ATOM     23  H   UNL A   1      33.990  21.813  26.793  1.00  0.00     0.344 HD
ENDBRANCH  19  20
ENDBRANCH  18  19
ENDBRANCH  11  13
ENDBRANCH   7  11
ENDBRANCH   6   7
ENDBRANCH   3   6
ENDBRANCH   1   2
BRANCH   1  24
ATOM     24  C   UNL A   1      31.978  30.474  26.754  1.00  0.00     0.023 C 
BRANCH  24  25
ATOM     25  C   UNL A   1      31.683  31.970  26.854  1.00  0.00     0.023 C 
BRANCH  25  26
ATOM     26  C   UNL A   1      32.855  32.848  27.269  1.00  0.00     0.116 C 
BRANCH  26  27
ATOM     27  N   UNL A   1      32.472  34.197  27.655  1.00  0.00    -0.352 N 
ATOM     28  C   UNL A   1      33.012  35.002  28.629  1.00  0.00     0.251 C 
ATOM     29  H   UNL A   1      31.722  34.587  27.150  1.00  0.00     0.163 HD
ATOM     30  O   UNL A   1      32.513  36.096  28.877  1.00  0.00    -0.269 OA
BRANCH  28  31
ATOM     31  C   UNL A   1      34.175  34.528  29.411  1.00  0.00     0.039 A 
ATOM     32  C   UNL A   1      33.947  33.890  30.632  1.00  0.00     0.014 A 
ATOM     33  C   UNL A   1      35.477  34.683  28.929  1.00  0.00     0.014 A 
ATOM     34  C   UNL A   1      35.020  33.339  31.335  1.00  0.00     0.010 A 
ATOM     35  C   UNL A   1      36.534  34.068  29.591  1.00  0.00     0.010 A 
ATOM     36  C   UNL A   1      36.317  33.386  30.799  1.00  0.00    -0.014 A 
BRANCH  36  37
ATOM     37  C   UNL A   1      37.460  32.729  31.480  1.00  0.00     0.031 A 
ATOM     38  C   UNL A   1      38.162  31.572  30.828  1.00  0.00     0.074 A 
ATOM     39  C   UNL A   1      37.816  33.125  32.716  1.00  0.00     0.049 A 
ATOM     40  N   UNL A   1      39.123  30.815  31.295  1.00  0.00    -0.248 NA
ATOM     41  C   UNL A   1      37.701  31.198  29.483  1.00  0.00     0.031 C 
ATOM     42  C   UNL A   1      37.187  34.207  33.473  1.00  0.00     0.029 A 
ATOM     43  N   UNL A   1      38.791  32.652  33.560  1.00  0.00    -0.354 N 
ATOM     44  C   UNL A   1      39.369  29.868  30.309  1.00  0.00     0.074 A 
ATOM     45  C   UNL A   1      38.418  30.110  29.246  1.00  0.00     0.031 C 
ATOM     46  C   UNL A   1      37.808  34.335  34.656  1.00  0.00     0.029 A 
ATOM     47  C   UNL A   1      38.851  33.319  34.759  1.00  0.00     0.049 A 
ATOM     48  H   UNL A   1      39.389  31.906  33.327  1.00  0.00     0.167 HD
ATOM     49  C   UNL A   1      40.317  28.902  30.283  1.00  0.00     0.037 A 
ATOM     50  C   UNL A   1      39.655  33.129  35.822  1.00  0.00     0.037 A 
ATOM     51  C   UNL A   1      41.273  28.676  31.335  1.00  0.00     0.049 A 
ATOM     52  C   UNL A   1      40.686  32.036  35.779  1.00  0.00     0.074 A 
ATOM     53  C   UNL A   1      42.309  27.761  31.380  1.00  0.00     0.029 A 
ATOM     54  N   UNL A   1      41.306  29.376  32.533  1.00  0.00    -0.354 N 
ATOM     55  N   UNL A   1      40.952  31.186  34.817  1.00  0.00    -0.248 NA
ATOM     56  C   UNL A   1      41.531  31.877  36.971  1.00  0.00     0.031 C 
ATOM     57  C   UNL A   1      42.939  27.874  32.624  1.00  0.00     0.029 A 
ATOM     58  C   UNL A   1      42.330  28.895  33.335  1.00  0.00     0.049 A 
ATOM     59  H   UNL A   1      40.692  30.106  32.779  1.00  0.00     0.167 HD
ATOM     60  C   UNL A   1      42.013  30.414  35.272  1.00  0.00     0.074 A 
ATOM     61  C   UNL A   1      42.346  30.901  36.594  1.00  0.00     0.031 C 
ATOM     62  C   UNL A   1      42.654  29.395  34.647  1.00  0.00     0.037 A 
BRANCH  49  63
ATOM     63  C   UNL A   1      40.357  28.014  29.073  1.00  0.00     0.064 A 
ATOM     64  C   UNL A   1      41.116  28.347  27.939  1.00  0.00     0.173 A 
ATOM     65  C   UNL A   1      39.632  26.813  29.044  1.00  0.00     0.173 A 
ATOM     66  F   UNL A   1      41.818  29.489  27.909  1.00  0.00    -0.203 F 
ATOM     67  C   UNL A   1      41.111  27.534  26.808  1.00  0.00     0.198 A 
ATOM     68  C   UNL A   1      39.656  25.986  27.924  1.00  0.00     0.198 A 
ATOM     69  F   UNL A   1      38.896  26.442  30.102  1.00  0.00    -0.203 F 
ATOM     70  F   UNL A   1      41.791  27.909  25.715  1.00  0.00    -0.200 F 
ATOM     71  C   UNL A   1      40.386  26.353  26.803  1.00  0.00     0.200 A 
ATOM     72  F   UNL A   1      38.966  24.839  27.924  1.00  0.00    -0.200 F 
ATOM     73  F   UNL A   1      40.380  25.573  25.713  1.00  0.00    -0.200 F 
ENDBRANCH  49  63
BRANCH  50  74
ATOM     74  C   UNL A   1      39.541  34.024  37.002  1.00  0.00     0.064 A 
ATOM     75  C   UNL A   1      38.779  33.643  38.115  1.00  0.00     0.173 A 
ATOM     76  C   UNL A   1      40.196  35.262  37.051  1.00  0.00     0.173 A 
ATOM     77  F   UNL A   1      38.118  32.477  38.106  1.00  0.00    -0.203 F 
ATOM     78  C   UNL A   1      38.667  34.472  39.229  1.00  0.00     0.198 A 
ATOM     79  C   UNL A   1      40.104  36.080  38.176  1.00  0.00     0.198 A 
ATOM     80  F   UNL A   1      40.940  35.671  36.012  1.00  0.00    -0.203 F 
ATOM     81  F   UNL A   1      37.905  34.099  40.265  1.00  0.00    -0.200 F 
ATOM     82  C   UNL A   1      39.336  35.687  39.261  1.00  0.00     0.200 A 
ATOM     83  F   UNL A   1      40.761  37.248  38.208  1.00  0.00    -0.200 F 
ATOM     84  F   UNL A   1      39.235  36.480  40.336  1.00  0.00    -0.200 F 
ENDBRANCH  50  74
BRANCH  62  85
ATOM     85  C   UNL A   1      43.806  28.761  35.371  1.00  0.00     0.064 A 
ATOM     86  C   UNL A   1      45.124  29.206  35.193  1.00  0.00     0.173 A 
ATOM     87  C   UNL A   1      43.582  27.721  36.286  1.00  0.00     0.173 A 
ATOM     88  F   UNL A   1      45.393  30.186  34.318  1.00  0.00    -0.203 F 
ATOM     89  C   UNL A   1      46.177  28.619  35.889  1.00  0.00     0.198 A 
ATOM     90  C   UNL A   1      44.633  27.155  37.001  1.00  0.00     0.198 A 
ATOM     91  F   UNL A   1      42.338  27.263  36.496  1.00  0.00    -0.203 F 
ATOM     92  F   UNL A   1      47.434  29.030  35.670  1.00  0.00    -0.200 F 
ATOM     93  C   UNL A   1      45.930  27.601  36.799  1.00  0.00     0.200 A 
ATOM     94  F   UNL A   1      44.391  26.181  37.889  1.00  0.00    -0.200 F 
ATOM     95  F   UNL A   1      46.945  27.043  37.473  1.00  0.00    -0.200 F 
ENDBRANCH  62  85
ENDBRANCH  36  37
ENDBRANCH  28  31
ENDBRANCH  26  27
ENDBRANCH  25  26
ENDBRANCH  24  25
ENDBRANCH   1  24
TORSDOF 18
ENDMDL
MODEL 3
REMARK VINA RESULT:     -11.3      1.229      3.347
REMARK SMILES C=CCN(CC(=O)NCCCCNC(=O)c1ccc(-c2c3nc(c(-c4c(F)c(F)c(F)c(F)c4F)c4ccc([nH]4)c(-c4c(F)c(F)c(F)c(F)c4F)c4nc(c(-c5c(F)c(F)c(F)c(F)c5F)c5ccc2[nH]5)C=C4)C=C3)cc1)C(=O)c1ccc(C[NH3+])cc1
REMARK SMILES IDX 9 1 8 2 6 3 7 4 5 6 4 7 3 8 2 9 1 10 79 11 80 12 81 13 82 14
REMARK SMILES IDX 88 15 83 16 87 17 84 18 85 19 86 20 10 24 11 25 12 26 13 27
REMARK SMILES IDX 14 28 15 30 16 31 17 32 78 33 18 34 77 35 19 36 20 37 21 38
REMARK SMILES IDX 71 39 22 40 76 41 70 42 72 43 23 44 75 45 69 46 68 47 24 49
REMARK SMILES IDX 56 50 36 51 55 52 37 53 40 54 54 55 73 56 38 57 39 58 53 60
REMARK SMILES IDX 74 61 41 62 25 63 26 64 34 65 27 66 28 67 32 68 35 69 29 70
REMARK SMILES IDX 30 71 33 72 31 73 57 74 58 75 66 76 59 77 60 78 64 79 67 80
REMARK SMILES IDX 61 81 62 82 65 83 63 84 42 85 43 86 51 87 44 88 45 89 49 90
REMARK SMILES IDX 52 91 46 92 47 93 50 94 48 95
REMARK H PARENT 8 5 86 21 86 22 86 23 13 29 72 48 40 59
REMARK Flexibility Score: inf
ROOT
ATOM      1  C   UNL A   1      32.382  29.515  27.166  1.00  0.00     0.116 C 
ENDROOT
BRANCH   1   2
ATOM      2  N   UNL A   1      31.688  28.250  27.075  1.00  0.00    -0.355 N 
ATOM      3  C   UNL A   1      32.094  27.053  26.563  1.00  0.00     0.239 C 
ATOM      4  O   UNL A   1      31.438  26.064  26.911  1.00  0.00    -0.273 OA
ATOM      5  H   UNL A   1      30.773  28.254  27.441  1.00  0.00     0.163 HD
BRANCH   3   6
ATOM      6  C   UNL A   1      33.374  26.876  25.720  1.00  0.00     0.220 C 
BRANCH   6   7
ATOM      7  N   UNL A   1      33.270  26.124  24.462  1.00  0.00    -0.326 N 
BRANCH   7   8
ATOM      8  C   UNL A   1      33.523  24.686  24.499  1.00  0.00     0.147 C 
BRANCH   8   9
ATOM      9  C   UNL A   1      34.985  24.399  24.653  1.00  0.00    -0.014 C 
ATOM     10  C   UNL A   1      35.502  23.827  25.749  1.00  0.00     0.006 C 
ENDBRANCH   8   9
ENDBRANCH   7   8
BRANCH   7  11
ATOM     11  C   UNL A   1      32.863  26.685  23.245  1.00  0.00     0.254 C 
ATOM     12  O   UNL A   1      33.534  26.632  22.217  1.00  0.00    -0.269 OA
BRANCH  11  13
ATOM     13  C   UNL A   1      31.553  27.368  23.155  1.00  0.00     0.040 A 
ATOM     14  C   UNL A   1      31.524  28.718  22.796  1.00  0.00     0.014 A 
ATOM     15  C   UNL A   1      30.374  26.711  23.505  1.00  0.00     0.014 A 
ATOM     16  C   UNL A   1      30.300  29.391  22.726  1.00  0.00     0.010 A 
ATOM     17  C   UNL A   1      29.151  27.377  23.407  1.00  0.00     0.010 A 
ATOM     18  C   UNL A   1      29.099  28.719  23.004  1.00  0.00     0.006 A 
BRANCH  18  19
ATOM     19  C   UNL A   1      27.779  29.442  22.916  1.00  0.00     0.295 C 
BRANCH  19  20
ATOM     20  N   UNL A   1      26.661  28.513  23.001  1.00  0.00    -0.354 N 
ATOM     21  H   UNL A   1      26.430  28.350  23.982  1.00  0.00     0.344 HD
ATOM     22  H   UNL A   1      26.917  27.630  22.561  1.00  0.00     0.344 HD
ATOM     23  H   UNL A   1      25.852  28.910  22.523  1.00  0.00     0.344 HD
ENDBRANCH  19  20
ENDBRANCH  18  19
ENDBRANCH  11  13
ENDBRANCH   7  11
ENDBRANCH   6   7
ENDBRANCH   3   6
ENDBRANCH   1   2
BRANCH   1  24
ATOM     24  C   UNL A   1      31.894  30.563  26.170  1.00  0.00     0.023 C 
BRANCH  24  25
ATOM     25  C   UNL A   1      31.540  31.927  26.762  1.00  0.00     0.023 C 
BRANCH  25  26
ATOM     26  C   UNL A   1      32.710  32.731  27.313  1.00  0.00     0.116 C 
BRANCH  26  27
ATOM     27  N   UNL A   1      32.377  34.110  27.632  1.00  0.00    -0.352 N 
ATOM     28  C   UNL A   1      32.970  34.952  28.542  1.00  0.00     0.251 C 
ATOM     29  H   UNL A   1      31.622  34.492  27.129  1.00  0.00     0.163 HD
ATOM     30  O   UNL A   1      32.510  36.072  28.742  1.00  0.00    -0.269 OA
BRANCH  28  31
ATOM     31  C   UNL A   1      34.143  34.489  29.314  1.00  0.00     0.039 A 
ATOM     32  C   UNL A   1      33.933  33.885  30.556  1.00  0.00     0.014 A 
ATOM     33  C   UNL A   1      35.437  34.619  28.804  1.00  0.00     0.014 A 
ATOM     34  C   UNL A   1      35.015  33.344  31.253  1.00  0.00     0.010 A 
ATOM     35  C   UNL A   1      36.502  34.012  29.461  1.00  0.00     0.010 A 
ATOM     36  C   UNL A   1      36.302  33.366  30.691  1.00  0.00    -0.014 A 
BRANCH  36  37
ATOM     37  C   UNL A   1      37.453  32.717  31.368  1.00  0.00     0.031 A 
ATOM     38  C   UNL A   1      38.172  31.577  30.705  1.00  0.00     0.074 A 
ATOM     39  C   UNL A   1      37.800  33.103  32.610  1.00  0.00     0.049 A 
ATOM     40  N   UNL A   1      39.143  30.828  31.165  1.00  0.00    -0.248 NA
ATOM     41  C   UNL A   1      37.720  31.212  29.354  1.00  0.00     0.031 C 
ATOM     42  C   UNL A   1      37.154  34.168  33.377  1.00  0.00     0.029 A 
ATOM     43  N   UNL A   1      38.779  32.634  33.451  1.00  0.00    -0.354 N 
ATOM     44  C   UNL A   1      39.404  29.896  30.170  1.00  0.00     0.074 A 
ATOM     45  C   UNL A   1      38.453  30.137  29.106  1.00  0.00     0.031 C 
ATOM     46  C   UNL A   1      37.769  34.290  34.563  1.00  0.00     0.029 A 
ATOM     47  C   UNL A   1      38.827  33.288  34.657  1.00  0.00     0.049 A 
ATOM     48  H   UNL A   1      39.388  31.899  33.211  1.00  0.00     0.167 HD
ATOM     49  C   UNL A   1      40.366  28.944  30.135  1.00  0.00     0.037 A 
ATOM     50  C   UNL A   1      39.631  33.097  35.721  1.00  0.00     0.037 A 
ATOM     51  C   UNL A   1      41.322  28.719  31.187  1.00  0.00     0.049 A 
ATOM     52  C   UNL A   1      40.677  32.019  35.667  1.00  0.00     0.074 A 
ATOM     53  C   UNL A   1      42.371  27.818  31.225  1.00  0.00     0.029 A 
ATOM     54  N   UNL A   1      41.343  29.406  32.394  1.00  0.00    -0.354 N 
ATOM     55  N   UNL A   1      40.958  31.184  34.697  1.00  0.00    -0.248 NA
ATOM     56  C   UNL A   1      41.521  31.858  36.860  1.00  0.00     0.031 C 
ATOM     57  C   UNL A   1      42.996  27.925  32.471  1.00  0.00     0.029 A 
ATOM     58  C   UNL A   1      42.371  28.930  33.192  1.00  0.00     0.049 A 
ATOM     59  H   UNL A   1      40.717  30.124  32.646  1.00  0.00     0.167 HD
ATOM     60  C   UNL A   1      42.028  30.422  35.145  1.00  0.00     0.074 A 
ATOM     61  C   UNL A   1      42.351  30.898  36.474  1.00  0.00     0.031 C 
ATOM     62  C   UNL A   1      42.685  29.419  34.511  1.00  0.00     0.037 A 
BRANCH  49  63
ATOM     63  C   UNL A   1      40.422  28.070  28.915  1.00  0.00     0.064 A 
ATOM     64  C   UNL A   1      41.174  28.429  27.785  1.00  0.00     0.173 A 
ATOM     65  C   UNL A   1      39.718  26.857  28.873  1.00  0.00     0.173 A 
ATOM     66  F   UNL A   1      41.856  29.584  27.768  1.00  0.00    -0.203 F 
ATOM     67  C   UNL A   1      41.183  27.630  26.645  1.00  0.00     0.198 A 
ATOM     68  C   UNL A   1      39.757  26.044  27.743  1.00  0.00     0.198 A 
ATOM     69  F   UNL A   1      38.989  26.461  29.926  1.00  0.00    -0.203 F 
ATOM     70  F   UNL A   1      41.857  28.028  25.556  1.00  0.00    -0.200 F 
ATOM     71  C   UNL A   1      40.479  26.435  26.626  1.00  0.00     0.200 A 
ATOM     72  F   UNL A   1      39.086  24.884  27.731  1.00  0.00    -0.200 F 
ATOM     73  F   UNL A   1      40.487  25.669  25.528  1.00  0.00    -0.200 F 
ENDBRANCH  49  63
BRANCH  50  74
ATOM     74  C   UNL A   1      39.501  33.977  36.910  1.00  0.00     0.064 A 
ATOM     75  C   UNL A   1      38.742  33.572  38.017  1.00  0.00     0.173 A 
ATOM     76  C   UNL A   1      40.138  35.224  36.974  1.00  0.00     0.173 A 
ATOM     77  F   UNL A   1      38.098  32.396  37.993  1.00  0.00    -0.203 F 
ATOM     78  C   UNL A   1      38.616  34.387  39.140  1.00  0.00     0.198 A 
ATOM     79  C   UNL A   1      40.032  36.028  38.108  1.00  0.00     0.198 A 
ATOM     80  F   UNL A   1      40.877  35.655  35.943  1.00  0.00    -0.203 F 
ATOM     81  F   UNL A   1      37.857  33.991  40.170  1.00  0.00    -0.200 F 
ATOM     82  C   UNL A   1      39.266  35.611  39.188  1.00  0.00     0.200 A 
ATOM     83  F   UNL A   1      40.671  37.204  38.156  1.00  0.00    -0.200 F 
ATOM     84  F   UNL A   1      39.152  36.390  40.271  1.00  0.00    -0.200 F 
ENDBRANCH  50  74
BRANCH  62  85
ATOM     85  C   UNL A   1      43.844  28.792  35.231  1.00  0.00     0.064 A 
ATOM     86  C   UNL A   1      45.139  29.324  35.145  1.00  0.00     0.173 A 
ATOM     87  C   UNL A   1      43.646  27.670  36.050  1.00  0.00     0.173 A 
ATOM     88  F   UNL A   1      45.383  30.386  34.363  1.00  0.00    -0.203 F 
ATOM     89  C   UNL A   1      46.197  28.741  35.837  1.00  0.00     0.198 A 
ATOM     90  C   UNL A   1      44.700  27.108  36.762  1.00  0.00     0.198 A 
ATOM     91  F   UNL A   1      42.424  27.128  36.169  1.00  0.00    -0.203 F 
ATOM     92  F   UNL A   1      47.436  29.238  35.706  1.00  0.00    -0.200 F 
ATOM     93  C   UNL A   1      45.976  27.639  36.651  1.00  0.00     0.200 A 
ATOM     94  F   UNL A   1      44.482  26.052  37.558  1.00  0.00    -0.200 F 
ATOM     95  F   UNL A   1      46.995  27.085  37.322  1.00  0.00    -0.200 F 
ENDBRANCH  62  85
ENDBRANCH  36  37
ENDBRANCH  28  31
ENDBRANCH  26  27
ENDBRANCH  25  26
ENDBRANCH  24  25
ENDBRANCH   1  24
TORSDOF 18
ENDMDL
