MODEL 1
REMARK VINA RESULT:     -13.3      0.000      0.000
REMARK SMILES Cc1cc(Cl)c2c(c1)C=C(C(=O)NCCCCNC(=O)c1ccc(-c3c4nc(c(-c5c(F)c(F)c(F)c(F)c5F)c5ccc([nH]5)c(-c5c(F)c(F)c(F)c(F)c5F)c5nc(c(-c6c(F)c(F)c(F)c(F)c6F)c6ccc3[nH]6)C=C5)C=C4)cc1)[C@@H](C(F)(F)F)O2
REMARK SMILES IDX 16 1 15 2 14 3 13 4 11 5 12 6 10 8 1 9 2 10 3 11 8 12 4 13
REMARK SMILES IDX 7 14 5 15 6 16 9 17 89 18 84 19 85 20 86 21 87 22 88 23
REMARK SMILES IDX 17 24 18 25 19 26 20 28 21 29 22 30 83 31 23 32 82 33 24 34
REMARK SMILES IDX 25 35 26 36 76 37 27 38 81 39 75 40 77 41 28 42 80 43 74 44
REMARK SMILES IDX 73 45 29 47 61 48 41 49 60 50 42 51 45 52 59 53 78 54 43 55
REMARK SMILES IDX 44 56 58 58 79 59 46 60 30 61 31 62 39 63 32 64 33 65 37 66
REMARK SMILES IDX 40 67 34 68 35 69 38 70 36 71 62 72 63 73 71 74 64 75 65 76
REMARK SMILES IDX 69 77 72 78 66 79 67 80 70 81 68 82 47 83 48 84 56 85 49 86
REMARK SMILES IDX 50 87 54 88 57 89 51 90 52 91 55 92 53 93
REMARK H PARENT 13 7 18 27 77 46 45 57
REMARK Flexibility Score: inf
ROOT
ATOM      1  C   UNL A   1      31.630  32.002  26.815  1.00  0.00     0.023 C 
ENDROOT
BRANCH   1   2
ATOM      2  C   UNL A   1      31.855  30.490  26.881  1.00  0.00     0.023 C 
BRANCH   2   3
ATOM      3  C   UNL A   1      33.317  30.071  26.763  1.00  0.00     0.116 C 
BRANCH   3   4
ATOM      4  N   UNL A   1      33.658  29.668  25.411  1.00  0.00    -0.352 N 
ATOM      5  C   UNL A   1      33.562  28.544  24.663  1.00  0.00     0.251 C 
ATOM      6  O   UNL A   1      34.005  28.645  23.514  1.00  0.00    -0.270 OA
ATOM      7  H   UNL A   1      34.066  30.408  24.905  1.00  0.00     0.163 HD
BRANCH   5   8
ATOM      8  C   UNL A   1      32.980  27.247  25.119  1.00  0.00     0.067 C 
ATOM      9  C   UNL A   1      34.768  21.530  26.678  1.00  0.00     0.044 C 
ATOM     10  C   UNL A   1      33.809  22.664  26.473  1.00  0.00    -0.049 A 
ATOM     11  C   UNL A   1      32.452  22.509  26.778  1.00  0.00     0.028 A 
ATOM     12  C   UNL A   1      34.273  23.914  26.038  1.00  0.00     0.015 A 
ATOM     13  C   UNL A   1      31.568  23.579  26.625  1.00  0.00     0.084 A 
ATOM     14  C   UNL A   1      33.389  24.988  25.877  1.00  0.00     0.019 A 
ATOM     15  Cl  UNL A   1      29.903  23.336  27.010  1.00  0.00    -0.080 Cl
ATOM     16  C   UNL A   1      32.032  24.815  26.164  1.00  0.00     0.146 A 
ATOM     17  C   UNL A   1      33.873  26.297  25.454  1.00  0.00     0.025 C 
ATOM     18  O   UNL A   1      31.143  25.850  26.060  1.00  0.00    -0.474 OA
ATOM     19  C   UNL A   1      31.510  26.943  25.175  1.00  0.00     0.314 C 
BRANCH  19  20
ATOM     20  C   UNL A   1      30.900  26.700  23.782  1.00  0.00     0.429 C 
ATOM     21  F   UNL A   1      31.754  25.990  23.006  1.00  0.00    -0.167 F 
ATOM     22  F   UNL A   1      29.751  25.984  23.838  1.00  0.00    -0.167 F 
ATOM     23  F   UNL A   1      30.614  27.849  23.131  1.00  0.00    -0.167 F 
ENDBRANCH  19  20
ENDBRANCH   5   8
ENDBRANCH   3   4
ENDBRANCH   2   3
ENDBRANCH   1   2
BRANCH   1  24
ATOM     24  C   UNL A   1      32.779  32.860  27.342  1.00  0.00     0.116 C 
BRANCH  24  25
ATOM     25  N   UNL A   1      32.396  34.224  27.678  1.00  0.00    -0.352 N 
ATOM     26  C   UNL A   1      32.975  35.060  28.603  1.00  0.00     0.251 C 
ATOM     27  H   UNL A   1      31.628  34.591  27.183  1.00  0.00     0.163 HD
ATOM     28  O   UNL A   1      32.513  36.171  28.833  1.00  0.00    -0.269 OA
BRANCH  26  29
ATOM     29  C   UNL A   1      34.143  34.568  29.354  1.00  0.00     0.039 A 
ATOM     30  C   UNL A   1      33.931  33.912  30.567  1.00  0.00     0.014 A 
ATOM     31  C   UNL A   1      35.424  34.671  28.805  1.00  0.00     0.014 A 
ATOM     32  C   UNL A   1      35.003  33.282  31.198  1.00  0.00     0.010 A 
ATOM     33  C   UNL A   1      36.479  33.996  29.406  1.00  0.00     0.010 A 
ATOM     34  C   UNL A   1      36.273  33.285  30.599  1.00  0.00    -0.014 A 
BRANCH  34  35
ATOM     35  C   UNL A   1      37.399  32.533  31.199  1.00  0.00     0.031 A 
ATOM     36  C   UNL A   1      37.888  32.888  32.571  1.00  0.00     0.074 A 
ATOM     37  C   UNL A   1      38.015  31.573  30.482  1.00  0.00     0.049 A 
ATOM     38  N   UNL A   1      38.897  32.394  33.241  1.00  0.00    -0.248 NA
ATOM     39  C   UNL A   1      37.161  33.956  33.274  1.00  0.00     0.031 C 
ATOM     40  C   UNL A   1      37.654  31.172  29.121  1.00  0.00     0.029 A 
ATOM     41  N   UNL A   1      39.078  30.765  30.796  1.00  0.00    -0.354 N 
ATOM     42  C   UNL A   1      38.931  33.096  34.437  1.00  0.00     0.074 A 
ATOM     43  C   UNL A   1      37.875  34.083  34.382  1.00  0.00     0.031 C 
ATOM     44  C   UNL A   1      38.462  30.172  28.730  1.00  0.00     0.029 A 
ATOM     45  C   UNL A   1      39.414  29.884  29.798  1.00  0.00     0.049 A 
ATOM     46  H   UNL A   1      39.554  30.812  31.656  1.00  0.00     0.167 HD
ATOM     47  C   UNL A   1      39.755  32.915  35.496  1.00  0.00     0.037 A 
ATOM     48  C   UNL A   1      40.379  28.947  29.754  1.00  0.00     0.037 A 
ATOM     49  C   UNL A   1      40.784  31.914  35.559  1.00  0.00     0.049 A 
ATOM     50  C   UNL A   1      41.282  28.768  30.944  1.00  0.00     0.074 A 
ATOM     51  C   UNL A   1      41.639  31.619  36.605  1.00  0.00     0.029 A 
ATOM     52  N   UNL A   1      41.092  31.037  34.529  1.00  0.00    -0.354 N 
ATOM     53  N   UNL A   1      41.279  29.410  32.086  1.00  0.00    -0.248 NA
ATOM     54  C   UNL A   1      42.324  27.737  30.836  1.00  0.00     0.031 C 
ATOM     55  C   UNL A   1      42.483  30.581  36.200  1.00  0.00     0.029 A 
ATOM     56  C   UNL A   1      42.132  30.207  34.912  1.00  0.00     0.049 A 
ATOM     57  H   UNL A   1      40.638  31.007  33.656  1.00  0.00     0.167 HD
ATOM     58  C   UNL A   1      42.300  28.850  32.840  1.00  0.00     0.074 A 
ATOM     59  C   UNL A   1      42.896  27.808  32.031  1.00  0.00     0.031 C 
ATOM     60  C   UNL A   1      42.707  29.172  34.092  1.00  0.00     0.037 A 
BRANCH  47  61
ATOM     61  C   UNL A   1      39.559  33.810  36.680  1.00  0.00     0.064 A 
ATOM     62  C   UNL A   1      38.765  33.416  37.767  1.00  0.00     0.173 A 
ATOM     63  C   UNL A   1      40.197  35.057  36.746  1.00  0.00     0.173 A 
ATOM     64  F   UNL A   1      38.124  32.238  37.741  1.00  0.00    -0.203 F 
ATOM     65  C   UNL A   1      38.599  34.248  38.870  1.00  0.00     0.198 A 
ATOM     66  C   UNL A   1      40.047  35.878  37.863  1.00  0.00     0.198 A 
ATOM     67  F   UNL A   1      40.968  35.479  35.733  1.00  0.00    -0.203 F 
ATOM     68  F   UNL A   1      37.804  33.869  39.879  1.00  0.00    -0.200 F 
ATOM     69  C   UNL A   1      39.244  35.475  38.919  1.00  0.00     0.200 A 
ATOM     70  F   UNL A   1      40.677  37.060  37.913  1.00  0.00    -0.200 F 
ATOM     71  F   UNL A   1      39.088  36.273  39.985  1.00  0.00    -0.200 F 
ENDBRANCH  47  61
BRANCH  48  72
ATOM     72  C   UNL A   1      40.512  28.079  28.559  1.00  0.00     0.064 A 
ATOM     73  C   UNL A   1      41.291  28.484  27.467  1.00  0.00     0.173 A 
ATOM     74  C   UNL A   1      39.885  26.826  28.488  1.00  0.00     0.173 A 
ATOM     75  F   UNL A   1      41.893  29.682  27.484  1.00  0.00    -0.203 F 
ATOM     76  C   UNL A   1      41.431  27.674  26.343  1.00  0.00     0.198 A 
ATOM     77  C   UNL A   1      40.043  26.007  27.372  1.00  0.00     0.198 A 
ATOM     78  F   UNL A   1      39.133  26.393  29.511  1.00  0.00    -0.203 F 
ATOM     79  F   UNL A   1      42.158  28.097  25.301  1.00  0.00    -0.200 F 
ATOM     80  C   UNL A   1      40.812  26.433  26.299  1.00  0.00     0.200 A 
ATOM     81  F   UNL A   1      39.452  24.806  27.336  1.00  0.00    -0.200 F 
ATOM     82  F   UNL A   1      40.953  25.651  25.220  1.00  0.00    -0.200 F 
ENDBRANCH  48  72
BRANCH  60  83
ATOM     83  C   UNL A   1      43.841  28.385  34.673  1.00  0.00     0.064 A 
ATOM     84  C   UNL A   1      43.616  27.177  35.349  1.00  0.00     0.173 A 
ATOM     85  C   UNL A   1      45.166  28.802  34.483  1.00  0.00     0.173 A 
ATOM     86  F   UNL A   1      42.364  26.748  35.564  1.00  0.00    -0.203 F 
ATOM     87  C   UNL A   1      44.682  26.418  35.823  1.00  0.00     0.198 A 
ATOM     88  C   UNL A   1      46.230  28.029  34.940  1.00  0.00     0.198 A 
ATOM     89  F   UNL A   1      45.429  29.947  33.837  1.00  0.00    -0.203 F 
ATOM     90  F   UNL A   1      44.447  25.279  36.488  1.00  0.00    -0.200 F 
ATOM     91  C   UNL A   1      45.987  26.840  35.611  1.00  0.00     0.200 A 
ATOM     92  F   UNL A   1      47.489  28.432  34.726  1.00  0.00    -0.200 F 
ATOM     93  F   UNL A   1      47.011  26.099  36.055  1.00  0.00    -0.200 F 
ENDBRANCH  60  83
ENDBRANCH  34  35
ENDBRANCH  26  29
ENDBRANCH  24  25
ENDBRANCH   1  24
TORSDOF 12
ENDMDL
MODEL 2
REMARK VINA RESULT:     -13.3      0.273      2.014
REMARK SMILES Cc1cc(Cl)c2c(c1)C=C(C(=O)NCCCCNC(=O)c1ccc(-c3c4nc(c(-c5c(F)c(F)c(F)c(F)c5F)c5ccc([nH]5)c(-c5c(F)c(F)c(F)c(F)c5F)c5nc(c(-c6c(F)c(F)c(F)c(F)c6F)c6ccc3[nH]6)C=C5)C=C4)cc1)[C@@H](C(F)(F)F)O2
REMARK SMILES IDX 16 1 15 2 14 3 13 4 11 5 12 6 10 8 1 9 2 10 3 11 8 12 4 13
REMARK SMILES IDX 7 14 5 15 6 16 9 17 89 18 84 19 85 20 86 21 87 22 88 23
REMARK SMILES IDX 17 24 18 25 19 26 20 28 21 29 22 30 83 31 23 32 82 33 24 34
REMARK SMILES IDX 25 35 26 36 76 37 27 38 81 39 75 40 77 41 28 42 80 43 74 44
REMARK SMILES IDX 73 45 29 47 61 48 41 49 60 50 42 51 45 52 59 53 78 54 43 55
REMARK SMILES IDX 44 56 58 58 79 59 46 60 30 61 31 62 39 63 32 64 33 65 37 66
REMARK SMILES IDX 40 67 34 68 35 69 38 70 36 71 62 72 63 73 71 74 64 75 65 76
REMARK SMILES IDX 69 77 72 78 66 79 67 80 70 81 68 82 47 83 48 84 56 85 49 86
REMARK SMILES IDX 50 87 54 88 57 89 51 90 52 91 55 92 53 93
REMARK H PARENT 13 7 18 27 77 46 45 57
REMARK Flexibility Score: inf
ROOT
ATOM      1  C   UNL A   1      31.660  31.977  26.870  1.00  0.00     0.023 C 
ENDROOT
BRANCH   1   2
ATOM      2  C   UNL A   1      31.942  30.473  26.866  1.00  0.00     0.023 C 
BRANCH   2   3
ATOM      3  C   UNL A   1      33.317  30.097  26.322  1.00  0.00     0.116 C 
BRANCH   3   4
ATOM      4  N   UNL A   1      33.264  29.744  24.915  1.00  0.00    -0.352 N 
ATOM      5  C   UNL A   1      32.969  28.644  24.184  1.00  0.00     0.251 C 
ATOM      6  O   UNL A   1      33.068  28.789  22.961  1.00  0.00    -0.270 OA
ATOM      7  H   UNL A   1      33.507  30.507  24.342  1.00  0.00     0.163 HD
BRANCH   5   8
ATOM      8  C   UNL A   1      32.549  27.323  24.739  1.00  0.00     0.067 C 
ATOM      9  C   UNL A   1      35.002  21.924  26.515  1.00  0.00     0.044 C 
ATOM     10  C   UNL A   1      33.920  22.939  26.297  1.00  0.00    -0.049 A 
ATOM     11  C   UNL A   1      32.602  22.662  26.677  1.00  0.00     0.028 A 
ATOM     12  C   UNL A   1      34.229  24.202  25.771  1.00  0.00     0.015 A 
ATOM     13  C   UNL A   1      31.603  23.624  26.511  1.00  0.00     0.084 A 
ATOM     14  C   UNL A   1      33.229  25.167  25.597  1.00  0.00     0.019 A 
ATOM     15  Cl  UNL A   1      29.992  23.232  26.991  1.00  0.00    -0.080 Cl
ATOM     16  C   UNL A   1      31.912  24.872  25.960  1.00  0.00     0.146 A 
ATOM     17  C   UNL A   1      33.552  26.492  25.080  1.00  0.00     0.025 C 
ATOM     18  O   UNL A   1      30.915  25.801  25.845  1.00  0.00    -0.474 OA
ATOM     19  C   UNL A   1      31.123  26.871  24.885  1.00  0.00     0.314 C 
BRANCH  19  20
ATOM     20  C   UNL A   1      30.482  26.484  23.539  1.00  0.00     0.429 C 
ATOM     21  F   UNL A   1      29.901  27.564  22.961  1.00  0.00    -0.167 F 
ATOM     22  F   UNL A   1      31.390  26.017  22.649  1.00  0.00    -0.167 F 
ATOM     23  F   UNL A   1      29.534  25.530  23.669  1.00  0.00    -0.167 F 
ENDBRANCH  19  20
ENDBRANCH   5   8
ENDBRANCH   3   4
ENDBRANCH   2   3
ENDBRANCH   1   2
BRANCH   1  24
ATOM     24  C   UNL A   1      32.815  32.859  27.344  1.00  0.00     0.116 C 
BRANCH  24  25
ATOM     25  N   UNL A   1      32.419  34.215  27.694  1.00  0.00    -0.352 N 
ATOM     26  C   UNL A   1      32.987  35.044  28.633  1.00  0.00     0.251 C 
ATOM     27  H   UNL A   1      31.651  34.584  27.200  1.00  0.00     0.163 HD
ATOM     28  O   UNL A   1      32.516  36.149  28.874  1.00  0.00    -0.269 OA
BRANCH  26  29
ATOM     29  C   UNL A   1      34.154  34.551  29.384  1.00  0.00     0.039 A 
ATOM     30  C   UNL A   1      33.942  33.892  30.595  1.00  0.00     0.014 A 
ATOM     31  C   UNL A   1      35.436  34.658  28.838  1.00  0.00     0.014 A 
ATOM     32  C   UNL A   1      35.013  33.261  31.226  1.00  0.00     0.010 A 
ATOM     33  C   UNL A   1      36.491  33.981  29.438  1.00  0.00     0.010 A 
ATOM     34  C   UNL A   1      36.284  33.267  30.629  1.00  0.00    -0.014 A 
BRANCH  34  35
ATOM     35  C   UNL A   1      37.411  32.514  31.228  1.00  0.00     0.031 A 
ATOM     36  C   UNL A   1      37.905  32.875  32.597  1.00  0.00     0.074 A 
ATOM     37  C   UNL A   1      38.021  31.549  30.514  1.00  0.00     0.049 A 
ATOM     38  N   UNL A   1      38.916  32.382  33.266  1.00  0.00    -0.248 NA
ATOM     39  C   UNL A   1      37.185  33.949  33.297  1.00  0.00     0.031 C 
ATOM     40  C   UNL A   1      37.653  31.142  29.156  1.00  0.00     0.029 A 
ATOM     41  N   UNL A   1      39.082  30.739  30.828  1.00  0.00    -0.354 N 
ATOM     42  C   UNL A   1      38.957  33.090  34.458  1.00  0.00     0.074 A 
ATOM     43  C   UNL A   1      37.904  34.080  34.402  1.00  0.00     0.031 C 
ATOM     44  C   UNL A   1      38.455  30.138  28.767  1.00  0.00     0.029 A 
ATOM     45  C   UNL A   1      39.411  29.852  29.833  1.00  0.00     0.049 A 
ATOM     46  H   UNL A   1      39.562  30.789  31.686  1.00  0.00     0.167 HD
ATOM     47  C   UNL A   1      39.784  32.912  35.514  1.00  0.00     0.037 A 
ATOM     48  C   UNL A   1      40.373  28.912  29.791  1.00  0.00     0.037 A 
ATOM     49  C   UNL A   1      40.810  31.907  35.578  1.00  0.00     0.049 A 
ATOM     50  C   UNL A   1      41.280  28.736  30.977  1.00  0.00     0.074 A 
ATOM     51  C   UNL A   1      41.669  31.616  36.623  1.00  0.00     0.029 A 
ATOM     52  N   UNL A   1      41.111  31.024  34.552  1.00  0.00    -0.354 N 
ATOM     53  N   UNL A   1      41.284  29.383  32.117  1.00  0.00    -0.248 NA
ATOM     54  C   UNL A   1      42.318  27.701  30.871  1.00  0.00     0.031 C 
ATOM     55  C   UNL A   1      42.508  30.572  36.219  1.00  0.00     0.029 A 
ATOM     56  C   UNL A   1      42.151  30.193  34.935  1.00  0.00     0.049 A 
ATOM     57  H   UNL A   1      40.654  30.991  33.680  1.00  0.00     0.167 HD
ATOM     58  C   UNL A   1      42.306  28.824  32.870  1.00  0.00     0.074 A 
ATOM     59  C   UNL A   1      42.896  27.777  32.063  1.00  0.00     0.031 C 
ATOM     60  C   UNL A   1      42.718  29.152  34.118  1.00  0.00     0.037 A 
BRANCH  47  61
ATOM     61  C   UNL A   1      39.596  33.814  36.694  1.00  0.00     0.064 A 
ATOM     62  C   UNL A   1      40.188  35.085  36.741  1.00  0.00     0.173 A 
ATOM     63  C   UNL A   1      38.792  33.420  37.773  1.00  0.00     0.173 A 
ATOM     64  F   UNL A   1      40.978  35.497  35.739  1.00  0.00    -0.203 F 
ATOM     65  C   UNL A   1      39.999  35.921  37.836  1.00  0.00     0.198 A 
ATOM     66  C   UNL A   1      38.585  34.271  38.857  1.00  0.00     0.198 A 
ATOM     67  F   UNL A   1      38.203  32.215  37.775  1.00  0.00    -0.203 F 
ATOM     68  F   UNL A   1      40.607  37.115  37.878  1.00  0.00    -0.200 F 
ATOM     69  C   UNL A   1      39.193  35.517  38.890  1.00  0.00     0.200 A 
ATOM     70  F   UNL A   1      37.800  33.882  39.872  1.00  0.00    -0.200 F 
ATOM     71  F   UNL A   1      39.007  36.327  39.942  1.00  0.00    -0.200 F 
ENDBRANCH  47  61
BRANCH  48  72
ATOM     72  C   UNL A   1      40.498  28.037  28.600  1.00  0.00     0.064 A 
ATOM     73  C   UNL A   1      39.837  26.802  28.552  1.00  0.00     0.173 A 
ATOM     74  C   UNL A   1      41.259  28.417  27.484  1.00  0.00     0.173 A 
ATOM     75  F   UNL A   1      39.114  26.389  29.602  1.00  0.00    -0.203 F 
ATOM     76  C   UNL A   1      39.939  25.975  27.436  1.00  0.00     0.198 A 
ATOM     77  C   UNL A   1      41.343  27.598  26.360  1.00  0.00     0.198 A 
ATOM     78  F   UNL A   1      41.905  29.592  27.482  1.00  0.00    -0.203 F 
ATOM     79  F   UNL A   1      39.319  24.787  27.426  1.00  0.00    -0.200 F 
ATOM     80  C   UNL A   1      40.686  26.377  26.338  1.00  0.00     0.200 A 
ATOM     81  F   UNL A   1      42.058  27.993  25.298  1.00  0.00    -0.200 F 
ATOM     82  F   UNL A   1      40.778  25.584  25.262  1.00  0.00    -0.200 F 
ENDBRANCH  48  72
BRANCH  60  83
ATOM     83  C   UNL A   1      43.852  28.364  34.698  1.00  0.00     0.064 A 
ATOM     84  C   UNL A   1      45.178  28.808  34.588  1.00  0.00     0.173 A 
ATOM     85  C   UNL A   1      43.603  27.198  35.436  1.00  0.00     0.173 A 
ATOM     86  F   UNL A   1      45.463  29.910  33.881  1.00  0.00    -0.203 F 
ATOM     87  C   UNL A   1      46.216  28.105  35.192  1.00  0.00     0.198 A 
ATOM     88  C   UNL A   1      44.642  26.509  36.056  1.00  0.00     0.198 A 
ATOM     89  F   UNL A   1      42.350  26.739  35.572  1.00  0.00    -0.203 F 
ATOM     90  F   UNL A   1      47.479  28.531  35.056  1.00  0.00    -0.200 F 
ATOM     91  C   UNL A   1      45.946  26.962  35.932  1.00  0.00     0.200 A 
ATOM     92  F   UNL A   1      44.379  25.412  36.778  1.00  0.00    -0.200 F 
ATOM     93  F   UNL A   1      46.947  26.296  36.524  1.00  0.00    -0.200 F 
ENDBRANCH  60  83
ENDBRANCH  34  35
ENDBRANCH  26  29
ENDBRANCH  24  25
ENDBRANCH   1  24
TORSDOF 12
ENDMDL
MODEL 3
REMARK VINA RESULT:     -13.3      0.271      1.221
REMARK SMILES Cc1cc(Cl)c2c(c1)C=C(C(=O)NCCCCNC(=O)c1ccc(-c3c4nc(c(-c5c(F)c(F)c(F)c(F)c5F)c5ccc([nH]5)c(-c5c(F)c(F)c(F)c(F)c5F)c5nc(c(-c6c(F)c(F)c(F)c(F)c6F)c6ccc3[nH]6)C=C5)C=C4)cc1)[C@@H](C(F)(F)F)O2
REMARK SMILES IDX 16 1 15 2 14 3 13 4 11 5 12 6 10 8 1 9 2 10 3 11 8 12 4 13
REMARK SMILES IDX 7 14 5 15 6 16 9 17 89 18 84 19 85 20 86 21 87 22 88 23
REMARK SMILES IDX 17 24 18 25 19 26 20 28 21 29 22 30 83 31 23 32 82 33 24 34
REMARK SMILES IDX 25 35 26 36 76 37 27 38 81 39 75 40 77 41 28 42 80 43 74 44
REMARK SMILES IDX 73 45 29 47 61 48 41 49 60 50 42 51 45 52 59 53 78 54 43 55
REMARK SMILES IDX 44 56 58 58 79 59 46 60 30 61 31 62 39 63 32 64 33 65 37 66
REMARK SMILES IDX 40 67 34 68 35 69 38 70 36 71 62 72 63 73 71 74 64 75 65 76
REMARK SMILES IDX 69 77 72 78 66 79 67 80 70 81 68 82 47 83 48 84 56 85 49 86
REMARK SMILES IDX 50 87 54 88 57 89 51 90 52 91 55 92 53 93
REMARK H PARENT 13 7 18 27 77 46 45 57
REMARK Flexibility Score: inf
ROOT
ATOM      1  C   UNL A   1      31.621  31.975  26.877  1.00  0.00     0.023 C 
ENDROOT
BRANCH   1   2
ATOM      2  C   UNL A   1      31.920  30.474  26.860  1.00  0.00     0.023 C 
BRANCH   2   3
ATOM      3  C   UNL A   1      33.300  30.118  26.316  1.00  0.00     0.116 C 
BRANCH   3   4
ATOM      4  N   UNL A   1      33.253  29.764  24.909  1.00  0.00    -0.352 N 
ATOM      5  C   UNL A   1      32.963  28.662  24.178  1.00  0.00     0.251 C 
ATOM      6  O   UNL A   1      33.065  28.806  22.955  1.00  0.00    -0.270 OA
ATOM      7  H   UNL A   1      33.494  30.527  24.336  1.00  0.00     0.163 HD
BRANCH   5   8
ATOM      8  C   UNL A   1      32.547  27.340  24.733  1.00  0.00     0.067 C 
ATOM      9  C   UNL A   1      35.012  21.947  26.508  1.00  0.00     0.044 C 
ATOM     10  C   UNL A   1      33.927  22.959  26.290  1.00  0.00    -0.049 A 
ATOM     11  C   UNL A   1      32.610  22.680  26.671  1.00  0.00     0.028 A 
ATOM     12  C   UNL A   1      34.233  24.223  25.764  1.00  0.00     0.015 A 
ATOM     13  C   UNL A   1      31.609  23.639  26.506  1.00  0.00     0.084 A 
ATOM     14  C   UNL A   1      33.231  25.186  25.591  1.00  0.00     0.019 A 
ATOM     15  Cl  UNL A   1      29.999  23.245  26.988  1.00  0.00    -0.080 Cl
ATOM     16  C   UNL A   1      31.915  24.888  25.955  1.00  0.00     0.146 A 
ATOM     17  C   UNL A   1      33.551  26.511  25.074  1.00  0.00     0.025 C 
ATOM     18  O   UNL A   1      30.916  25.815  25.840  1.00  0.00    -0.474 OA
ATOM     19  C   UNL A   1      31.122  26.886  24.881  1.00  0.00     0.314 C 
BRANCH  19  20
ATOM     20  C   UNL A   1      30.480  26.497  23.535  1.00  0.00     0.429 C 
ATOM     21  F   UNL A   1      29.419  25.678  23.734  1.00  0.00    -0.167 F 
ATOM     22  F   UNL A   1      30.010  27.572  22.857  1.00  0.00    -0.167 F 
ATOM     23  F   UNL A   1      31.341  25.860  22.712  1.00  0.00    -0.167 F 
ENDBRANCH  19  20
ENDBRANCH   5   8
ENDBRANCH   3   4
ENDBRANCH   2   3
ENDBRANCH   1   2
BRANCH   1  24
ATOM     24  C   UNL A   1      32.780  32.869  27.316  1.00  0.00     0.116 C 
BRANCH  24  25
ATOM     25  N   UNL A   1      32.381  34.224  27.668  1.00  0.00    -0.352 N 
ATOM     26  C   UNL A   1      32.950  35.053  28.606  1.00  0.00     0.251 C 
ATOM     27  H   UNL A   1      31.612  34.591  27.176  1.00  0.00     0.163 HD
ATOM     28  O   UNL A   1      32.476  36.157  28.850  1.00  0.00    -0.269 OA
BRANCH  26  29
ATOM     29  C   UNL A   1      34.120  34.563  29.355  1.00  0.00     0.039 A 
ATOM     30  C   UNL A   1      33.913  33.929  30.581  1.00  0.00     0.014 A 
ATOM     31  C   UNL A   1      35.396  34.646  28.793  1.00  0.00     0.014 A 
ATOM     32  C   UNL A   1      34.985  33.299  31.212  1.00  0.00     0.010 A 
ATOM     33  C   UNL A   1      36.451  33.970  29.395  1.00  0.00     0.010 A 
ATOM     34  C   UNL A   1      36.250  33.281  30.601  1.00  0.00    -0.014 A 
BRANCH  34  35
ATOM     35  C   UNL A   1      37.374  32.528  31.203  1.00  0.00     0.031 A 
ATOM     36  C   UNL A   1      37.869  32.890  32.571  1.00  0.00     0.074 A 
ATOM     37  C   UNL A   1      37.984  31.561  30.491  1.00  0.00     0.049 A 
ATOM     38  N   UNL A   1      38.878  32.397  33.242  1.00  0.00    -0.248 NA
ATOM     39  C   UNL A   1      37.148  33.966  33.269  1.00  0.00     0.031 C 
ATOM     40  C   UNL A   1      37.617  31.151  29.133  1.00  0.00     0.029 A 
ATOM     41  N   UNL A   1      39.045  30.750  30.808  1.00  0.00    -0.354 N 
ATOM     42  C   UNL A   1      38.919  33.107  34.433  1.00  0.00     0.074 A 
ATOM     43  C   UNL A   1      37.867  34.098  34.374  1.00  0.00     0.031 C 
ATOM     44  C   UNL A   1      38.419  30.146  28.747  1.00  0.00     0.029 A 
ATOM     45  C   UNL A   1      39.374  29.861  29.815  1.00  0.00     0.049 A 
ATOM     46  H   UNL A   1      39.524  30.801  31.665  1.00  0.00     0.167 HD
ATOM     47  C   UNL A   1      39.745  32.930  35.490  1.00  0.00     0.037 A 
ATOM     48  C   UNL A   1      40.335  28.920  29.774  1.00  0.00     0.037 A 
ATOM     49  C   UNL A   1      40.770  31.925  35.557  1.00  0.00     0.049 A 
ATOM     50  C   UNL A   1      41.240  28.745  30.962  1.00  0.00     0.074 A 
ATOM     51  C   UNL A   1      41.627  31.634  36.602  1.00  0.00     0.029 A 
ATOM     52  N   UNL A   1      41.071  31.039  34.532  1.00  0.00    -0.354 N 
ATOM     53  N   UNL A   1      41.244  29.394  32.100  1.00  0.00    -0.248 NA
ATOM     54  C   UNL A   1      42.278  27.709  30.859  1.00  0.00     0.031 C 
ATOM     55  C   UNL A   1      42.465  30.589  36.202  1.00  0.00     0.029 A 
ATOM     56  C   UNL A   1      42.109  30.208  34.918  1.00  0.00     0.049 A 
ATOM     57  H   UNL A   1      40.614  31.006  33.660  1.00  0.00     0.167 HD
ATOM     58  C   UNL A   1      42.265  28.835  32.855  1.00  0.00     0.074 A 
ATOM     59  C   UNL A   1      42.854  27.786  32.051  1.00  0.00     0.031 C 
ATOM     60  C   UNL A   1      42.676  29.165  34.103  1.00  0.00     0.037 A 
BRANCH  47  61
ATOM     61  C   UNL A   1      39.557  33.835  36.669  1.00  0.00     0.064 A 
ATOM     62  C   UNL A   1      38.774  33.447  37.766  1.00  0.00     0.173 A 
ATOM     63  C   UNL A   1      40.190  35.084  36.719  1.00  0.00     0.173 A 
ATOM     64  F   UNL A   1      38.136  32.266  37.755  1.00  0.00    -0.203 F 
ATOM     65  C   UNL A   1      38.614  34.287  38.863  1.00  0.00     0.198 A 
ATOM     66  C   UNL A   1      40.048  35.913  37.830  1.00  0.00     0.198 A 
ATOM     67  F   UNL A   1      40.951  35.500  35.695  1.00  0.00    -0.203 F 
ATOM     68  F   UNL A   1      37.829  33.914  39.883  1.00  0.00    -0.200 F 
ATOM     69  C   UNL A   1      39.256  35.517  38.897  1.00  0.00     0.200 A 
ATOM     70  F   UNL A   1      40.674  37.098  37.865  1.00  0.00    -0.200 F 
ATOM     71  F   UNL A   1      39.106  36.322  39.957  1.00  0.00    -0.200 F 
ENDBRANCH  47  61
BRANCH  48  72
ATOM     72  C   UNL A   1      40.460  28.042  28.585  1.00  0.00     0.064 A 
ATOM     73  C   UNL A   1      41.234  28.439  27.486  1.00  0.00     0.173 A 
ATOM     74  C   UNL A   1      39.831  26.790  28.526  1.00  0.00     0.173 A 
ATOM     75  F   UNL A   1      41.837  29.636  27.491  1.00  0.00    -0.203 F 
ATOM     76  C   UNL A   1      41.367  27.620  26.367  1.00  0.00     0.198 A 
ATOM     77  C   UNL A   1      39.982  25.963  27.415  1.00  0.00     0.198 A 
ATOM     78  F   UNL A   1      39.084  26.365  29.556  1.00  0.00    -0.203 F 
ATOM     79  F   UNL A   1      42.089  28.035  25.318  1.00  0.00    -0.200 F 
ATOM     80  C   UNL A   1      40.746  26.380  26.335  1.00  0.00     0.200 A 
ATOM     81  F   UNL A   1      39.389  24.762  27.391  1.00  0.00    -0.200 F 
ATOM     82  F   UNL A   1      40.880  25.589  25.262  1.00  0.00    -0.200 F 
ENDBRANCH  48  72
BRANCH  60  83
ATOM     83  C   UNL A   1      43.809  28.377  34.686  1.00  0.00     0.064 A 
ATOM     84  C   UNL A   1      45.135  28.819  34.576  1.00  0.00     0.173 A 
ATOM     85  C   UNL A   1      43.557  27.212  35.426  1.00  0.00     0.173 A 
ATOM     86  F   UNL A   1      45.422  29.920  33.867  1.00  0.00    -0.203 F 
ATOM     87  C   UNL A   1      46.172  28.116  35.182  1.00  0.00     0.198 A 
ATOM     88  C   UNL A   1      44.595  26.524  36.048  1.00  0.00     0.198 A 
ATOM     89  F   UNL A   1      42.304  26.755  35.562  1.00  0.00    -0.203 F 
ATOM     90  F   UNL A   1      47.435  28.540  35.046  1.00  0.00    -0.200 F 
ATOM     91  C   UNL A   1      45.900  26.975  35.924  1.00  0.00     0.200 A 
ATOM     92  F   UNL A   1      44.330  25.428  36.772  1.00  0.00    -0.200 F 
ATOM     93  F   UNL A   1      46.900  26.308  36.518  1.00  0.00    -0.200 F 
ENDBRANCH  60  83
ENDBRANCH  34  35
ENDBRANCH  26  29
ENDBRANCH  24  25
ENDBRANCH   1  24
TORSDOF 12
ENDMDL
