MODEL 1
REMARK VINA RESULT:     -12.5      0.000      0.000
REMARK SMILES O=C(NCCCCNC(=O)c1cc(F)ccc1NS(=O)(=O)c1ccc(Cl)s1)c1ccc(-c2c3nc(c(-c4c(F)c(F)c(F)c(F)c4F)c4ccc([nH]4)c(-c4c(F)c(F)c(F)c(F)c4F)c4nc(c(-c5c(F)c(F)c(F)c(F)c5F)c5ccc2[nH]5)C=C4)C=C3)cc1
REMARK SMILES IDX 6 1 5 2 4 3 3 4 1 5 2 6 28 8 29 9 90 10 30 11 89 12 31 13
REMARK SMILES IDX 32 14 33 15 83 16 34 17 88 18 82 19 84 20 35 21 87 22 81 23
REMARK SMILES IDX 80 24 36 26 68 27 48 28 67 29 49 30 52 31 66 32 85 33 50 34
REMARK SMILES IDX 51 35 65 37 86 38 53 39 37 40 38 41 46 42 39 43 40 44 44 45
REMARK SMILES IDX 47 46 41 47 42 48 45 49 43 50 69 51 70 52 78 53 71 54 72 55
REMARK SMILES IDX 76 56 79 57 73 58 74 59 77 60 75 61 54 62 55 63 63 64 56 65
REMARK SMILES IDX 57 66 61 67 64 68 58 69 59 70 62 71 60 72 7 73 8 74 9 75
REMARK SMILES IDX 10 77 11 78 12 79 17 80 13 81 16 82 14 83 15 84 18 85 19 87
REMARK SMILES IDX 20 88 21 89 22 90 23 91 27 92 24 93 25 94 26 95
REMARK H PARENT 3 7 84 25 52 36 8 76 18 86
REMARK Flexibility Score: inf
ROOT
ATOM      1  C   UNL A   1      31.784  30.446  26.883  1.00  0.00     0.023 C 
ENDROOT
BRANCH   1   2
ATOM      2  C   UNL A   1      31.532  31.956  26.869  1.00  0.00     0.023 C 
BRANCH   2   3
ATOM      3  C   UNL A   1      32.778  32.828  26.967  1.00  0.00     0.116 C 
BRANCH   3   4
ATOM      4  N   UNL A   1      32.515  34.110  27.597  1.00  0.00    -0.352 N 
ATOM      5  O   UNL A   1      32.650  35.712  29.175  1.00  0.00    -0.269 OA
ATOM      6  C   UNL A   1      33.114  34.684  28.692  1.00  0.00     0.251 C 
ATOM      7  H   UNL A   1      31.803  34.645  27.179  1.00  0.00     0.163 HD
BRANCH   6   8
ATOM      8  C   UNL A   1      34.304  34.056  29.306  1.00  0.00     0.039 A 
ATOM      9  C   UNL A   1      35.593  34.482  28.979  1.00  0.00     0.014 A 
ATOM     10  C   UNL A   1      34.120  33.039  30.249  1.00  0.00     0.014 A 
ATOM     11  C   UNL A   1      36.697  33.815  29.503  1.00  0.00     0.010 A 
ATOM     12  C   UNL A   1      35.228  32.412  30.824  1.00  0.00     0.010 A 
ATOM     13  C   UNL A   1      36.525  32.779  30.436  1.00  0.00    -0.014 A 
BRANCH  13  14
ATOM     14  C   UNL A   1      37.719  32.130  31.032  1.00  0.00     0.031 A 
ATOM     15  C   UNL A   1      38.164  32.455  32.429  1.00  0.00     0.074 A 
ATOM     16  C   UNL A   1      38.384  31.209  30.308  1.00  0.00     0.049 A 
ATOM     17  N   UNL A   1      39.168  31.961  33.109  1.00  0.00    -0.248 NA
ATOM     18  C   UNL A   1      37.386  33.468  33.159  1.00  0.00     0.031 C 
ATOM     19  C   UNL A   1      38.049  30.818  28.938  1.00  0.00     0.029 A 
ATOM     20  N   UNL A   1      39.462  30.424  30.626  1.00  0.00    -0.354 N 
ATOM     21  C   UNL A   1      39.151  32.608  34.336  1.00  0.00     0.074 A 
ATOM     22  C   UNL A   1      38.049  33.546  34.306  1.00  0.00     0.031 C 
ATOM     23  C   UNL A   1      38.870  29.831  28.550  1.00  0.00     0.029 A 
ATOM     24  C   UNL A   1      39.818  29.554  29.624  1.00  0.00     0.049 A 
ATOM     25  H   UNL A   1      39.933  30.476  31.488  1.00  0.00     0.167 HD
ATOM     26  C   UNL A   1      39.979  32.427  35.392  1.00  0.00     0.037 A 
ATOM     27  C   UNL A   1      40.802  28.637  29.575  1.00  0.00     0.037 A 
ATOM     28  C   UNL A   1      41.060  31.477  35.431  1.00  0.00     0.049 A 
ATOM     29  C   UNL A   1      41.708  28.465  30.759  1.00  0.00     0.074 A 
ATOM     30  C   UNL A   1      41.932  31.205  36.471  1.00  0.00     0.029 A 
ATOM     31  N   UNL A   1      41.414  30.641  34.383  1.00  0.00    -0.354 N 
ATOM     32  N   UNL A   1      41.675  29.078  31.916  1.00  0.00    -0.248 NA
ATOM     33  C   UNL A   1      42.793  27.483  30.626  1.00  0.00     0.031 C 
ATOM     34  C   UNL A   1      42.833  30.225  36.042  1.00  0.00     0.029 A 
ATOM     35  C   UNL A   1      42.502  29.864  34.747  1.00  0.00     0.049 A 
ATOM     36  H   UNL A   1      40.960  30.606  33.510  1.00  0.00     0.167 HD
ATOM     37  C   UNL A   1      42.730  28.558  32.650  1.00  0.00     0.074 A 
ATOM     38  C   UNL A   1      43.372  27.563  31.817  1.00  0.00     0.031 C 
ATOM     39  C   UNL A   1      43.133  28.885  33.902  1.00  0.00     0.037 A 
BRANCH  26  40
ATOM     40  C   UNL A   1      39.757  33.274  36.609  1.00  0.00     0.064 A 
ATOM     41  C   UNL A   1      38.815  32.894  37.576  1.00  0.00     0.173 A 
ATOM     42  C   UNL A   1      40.415  34.501  36.775  1.00  0.00     0.173 A 
ATOM     43  F   UNL A   1      38.156  31.731  37.458  1.00  0.00    -0.203 F 
ATOM     44  C   UNL A   1      38.529  33.721  38.659  1.00  0.00     0.198 A 
ATOM     45  C   UNL A   1      40.139  35.318  37.868  1.00  0.00     0.198 A 
ATOM     46  F   UNL A   1      41.331  34.900  35.880  1.00  0.00    -0.203 F 
ATOM     47  F   UNL A   1      37.606  33.352  39.558  1.00  0.00    -0.200 F 
ATOM     48  C   UNL A   1      39.190  34.931  38.804  1.00  0.00     0.200 A 
ATOM     49  F   UNL A   1      40.790  36.479  38.017  1.00  0.00    -0.200 F 
ATOM     50  F   UNL A   1      38.915  35.725  39.848  1.00  0.00    -0.200 F 
ENDBRANCH  26  40
BRANCH  27  51
ATOM     51  C   UNL A   1      40.961  27.807  28.356  1.00  0.00     0.064 A 
ATOM     52  C   UNL A   1      40.349  26.551  28.247  1.00  0.00     0.173 A 
ATOM     53  C   UNL A   1      41.768  28.240  27.296  1.00  0.00     0.173 A 
ATOM     54  F   UNL A   1      39.572  26.094  29.240  1.00  0.00    -0.203 F 
ATOM     55  C   UNL A   1      40.557  25.746  27.129  1.00  0.00     0.198 A 
ATOM     56  C   UNL A   1      41.958  27.444  26.170  1.00  0.00     0.198 A 
ATOM     57  F   UNL A   1      42.358  29.443  27.351  1.00  0.00    -0.203 F 
ATOM     58  F   UNL A   1      39.988  24.535  27.063  1.00  0.00    -0.200 F 
ATOM     59  C   UNL A   1      41.359  26.194  26.091  1.00  0.00     0.200 A 
ATOM     60  F   UNL A   1      42.718  27.886  25.159  1.00  0.00    -0.200 F 
ATOM     61  F   UNL A   1      41.555  25.423  25.014  1.00  0.00    -0.200 F 
ENDBRANCH  27  51
BRANCH  39  62
ATOM     62  C   UNL A   1      44.326  28.163  34.447  1.00  0.00     0.064 A 
ATOM     63  C   UNL A   1      44.173  26.958  35.148  1.00  0.00     0.173 A 
ATOM     64  C   UNL A   1      45.616  28.697  34.323  1.00  0.00     0.173 A 
ATOM     65  F   UNL A   1      42.957  26.412  35.295  1.00  0.00    -0.203 F 
ATOM     66  C   UNL A   1      45.272  26.318  35.714  1.00  0.00     0.198 A 
ATOM     67  C   UNL A   1      46.715  28.045  34.874  1.00  0.00     0.198 A 
ATOM     68  F   UNL A   1      45.809  29.841  33.648  1.00  0.00    -0.203 F 
ATOM     69  F   UNL A   1      45.103  25.177  36.396  1.00  0.00    -0.200 F 
ATOM     70  C   UNL A   1      46.541  26.860  35.574  1.00  0.00     0.200 A 
ATOM     71  F   UNL A   1      47.942  28.559  34.722  1.00  0.00    -0.200 F 
ATOM     72  F   UNL A   1      47.599  26.237  36.111  1.00  0.00    -0.200 F 
ENDBRANCH  39  62
ENDBRANCH  13  14
ENDBRANCH   6   8
ENDBRANCH   3   4
ENDBRANCH   2   3
ENDBRANCH   1   2
BRANCH   1  73
ATOM     73  C   UNL A   1      33.172  30.006  26.415  1.00  0.00     0.116 C 
BRANCH  73  74
ATOM     74  N   UNL A   1      33.275  30.010  24.967  1.00  0.00    -0.352 N 
ATOM     75  C   UNL A   1      33.266  28.955  24.099  1.00  0.00     0.253 C 
ATOM     76  H   UNL A   1      33.365  30.898  24.553  1.00  0.00     0.163 HD
ATOM     77  O   UNL A   1      33.671  29.107  22.948  1.00  0.00    -0.269 OA
BRANCH  75  78
ATOM     78  C   UNL A   1      32.799  27.619  24.521  1.00  0.00     0.066 A 
ATOM     79  C   UNL A   1      33.736  26.587  24.670  1.00  0.00     0.055 A 
ATOM     80  C   UNL A   1      31.442  27.433  24.870  1.00  0.00     0.062 A 
ATOM     81  C   UNL A   1      33.310  25.344  25.111  1.00  0.00     0.124 A 
ATOM     82  C   UNL A   1      31.056  26.166  25.326  1.00  0.00     0.030 A 
ATOM     83  F   UNL A   1      34.192  24.343  25.217  1.00  0.00    -0.207 F 
ATOM     84  C   UNL A   1      31.983  25.126  25.444  1.00  0.00     0.041 A 
BRANCH  80  85
ATOM     85  N   UNL A   1      30.491  28.463  24.515  1.00  0.00    -0.278 N 
ATOM     86  H   UNL A   1      30.381  29.233  25.119  1.00  0.00     0.180 HD
BRANCH  85  87
ATOM     87  S   UNL A   1      29.560  28.398  23.110  1.00  0.00     0.271 S 
ATOM     88  O   UNL A   1      30.439  28.115  21.999  1.00  0.00    -0.200 OA
ATOM     89  O   UNL A   1      28.408  27.579  23.414  1.00  0.00    -0.200 OA
BRANCH  87  90
ATOM     90  C   UNL A   1      28.886  30.025  22.840  1.00  0.00     0.141 A 
ATOM     91  C   UNL A   1      28.766  31.130  23.668  1.00  0.00     0.036 A 
ATOM     92  S   UNL A   1      28.325  30.363  21.257  1.00  0.00    -0.110 S 
ATOM     93  C   UNL A   1      28.319  32.285  22.960  1.00  0.00     0.034 A 
ATOM     94  C   UNL A   1      28.069  31.988  21.646  1.00  0.00     0.094 A 
ATOM     95  Cl  UNL A   1      27.558  33.083  20.427  1.00  0.00    -0.072 Cl
ENDBRANCH  87  90
ENDBRANCH  85  87
ENDBRANCH  80  85
ENDBRANCH  75  78
ENDBRANCH  73  74
ENDBRANCH   1  73
TORSDOF 14
ENDMDL
MODEL 2
REMARK VINA RESULT:     -12.4      6.279     11.310
REMARK SMILES O=C(NCCCCNC(=O)c1cc(F)ccc1NS(=O)(=O)c1ccc(Cl)s1)c1ccc(-c2c3nc(c(-c4c(F)c(F)c(F)c(F)c4F)c4ccc([nH]4)c(-c4c(F)c(F)c(F)c(F)c4F)c4nc(c(-c5c(F)c(F)c(F)c(F)c5F)c5ccc2[nH]5)C=C4)C=C3)cc1
REMARK SMILES IDX 6 1 5 2 4 3 3 4 1 5 2 6 28 8 29 9 90 10 30 11 89 12 31 13
REMARK SMILES IDX 32 14 33 15 83 16 34 17 88 18 82 19 84 20 35 21 87 22 81 23
REMARK SMILES IDX 80 24 36 26 68 27 48 28 67 29 49 30 52 31 66 32 85 33 50 34
REMARK SMILES IDX 51 35 65 37 86 38 53 39 37 40 38 41 46 42 39 43 40 44 44 45
REMARK SMILES IDX 47 46 41 47 42 48 45 49 43 50 69 51 70 52 78 53 71 54 72 55
REMARK SMILES IDX 76 56 79 57 73 58 74 59 77 60 75 61 54 62 55 63 63 64 56 65
REMARK SMILES IDX 57 66 61 67 64 68 58 69 59 70 62 71 60 72 7 73 8 74 9 75
REMARK SMILES IDX 10 77 11 78 12 79 17 80 13 81 16 82 14 83 15 84 18 85 19 87
REMARK SMILES IDX 20 88 21 89 22 90 23 91 27 92 24 93 25 94 26 95
REMARK H PARENT 3 7 84 25 52 36 8 76 18 86
REMARK Flexibility Score: inf
ROOT
ATOM      1  C   UNL A   1      37.372  21.293  24.533  1.00  0.00     0.023 C 
ENDROOT
BRANCH   1   2
ATOM      2  C   UNL A   1      38.183  20.033  24.848  1.00  0.00     0.023 C 
BRANCH   2   3
ATOM      3  C   UNL A   1      39.099  20.132  26.061  1.00  0.00     0.116 C 
BRANCH   3   4
ATOM      4  N   UNL A   1      40.231  19.224  25.982  1.00  0.00    -0.352 N 
ATOM      5  O   UNL A   1      42.393  18.616  25.814  1.00  0.00    -0.269 OA
ATOM      6  C   UNL A   1      41.575  19.497  26.058  1.00  0.00     0.251 C 
ATOM      7  H   UNL A   1      40.001  18.276  25.855  1.00  0.00     0.163 HD
BRANCH   6   8
ATOM      8  C   UNL A   1      42.042  20.855  26.412  1.00  0.00     0.039 A 
ATOM      9  C   UNL A   1      42.368  21.184  27.730  1.00  0.00     0.014 A 
ATOM     10  C   UNL A   1      42.182  21.807  25.396  1.00  0.00     0.014 A 
ATOM     11  C   UNL A   1      42.719  22.492  28.050  1.00  0.00     0.010 A 
ATOM     12  C   UNL A   1      42.597  23.104  25.708  1.00  0.00     0.010 A 
ATOM     13  C   UNL A   1      42.844  23.463  27.042  1.00  0.00    -0.014 A 
BRANCH  13  14
ATOM     14  C   UNL A   1      43.286  24.834  27.400  1.00  0.00     0.031 A 
ATOM     15  C   UNL A   1      44.682  25.301  27.105  1.00  0.00     0.074 A 
ATOM     16  C   UNL A   1      42.398  25.672  27.968  1.00  0.00     0.049 A 
ATOM     17  N   UNL A   1      45.222  26.472  27.328  1.00  0.00    -0.248 NA
ATOM     18  C   UNL A   1      45.594  24.330  26.480  1.00  0.00     0.031 C 
ATOM     19  C   UNL A   1      41.017  25.326  28.308  1.00  0.00     0.029 A 
ATOM     20  N   UNL A   1      42.514  26.987  28.338  1.00  0.00    -0.354 N 
ATOM     21  C   UNL A   1      46.534  26.378  26.887  1.00  0.00     0.074 A 
ATOM     22  C   UNL A   1      46.720  25.028  26.398  1.00  0.00     0.031 C 
ATOM     23  C   UNL A   1      40.399  26.414  28.791  1.00  0.00     0.029 A 
ATOM     24  C   UNL A   1      41.351  27.519  28.837  1.00  0.00     0.049 A 
ATOM     25  H   UNL A   1      43.350  27.501  28.253  1.00  0.00     0.167 HD
ATOM     26  C   UNL A   1      47.492  27.335  26.887  1.00  0.00     0.037 A 
ATOM     27  C   UNL A   1      41.081  28.759  29.286  1.00  0.00     0.037 A 
ATOM     28  C   UNL A   1      47.299  28.684  27.351  1.00  0.00     0.049 A 
ATOM     29  C   UNL A   1      42.165  29.795  29.280  1.00  0.00     0.074 A 
ATOM     30  C   UNL A   1      48.206  29.730  27.360  1.00  0.00     0.029 A 
ATOM     31  N   UNL A   1      46.118  29.174  27.886  1.00  0.00    -0.354 N 
ATOM     32  N   UNL A   1      43.399  29.694  28.852  1.00  0.00    -0.248 NA
ATOM     33  C   UNL A   1      41.823  31.116  29.828  1.00  0.00     0.031 C 
ATOM     34  C   UNL A   1      47.582  30.846  27.927  1.00  0.00     0.029 A 
ATOM     35  C   UNL A   1      46.278  30.503  28.242  1.00  0.00     0.049 A 
ATOM     36  H   UNL A   1      45.289  28.655  27.995  1.00  0.00     0.167 HD
ATOM     37  C   UNL A   1      43.982  30.932  29.076  1.00  0.00     0.074 A 
ATOM     38  C   UNL A   1      42.960  31.778  29.658  1.00  0.00     0.031 C 
ATOM     39  C   UNL A   1      45.253  31.327  28.827  1.00  0.00     0.037 A 
BRANCH  26  40
ATOM     40  C   UNL A   1      48.849  26.968  26.366  1.00  0.00     0.064 A 
ATOM     41  C   UNL A   1      49.161  27.146  25.011  1.00  0.00     0.173 A 
ATOM     42  C   UNL A   1      49.808  26.362  27.190  1.00  0.00     0.173 A 
ATOM     43  F   UNL A   1      48.274  27.717  24.182  1.00  0.00    -0.203 F 
ATOM     44  C   UNL A   1      50.382  26.718  24.496  1.00  0.00     0.198 A 
ATOM     45  C   UNL A   1      51.034  25.950  26.675  1.00  0.00     0.198 A 
ATOM     46  F   UNL A   1      49.556  26.180  28.495  1.00  0.00    -0.203 F 
ATOM     47  F   UNL A   1      50.650  26.874  23.191  1.00  0.00    -0.200 F 
ATOM     48  C   UNL A   1      51.317  26.120  25.328  1.00  0.00     0.200 A 
ATOM     49  F   UNL A   1      51.944  25.388  27.483  1.00  0.00    -0.200 F 
ATOM     50  F   UNL A   1      52.492  25.710  24.831  1.00  0.00    -0.200 F 
ENDBRANCH  26  40
BRANCH  27  51
ATOM     51  C   UNL A   1      39.714  29.076  29.766  1.00  0.00     0.064 A 
ATOM     52  C   UNL A   1      39.357  28.904  31.110  1.00  0.00     0.173 A 
ATOM     53  C   UNL A   1      38.727  29.515  28.874  1.00  0.00     0.173 A 
ATOM     54  F   UNL A   1      40.269  28.481  31.998  1.00  0.00    -0.203 F 
ATOM     55  C   UNL A   1      38.053  29.138  31.542  1.00  0.00     0.198 A 
ATOM     56  C   UNL A   1      37.429  29.770  29.311  1.00  0.00     0.198 A 
ATOM     57  F   UNL A   1      39.030  29.710  27.582  1.00  0.00    -0.203 F 
ATOM     58  F   UNL A   1      37.728  28.934  32.826  1.00  0.00    -0.200 F 
ATOM     59  C   UNL A   1      37.091  29.573  30.643  1.00  0.00     0.200 A 
ATOM     60  F   UNL A   1      36.506  30.207  28.444  1.00  0.00    -0.200 F 
ATOM     61  F   UNL A   1      35.840  29.803  31.058  1.00  0.00    -0.200 F 
ENDBRANCH  27  51
BRANCH  39  62
ATOM     62  C   UNL A   1      45.614  32.735  29.186  1.00  0.00     0.064 A 
ATOM     63  C   UNL A   1      45.448  33.774  28.259  1.00  0.00     0.173 A 
ATOM     64  C   UNL A   1      46.181  33.043  30.431  1.00  0.00     0.173 A 
ATOM     65  F   UNL A   1      44.913  33.525  27.054  1.00  0.00    -0.203 F 
ATOM     66  C   UNL A   1      45.844  35.072  28.565  1.00  0.00     0.198 A 
ATOM     67  C   UNL A   1      46.560  34.346  30.740  1.00  0.00     0.198 A 
ATOM     68  F   UNL A   1      46.346  32.082  31.352  1.00  0.00    -0.203 F 
ATOM     69  F   UNL A   1      45.693  36.048  27.659  1.00  0.00    -0.200 F 
ATOM     70  C   UNL A   1      46.397  35.358  29.805  1.00  0.00     0.200 A 
ATOM     71  F   UNL A   1      47.076  34.624  31.944  1.00  0.00    -0.200 F 
ATOM     72  F   UNL A   1      46.770  36.611  30.101  1.00  0.00    -0.200 F 
ENDBRANCH  39  62
ENDBRANCH  13  14
ENDBRANCH   6   8
ENDBRANCH   3   4
ENDBRANCH   2   3
ENDBRANCH   1   2
BRANCH   1  73
ATOM     73  C   UNL A   1      37.202  22.273  25.695  1.00  0.00     0.116 C 
BRANCH  73  74
ATOM     74  N   UNL A   1      36.027  21.965  26.489  1.00  0.00    -0.352 N 
ATOM     75  C   UNL A   1      34.802  22.570  26.488  1.00  0.00     0.253 C 
ATOM     76  H   UNL A   1      36.128  21.215  27.119  1.00  0.00     0.163 HD
ATOM     77  O   UNL A   1      34.030  22.390  27.428  1.00  0.00    -0.269 OA
BRANCH  75  78
ATOM     78  C   UNL A   1      34.388  23.459  25.383  1.00  0.00     0.066 A 
ATOM     79  C   UNL A   1      34.387  24.845  25.592  1.00  0.00     0.055 A 
ATOM     80  C   UNL A   1      34.105  22.908  24.114  1.00  0.00     0.062 A 
ATOM     81  C   UNL A   1      34.045  25.687  24.546  1.00  0.00     0.124 A 
ATOM     82  C   UNL A   1      33.778  23.794  23.079  1.00  0.00     0.030 A 
ATOM     83  F   UNL A   1      34.003  27.009  24.748  1.00  0.00    -0.207 F 
ATOM     84  C   UNL A   1      33.746  25.176  23.293  1.00  0.00     0.041 A 
BRANCH  80  85
ATOM     85  N   UNL A   1      33.930  21.477  24.005  1.00  0.00    -0.278 N 
ATOM     86  H   UNL A   1      34.731  20.904  23.976  1.00  0.00     0.180 HD
BRANCH  85  87
ATOM     87  S   UNL A   1      32.411  20.749  23.923  1.00  0.00     0.271 S 
ATOM     88  O   UNL A   1      31.706  21.036  25.151  1.00  0.00    -0.200 OA
ATOM     89  O   UNL A   1      31.866  21.072  22.623  1.00  0.00    -0.200 OA
BRANCH  87  90
ATOM     90  C   UNL A   1      32.666  18.986  23.869  1.00  0.00     0.141 A 
ATOM     91  C   UNL A   1      32.859  18.108  22.815  1.00  0.00     0.036 A 
ATOM     92  S   UNL A   1      32.762  18.184  25.380  1.00  0.00    -0.110 S 
ATOM     93  C   UNL A   1      33.202  16.797  23.264  1.00  0.00     0.034 A 
ATOM     94  C   UNL A   1      33.196  16.731  24.633  1.00  0.00     0.094 A 
ATOM     95  Cl  UNL A   1      33.591  15.365  25.594  1.00  0.00    -0.072 Cl
ENDBRANCH  87  90
ENDBRANCH  85  87
ENDBRANCH  80  85
ENDBRANCH  75  78
ENDBRANCH  73  74
ENDBRANCH   1  73
TORSDOF 14
ENDMDL
MODEL 3
REMARK VINA RESULT:     -12.3      2.324      3.369
REMARK SMILES O=C(NCCCCNC(=O)c1cc(F)ccc1NS(=O)(=O)c1ccc(Cl)s1)c1ccc(-c2c3nc(c(-c4c(F)c(F)c(F)c(F)c4F)c4ccc([nH]4)c(-c4c(F)c(F)c(F)c(F)c4F)c4nc(c(-c5c(F)c(F)c(F)c(F)c5F)c5ccc2[nH]5)C=C4)C=C3)cc1
REMARK SMILES IDX 6 1 5 2 4 3 3 4 1 5 2 6 28 8 29 9 90 10 30 11 89 12 31 13
REMARK SMILES IDX 32 14 33 15 83 16 34 17 88 18 82 19 84 20 35 21 87 22 81 23
REMARK SMILES IDX 80 24 36 26 68 27 48 28 67 29 49 30 52 31 66 32 85 33 50 34
REMARK SMILES IDX 51 35 65 37 86 38 53 39 37 40 38 41 46 42 39 43 40 44 44 45
REMARK SMILES IDX 47 46 41 47 42 48 45 49 43 50 69 51 70 52 78 53 71 54 72 55
REMARK SMILES IDX 76 56 79 57 73 58 74 59 77 60 75 61 54 62 55 63 63 64 56 65
REMARK SMILES IDX 57 66 61 67 64 68 58 69 59 70 62 71 60 72 7 73 8 74 9 75
REMARK SMILES IDX 10 77 11 78 12 79 17 80 13 81 16 82 14 83 15 84 18 85 19 87
REMARK SMILES IDX 20 88 21 89 22 90 23 91 27 92 24 93 25 94 26 95
REMARK H PARENT 3 7 84 25 52 36 8 76 18 86
REMARK Flexibility Score: inf
ROOT
ATOM      1  C   UNL A   1      31.283  31.044  25.752  1.00  0.00     0.023 C 
ENDROOT
BRANCH   1   2
ATOM      2  C   UNL A   1      31.338  32.058  26.899  1.00  0.00     0.023 C 
BRANCH   2   3
ATOM      3  C   UNL A   1      32.623  32.871  26.992  1.00  0.00     0.116 C 
BRANCH   3   4
ATOM      4  N   UNL A   1      32.414  34.181  27.583  1.00  0.00    -0.352 N 
ATOM      5  O   UNL A   1      32.631  35.830  29.103  1.00  0.00    -0.269 OA
ATOM      6  C   UNL A   1      33.052  34.771  28.647  1.00  0.00     0.251 C 
ATOM      7  H   UNL A   1      31.713  34.726  27.159  1.00  0.00     0.163 HD
BRANCH   6   8
ATOM      8  C   UNL A   1      34.231  34.124  29.262  1.00  0.00     0.039 A 
ATOM      9  C   UNL A   1      35.527  34.539  28.946  1.00  0.00     0.014 A 
ATOM     10  C   UNL A   1      34.030  33.101  30.195  1.00  0.00     0.014 A 
ATOM     11  C   UNL A   1      36.620  33.855  29.470  1.00  0.00     0.010 A 
ATOM     12  C   UNL A   1      35.128  32.456  30.770  1.00  0.00     0.010 A 
ATOM     13  C   UNL A   1      36.432  32.812  30.392  1.00  0.00    -0.014 A 
BRANCH  13  14
ATOM     14  C   UNL A   1      37.615  32.144  30.989  1.00  0.00     0.031 A 
ATOM     15  C   UNL A   1      38.070  32.469  32.382  1.00  0.00     0.074 A 
ATOM     16  C   UNL A   1      38.261  31.207  30.268  1.00  0.00     0.049 A 
ATOM     17  N   UNL A   1      39.066  31.961  33.063  1.00  0.00    -0.248 NA
ATOM     18  C   UNL A   1      37.313  33.501  33.109  1.00  0.00     0.031 C 
ATOM     19  C   UNL A   1      37.914  30.814  28.902  1.00  0.00     0.029 A 
ATOM     20  N   UNL A   1      39.324  30.404  30.588  1.00  0.00    -0.354 N 
ATOM     21  C   UNL A   1      39.066  32.615  34.286  1.00  0.00     0.074 A 
ATOM     22  C   UNL A   1      37.981  33.574  34.253  1.00  0.00     0.031 C 
ATOM     23  C   UNL A   1      38.716  29.810  28.517  1.00  0.00     0.029 A 
ATOM     24  C   UNL A   1      39.661  29.522  29.591  1.00  0.00     0.049 A 
ATOM     25  H   UNL A   1      39.799  30.453  31.449  1.00  0.00     0.167 HD
ATOM     26  C   UNL A   1      39.893  32.426  35.341  1.00  0.00     0.037 A 
ATOM     27  C   UNL A   1      40.628  28.586  29.544  1.00  0.00     0.037 A 
ATOM     28  C   UNL A   1      40.956  31.456  35.382  1.00  0.00     0.049 A 
ATOM     29  C   UNL A   1      41.534  28.405  30.726  1.00  0.00     0.074 A 
ATOM     30  C   UNL A   1      41.826  31.174  36.421  1.00  0.00     0.029 A 
ATOM     31  N   UNL A   1      41.291  30.607  34.338  1.00  0.00    -0.354 N 
ATOM     32  N   UNL A   1      41.516  29.025  31.880  1.00  0.00    -0.248 NA
ATOM     33  C   UNL A   1      42.600  27.401  30.597  1.00  0.00     0.031 C 
ATOM     34  C   UNL A   1      42.707  30.174  35.996  1.00  0.00     0.029 A 
ATOM     35  C   UNL A   1      42.366  29.812  34.704  1.00  0.00     0.049 A 
ATOM     36  H   UNL A   1      40.834  30.575  33.467  1.00  0.00     0.167 HD
ATOM     37  C   UNL A   1      42.563  28.490  32.615  1.00  0.00     0.074 A 
ATOM     38  C   UNL A   1      43.184  27.477  31.785  1.00  0.00     0.031 C 
ATOM     39  C   UNL A   1      42.976  28.816  33.863  1.00  0.00     0.037 A 
BRANCH  26  40
ATOM     40  C   UNL A   1      39.691  33.284  36.553  1.00  0.00     0.064 A 
ATOM     41  C   UNL A   1      38.784  32.900  37.551  1.00  0.00     0.173 A 
ATOM     42  C   UNL A   1      40.330  34.525  36.685  1.00  0.00     0.173 A 
ATOM     43  F   UNL A   1      38.143  31.723  37.467  1.00  0.00    -0.203 F 
ATOM     44  C   UNL A   1      38.514  33.735  38.632  1.00  0.00     0.198 A 
ATOM     45  C   UNL A   1      40.071  35.350  37.775  1.00  0.00     0.198 A 
ATOM     46  F   UNL A   1      41.213  34.929  35.759  1.00  0.00    -0.203 F 
ATOM     47  F   UNL A   1      37.623  33.360  39.562  1.00  0.00    -0.200 F 
ATOM     48  C   UNL A   1      39.156  34.959  38.743  1.00  0.00     0.200 A 
ATOM     49  F   UNL A   1      40.704  36.525  37.891  1.00  0.00    -0.200 F 
ATOM     50  F   UNL A   1      38.897  35.761  39.785  1.00  0.00    -0.200 F 
ENDBRANCH  26  40
BRANCH  27  51
ATOM     51  C   UNL A   1      40.768  27.746  28.330  1.00  0.00     0.064 A 
ATOM     52  C   UNL A   1      40.120  26.508  28.224  1.00  0.00     0.173 A 
ATOM     53  C   UNL A   1      41.591  28.150  27.271  1.00  0.00     0.173 A 
ATOM     54  F   UNL A   1      39.326  26.079  29.216  1.00  0.00    -0.203 F 
ATOM     55  C   UNL A   1      40.309  25.692  27.111  1.00  0.00     0.198 A 
ATOM     56  C   UNL A   1      41.762  27.344  26.149  1.00  0.00     0.198 A 
ATOM     57  F   UNL A   1      42.216  29.336  27.323  1.00  0.00    -0.203 F 
ATOM     58  F   UNL A   1      39.706  24.497  27.048  1.00  0.00    -0.200 F 
ATOM     59  C   UNL A   1      41.128  26.111  26.074  1.00  0.00     0.200 A 
ATOM     60  F   UNL A   1      42.540  27.759  25.140  1.00  0.00    -0.200 F 
ATOM     61  F   UNL A   1      41.306  25.330  25.001  1.00  0.00    -0.200 F 
ENDBRANCH  27  51
BRANCH  39  62
ATOM     62  C   UNL A   1      44.157  28.075  34.408  1.00  0.00     0.064 A 
ATOM     63  C   UNL A   1      43.992  26.829  35.032  1.00  0.00     0.173 A 
ATOM     64  C   UNL A   1      45.443  28.629  34.365  1.00  0.00     0.173 A 
ATOM     65  F   UNL A   1      42.779  26.263  35.100  1.00  0.00    -0.203 F 
ATOM     66  C   UNL A   1      45.077  26.168  35.599  1.00  0.00     0.198 A 
ATOM     67  C   UNL A   1      46.529  27.957  34.917  1.00  0.00     0.198 A 
ATOM     68  F   UNL A   1      45.647  29.813  33.767  1.00  0.00    -0.203 F 
ATOM     69  F   UNL A   1      44.898  24.987  36.206  1.00  0.00    -0.200 F 
ATOM     70  C   UNL A   1      46.344  26.730  35.539  1.00  0.00     0.200 A 
ATOM     71  F   UNL A   1      47.755  28.491  34.843  1.00  0.00    -0.200 F 
ATOM     72  F   UNL A   1      47.390  26.088  36.078  1.00  0.00    -0.200 F 
ENDBRANCH  39  62
ENDBRANCH  13  14
ENDBRANCH   6   8
ENDBRANCH   3   4
ENDBRANCH   2   3
ENDBRANCH   1   2
BRANCH   1  73
ATOM     73  C   UNL A   1      32.351  29.951  25.789  1.00  0.00     0.116 C 
BRANCH  73  74
ATOM     74  N   UNL A   1      32.910  29.702  24.472  1.00  0.00    -0.352 N 
ATOM     75  C   UNL A   1      32.488  28.831  23.507  1.00  0.00     0.253 C 
ATOM     76  H   UNL A   1      33.705  30.235  24.243  1.00  0.00     0.163 HD
ATOM     77  O   UNL A   1      33.245  28.525  22.588  1.00  0.00    -0.269 OA
BRANCH  75  78
ATOM     78  C   UNL A   1      31.141  28.228  23.555  1.00  0.00     0.066 A 
ATOM     79  C   UNL A   1      30.027  29.030  23.268  1.00  0.00     0.055 A 
ATOM     80  C   UNL A   1      31.006  26.840  23.781  1.00  0.00     0.062 A 
ATOM     81  C   UNL A   1      28.765  28.460  23.266  1.00  0.00     0.124 A 
ATOM     82  C   UNL A   1      29.714  26.300  23.755  1.00  0.00     0.030 A 
ATOM     83  F   UNL A   1      27.693  29.227  23.033  1.00  0.00    -0.207 F 
ATOM     84  C   UNL A   1      28.598  27.104  23.501  1.00  0.00     0.041 A 
BRANCH  80  85
ATOM     85  N   UNL A   1      32.155  26.104  24.261  1.00  0.00    -0.278 N 
ATOM     86  H   UNL A   1      32.714  25.623  23.608  1.00  0.00     0.180 HD
BRANCH  85  87
ATOM     87  S   UNL A   1      32.574  26.032  25.892  1.00  0.00     0.271 S 
ATOM     88  O   UNL A   1      33.712  26.896  26.105  1.00  0.00    -0.200 OA
ATOM     89  O   UNL A   1      31.345  26.173  26.643  1.00  0.00    -0.200 OA
BRANCH  87  90
ATOM     90  C   UNL A   1      33.111  24.368  26.234  1.00  0.00     0.141 A 
ATOM     91  C   UNL A   1      32.497  23.308  26.881  1.00  0.00     0.036 A 
ATOM     92  S   UNL A   1      34.644  23.921  25.611  1.00  0.00    -0.110 S 
ATOM     93  C   UNL A   1      33.244  22.099  26.758  1.00  0.00     0.034 A 
ATOM     94  C   UNL A   1      34.413  22.312  26.074  1.00  0.00     0.094 A 
ATOM     95  Cl  UNL A   1      35.588  21.131  25.661  1.00  0.00    -0.072 Cl
ENDBRANCH  87  90
ENDBRANCH  85  87
ENDBRANCH  80  85
ENDBRANCH  75  78
ENDBRANCH  73  74
ENDBRANCH   1  73
TORSDOF 14
ENDMDL
