MODEL 1
REMARK VINA RESULT:     -12.8      0.000      0.000
REMARK SMILES O=C(NCCCCNC(=O)c1cccc(-c2cc(NCc3ccccn3)nc3[nH]ccc23)c1)c1ccc(-c2c3nc(c(-c4c(F)c(F)c(F)c(F)c4F)c4ccc([nH]4)c(-c4c(F)c(F)c(F)c(F)c4F)c4nc(c(-c5c(F)c(F)c(F)c(F)c5F)c5ccc2[nH]5)C=C4)C=C3)cc1
REMARK SMILES IDX 6 1 5 2 4 3 3 4 1 5 2 6 34 8 35 9 96 10 36 11 95 12 37 13
REMARK SMILES IDX 38 14 39 15 89 16 40 17 94 18 88 19 90 20 41 21 93 22 87 23
REMARK SMILES IDX 86 24 42 26 74 27 54 28 73 29 55 30 58 31 72 32 91 33 56 34
REMARK SMILES IDX 57 35 71 37 92 38 59 39 43 40 44 41 52 42 45 43 46 44 50 45
REMARK SMILES IDX 53 46 47 47 48 48 51 49 49 50 75 51 76 52 84 53 77 54 78 55
REMARK SMILES IDX 82 56 85 57 79 58 80 59 83 60 81 61 60 62 61 63 69 64 62 65
REMARK SMILES IDX 63 66 67 67 70 68 64 69 65 70 68 71 66 72 7 73 8 74 9 75
REMARK SMILES IDX 10 77 11 78 12 79 33 80 13 81 15 82 14 83 16 84 17 85 32 86
REMARK SMILES IDX 18 87 28 88 31 89 27 90 29 91 30 92 19 94 20 96 21 97 22 98
REMARK SMILES IDX 26 99 23 100 25 101 24 102
REMARK H PARENT 3 7 90 25 58 36 8 76 29 93 19 95
REMARK Flexibility Score: inf
ROOT
ATOM      1  C   UNL A   1      34.676  30.658  27.964  1.00  0.00     0.023 C 
ENDROOT
BRANCH   1   2
ATOM      2  C   UNL A   1      34.171  31.941  27.309  1.00  0.00     0.023 C 
BRANCH   2   3
ATOM      3  C   UNL A   1      32.802  32.414  27.775  1.00  0.00     0.116 C 
BRANCH   3   4
ATOM      4  N   UNL A   1      32.690  33.861  27.872  1.00  0.00    -0.352 N 
ATOM      5  O   UNL A   1      33.125  35.928  28.678  1.00  0.00    -0.269 OA
ATOM      6  C   UNL A   1      33.428  34.739  28.633  1.00  0.00     0.251 C 
ATOM      7  H   UNL A   1      31.988  34.270  27.317  1.00  0.00     0.163 HD
BRANCH   6   8
ATOM      8  C   UNL A   1      34.571  34.238  29.427  1.00  0.00     0.039 A 
ATOM      9  C   UNL A   1      35.881  34.476  29.010  1.00  0.00     0.014 A 
ATOM     10  C   UNL A   1      34.328  33.501  30.591  1.00  0.00     0.014 A 
ATOM     11  C   UNL A   1      36.932  33.835  29.652  1.00  0.00     0.010 A 
ATOM     12  C   UNL A   1      35.398  32.938  31.294  1.00  0.00     0.010 A 
ATOM     13  C   UNL A   1      36.706  33.066  30.807  1.00  0.00    -0.014 A 
BRANCH  13  14
ATOM     14  C   UNL A   1      37.874  32.460  31.497  1.00  0.00     0.031 A 
ATOM     15  C   UNL A   1      38.295  32.903  32.870  1.00  0.00     0.074 A 
ATOM     16  C   UNL A   1      38.513  31.441  30.890  1.00  0.00     0.049 A 
ATOM     17  N   UNL A   1      39.241  32.419  33.637  1.00  0.00    -0.248 NA
ATOM     18  C   UNL A   1      37.574  34.042  33.458  1.00  0.00     0.031 C 
ATOM     19  C   UNL A   1      38.208  30.941  29.547  1.00  0.00     0.029 A 
ATOM     20  N   UNL A   1      39.521  30.621  31.328  1.00  0.00    -0.354 N 
ATOM     21  C   UNL A   1      39.234  33.193  34.790  1.00  0.00     0.074 A 
ATOM     22  C   UNL A   1      38.211  34.202  34.611  1.00  0.00     0.031 C 
ATOM     23  C   UNL A   1      38.967  29.865  29.296  1.00  0.00     0.029 A 
ATOM     24  C   UNL A   1      39.849  29.633  30.433  1.00  0.00     0.049 A 
ATOM     25  H   UNL A   1      39.966  30.731  32.200  1.00  0.00     0.167 HD
ATOM     26  C   UNL A   1      40.004  33.064  35.899  1.00  0.00     0.037 A 
ATOM     27  C   UNL A   1      40.763  28.649  30.514  1.00  0.00     0.037 A 
ATOM     28  C   UNL A   1      41.013  32.051  36.076  1.00  0.00     0.049 A 
ATOM     29  C   UNL A   1      41.589  28.523  31.761  1.00  0.00     0.074 A 
ATOM     30  C   UNL A   1      41.842  31.837  37.165  1.00  0.00     0.029 A 
ATOM     31  N   UNL A   1      41.327  31.075  35.141  1.00  0.00    -0.354 N 
ATOM     32  N   UNL A   1      41.559  29.254  32.848  1.00  0.00    -0.248 NA
ATOM     33  C   UNL A   1      42.576  27.437  31.791  1.00  0.00     0.031 C 
ATOM     34  C   UNL A   1      42.678  30.754  36.876  1.00  0.00     0.029 A 
ATOM     35  C   UNL A   1      42.343  30.266  35.624  1.00  0.00     0.049 A 
ATOM     36  H   UNL A   1      40.893  30.974  34.263  1.00  0.00     0.167 HD
ATOM     37  C   UNL A   1      42.519  28.719  33.693  1.00  0.00     0.074 A 
ATOM     38  C   UNL A   1      43.089  27.577  33.005  1.00  0.00     0.031 C 
ATOM     39  C   UNL A   1      42.903  29.140  34.921  1.00  0.00     0.037 A 
BRANCH  26  40
ATOM     40  C   UNL A   1      39.789  34.046  37.014  1.00  0.00     0.064 A 
ATOM     41  C   UNL A   1      38.958  33.748  38.103  1.00  0.00     0.173 A 
ATOM     42  C   UNL A   1      40.474  35.270  37.027  1.00  0.00     0.173 A 
ATOM     43  F   UNL A   1      38.273  32.594  38.133  1.00  0.00    -0.203 F 
ATOM     44  C   UNL A   1      38.807  34.646  39.157  1.00  0.00     0.198 A 
ATOM     45  C   UNL A   1      40.339  36.156  38.095  1.00  0.00     0.198 A 
ATOM     46  F   UNL A   1      41.288  35.602  36.014  1.00  0.00    -0.203 F 
ATOM     47  F   UNL A   1      37.981  34.353  40.172  1.00  0.00    -0.200 F 
ATOM     48  C   UNL A   1      39.504  35.845  39.156  1.00  0.00     0.200 A 
ATOM     49  F   UNL A   1      41.023  37.310  38.097  1.00  0.00    -0.200 F 
ATOM     50  F   UNL A   1      39.366  36.703  40.176  1.00  0.00    -0.200 F 
ENDBRANCH  26  40
BRANCH  27  51
ATOM     51  C   UNL A   1      40.936  27.713  29.377  1.00  0.00     0.064 A 
ATOM     52  C   UNL A   1      40.011  26.689  29.131  1.00  0.00     0.173 A 
ATOM     53  C   UNL A   1      42.025  27.834  28.500  1.00  0.00     0.173 A 
ATOM     54  F   UNL A   1      38.964  26.522  29.952  1.00  0.00    -0.203 F 
ATOM     55  C   UNL A   1      40.177  25.814  28.060  1.00  0.00     0.198 A 
ATOM     56  C   UNL A   1      42.172  26.978  27.412  1.00  0.00     0.198 A 
ATOM     57  F   UNL A   1      42.933  28.803  28.688  1.00  0.00    -0.203 F 
ATOM     58  F   UNL A   1      39.300  24.818  27.870  1.00  0.00    -0.200 F 
ATOM     59  C   UNL A   1      41.252  25.964  27.198  1.00  0.00     0.200 A 
ATOM     60  F   UNL A   1      43.202  27.140  26.570  1.00  0.00    -0.200 F 
ATOM     61  F   UNL A   1      41.406  25.128  26.162  1.00  0.00    -0.200 F 
ENDBRANCH  27  51
BRANCH  39  62
ATOM     62  C   UNL A   1      43.990  28.355  35.594  1.00  0.00     0.064 A 
ATOM     63  C   UNL A   1      43.692  27.322  36.494  1.00  0.00     0.173 A 
ATOM     64  C   UNL A   1      45.338  28.636  35.333  1.00  0.00     0.173 A 
ATOM     65  F   UNL A   1      42.416  27.029  36.789  1.00  0.00    -0.203 F 
ATOM     66  C   UNL A   1      44.708  26.617  37.134  1.00  0.00     0.198 A 
ATOM     67  C   UNL A   1      46.351  27.912  35.955  1.00  0.00     0.198 A 
ATOM     68  F   UNL A   1      45.673  29.612  34.477  1.00  0.00    -0.203 F 
ATOM     69  F   UNL A   1      44.401  25.670  38.031  1.00  0.00    -0.200 F 
ATOM     70  C   UNL A   1      46.036  26.910  36.861  1.00  0.00     0.200 A 
ATOM     71  F   UNL A   1      47.634  28.190  35.686  1.00  0.00    -0.200 F 
ATOM     72  F   UNL A   1      47.013  26.234  37.482  1.00  0.00    -0.200 F 
ENDBRANCH  39  62
ENDBRANCH  13  14
ENDBRANCH   6   8
ENDBRANCH   3   4
ENDBRANCH   2   3
ENDBRANCH   1   2
BRANCH   1  73
ATOM     73  C   UNL A   1      34.347  29.371  27.214  1.00  0.00     0.116 C 
BRANCH  73  74
ATOM     74  N   UNL A   1      33.106  28.759  27.663  1.00  0.00    -0.352 N 
ATOM     75  C   UNL A   1      32.392  27.728  27.101  1.00  0.00     0.251 C 
ATOM     76  H   UNL A   1      32.722  29.138  28.487  1.00  0.00     0.163 HD
ATOM     77  O   UNL A   1      31.284  27.430  27.533  1.00  0.00    -0.269 OA
BRANCH  75  78
ATOM     78  C   UNL A   1      32.962  26.990  25.957  1.00  0.00     0.040 A 
ATOM     79  C   UNL A   1      32.922  27.565  24.688  1.00  0.00     0.014 A 
ATOM     80  C   UNL A   1      33.558  25.740  26.153  1.00  0.00     0.022 A 
ATOM     81  C   UNL A   1      33.542  26.913  23.624  1.00  0.00     0.001 A 
ATOM     82  C   UNL A   1      34.229  25.097  25.105  1.00  0.00    -0.017 A 
ATOM     83  C   UNL A   1      34.203  25.697  23.836  1.00  0.00     0.009 A 
BRANCH  82  84
ATOM     84  C   UNL A   1      34.975  23.867  25.372  1.00  0.00    -0.004 A 
ATOM     85  C   UNL A   1      36.378  23.834  25.455  1.00  0.00     0.056 A 
ATOM     86  C   UNL A   1      34.310  22.629  25.474  1.00  0.00     0.027 A 
ATOM     87  C   UNL A   1      37.068  22.629  25.605  1.00  0.00     0.129 A 
ATOM     88  C   UNL A   1      35.104  21.501  25.644  1.00  0.00     0.140 A 
ATOM     89  C   UNL A   1      32.962  22.165  25.422  1.00  0.00     0.030 A 
ATOM     90  N   UNL A   1      36.443  21.443  25.710  1.00  0.00    -0.213 NA
ATOM     91  N   UNL A   1      34.284  20.410  25.732  1.00  0.00    -0.346 N 
ATOM     92  C   UNL A   1      32.976  20.797  25.593  1.00  0.00     0.085 A 
ATOM     93  H   UNL A   1      34.588  19.485  25.874  1.00  0.00     0.167 HD
BRANCH  87  94
ATOM     94  N   UNL A   1      38.449  22.676  25.695  1.00  0.00    -0.364 N 
ATOM     95  H   UNL A   1      38.912  23.534  25.557  1.00  0.00     0.162 HD
BRANCH  94  96
ATOM     96  C   UNL A   1      39.226  21.482  25.990  1.00  0.00     0.170 C 
BRANCH  96  97
ATOM     97  C   UNL A   1      40.613  21.840  26.495  1.00  0.00     0.059 A 
ATOM     98  C   UNL A   1      40.833  22.076  27.853  1.00  0.00     0.026 A 
ATOM     99  N   UNL A   1      41.611  21.927  25.577  1.00  0.00    -0.259 NA
ATOM    100  C   UNL A   1      42.115  22.408  28.283  1.00  0.00     0.004 A 
ATOM    101  C   UNL A   1      42.842  22.263  26.022  1.00  0.00     0.111 A 
ATOM    102  C   UNL A   1      43.140  22.507  27.351  1.00  0.00     0.020 A 
ENDBRANCH  96  97
ENDBRANCH  94  96
ENDBRANCH  87  94
ENDBRANCH  82  84
ENDBRANCH  75  78
ENDBRANCH  73  74
ENDBRANCH   1  73
TORSDOF 15
ENDMDL
MODEL 2
REMARK VINA RESULT:     -12.7      1.749      3.504
REMARK SMILES O=C(NCCCCNC(=O)c1cccc(-c2cc(NCc3ccccn3)nc3[nH]ccc23)c1)c1ccc(-c2c3nc(c(-c4c(F)c(F)c(F)c(F)c4F)c4ccc([nH]4)c(-c4c(F)c(F)c(F)c(F)c4F)c4nc(c(-c5c(F)c(F)c(F)c(F)c5F)c5ccc2[nH]5)C=C4)C=C3)cc1
REMARK SMILES IDX 6 1 5 2 4 3 3 4 1 5 2 6 34 8 35 9 96 10 36 11 95 12 37 13
REMARK SMILES IDX 38 14 39 15 89 16 40 17 94 18 88 19 90 20 41 21 93 22 87 23
REMARK SMILES IDX 86 24 42 26 74 27 54 28 73 29 55 30 58 31 72 32 91 33 56 34
REMARK SMILES IDX 57 35 71 37 92 38 59 39 43 40 44 41 52 42 45 43 46 44 50 45
REMARK SMILES IDX 53 46 47 47 48 48 51 49 49 50 75 51 76 52 84 53 77 54 78 55
REMARK SMILES IDX 82 56 85 57 79 58 80 59 83 60 81 61 60 62 61 63 69 64 62 65
REMARK SMILES IDX 63 66 67 67 70 68 64 69 65 70 68 71 66 72 7 73 8 74 9 75
REMARK SMILES IDX 10 77 11 78 12 79 33 80 13 81 15 82 14 83 16 84 17 85 32 86
REMARK SMILES IDX 18 87 28 88 31 89 27 90 29 91 30 92 19 94 20 96 21 97 22 98
REMARK SMILES IDX 26 99 23 100 25 101 24 102
REMARK H PARENT 3 7 90 25 58 36 8 76 29 93 19 95
REMARK Flexibility Score: inf
ROOT
ATOM      1  C   UNL A   1      31.571  30.590  25.737  1.00  0.00     0.023 C 
ENDROOT
BRANCH   1   2
ATOM      2  C   UNL A   1      31.496  31.598  26.879  1.00  0.00     0.023 C 
BRANCH   2   3
ATOM      3  C   UNL A   1      32.729  32.471  27.060  1.00  0.00     0.116 C 
BRANCH   3   4
ATOM      4  N   UNL A   1      32.421  33.831  27.477  1.00  0.00    -0.352 N 
ATOM      5  O   UNL A   1      32.557  35.693  28.751  1.00  0.00    -0.269 OA
ATOM      6  C   UNL A   1      33.019  34.595  28.454  1.00  0.00     0.251 C 
ATOM      7  H   UNL A   1      31.682  34.266  26.993  1.00  0.00     0.163 HD
BRANCH   6   8
ATOM      8  C   UNL A   1      34.201  34.072  29.172  1.00  0.00     0.039 A 
ATOM      9  C   UNL A   1      35.486  34.472  28.804  1.00  0.00     0.014 A 
ATOM     10  C   UNL A   1      34.023  33.152  30.209  1.00  0.00     0.014 A 
ATOM     11  C   UNL A   1      36.588  33.827  29.349  1.00  0.00     0.010 A 
ATOM     12  C   UNL A   1      35.137  32.575  30.827  1.00  0.00     0.010 A 
ATOM     13  C   UNL A   1      36.429  32.878  30.374  1.00  0.00    -0.014 A 
BRANCH  13  14
ATOM     14  C   UNL A   1      37.645  32.268  30.973  1.00  0.00     0.031 A 
ATOM     15  C   UNL A   1      38.108  32.630  32.356  1.00  0.00     0.074 A 
ATOM     16  C   UNL A   1      38.292  31.318  30.271  1.00  0.00     0.049 A 
ATOM     17  N   UNL A   1      39.100  32.129  33.050  1.00  0.00    -0.248 NA
ATOM     18  C   UNL A   1      37.374  33.698  33.052  1.00  0.00     0.031 C 
ATOM     19  C   UNL A   1      37.948  30.901  28.909  1.00  0.00     0.029 A 
ATOM     20  N   UNL A   1      39.345  30.507  30.610  1.00  0.00    -0.354 N 
ATOM     21  C   UNL A   1      39.115  32.820  34.254  1.00  0.00     0.074 A 
ATOM     22  C   UNL A   1      38.052  33.802  34.187  1.00  0.00     0.031 C 
ATOM     23  C   UNL A   1      38.732  29.874  28.553  1.00  0.00     0.029 A 
ATOM     24  C   UNL A   1      39.668  29.596  29.635  1.00  0.00     0.049 A 
ATOM     25  H   UNL A   1      39.822  30.572  31.469  1.00  0.00     0.167 HD
ATOM     26  C   UNL A   1      39.934  32.643  35.320  1.00  0.00     0.037 A 
ATOM     27  C   UNL A   1      40.618  28.644  29.610  1.00  0.00     0.037 A 
ATOM     28  C   UNL A   1      40.984  31.659  35.385  1.00  0.00     0.049 A 
ATOM     29  C   UNL A   1      41.499  28.462  30.812  1.00  0.00     0.074 A 
ATOM     30  C   UNL A   1      41.864  31.400  36.423  1.00  0.00     0.029 A 
ATOM     31  N   UNL A   1      41.292  30.762  34.372  1.00  0.00    -0.354 N 
ATOM     32  N   UNL A   1      41.489  29.114  31.949  1.00  0.00    -0.248 NA
ATOM     33  C   UNL A   1      42.523  27.413  30.726  1.00  0.00     0.031 C 
ATOM     34  C   UNL A   1      42.724  30.371  36.025  1.00  0.00     0.029 A 
ATOM     35  C   UNL A   1      42.354  29.959  34.756  1.00  0.00     0.049 A 
ATOM     36  H   UNL A   1      40.825  30.706  33.507  1.00  0.00     0.167 HD
ATOM     37  C   UNL A   1      42.501  28.557  32.714  1.00  0.00     0.074 A 
ATOM     38  C   UNL A   1      43.081  27.488  31.926  1.00  0.00     0.031 C 
ATOM     39  C   UNL A   1      42.922  28.906  33.954  1.00  0.00     0.037 A 
BRANCH  26  40
ATOM     40  C   UNL A   1      39.734  33.537  36.509  1.00  0.00     0.064 A 
ATOM     41  C   UNL A   1      40.341  34.798  36.589  1.00  0.00     0.173 A 
ATOM     42  C   UNL A   1      38.872  33.157  37.550  1.00  0.00     0.173 A 
ATOM     43  F   UNL A   1      41.182  35.204  35.625  1.00  0.00    -0.203 F 
ATOM     44  C   UNL A   1      40.107  35.640  37.674  1.00  0.00     0.198 A 
ATOM     45  C   UNL A   1      38.622  34.011  38.621  1.00  0.00     0.198 A 
ATOM     46  F   UNL A   1      38.260  31.964  37.519  1.00  0.00    -0.203 F 
ATOM     47  F   UNL A   1      40.725  36.828  37.744  1.00  0.00    -0.200 F 
ATOM     48  C   UNL A   1      39.241  35.249  38.685  1.00  0.00     0.200 A 
ATOM     49  F   UNL A   1      37.775  33.636  39.592  1.00  0.00    -0.200 F 
ATOM     50  F   UNL A   1      39.008  36.065  39.722  1.00  0.00    -0.200 F 
ENDBRANCH  26  40
BRANCH  27  51
ATOM     51  C   UNL A   1      40.775  27.795  28.404  1.00  0.00     0.064 A 
ATOM     52  C   UNL A   1      40.102  26.572  28.283  1.00  0.00     0.173 A 
ATOM     53  C   UNL A   1      41.592  28.201  27.337  1.00  0.00     0.173 A 
ATOM     54  F   UNL A   1      39.325  26.134  29.284  1.00  0.00    -0.203 F 
ATOM     55  C   UNL A   1      40.251  25.780  27.147  1.00  0.00     0.198 A 
ATOM     56  C   UNL A   1      41.714  27.423  26.189  1.00  0.00     0.198 A 
ATOM     57  F   UNL A   1      42.250  29.367  27.401  1.00  0.00    -0.203 F 
ATOM     58  F   UNL A   1      39.628  24.595  27.072  1.00  0.00    -0.200 F 
ATOM     59  C   UNL A   1      41.050  26.209  26.098  1.00  0.00     0.200 A 
ATOM     60  F   UNL A   1      42.472  27.852  25.170  1.00  0.00    -0.200 F 
ATOM     61  F   UNL A   1      41.185  25.452  25.001  1.00  0.00    -0.200 F 
ENDBRANCH  27  51
BRANCH  39  62
ATOM     62  C   UNL A   1      44.062  28.117  34.527  1.00  0.00     0.064 A 
ATOM     63  C   UNL A   1      43.840  26.940  35.256  1.00  0.00     0.173 A 
ATOM     64  C   UNL A   1      45.386  28.538  34.339  1.00  0.00     0.173 A 
ATOM     65  F   UNL A   1      42.589  26.508  35.477  1.00  0.00    -0.203 F 
ATOM     66  C   UNL A   1      44.902  26.230  35.807  1.00  0.00     0.198 A 
ATOM     67  C   UNL A   1      46.448  27.811  34.869  1.00  0.00     0.198 A 
ATOM     68  F   UNL A   1      45.649  29.654  33.645  1.00  0.00    -0.203 F 
ATOM     69  F   UNL A   1      44.665  25.138  36.547  1.00  0.00    -0.200 F 
ATOM     70  C   UNL A   1      46.205  26.663  35.609  1.00  0.00     0.200 A 
ATOM     71  F   UNL A   1      47.706  28.226  34.672  1.00  0.00    -0.200 F 
ATOM     72  F   UNL A   1      47.227  25.981  36.144  1.00  0.00    -0.200 F 
ENDBRANCH  39  62
ENDBRANCH  13  14
ENDBRANCH   6   8
ENDBRANCH   3   4
ENDBRANCH   2   3
ENDBRANCH   1   2
BRANCH   1  73
ATOM     73  C   UNL A   1      32.873  29.797  25.654  1.00  0.00     0.116 C 
BRANCH  73  74
ATOM     74  N   UNL A   1      33.358  29.652  24.289  1.00  0.00    -0.352 N 
ATOM     75  C   UNL A   1      33.248  28.580  23.438  1.00  0.00     0.251 C 
ATOM     76  H   UNL A   1      33.832  30.435  23.924  1.00  0.00     0.163 HD
ATOM     77  O   UNL A   1      33.844  28.574  22.366  1.00  0.00    -0.269 OA
BRANCH  75  78
ATOM     78  C   UNL A   1      32.422  27.422  23.830  1.00  0.00     0.040 A 
ATOM     79  C   UNL A   1      31.033  27.544  23.826  1.00  0.00     0.014 A 
ATOM     80  C   UNL A   1      33.028  26.210  24.175  1.00  0.00     0.022 A 
ATOM     81  C   UNL A   1      30.250  26.426  24.106  1.00  0.00     0.001 A 
ATOM     82  C   UNL A   1      32.255  25.066  24.409  1.00  0.00    -0.017 A 
ATOM     83  C   UNL A   1      30.857  25.195  24.379  1.00  0.00     0.009 A 
BRANCH  82  84
ATOM     84  C   UNL A   1      32.915  23.777  24.617  1.00  0.00    -0.004 A 
ATOM     85  C   UNL A   1      32.244  22.550  24.472  1.00  0.00     0.056 A 
ATOM     86  C   UNL A   1      34.251  23.714  25.061  1.00  0.00     0.027 A 
ATOM     87  C   UNL A   1      32.870  21.340  24.780  1.00  0.00     0.129 A 
ATOM     88  C   UNL A   1      34.771  22.451  25.313  1.00  0.00     0.140 A 
ATOM     89  C   UNL A   1      35.287  24.644  25.374  1.00  0.00     0.030 A 
ATOM     90  N   UNL A   1      34.147  21.269  25.198  1.00  0.00    -0.213 NA
ATOM     91  N   UNL A   1      36.068  22.596  25.720  1.00  0.00    -0.346 N 
ATOM     92  C   UNL A   1      36.397  23.926  25.768  1.00  0.00     0.085 A 
ATOM     93  H   UNL A   1      36.677  21.856  25.945  1.00  0.00     0.167 HD
BRANCH  87  94
ATOM     94  N   UNL A   1      32.153  20.170  24.597  1.00  0.00    -0.364 N 
ATOM     95  H   UNL A   1      31.374  19.988  25.171  1.00  0.00     0.162 HD
BRANCH  94  96
ATOM     96  C   UNL A   1      32.528  19.207  23.573  1.00  0.00     0.170 C 
BRANCH  96  97
ATOM     97  C   UNL A   1      32.936  17.881  24.189  1.00  0.00     0.059 A 
ATOM     98  C   UNL A   1      34.044  17.185  23.703  1.00  0.00     0.026 A 
ATOM     99  N   UNL A   1      32.179  17.406  25.213  1.00  0.00    -0.259 NA
ATOM    100  C   UNL A   1      34.388  15.968  24.286  1.00  0.00     0.004 A 
ATOM    101  C   UNL A   1      32.528  16.217  25.750  1.00  0.00     0.111 A 
ATOM    102  C   UNL A   1      33.615  15.470  25.327  1.00  0.00     0.020 A 
ENDBRANCH  96  97
ENDBRANCH  94  96
ENDBRANCH  87  94
ENDBRANCH  82  84
ENDBRANCH  75  78
ENDBRANCH  73  74
ENDBRANCH   1  73
TORSDOF 15
ENDMDL
MODEL 3
REMARK VINA RESULT:     -12.7      1.147      2.061
REMARK SMILES O=C(NCCCCNC(=O)c1cccc(-c2cc(NCc3ccccn3)nc3[nH]ccc23)c1)c1ccc(-c2c3nc(c(-c4c(F)c(F)c(F)c(F)c4F)c4ccc([nH]4)c(-c4c(F)c(F)c(F)c(F)c4F)c4nc(c(-c5c(F)c(F)c(F)c(F)c5F)c5ccc2[nH]5)C=C4)C=C3)cc1
REMARK SMILES IDX 6 1 5 2 4 3 3 4 1 5 2 6 34 8 35 9 96 10 36 11 95 12 37 13
REMARK SMILES IDX 38 14 39 15 89 16 40 17 94 18 88 19 90 20 41 21 93 22 87 23
REMARK SMILES IDX 86 24 42 26 74 27 54 28 73 29 55 30 58 31 72 32 91 33 56 34
REMARK SMILES IDX 57 35 71 37 92 38 59 39 43 40 44 41 52 42 45 43 46 44 50 45
REMARK SMILES IDX 53 46 47 47 48 48 51 49 49 50 75 51 76 52 84 53 77 54 78 55
REMARK SMILES IDX 82 56 85 57 79 58 80 59 83 60 81 61 60 62 61 63 69 64 62 65
REMARK SMILES IDX 63 66 67 67 70 68 64 69 65 70 68 71 66 72 7 73 8 74 9 75
REMARK SMILES IDX 10 77 11 78 12 79 33 80 13 81 15 82 14 83 16 84 17 85 32 86
REMARK SMILES IDX 18 87 28 88 31 89 27 90 29 91 30 92 19 94 20 96 21 97 22 98
REMARK SMILES IDX 26 99 23 100 25 101 24 102
REMARK H PARENT 3 7 90 25 58 36 8 76 29 93 19 95
REMARK Flexibility Score: inf
ROOT
ATOM      1  C   UNL A   1      31.746  30.449  25.783  1.00  0.00     0.023 C 
ENDROOT
BRANCH   1   2
ATOM      2  C   UNL A   1      31.616  31.507  26.876  1.00  0.00     0.023 C 
BRANCH   2   3
ATOM      3  C   UNL A   1      32.843  32.382  27.084  1.00  0.00     0.116 C 
BRANCH   3   4
ATOM      4  N   UNL A   1      32.524  33.742  27.490  1.00  0.00    -0.352 N 
ATOM      5  O   UNL A   1      32.642  35.614  28.751  1.00  0.00    -0.269 OA
ATOM      6  C   UNL A   1      33.112  34.517  28.464  1.00  0.00     0.251 C 
ATOM      7  H   UNL A   1      31.785  34.168  27.000  1.00  0.00     0.163 HD
BRANCH   6   8
ATOM      8  C   UNL A   1      34.295  34.008  29.191  1.00  0.00     0.039 A 
ATOM      9  C   UNL A   1      35.582  34.343  28.771  1.00  0.00     0.014 A 
ATOM     10  C   UNL A   1      34.114  33.164  30.292  1.00  0.00     0.014 A 
ATOM     11  C   UNL A   1      36.677  33.703  29.336  1.00  0.00     0.010 A 
ATOM     12  C   UNL A   1      35.224  32.596  30.924  1.00  0.00     0.010 A 
ATOM     13  C   UNL A   1      36.514  32.829  30.425  1.00  0.00    -0.014 A 
BRANCH  13  14
ATOM     14  C   UNL A   1      37.725  32.224  31.039  1.00  0.00     0.031 A 
ATOM     15  C   UNL A   1      38.151  32.564  32.439  1.00  0.00     0.074 A 
ATOM     16  C   UNL A   1      38.401  31.298  30.332  1.00  0.00     0.049 A 
ATOM     17  N   UNL A   1      39.135  32.062  33.145  1.00  0.00    -0.248 NA
ATOM     18  C   UNL A   1      37.386  33.606  33.140  1.00  0.00     0.031 C 
ATOM     19  C   UNL A   1      38.094  30.906  28.954  1.00  0.00     0.029 A 
ATOM     20  N   UNL A   1      39.458  30.496  30.678  1.00  0.00    -0.354 N 
ATOM     21  C   UNL A   1      39.113  32.727  34.363  1.00  0.00     0.074 A 
ATOM     22  C   UNL A   1      38.037  33.695  34.293  1.00  0.00     0.031 C 
ATOM     23  C   UNL A   1      38.901  29.898  28.594  1.00  0.00     0.029 A 
ATOM     24  C   UNL A   1      39.816  29.610  29.691  1.00  0.00     0.049 A 
ATOM     25  H   UNL A   1      39.914  30.549  31.548  1.00  0.00     0.167 HD
ATOM     26  C   UNL A   1      39.910  32.539  35.443  1.00  0.00     0.037 A 
ATOM     27  C   UNL A   1      40.780  28.672  29.669  1.00  0.00     0.037 A 
ATOM     28  C   UNL A   1      40.973  31.569  35.512  1.00  0.00     0.049 A 
ATOM     29  C   UNL A   1      41.637  28.477  30.885  1.00  0.00     0.074 A 
ATOM     30  C   UNL A   1      41.833  31.301  36.563  1.00  0.00     0.029 A 
ATOM     31  N   UNL A   1      41.316  30.698  34.487  1.00  0.00    -0.354 N 
ATOM     32  N   UNL A   1      41.592  29.105  32.035  1.00  0.00    -0.248 NA
ATOM     33  C   UNL A   1      42.677  27.445  30.801  1.00  0.00     0.031 C 
ATOM     34  C   UNL A   1      42.717  30.293  36.164  1.00  0.00     0.029 A 
ATOM     35  C   UNL A   1      42.381  29.902  34.878  1.00  0.00     0.049 A 
ATOM     36  H   UNL A   1      40.870  30.654  33.611  1.00  0.00     0.167 HD
ATOM     37  C   UNL A   1      42.594  28.546  32.812  1.00  0.00     0.074 A 
ATOM     38  C   UNL A   1      43.207  27.502  32.015  1.00  0.00     0.031 C 
ATOM     39  C   UNL A   1      42.983  28.875  34.068  1.00  0.00     0.037 A 
BRANCH  26  40
ATOM     40  C   UNL A   1      39.670  33.405  36.646  1.00  0.00     0.064 A 
ATOM     41  C   UNL A   1      40.277  34.662  36.778  1.00  0.00     0.173 A 
ATOM     42  C   UNL A   1      38.772  33.002  37.646  1.00  0.00     0.173 A 
ATOM     43  F   UNL A   1      41.152  35.089  35.854  1.00  0.00    -0.203 F 
ATOM     44  C   UNL A   1      40.007  35.478  37.874  1.00  0.00     0.198 A 
ATOM     45  C   UNL A   1      38.486  33.831  38.729  1.00  0.00     0.198 A 
ATOM     46  F   UNL A   1      38.158  31.812  37.566  1.00  0.00    -0.203 F 
ATOM     47  F   UNL A   1      40.624  36.662  37.994  1.00  0.00    -0.200 F 
ATOM     48  C   UNL A   1      39.106  35.066  38.844  1.00  0.00     0.200 A 
ATOM     49  F   UNL A   1      37.605  33.435  39.660  1.00  0.00    -0.200 F 
ATOM     50  F   UNL A   1      38.838  35.856  39.892  1.00  0.00    -0.200 F 
ENDBRANCH  26  40
BRANCH  27  51
ATOM     51  C   UNL A   1      40.977  27.851  28.448  1.00  0.00     0.064 A 
ATOM     52  C   UNL A   1      40.142  26.763  28.162  1.00  0.00     0.173 A 
ATOM     53  C   UNL A   1      41.997  28.152  27.532  1.00  0.00     0.173 A 
ATOM     54  F   UNL A   1      39.165  26.426  29.017  1.00  0.00    -0.203 F 
ATOM     55  C   UNL A   1      40.329  25.997  27.014  1.00  0.00     0.198 A 
ATOM     56  C   UNL A   1      42.162  27.405  26.369  1.00  0.00     0.198 A 
ATOM     57  F   UNL A   1      42.816  29.189  27.757  1.00  0.00    -0.203 F 
ATOM     58  F   UNL A   1      39.543  24.936  26.783  1.00  0.00    -0.200 F 
ATOM     59  C   UNL A   1      41.334  26.323  26.115  1.00  0.00     0.200 A 
ATOM     60  F   UNL A   1      43.122  27.736  25.494  1.00  0.00    -0.200 F 
ATOM     61  F   UNL A   1      41.506  25.592  25.005  1.00  0.00    -0.200 F 
ENDBRANCH  27  51
BRANCH  39  62
ATOM     62  C   UNL A   1      44.121  28.090  34.650  1.00  0.00     0.064 A 
ATOM     63  C   UNL A   1      45.453  28.470  34.435  1.00  0.00     0.173 A 
ATOM     64  C   UNL A   1      43.876  26.953  35.432  1.00  0.00     0.173 A 
ATOM     65  F   UNL A   1      45.737  29.541  33.677  1.00  0.00    -0.203 F 
ATOM     66  C   UNL A   1      46.503  27.719  34.956  1.00  0.00     0.198 A 
ATOM     67  C   UNL A   1      44.927  26.220  35.974  1.00  0.00     0.198 A 
ATOM     68  F   UNL A   1      42.619  26.552  35.669  1.00  0.00    -0.203 F 
ATOM     69  F   UNL A   1      47.770  28.069  34.693  1.00  0.00    -0.200 F 
ATOM     70  C   UNL A   1      46.239  26.598  35.728  1.00  0.00     0.200 A 
ATOM     71  F   UNL A   1      44.672  25.140  36.726  1.00  0.00    -0.200 F 
ATOM     72  F   UNL A   1      47.251  25.873  36.226  1.00  0.00    -0.200 F 
ENDBRANCH  39  62
ENDBRANCH  13  14
ENDBRANCH   6   8
ENDBRANCH   3   4
ENDBRANCH   2   3
ENDBRANCH   1   2
BRANCH   1  73
ATOM     73  C   UNL A   1      33.041  29.643  25.810  1.00  0.00     0.116 C 
BRANCH  73  74
ATOM     74  N   UNL A   1      33.449  29.189  24.489  1.00  0.00    -0.352 N 
ATOM     75  C   UNL A   1      33.721  27.915  24.053  1.00  0.00     0.251 C 
ATOM     76  H   UNL A   1      33.542  29.896  23.809  1.00  0.00     0.163 HD
ATOM     77  O   UNL A   1      34.194  27.726  22.938  1.00  0.00    -0.269 OA
BRANCH  75  78
ATOM     78  C   UNL A   1      33.459  26.771  24.948  1.00  0.00     0.040 A 
ATOM     79  C   UNL A   1      32.306  26.769  25.731  1.00  0.00     0.014 A 
ATOM     80  C   UNL A   1      34.346  25.690  24.986  1.00  0.00     0.022 A 
ATOM     81  C   UNL A   1      32.009  25.649  26.505  1.00  0.00     0.001 A 
ATOM     82  C   UNL A   1      34.036  24.537  25.718  1.00  0.00    -0.017 A 
ATOM     83  C   UNL A   1      32.860  24.538  26.486  1.00  0.00     0.009 A 
BRANCH  82  84
ATOM     84  C   UNL A   1      34.903  23.363  25.620  1.00  0.00    -0.004 A 
ATOM     85  C   UNL A   1      36.305  23.451  25.673  1.00  0.00     0.056 A 
ATOM     86  C   UNL A   1      34.362  22.084  25.381  1.00  0.00     0.027 A 
ATOM     87  C   UNL A   1      37.111  22.328  25.471  1.00  0.00     0.129 A 
ATOM     88  C   UNL A   1      35.264  21.040  25.219  1.00  0.00     0.140 A 
ATOM     89  C   UNL A   1      33.062  21.519  25.219  1.00  0.00     0.030 A 
ATOM     90  N   UNL A   1      36.604  21.102  25.248  1.00  0.00    -0.213 NA
ATOM     91  N   UNL A   1      34.554  19.891  25.009  1.00  0.00    -0.346 N 
ATOM     92  C   UNL A   1      33.211  20.166  25.001  1.00  0.00     0.085 A 
ATOM     93  H   UNL A   1      34.948  18.997  24.883  1.00  0.00     0.167 HD
BRANCH  87  94
ATOM     94  N   UNL A   1      38.483  22.487  25.553  1.00  0.00    -0.364 N 
ATOM     95  H   UNL A   1      38.893  23.317  25.217  1.00  0.00     0.162 HD
BRANCH  94  96
ATOM     96  C   UNL A   1      39.330  21.452  26.125  1.00  0.00     0.170 C 
BRANCH  96  97
ATOM     97  C   UNL A   1      40.639  22.030  26.632  1.00  0.00     0.059 A 
ATOM     98  C   UNL A   1      41.695  22.273  25.752  1.00  0.00     0.026 A 
ATOM     99  N   UNL A   1      40.737  22.287  27.963  1.00  0.00    -0.259 NA
ATOM    100  C   UNL A   1      42.884  22.798  26.250  1.00  0.00     0.004 A 
ATOM    101  C   UNL A   1      41.907  22.784  28.420  1.00  0.00     0.111 A 
ATOM    102  C   UNL A   1      42.997  23.056  27.610  1.00  0.00     0.020 A 
ENDBRANCH  96  97
ENDBRANCH  94  96
ENDBRANCH  87  94
ENDBRANCH  82  84
ENDBRANCH  75  78
ENDBRANCH  73  74
ENDBRANCH   1  73
TORSDOF 15
ENDMDL
