MODEL 1
REMARK VINA RESULT:     -12.2      0.000      0.000
REMARK SMILES CCCc1cc(OC(F)(F)F)cc2c1O[C@@H](C(F)(F)F)C(C(=O)NCCCCNC(=O)c1ccc(-c3c4nc(c(-c5c(F)c(F)c(F)c(F)c5F)c5ccc([nH]5)c(-c5c(F)c(F)c(F)c(F)c5F)c5nc(c(-c6c(F)c(F)c(F)c(F)c6F)c6ccc3[nH]6)C=C5)C=C4)cc1)=C2
REMARK SMILES IDX 26 1 25 2 24 3 22 4 23 5 21 7 4 8 5 9 14 10 6 11 13 12 15 13
REMARK SMILES IDX 12 14 95 15 16 16 3 17 2 18 1 19 7 20 8 21 9 22 10 23 11 24
REMARK SMILES IDX 17 25 18 26 19 27 20 28 27 29 28 30 29 31 30 32 31 34 32 35
REMARK SMILES IDX 33 36 94 37 34 38 93 39 35 40 36 41 37 42 87 43 38 44 92 45
REMARK SMILES IDX 86 46 88 47 39 48 91 49 85 50 84 51 40 53 72 54 52 55 71 56
REMARK SMILES IDX 53 57 56 58 70 59 89 60 54 61 55 62 69 64 90 65 57 66 41 67
REMARK SMILES IDX 42 68 50 69 43 70 44 71 48 72 51 73 45 74 46 75 49 76 47 77
REMARK SMILES IDX 73 78 74 79 82 80 75 81 76 82 80 83 83 84 77 85 78 86 81 87
REMARK SMILES IDX 79 88 58 89 59 90 67 91 60 92 61 93 65 94 68 95 62 96 63 97
REMARK SMILES IDX 66 98 64 99
REMARK H PARENT 24 6 29 33 88 52 56 63
REMARK Flexibility Score: inf
ROOT
ATOM      1  C   UNL A   1      31.997  30.134  26.854  1.00  0.00     0.023 C 
ENDROOT
BRANCH   1   2
ATOM      2  C   UNL A   1      33.256  29.691  26.098  1.00  0.00     0.116 C 
BRANCH   2   3
ATOM      3  N   UNL A   1      33.021  29.733  24.666  1.00  0.00    -0.352 N 
ATOM      4  C   UNL A   1      32.988  28.764  23.712  1.00  0.00     0.251 C 
ATOM      5  O   UNL A   1      32.919  29.121  22.539  1.00  0.00    -0.270 OA
ATOM      6  H   UNL A   1      32.854  30.637  24.318  1.00  0.00     0.163 HD
BRANCH   4   7
ATOM      7  C   UNL A   1      32.975  27.309  24.029  1.00  0.00     0.067 C 
ATOM      8  C   UNL A   1      32.633  23.226  25.047  1.00  0.00    -0.002 A 
ATOM      9  C   UNL A   1      33.784  22.565  25.516  1.00  0.00     0.054 A 
ATOM     10  C   UNL A   1      32.740  24.588  24.706  1.00  0.00     0.131 A 
ATOM     11  C   UNL A   1      34.993  23.241  25.692  1.00  0.00     0.130 A 
ATOM     12  C   UNL A   1      33.957  25.252  24.826  1.00  0.00     0.021 A 
ATOM     13  O   UNL A   1      31.601  25.244  24.328  1.00  0.00    -0.475 OA
ATOM     14  C   UNL A   1      35.077  24.582  25.325  1.00  0.00     0.058 A 
ATOM     15  C   UNL A   1      34.047  26.667  24.513  1.00  0.00     0.025 C 
ATOM     16  C   UNL A   1      31.737  26.515  23.618  1.00  0.00     0.314 C 
BRANCH   8  17
ATOM     17  C   UNL A   1      31.288  22.533  24.917  1.00  0.00     0.039 C 
BRANCH  17  18
ATOM     18  C   UNL A   1      30.504  22.215  26.198  1.00  0.00     0.001 C 
ATOM     19  C   UNL A   1      29.947  23.450  26.898  1.00  0.00     0.004 C 
ENDBRANCH  17  18
ENDBRANCH   8  17
BRANCH  11  20
ATOM     20  O   UNL A   1      36.145  22.723  26.210  1.00  0.00    -0.406 OA
BRANCH  20  21
ATOM     21  C   UNL A   1      37.101  22.207  25.298  1.00  0.00     0.573 C 
ATOM     22  F   UNL A   1      37.787  23.196  24.687  1.00  0.00    -0.132 F 
ATOM     23  F   UNL A   1      37.963  21.381  25.926  1.00  0.00    -0.132 F 
ATOM     24  F   UNL A   1      36.452  21.498  24.348  1.00  0.00    -0.132 F 
ENDBRANCH  20  21
ENDBRANCH  11  20
BRANCH  16  25
ATOM     25  C   UNL A   1      30.376  27.240  23.724  1.00  0.00     0.429 C 
ATOM     26  F   UNL A   1      30.062  27.934  22.608  1.00  0.00    -0.167 F 
ATOM     27  F   UNL A   1      29.363  26.345  23.886  1.00  0.00    -0.167 F 
ATOM     28  F   UNL A   1      30.320  28.084  24.780  1.00  0.00    -0.167 F 
ENDBRANCH  16  25
ENDBRANCH   4   7
ENDBRANCH   2   3
ENDBRANCH   1   2
BRANCH   1  29
ATOM     29  C   UNL A   1      31.698  31.632  26.763  1.00  0.00     0.023 C 
BRANCH  29  30
ATOM     30  C   UNL A   1      32.884  32.537  27.070  1.00  0.00     0.116 C 
BRANCH  30  31
ATOM     31  N   UNL A   1      32.494  33.857  27.537  1.00  0.00    -0.352 N 
ATOM     32  C   UNL A   1      33.042  34.605  28.551  1.00  0.00     0.251 C 
ATOM     33  H   UNL A   1      31.736  34.270  27.063  1.00  0.00     0.163 HD
ATOM     34  O   UNL A   1      32.526  35.661  28.890  1.00  0.00    -0.269 OA
BRANCH  32  35
ATOM     35  C   UNL A   1      34.234  34.097  29.261  1.00  0.00     0.039 A 
ATOM     36  C   UNL A   1      34.048  33.195  30.311  1.00  0.00     0.014 A 
ATOM     37  C   UNL A   1      35.521  34.479  28.877  1.00  0.00     0.014 A 
ATOM     38  C   UNL A   1      35.158  32.626  30.933  1.00  0.00     0.010 A 
ATOM     39  C   UNL A   1      36.626  33.855  29.447  1.00  0.00     0.010 A 
ATOM     40  C   UNL A   1      36.455  32.923  30.480  1.00  0.00    -0.014 A 
BRANCH  40  41
ATOM     41  C   UNL A   1      37.635  32.246  31.072  1.00  0.00     0.031 A 
ATOM     42  C   UNL A   1      38.132  32.635  32.436  1.00  0.00     0.074 A 
ATOM     43  C   UNL A   1      38.287  31.313  30.353  1.00  0.00     0.049 A 
ATOM     44  N   UNL A   1      39.142  32.153  33.115  1.00  0.00    -0.248 NA
ATOM     45  C   UNL A   1      37.417  33.726  33.116  1.00  0.00     0.031 C 
ATOM     46  C   UNL A   1      37.940  30.903  28.991  1.00  0.00     0.029 A 
ATOM     47  N   UNL A   1      39.376  30.540  30.665  1.00  0.00    -0.354 N 
ATOM     48  C   UNL A   1      39.187  32.884  34.293  1.00  0.00     0.074 A 
ATOM     49  C   UNL A   1      38.142  33.881  34.213  1.00  0.00     0.031 C 
ATOM     50  C   UNL A   1      38.778  29.931  28.598  1.00  0.00     0.029 A 
ATOM     51  C   UNL A   1      39.737  29.670  29.666  1.00  0.00     0.049 A 
ATOM     52  H   UNL A   1      39.854  30.604  31.524  1.00  0.00     0.167 HD
ATOM     53  C   UNL A   1      40.008  32.719  35.358  1.00  0.00     0.037 A 
ATOM     54  C   UNL A   1      40.727  28.759  29.622  1.00  0.00     0.037 A 
ATOM     55  C   UNL A   1      41.034  31.712  35.439  1.00  0.00     0.049 A 
ATOM     56  C   UNL A   1      41.611  28.582  30.826  1.00  0.00     0.074 A 
ATOM     57  C   UNL A   1      41.881  31.425  36.495  1.00  0.00     0.029 A 
ATOM     58  N   UNL A   1      41.354  30.828  34.418  1.00  0.00    -0.354 N 
ATOM     59  N   UNL A   1      41.590  29.221  31.970  1.00  0.00    -0.248 NA
ATOM     60  C   UNL A   1      42.648  27.544  30.736  1.00  0.00     0.031 C 
ATOM     61  C   UNL A   1      42.743  30.397  36.097  1.00  0.00     0.029 A 
ATOM     62  C   UNL A   1      42.397  30.006  34.813  1.00  0.00     0.049 A 
ATOM     63  H   UNL A   1      40.906  30.791  33.543  1.00  0.00     0.167 HD
ATOM     64  C   UNL A   1      42.585  28.645  32.747  1.00  0.00     0.074 A 
ATOM     65  C   UNL A   1      43.181  27.593  31.950  1.00  0.00     0.031 C 
ATOM     66  C   UNL A   1      42.972  28.958  34.009  1.00  0.00     0.037 A 
BRANCH  53  67
ATOM     67  C   UNL A   1      39.826  33.647  36.525  1.00  0.00     0.064 A 
ATOM     68  C   UNL A   1      40.493  34.880  36.595  1.00  0.00     0.173 A 
ATOM     69  C   UNL A   1      38.948  33.318  37.568  1.00  0.00     0.173 A 
ATOM     70  F   UNL A   1      41.353  35.238  35.629  1.00  0.00    -0.203 F 
ATOM     71  C   UNL A   1      40.312  35.734  37.680  1.00  0.00     0.198 A 
ATOM     72  C   UNL A   1      38.745  34.189  38.637  1.00  0.00     0.198 A 
ATOM     73  F   UNL A   1      38.280  32.154  37.550  1.00  0.00    -0.203 F 
ATOM     74  F   UNL A   1      40.999  36.882  37.750  1.00  0.00    -0.200 F 
ATOM     75  C   UNL A   1      39.432  35.391  38.696  1.00  0.00     0.200 A 
ATOM     76  F   UNL A   1      37.885  33.861  39.612  1.00  0.00    -0.200 F 
ATOM     77  F   UNL A   1      39.254  36.217  39.736  1.00  0.00    -0.200 F 
ENDBRANCH  53  67
BRANCH  54  78
ATOM     78  C   UNL A   1      40.903  27.912  28.413  1.00  0.00     0.064 A 
ATOM     79  C   UNL A   1      41.725  28.328  27.356  1.00  0.00     0.173 A 
ATOM     80  C   UNL A   1      40.257  26.673  28.289  1.00  0.00     0.173 A 
ATOM     81  F   UNL A   1      42.351  29.513  27.421  1.00  0.00    -0.203 F 
ATOM     82  C   UNL A   1      41.877  27.548  26.212  1.00  0.00     0.198 A 
ATOM     83  C   UNL A   1      40.433  25.882  27.157  1.00  0.00     0.198 A 
ATOM     84  F   UNL A   1      39.467  26.226  29.276  1.00  0.00    -0.203 F 
ATOM     85  F   UNL A   1      42.631  27.992  25.198  1.00  0.00    -0.200 F 
ATOM     86  C   UNL A   1      41.234  26.323  26.115  1.00  0.00     0.200 A 
ATOM     87  F   UNL A   1      39.822  24.691  27.074  1.00  0.00    -0.200 F 
ATOM     88  F   UNL A   1      41.382  25.571  25.016  1.00  0.00    -0.200 F 
ENDBRANCH  54  78
BRANCH  66  89
ATOM     89  C   UNL A   1      44.063  28.126  34.617  1.00  0.00     0.064 A 
ATOM     90  C   UNL A   1      43.789  26.927  35.293  1.00  0.00     0.173 A 
ATOM     91  C   UNL A   1      45.404  28.524  34.502  1.00  0.00     0.173 A 
ATOM     92  F   UNL A   1      42.523  26.511  35.443  1.00  0.00    -0.203 F 
ATOM     93  C   UNL A   1      44.815  26.177  35.862  1.00  0.00     0.198 A 
ATOM     94  C   UNL A   1      46.429  27.753  35.044  1.00  0.00     0.198 A 
ATOM     95  F   UNL A   1      45.721  29.657  33.858  1.00  0.00    -0.203 F 
ATOM     96  F   UNL A   1      44.525  25.065  36.553  1.00  0.00    -0.200 F 
ATOM     97  C   UNL A   1      46.133  26.587  35.731  1.00  0.00     0.200 A 
ATOM     98  F   UNL A   1      47.704  28.144  34.904  1.00  0.00    -0.200 F 
ATOM     99  F   UNL A   1      47.119  25.861  36.277  1.00  0.00    -0.200 F 
ENDBRANCH  66  89
ENDBRANCH  40  41
ENDBRANCH  32  35
ENDBRANCH  30  31
ENDBRANCH  29  30
ENDBRANCH   1  29
TORSDOF 16
ENDMDL
MODEL 2
REMARK VINA RESULT:     -12.1      0.336      1.963
REMARK SMILES CCCc1cc(OC(F)(F)F)cc2c1O[C@@H](C(F)(F)F)C(C(=O)NCCCCNC(=O)c1ccc(-c3c4nc(c(-c5c(F)c(F)c(F)c(F)c5F)c5ccc([nH]5)c(-c5c(F)c(F)c(F)c(F)c5F)c5nc(c(-c6c(F)c(F)c(F)c(F)c6F)c6ccc3[nH]6)C=C5)C=C4)cc1)=C2
REMARK SMILES IDX 26 1 25 2 24 3 22 4 23 5 21 7 4 8 5 9 14 10 6 11 13 12 15 13
REMARK SMILES IDX 12 14 95 15 16 16 3 17 2 18 1 19 7 20 8 21 9 22 10 23 11 24
REMARK SMILES IDX 17 25 18 26 19 27 20 28 27 29 28 30 29 31 30 32 31 34 32 35
REMARK SMILES IDX 33 36 94 37 34 38 93 39 35 40 36 41 37 42 87 43 38 44 92 45
REMARK SMILES IDX 86 46 88 47 39 48 91 49 85 50 84 51 40 53 72 54 52 55 71 56
REMARK SMILES IDX 53 57 56 58 70 59 89 60 54 61 55 62 69 64 90 65 57 66 41 67
REMARK SMILES IDX 42 68 50 69 43 70 44 71 48 72 51 73 45 74 46 75 49 76 47 77
REMARK SMILES IDX 73 78 74 79 82 80 75 81 76 82 80 83 83 84 77 85 78 86 81 87
REMARK SMILES IDX 79 88 58 89 59 90 67 91 60 92 61 93 65 94 68 95 62 96 63 97
REMARK SMILES IDX 66 98 64 99
REMARK H PARENT 24 6 29 33 88 52 56 63
REMARK Flexibility Score: inf
ROOT
ATOM      1  C   UNL A   1      31.764  30.172  26.857  1.00  0.00     0.023 C 
ENDROOT
BRANCH   1   2
ATOM      2  C   UNL A   1      32.921  29.495  26.112  1.00  0.00     0.116 C 
BRANCH   2   3
ATOM      3  N   UNL A   1      32.730  29.613  24.677  1.00  0.00    -0.352 N 
ATOM      4  C   UNL A   1      32.797  28.708  23.664  1.00  0.00     0.251 C 
ATOM      5  O   UNL A   1      32.741  29.135  22.514  1.00  0.00    -0.270 OA
ATOM      6  H   UNL A   1      32.511  30.525  24.380  1.00  0.00     0.163 HD
BRANCH   4   7
ATOM      7  C   UNL A   1      32.876  27.239  23.888  1.00  0.00     0.067 C 
ATOM      8  C   UNL A   1      32.804  23.090  24.669  1.00  0.00    -0.002 A 
ATOM      9  C   UNL A   1      34.017  22.462  25.011  1.00  0.00     0.054 A 
ATOM     10  C   UNL A   1      32.821  24.473  24.408  1.00  0.00     0.131 A 
ATOM     11  C   UNL A   1      35.202  23.188  25.143  1.00  0.00     0.130 A 
ATOM     12  C   UNL A   1      34.011  25.191  24.481  1.00  0.00     0.021 A 
ATOM     13  O   UNL A   1      31.627  25.091  24.154  1.00  0.00    -0.475 OA
ATOM     14  C   UNL A   1      35.195  24.551  24.855  1.00  0.00     0.058 A 
ATOM     15  C   UNL A   1      34.010  26.625  24.253  1.00  0.00     0.025 C 
ATOM     16  C   UNL A   1      31.650  26.407  23.519  1.00  0.00     0.314 C 
BRANCH   8  17
ATOM     17  C   UNL A   1      31.487  22.337  24.593  1.00  0.00     0.039 C 
BRANCH  17  18
ATOM     18  C   UNL A   1      30.637  22.222  25.867  1.00  0.00     0.001 C 
ATOM     19  C   UNL A   1      31.067  23.174  26.978  1.00  0.00     0.004 C 
ENDBRANCH  17  18
ENDBRANCH   8  17
BRANCH  11  20
ATOM     20  O   UNL A   1      36.413  22.700  25.542  1.00  0.00    -0.406 OA
BRANCH  20  21
ATOM     21  C   UNL A   1      37.036  21.732  24.715  1.00  0.00     0.573 C 
ATOM     22  F   UNL A   1      38.349  21.604  25.003  1.00  0.00    -0.132 F 
ATOM     23  F   UNL A   1      36.428  20.534  24.840  1.00  0.00    -0.132 F 
ATOM     24  F   UNL A   1      36.927  22.129  23.428  1.00  0.00    -0.132 F 
ENDBRANCH  20  21
ENDBRANCH  11  20
BRANCH  16  25
ATOM     25  C   UNL A   1      30.267  27.053  23.767  1.00  0.00     0.429 C 
ATOM     26  F   UNL A   1      29.279  26.143  23.911  1.00  0.00    -0.167 F 
ATOM     27  F   UNL A   1      30.269  27.766  24.927  1.00  0.00    -0.167 F 
ATOM     28  F   UNL A   1      29.914  27.913  22.783  1.00  0.00    -0.167 F 
ENDBRANCH  16  25
ENDBRANCH   4   7
ENDBRANCH   2   3
ENDBRANCH   1   2
BRANCH   1  29
ATOM     29  C   UNL A   1      31.625  31.671  26.582  1.00  0.00     0.023 C 
BRANCH  29  30
ATOM     30  C   UNL A   1      32.809  32.513  27.038  1.00  0.00     0.116 C 
BRANCH  30  31
ATOM     31  N   UNL A   1      32.430  33.844  27.483  1.00  0.00    -0.352 N 
ATOM     32  C   UNL A   1      32.985  34.606  28.483  1.00  0.00     0.251 C 
ATOM     33  H   UNL A   1      31.674  34.255  27.003  1.00  0.00     0.163 HD
ATOM     34  O   UNL A   1      32.478  35.671  28.805  1.00  0.00    -0.269 OA
BRANCH  32  35
ATOM     35  C   UNL A   1      34.175  34.100  29.199  1.00  0.00     0.039 A 
ATOM     36  C   UNL A   1      33.985  33.199  30.249  1.00  0.00     0.014 A 
ATOM     37  C   UNL A   1      35.463  34.484  28.821  1.00  0.00     0.014 A 
ATOM     38  C   UNL A   1      35.093  32.633  30.878  1.00  0.00     0.010 A 
ATOM     39  C   UNL A   1      36.566  33.863  29.398  1.00  0.00     0.010 A 
ATOM     40  C   UNL A   1      36.391  32.932  30.431  1.00  0.00    -0.014 A 
BRANCH  40  41
ATOM     41  C   UNL A   1      37.570  32.258  31.029  1.00  0.00     0.031 A 
ATOM     42  C   UNL A   1      38.054  32.643  32.399  1.00  0.00     0.074 A 
ATOM     43  C   UNL A   1      38.231  31.330  30.312  1.00  0.00     0.049 A 
ATOM     44  N   UNL A   1      39.062  32.163  33.084  1.00  0.00    -0.248 NA
ATOM     45  C   UNL A   1      37.330  33.729  33.078  1.00  0.00     0.031 C 
ATOM     46  C   UNL A   1      37.897  30.924  28.946  1.00  0.00     0.029 A 
ATOM     47  N   UNL A   1      39.322  30.561  30.630  1.00  0.00    -0.354 N 
ATOM     48  C   UNL A   1      39.094  32.890  34.265  1.00  0.00     0.074 A 
ATOM     49  C   UNL A   1      38.046  33.883  34.181  1.00  0.00     0.031 C 
ATOM     50  C   UNL A   1      38.742  29.957  28.556  1.00  0.00     0.029 A 
ATOM     51  C   UNL A   1      39.694  29.696  29.630  1.00  0.00     0.049 A 
ATOM     52  H   UNL A   1      39.793  30.624  31.493  1.00  0.00     0.167 HD
ATOM     53  C   UNL A   1      39.908  32.725  35.336  1.00  0.00     0.037 A 
ATOM     54  C   UNL A   1      40.688  28.789  29.591  1.00  0.00     0.037 A 
ATOM     55  C   UNL A   1      40.937  31.722  35.421  1.00  0.00     0.049 A 
ATOM     56  C   UNL A   1      41.564  28.612  30.801  1.00  0.00     0.074 A 
ATOM     57  C   UNL A   1      41.777  31.434  36.482  1.00  0.00     0.029 A 
ATOM     58  N   UNL A   1      41.269  30.843  34.399  1.00  0.00    -0.354 N 
ATOM     59  N   UNL A   1      41.531  29.246  31.947  1.00  0.00    -0.248 NA
ATOM     60  C   UNL A   1      42.606  27.579  30.716  1.00  0.00     0.031 C 
ATOM     61  C   UNL A   1      42.646  30.411  36.088  1.00  0.00     0.029 A 
ATOM     62  C   UNL A   1      42.312  30.024  34.800  1.00  0.00     0.049 A 
ATOM     63  H   UNL A   1      40.827  30.807  33.521  1.00  0.00     0.167 HD
ATOM     64  C   UNL A   1      42.523  28.672  32.730  1.00  0.00     0.074 A 
ATOM     65  C   UNL A   1      43.129  27.625  31.933  1.00  0.00     0.031 C 
ATOM     66  C   UNL A   1      42.898  28.981  33.996  1.00  0.00     0.037 A 
BRANCH  53  67
ATOM     67  C   UNL A   1      39.712  33.647  36.504  1.00  0.00     0.064 A 
ATOM     68  C   UNL A   1      38.896  33.293  37.591  1.00  0.00     0.173 A 
ATOM     69  C   UNL A   1      40.373  34.883  36.558  1.00  0.00     0.173 A 
ATOM     70  F   UNL A   1      38.231  32.128  37.585  1.00  0.00    -0.203 F 
ATOM     71  C   UNL A   1      38.726  34.155  38.671  1.00  0.00     0.198 A 
ATOM     72  C   UNL A   1      40.226  35.729  37.655  1.00  0.00     0.198 A 
ATOM     73  F   UNL A   1      41.169  35.270  35.550  1.00  0.00    -0.203 F 
ATOM     74  F   UNL A   1      37.901  33.818  39.672  1.00  0.00    -0.200 F 
ATOM     75  C   UNL A   1      39.397  35.369  38.706  1.00  0.00     0.200 A 
ATOM     76  F   UNL A   1      40.885  36.896  37.693  1.00  0.00    -0.200 F 
ATOM     77  F   UNL A   1      39.237  36.194  39.750  1.00  0.00    -0.200 F 
ENDBRANCH  53  67
BRANCH  54  78
ATOM     78  C   UNL A   1      40.877  27.948  28.380  1.00  0.00     0.064 A 
ATOM     79  C   UNL A   1      40.259  26.693  28.273  1.00  0.00     0.173 A 
ATOM     80  C   UNL A   1      41.674  28.377  27.309  1.00  0.00     0.173 A 
ATOM     81  F   UNL A   1      39.500  26.232  29.279  1.00  0.00    -0.203 F 
ATOM     82  C   UNL A   1      40.449  25.890  27.150  1.00  0.00     0.198 A 
ATOM     83  C   UNL A   1      41.840  27.585  26.175  1.00  0.00     0.198 A 
ATOM     84  F   UNL A   1      42.279  29.572  27.360  1.00  0.00    -0.203 F 
ATOM     85  F   UNL A   1      39.885  24.677  27.094  1.00  0.00    -0.200 F 
ATOM     86  C   UNL A   1      41.236  26.340  26.100  1.00  0.00     0.200 A 
ATOM     87  F   UNL A   1      42.588  28.029  25.155  1.00  0.00    -0.200 F 
ATOM     88  F   UNL A   1      41.416  25.569  25.018  1.00  0.00    -0.200 F 
ENDBRANCH  54  78
BRANCH  66  89
ATOM     89  C   UNL A   1      43.988  28.152  34.609  1.00  0.00     0.064 A 
ATOM     90  C   UNL A   1      45.335  28.542  34.553  1.00  0.00     0.173 A 
ATOM     91  C   UNL A   1      43.677  26.960  35.281  1.00  0.00     0.173 A 
ATOM     92  F   UNL A   1      45.687  29.665  33.909  1.00  0.00    -0.203 F 
ATOM     93  C   UNL A   1      46.332  27.751  35.117  1.00  0.00     0.198 A 
ATOM     94  C   UNL A   1      44.674  26.189  35.872  1.00  0.00     0.198 A 
ATOM     95  F   UNL A   1      42.404  26.546  35.371  1.00  0.00    -0.203 F 
ATOM     96  F   UNL A   1      47.618  28.114  35.002  1.00  0.00    -0.200 F 
ATOM     97  C   UNL A   1      46.001  26.579  35.781  1.00  0.00     0.200 A 
ATOM     98  F   UNL A   1      44.349  25.064  36.526  1.00  0.00    -0.200 F 
ATOM     99  F   UNL A   1      46.962  25.821  36.325  1.00  0.00    -0.200 F 
ENDBRANCH  66  89
ENDBRANCH  40  41
ENDBRANCH  32  35
ENDBRANCH  30  31
ENDBRANCH  29  30
ENDBRANCH   1  29
TORSDOF 16
ENDMDL
MODEL 3
REMARK VINA RESULT:     -12.0      1.677      2.145
REMARK SMILES CCCc1cc(OC(F)(F)F)cc2c1O[C@@H](C(F)(F)F)C(C(=O)NCCCCNC(=O)c1ccc(-c3c4nc(c(-c5c(F)c(F)c(F)c(F)c5F)c5ccc([nH]5)c(-c5c(F)c(F)c(F)c(F)c5F)c5nc(c(-c6c(F)c(F)c(F)c(F)c6F)c6ccc3[nH]6)C=C5)C=C4)cc1)=C2
REMARK SMILES IDX 26 1 25 2 24 3 22 4 23 5 21 7 4 8 5 9 14 10 6 11 13 12 15 13
REMARK SMILES IDX 12 14 95 15 16 16 3 17 2 18 1 19 7 20 8 21 9 22 10 23 11 24
REMARK SMILES IDX 17 25 18 26 19 27 20 28 27 29 28 30 29 31 30 32 31 34 32 35
REMARK SMILES IDX 33 36 94 37 34 38 93 39 35 40 36 41 37 42 87 43 38 44 92 45
REMARK SMILES IDX 86 46 88 47 39 48 91 49 85 50 84 51 40 53 72 54 52 55 71 56
REMARK SMILES IDX 53 57 56 58 70 59 89 60 54 61 55 62 69 64 90 65 57 66 41 67
REMARK SMILES IDX 42 68 50 69 43 70 44 71 48 72 51 73 45 74 46 75 49 76 47 77
REMARK SMILES IDX 73 78 74 79 82 80 75 81 76 82 80 83 83 84 77 85 78 86 81 87
REMARK SMILES IDX 79 88 58 89 59 90 67 91 60 92 61 93 65 94 68 95 62 96 63 97
REMARK SMILES IDX 66 98 64 99
REMARK H PARENT 24 6 29 33 88 52 56 63
REMARK Flexibility Score: inf
ROOT
ATOM      1  C   UNL A   1      32.100  28.374  27.509  1.00  0.00     0.023 C 
ENDROOT
BRANCH   1   2
ATOM      2  C   UNL A   1      31.768  27.248  26.521  1.00  0.00     0.116 C 
BRANCH   2   3
ATOM      3  N   UNL A   1      32.140  27.639  25.173  1.00  0.00    -0.352 N 
ATOM      4  C   UNL A   1      32.780  26.980  24.169  1.00  0.00     0.251 C 
ATOM      5  O   UNL A   1      33.100  27.627  23.176  1.00  0.00    -0.270 OA
ATOM      6  H   UNL A   1      31.881  28.559  24.940  1.00  0.00     0.163 HD
BRANCH   4   7
ATOM      7  C   UNL A   1      33.052  25.517  24.200  1.00  0.00     0.067 C 
ATOM      8  C   UNL A   1      33.507  21.322  24.357  1.00  0.00    -0.002 A 
ATOM      9  C   UNL A   1      34.704  20.808  24.892  1.00  0.00     0.054 A 
ATOM     10  C   UNL A   1      33.349  22.720  24.302  1.00  0.00     0.131 A 
ATOM     11  C   UNL A   1      35.693  21.648  25.405  1.00  0.00     0.130 A 
ATOM     12  C   UNL A   1      34.357  23.563  24.760  1.00  0.00     0.021 A 
ATOM     13  O   UNL A   1      32.153  23.212  23.857  1.00  0.00    -0.475 OA
ATOM     14  C   UNL A   1      35.522  23.027  25.316  1.00  0.00     0.058 A 
ATOM     15  C   UNL A   1      34.166  25.002  24.739  1.00  0.00     0.025 C 
ATOM     16  C   UNL A   1      32.093  24.609  23.434  1.00  0.00     0.314 C 
BRANCH   8  17
ATOM     17  C   UNL A   1      32.383  20.429  23.862  1.00  0.00     0.039 C 
BRANCH  17  18
ATOM     18  C   UNL A   1      32.509  18.913  24.070  1.00  0.00     0.001 C 
ATOM     19  C   UNL A   1      32.407  18.107  22.779  1.00  0.00     0.004 C 
ENDBRANCH  17  18
ENDBRANCH   8  17
BRANCH  11  20
ATOM     20  O   UNL A   1      36.853  21.260  26.013  1.00  0.00    -0.406 OA
BRANCH  20  21
ATOM     21  C   UNL A   1      38.038  21.268  25.234  1.00  0.00     0.573 C 
ATOM     22  F   UNL A   1      38.868  22.265  25.604  1.00  0.00    -0.132 F 
ATOM     23  F   UNL A   1      38.680  20.085  25.330  1.00  0.00    -0.132 F 
ATOM     24  F   UNL A   1      37.702  21.461  23.939  1.00  0.00    -0.132 F 
ENDBRANCH  20  21
ENDBRANCH  11  20
BRANCH  16  25
ATOM     25  C   UNL A   1      30.601  25.017  23.429  1.00  0.00     0.429 C 
ATOM     26  F   UNL A   1      30.365  26.138  22.713  1.00  0.00    -0.167 F 
ATOM     27  F   UNL A   1      29.839  24.051  22.847  1.00  0.00    -0.167 F 
ATOM     28  F   UNL A   1      30.111  25.199  24.678  1.00  0.00    -0.167 F 
ENDBRANCH  16  25
ENDBRANCH   4   7
ENDBRANCH   2   3
ENDBRANCH   1   2
BRANCH   1  29
ATOM     29  C   UNL A   1      31.713  29.774  27.027  1.00  0.00     0.023 C 
BRANCH  29  30
ATOM     30  C   UNL A   1      32.871  30.607  26.496  1.00  0.00     0.116 C 
BRANCH  30  31
ATOM     31  N   UNL A   1      32.783  32.012  26.860  1.00  0.00    -0.352 N 
ATOM     32  C   UNL A   1      33.627  32.746  27.659  1.00  0.00     0.251 C 
ATOM     33  H   UNL A   1      32.017  32.502  26.483  1.00  0.00     0.163 HD
ATOM     34  O   UNL A   1      33.352  33.900  27.953  1.00  0.00    -0.269 OA
BRANCH  32  35
ATOM     35  C   UNL A   1      34.846  32.109  28.199  1.00  0.00     0.039 A 
ATOM     36  C   UNL A   1      36.020  32.862  28.255  1.00  0.00     0.014 A 
ATOM     37  C   UNL A   1      34.824  30.795  28.674  1.00  0.00     0.014 A 
ATOM     38  C   UNL A   1      37.158  32.317  28.848  1.00  0.00     0.010 A 
ATOM     39  C   UNL A   1      35.936  30.281  29.333  1.00  0.00     0.010 A 
ATOM     40  C   UNL A   1      37.113  31.037  29.426  1.00  0.00    -0.014 A 
BRANCH  40  41
ATOM     41  C   UNL A   1      38.290  30.490  30.146  1.00  0.00     0.031 A 
ATOM     42  C   UNL A   1      38.564  30.887  31.569  1.00  0.00     0.074 A 
ATOM     43  C   UNL A   1      39.138  29.672  29.494  1.00  0.00     0.049 A 
ATOM     44  N   UNL A   1      39.538  30.510  32.358  1.00  0.00    -0.248 NA
ATOM     45  C   UNL A   1      37.639  31.856  32.177  1.00  0.00     0.031 C 
ATOM     46  C   UNL A   1      39.014  29.272  28.091  1.00  0.00     0.029 A 
ATOM     47  N   UNL A   1      40.271  29.029  29.924  1.00  0.00    -0.354 N 
ATOM     48  C   UNL A   1      39.347  31.198  33.548  1.00  0.00     0.074 A 
ATOM     49  C   UNL A   1      38.201  32.060  33.359  1.00  0.00     0.031 C 
ATOM     50  C   UNL A   1      40.010  28.426  27.786  1.00  0.00     0.029 A 
ATOM     51  C   UNL A   1      40.858  28.247  28.959  1.00  0.00     0.049 A 
ATOM     52  H   UNL A   1      40.629  29.121  30.836  1.00  0.00     0.167 HD
ATOM     53  C   UNL A   1      40.047  31.098  34.703  1.00  0.00     0.037 A 
ATOM     54  C   UNL A   1      41.954  27.468  29.020  1.00  0.00     0.037 A 
ATOM     55  C   UNL A   1      41.176  30.223  34.891  1.00  0.00     0.049 A 
ATOM     56  C   UNL A   1      42.701  27.358  30.321  1.00  0.00     0.074 A 
ATOM     57  C   UNL A   1      41.918  30.005  36.037  1.00  0.00     0.029 A 
ATOM     58  N   UNL A   1      41.727  29.423  33.899  1.00  0.00    -0.354 N 
ATOM     59  N   UNL A   1      42.461  27.947  31.466  1.00  0.00    -0.248 NA
ATOM     60  C   UNL A   1      43.865  26.461  30.340  1.00  0.00     0.031 C 
ATOM     61  C   UNL A   1      42.946  29.107  35.729  1.00  0.00     0.029 A 
ATOM     62  C   UNL A   1      42.811  28.723  34.404  1.00  0.00     0.049 A 
ATOM     63  H   UNL A   1      41.396  29.362  32.975  1.00  0.00     0.167 HD
ATOM     64  C   UNL A   1      43.419  27.472  32.350  1.00  0.00     0.074 A 
ATOM     65  C   UNL A   1      44.236  26.531  31.611  1.00  0.00     0.031 C 
ATOM     66  C   UNL A   1      43.608  27.784  33.656  1.00  0.00     0.037 A 
BRANCH  53  67
ATOM     67  C   UNL A   1      39.608  31.952  35.857  1.00  0.00     0.064 A 
ATOM     68  C   UNL A   1      40.215  33.188  36.128  1.00  0.00     0.173 A 
ATOM     69  C   UNL A   1      38.546  31.550  36.681  1.00  0.00     0.173 A 
ATOM     70  F   UNL A   1      41.243  33.615  35.379  1.00  0.00    -0.203 F 
ATOM     71  C   UNL A   1      39.796  33.975  37.199  1.00  0.00     0.198 A 
ATOM     72  C   UNL A   1      38.108  32.353  37.731  1.00  0.00     0.198 A 
ATOM     73  F   UNL A   1      37.926  30.380  36.464  1.00  0.00    -0.203 F 
ATOM     74  F   UNL A   1      40.424  35.127  37.470  1.00  0.00    -0.200 F 
ATOM     75  C   UNL A   1      38.738  33.560  37.994  1.00  0.00     0.200 A 
ATOM     76  F   UNL A   1      37.078  31.957  38.491  1.00  0.00    -0.200 F 
ATOM     77  F   UNL A   1      38.331  34.321  39.020  1.00  0.00    -0.200 F 
ENDBRANCH  53  67
BRANCH  54  78
ATOM     78  C   UNL A   1      42.381  26.694  27.826  1.00  0.00     0.064 A 
ATOM     79  C   UNL A   1      43.322  27.218  26.927  1.00  0.00     0.173 A 
ATOM     80  C   UNL A   1      41.863  25.418  27.558  1.00  0.00     0.173 A 
ATOM     81  F   UNL A   1      43.833  28.441  27.131  1.00  0.00    -0.203 F 
ATOM     82  C   UNL A   1      43.710  26.506  25.794  1.00  0.00     0.198 A 
ATOM     83  C   UNL A   1      42.274  24.696  26.441  1.00  0.00     0.198 A 
ATOM     84  F   UNL A   1      40.967  24.869  28.392  1.00  0.00    -0.203 F 
ATOM     85  F   UNL A   1      44.574  27.050  24.928  1.00  0.00    -0.200 F 
ATOM     86  C   UNL A   1      43.189  25.243  25.555  1.00  0.00     0.200 A 
ATOM     87  F   UNL A   1      41.780  23.469  26.221  1.00  0.00    -0.200 F 
ATOM     88  F   UNL A   1      43.565  24.557  24.467  1.00  0.00    -0.200 F 
ENDBRANCH  54  78
BRANCH  66  89
ATOM     89  C   UNL A   1      44.714  27.072  34.378  1.00  0.00     0.064 A 
ATOM     90  C   UNL A   1      44.511  25.834  35.005  1.00  0.00     0.173 A 
ATOM     91  C   UNL A   1      46.002  27.628  34.424  1.00  0.00     0.173 A 
ATOM     92  F   UNL A   1      43.295  25.267  35.003  1.00  0.00    -0.203 F 
ATOM     93  C   UNL A   1      45.547  25.196  35.681  1.00  0.00     0.198 A 
ATOM     94  C   UNL A   1      47.044  26.971  35.073  1.00  0.00     0.198 A 
ATOM     95  F   UNL A   1      46.252  28.806  33.833  1.00  0.00    -0.203 F 
ATOM     96  F   UNL A   1      45.316  24.041  36.322  1.00  0.00    -0.200 F 
ATOM     97  C   UNL A   1      46.813  25.761  35.709  1.00  0.00     0.200 A 
ATOM     98  F   UNL A   1      48.270  27.513  35.086  1.00  0.00    -0.200 F 
ATOM     99  F   UNL A   1      47.810  25.144  36.358  1.00  0.00    -0.200 F 
ENDBRANCH  66  89
ENDBRANCH  40  41
ENDBRANCH  32  35
ENDBRANCH  30  31
ENDBRANCH  29  30
ENDBRANCH   1  29
TORSDOF 16
ENDMDL
