MODEL 1
REMARK VINA RESULT:     -12.5      0.000      0.000
REMARK SMILES CC(C)[NH2+][C@@]1(C(=O)NCCCCNC(=O)c2ccc(-c3c4nc(c(-c5c(F)c(F)c(F)c(F)c5F)c5ccc([nH]5)c(-c5c(F)c(F)c(F)c(F)c5F)c5nc(c(-c6c(F)c(F)c(F)c(F)c6F)c6ccc3[nH]6)C=C5)C=C4)cc2)CCC[C@H](SC2CCCCC2)C1
REMARK SMILES IDX 10 1 9 2 8 3 6 4 7 5 5 7 79 8 90 9 80 10 82 11 81 12 4 13
REMARK SMILES IDX 2 16 1 17 3 18 83 19 84 20 85 21 89 22 86 23 88 24 87 25
REMARK SMILES IDX 11 26 12 27 13 28 14 29 15 31 16 32 17 33 78 34 18 35 77 36
REMARK SMILES IDX 19 37 20 38 21 39 71 40 22 41 76 42 70 43 72 44 23 45 75 46
REMARK SMILES IDX 69 47 68 48 24 50 56 51 36 52 55 53 37 54 40 55 54 56 73 57
REMARK SMILES IDX 38 58 39 59 53 61 74 62 41 63 25 64 26 65 34 66 27 67 28 68
REMARK SMILES IDX 32 69 35 70 29 71 30 72 33 73 31 74 57 75 58 76 66 77 59 78
REMARK SMILES IDX 60 79 64 80 67 81 61 82 62 83 65 84 63 85 42 86 43 87 51 88
REMARK SMILES IDX 44 89 45 90 49 91 52 92 46 93 47 94 50 95 48 96
REMARK H PARENT 8 6 4 14 4 15 13 30 72 49 40 60
REMARK Flexibility Score: inf
ROOT
ATOM      1  C   UNL A   1      31.999  30.035  26.876  1.00  0.00     0.023 C 
ENDROOT
BRANCH   1   2
ATOM      2  C   UNL A   1      33.011  29.203  26.108  1.00  0.00     0.116 C 
BRANCH   2   3
ATOM      3  N   UNL A   1      33.117  29.703  24.755  1.00  0.00    -0.351 N 
ATOM      4  C   UNL A   1      32.726  29.029  23.627  1.00  0.00     0.281 C 
ATOM      5  O   UNL A   1      33.608  28.938  22.762  1.00  0.00    -0.268 OA
ATOM      6  H   UNL A   1      33.501  30.601  24.635  1.00  0.00     0.163 HD
BRANCH   4   7
ATOM      7  C   UNL A   1      31.233  28.577  23.347  1.00  0.00     0.176 C 
ATOM      8  C   UNL A   1      30.376  28.057  24.522  1.00  0.00     0.079 C 
ATOM      9  C   UNL A   1      31.217  27.506  22.199  1.00  0.00     0.093 C 
ATOM     10  C   UNL A   1      30.588  26.609  24.945  1.00  0.00     0.008 C 
ATOM     11  C   UNL A   1      31.471  26.008  22.595  1.00  0.00     0.053 C 
ATOM     12  C   UNL A   1      30.590  25.633  23.784  1.00  0.00     0.015 C 
BRANCH   7  13
ATOM     13  N   UNL A   1      30.438  29.771  22.830  1.00  0.00    -0.332 N 
ATOM     14  H   UNL A   1      30.929  30.607  23.147  1.00  0.00     0.347 HD
ATOM     15  H   UNL A   1      30.391  29.595  21.826  1.00  0.00     0.347 HD
BRANCH  13  16
ATOM     16  C   UNL A   1      29.028  29.949  23.197  1.00  0.00     0.176 C 
ATOM     17  C   UNL A   1      28.856  31.388  23.702  1.00  0.00     0.075 C 
ATOM     18  C   UNL A   1      28.083  29.764  22.002  1.00  0.00     0.075 C 
ENDBRANCH  13  16
ENDBRANCH   7  13
BRANCH  11  19
ATOM     19  S   UNL A   1      33.280  25.628  22.436  1.00  0.00    -0.155 SA
BRANCH  19  20
ATOM     20  C   UNL A   1      33.905  24.370  23.652  1.00  0.00     0.047 C 
ATOM     21  C   UNL A   1      34.969  23.333  23.304  1.00  0.00     0.014 C 
ATOM     22  C   UNL A   1      34.256  25.076  24.978  1.00  0.00     0.014 C 
ATOM     23  C   UNL A   1      35.145  22.327  24.450  1.00  0.00     0.001 C 
ATOM     24  C   UNL A   1      34.486  24.077  26.120  1.00  0.00     0.001 C 
ATOM     25  C   UNL A   1      35.516  23.015  25.756  1.00  0.00     0.000 C 
ENDBRANCH  19  20
ENDBRANCH  11  19
ENDBRANCH   4   7
ENDBRANCH   2   3
ENDBRANCH   1   2
BRANCH   1  26
ATOM     26  C   UNL A   1      31.945  31.502  26.499  1.00  0.00     0.023 C 
BRANCH  26  27
ATOM     27  C   UNL A   1      32.961  32.305  27.283  1.00  0.00     0.116 C 
BRANCH  27  28
ATOM     28  N   UNL A   1      32.528  33.675  27.566  1.00  0.00    -0.352 N 
ATOM     29  C   UNL A   1      33.027  34.572  28.481  1.00  0.00     0.251 C 
ATOM     30  H   UNL A   1      31.773  34.001  27.024  1.00  0.00     0.163 HD
ATOM     31  O   UNL A   1      32.528  35.668  28.644  1.00  0.00    -0.269 OA
BRANCH  29  32
ATOM     32  C   UNL A   1      34.182  34.145  29.281  1.00  0.00     0.039 A 
ATOM     33  C   UNL A   1      33.987  33.308  30.380  1.00  0.00     0.014 A 
ATOM     34  C   UNL A   1      35.459  34.509  28.855  1.00  0.00     0.014 A 
ATOM     35  C   UNL A   1      35.100  32.785  31.032  1.00  0.00     0.010 A 
ATOM     36  C   UNL A   1      36.550  33.885  29.416  1.00  0.00     0.010 A 
ATOM     37  C   UNL A   1      36.383  33.048  30.531  1.00  0.00    -0.014 A 
BRANCH  37  38
ATOM     38  C   UNL A   1      37.615  32.563  31.183  1.00  0.00     0.031 A 
ATOM     39  C   UNL A   1      38.362  31.445  30.511  1.00  0.00     0.074 A 
ATOM     40  C   UNL A   1      37.948  33.001  32.409  1.00  0.00     0.049 A 
ATOM     41  N   UNL A   1      39.274  30.647  30.996  1.00  0.00    -0.248 NA
ATOM     42  C   UNL A   1      37.962  31.132  29.126  1.00  0.00     0.031 C 
ATOM     43  C   UNL A   1      37.246  34.043  33.162  1.00  0.00     0.029 A 
ATOM     44  N   UNL A   1      38.944  32.592  33.254  1.00  0.00    -0.354 N 
ATOM     45  C   UNL A   1      39.502  29.703  30.002  1.00  0.00     0.074 A 
ATOM     46  C   UNL A   1      38.596  29.991  28.915  1.00  0.00     0.031 C 
ATOM     47  C   UNL A   1      37.838  34.193  34.358  1.00  0.00     0.029 A 
ATOM     48  C   UNL A   1      38.926  33.228  34.471  1.00  0.00     0.049 A 
ATOM     49  H   UNL A   1      39.609  31.907  33.013  1.00  0.00     0.167 HD
ATOM     50  C   UNL A   1      40.409  28.700  29.997  1.00  0.00     0.037 A 
ATOM     51  C   UNL A   1      39.696  33.029  35.555  1.00  0.00     0.037 A 
ATOM     52  C   UNL A   1      41.352  28.492  31.061  1.00  0.00     0.049 A 
ATOM     53  C   UNL A   1      40.756  31.961  35.492  1.00  0.00     0.074 A 
ATOM     54  C   UNL A   1      42.391  27.585  31.132  1.00  0.00     0.029 A 
ATOM     55  N   UNL A   1      41.374  29.228  32.239  1.00  0.00    -0.354 N 
ATOM     56  N   UNL A   1      41.013  31.108  34.528  1.00  0.00    -0.248 NA
ATOM     57  C   UNL A   1      41.637  31.832  36.659  1.00  0.00     0.031 C 
ATOM     58  C   UNL A   1      43.023  27.749  32.369  1.00  0.00     0.029 A 
ATOM     59  C   UNL A   1      42.406  28.790  33.048  1.00  0.00     0.049 A 
ATOM     60  H   UNL A   1      40.749  29.955  32.465  1.00  0.00     0.167 HD
ATOM     61  C   UNL A   1      42.100  30.360  34.958  1.00  0.00     0.074 A 
ATOM     62  C   UNL A   1      42.463  30.873  36.265  1.00  0.00     0.031 C 
ATOM     63  C   UNL A   1      42.742  29.340  34.337  1.00  0.00     0.037 A 
BRANCH  50  64
ATOM     64  C   UNL A   1      40.428  27.776  28.814  1.00  0.00     0.064 A 
ATOM     65  C   UNL A   1      41.206  28.041  27.675  1.00  0.00     0.173 A 
ATOM     66  C   UNL A   1      39.667  26.597  28.822  1.00  0.00     0.173 A 
ATOM     67  F   UNL A   1      41.941  29.162  27.606  1.00  0.00    -0.203 F 
ATOM     68  C   UNL A   1      41.193  27.183  26.579  1.00  0.00     0.198 A 
ATOM     69  C   UNL A   1      39.685  25.722  27.739  1.00  0.00     0.198 A 
ATOM     70  F   UNL A   1      38.903  26.292  29.882  1.00  0.00    -0.203 F 
ATOM     71  F   UNL A   1      41.895  27.492  25.480  1.00  0.00    -0.200 F 
ATOM     72  C   UNL A   1      40.440  26.020  26.614  1.00  0.00     0.200 A 
ATOM     73  F   UNL A   1      38.964  24.592  27.779  1.00  0.00    -0.200 F 
ATOM     74  F   UNL A   1      40.434  25.192  25.561  1.00  0.00    -0.200 F 
ENDBRANCH  50  64
BRANCH  51  75
ATOM     75  C   UNL A   1      39.514  33.872  36.765  1.00  0.00     0.064 A 
ATOM     76  C   UNL A   1      38.741  33.419  37.844  1.00  0.00     0.173 A 
ATOM     77  C   UNL A   1      40.113  35.135  36.881  1.00  0.00     0.173 A 
ATOM     78  F   UNL A   1      38.135  32.223  37.776  1.00  0.00    -0.203 F 
ATOM     79  C   UNL A   1      38.556  34.203  38.981  1.00  0.00     0.198 A 
ATOM     80  C   UNL A   1      39.951  35.906  38.031  1.00  0.00     0.198 A 
ATOM     81  F   UNL A   1      40.871  35.612  35.884  1.00  0.00    -0.203 F 
ATOM     82  F   UNL A   1      37.777  33.760  39.976  1.00  0.00    -0.200 F 
ATOM     83  C   UNL A   1      39.167  35.444  39.076  1.00  0.00     0.200 A 
ATOM     84  F   UNL A   1      40.556  37.099  38.126  1.00  0.00    -0.200 F 
ATOM     85  F   UNL A   1      38.993  36.195  40.172  1.00  0.00    -0.200 F 
ENDBRANCH  51  75
BRANCH  63  86
ATOM     86  C   UNL A   1      43.920  28.746  35.046  1.00  0.00     0.064 A 
ATOM     87  C   UNL A   1      45.222  29.214  34.825  1.00  0.00     0.173 A 
ATOM     88  C   UNL A   1      43.733  27.732  35.998  1.00  0.00     0.173 A 
ATOM     89  F   UNL A   1      45.450  30.173  33.915  1.00  0.00    -0.203 F 
ATOM     90  C   UNL A   1      46.301  28.671  35.516  1.00  0.00     0.198 A 
ATOM     91  C   UNL A   1      44.810  27.214  36.709  1.00  0.00     0.198 A 
ATOM     92  F   UNL A   1      42.503  27.260  36.250  1.00  0.00    -0.203 F 
ATOM     93  F   UNL A   1      47.544  29.101  35.258  1.00  0.00    -0.200 F 
ATOM     94  C   UNL A   1      46.093  27.678  36.462  1.00  0.00     0.200 A 
ATOM     95  F   UNL A   1      44.605  26.267  37.634  1.00  0.00    -0.200 F 
ATOM     96  F   UNL A   1      47.132  27.165  37.134  1.00  0.00    -0.200 F 
ENDBRANCH  63  86
ENDBRANCH  37  38
ENDBRANCH  29  32
ENDBRANCH  27  28
ENDBRANCH  26  27
ENDBRANCH   1  26
TORSDOF 15
ENDMDL
MODEL 2
REMARK VINA RESULT:     -12.3      5.869     11.251
REMARK SMILES CC(C)[NH2+][C@@]1(C(=O)NCCCCNC(=O)c2ccc(-c3c4nc(c(-c5c(F)c(F)c(F)c(F)c5F)c5ccc([nH]5)c(-c5c(F)c(F)c(F)c(F)c5F)c5nc(c(-c6c(F)c(F)c(F)c(F)c6F)c6ccc3[nH]6)C=C5)C=C4)cc2)CCC[C@H](SC2CCCCC2)C1
REMARK SMILES IDX 10 1 9 2 8 3 6 4 7 5 5 7 79 8 90 9 80 10 82 11 81 12 4 13
REMARK SMILES IDX 2 16 1 17 3 18 83 19 84 20 85 21 89 22 86 23 88 24 87 25
REMARK SMILES IDX 11 26 12 27 13 28 14 29 15 31 16 32 17 33 78 34 18 35 77 36
REMARK SMILES IDX 19 37 20 38 21 39 71 40 22 41 76 42 70 43 72 44 23 45 75 46
REMARK SMILES IDX 69 47 68 48 24 50 56 51 36 52 55 53 37 54 40 55 54 56 73 57
REMARK SMILES IDX 38 58 39 59 53 61 74 62 41 63 25 64 26 65 34 66 27 67 28 68
REMARK SMILES IDX 32 69 35 70 29 71 30 72 33 73 31 74 57 75 58 76 66 77 59 78
REMARK SMILES IDX 60 79 64 80 67 81 61 82 62 83 65 84 63 85 42 86 43 87 51 88
REMARK SMILES IDX 44 89 45 90 49 91 52 92 46 93 47 94 50 95 48 96
REMARK H PARENT 8 6 4 14 4 15 13 30 72 49 40 60
REMARK Flexibility Score: inf
ROOT
ATOM      1  C   UNL A   1      37.271  21.532  24.538  1.00  0.00     0.023 C 
ENDROOT
BRANCH   1   2
ATOM      2  C   UNL A   1      36.607  22.527  25.475  1.00  0.00     0.116 C 
BRANCH   2   3
ATOM      3  N   UNL A   1      35.875  21.810  26.496  1.00  0.00    -0.351 N 
ATOM      4  C   UNL A   1      34.510  21.754  26.602  1.00  0.00     0.281 C 
ATOM      5  O   UNL A   1      34.075  22.083  27.714  1.00  0.00    -0.268 OA
ATOM      6  H   UNL A   1      36.402  21.323  27.170  1.00  0.00     0.163 HD
BRANCH   4   7
ATOM      7  C   UNL A   1      33.567  21.136  25.489  1.00  0.00     0.176 C 
ATOM      8  C   UNL A   1      33.852  21.458  24.005  1.00  0.00     0.079 C 
ATOM      9  C   UNL A   1      32.073  21.500  25.806  1.00  0.00     0.093 C 
ATOM     10  C   UNL A   1      33.357  22.800  23.481  1.00  0.00     0.008 C 
ATOM     11  C   UNL A   1      31.541  22.893  25.314  1.00  0.00     0.053 C 
ATOM     12  C   UNL A   1      31.916  23.100  23.849  1.00  0.00     0.015 C 
BRANCH   7  13
ATOM     13  N   UNL A   1      33.659  19.615  25.544  1.00  0.00    -0.332 N 
ATOM     14  H   UNL A   1      34.504  19.393  26.071  1.00  0.00     0.347 HD
ATOM     15  H   UNL A   1      32.760  19.348  25.946  1.00  0.00     0.347 HD
BRANCH  13  16
ATOM     16  C   UNL A   1      33.714  18.820  24.311  1.00  0.00     0.176 C 
ATOM     17  C   UNL A   1      34.860  17.810  24.458  1.00  0.00     0.075 C 
ATOM     18  C   UNL A   1      32.426  18.023  24.068  1.00  0.00     0.075 C 
ENDBRANCH  13  16
ENDBRANCH   7  13
BRANCH  11  19
ATOM     19  S   UNL A   1      31.759  24.145  26.666  1.00  0.00    -0.155 SA
BRANCH  19  20
ATOM     20  C   UNL A   1      32.088  25.871  26.061  1.00  0.00     0.047 C 
ATOM     21  C   UNL A   1      31.651  27.118  26.823  1.00  0.00     0.014 C 
ATOM     22  C   UNL A   1      33.568  25.988  25.641  1.00  0.00     0.014 C 
ATOM     23  C   UNL A   1      31.903  28.382  25.991  1.00  0.00     0.001 C 
ATOM     24  C   UNL A   1      33.844  27.276  24.853  1.00  0.00     0.001 C 
ATOM     25  C   UNL A   1      33.367  28.518  25.595  1.00  0.00     0.000 C 
ENDBRANCH  19  20
ENDBRANCH  11  19
ENDBRANCH   4   7
ENDBRANCH   2   3
ENDBRANCH   1   2
BRANCH   1  26
ATOM     26  C   UNL A   1      37.831  20.290  25.201  1.00  0.00     0.023 C 
BRANCH  26  27
ATOM     27  C   UNL A   1      39.173  20.570  25.840  1.00  0.00     0.116 C 
BRANCH  27  28
ATOM     28  N   UNL A   1      40.069  19.411  25.846  1.00  0.00    -0.352 N 
ATOM     29  C   UNL A   1      41.428  19.366  26.055  1.00  0.00     0.251 C 
ATOM     30  H   UNL A   1      39.638  18.543  25.678  1.00  0.00     0.163 HD
ATOM     31  O   UNL A   1      42.054  18.326  25.978  1.00  0.00    -0.269 OA
BRANCH  29  32
ATOM     32  C   UNL A   1      42.106  20.632  26.354  1.00  0.00     0.039 A 
ATOM     33  C   UNL A   1      42.429  21.503  25.312  1.00  0.00     0.014 A 
ATOM     34  C   UNL A   1      42.319  20.977  27.687  1.00  0.00     0.014 A 
ATOM     35  C   UNL A   1      42.927  22.765  25.621  1.00  0.00     0.010 A 
ATOM     36  C   UNL A   1      42.682  22.269  27.992  1.00  0.00     0.010 A 
ATOM     37  C   UNL A   1      43.025  23.161  26.962  1.00  0.00    -0.014 A 
BRANCH  37  38
ATOM     38  C   UNL A   1      43.575  24.466  27.376  1.00  0.00     0.031 A 
ATOM     39  C   UNL A   1      42.615  25.481  27.929  1.00  0.00     0.074 A 
ATOM     40  C   UNL A   1      44.856  24.775  27.109  1.00  0.00     0.049 A 
ATOM     41  N   UNL A   1      42.765  26.769  28.083  1.00  0.00    -0.248 NA
ATOM     42  C   UNL A   1      41.270  24.987  28.276  1.00  0.00     0.031 C 
ATOM     43  C   UNL A   1      45.846  23.870  26.520  1.00  0.00     0.029 A 
ATOM     44  N   UNL A   1      45.532  25.955  27.264  1.00  0.00    -0.354 N 
ATOM     45  C   UNL A   1      41.519  27.240  28.477  1.00  0.00     0.074 A 
ATOM     46  C   UNL A   1      40.613  26.115  28.482  1.00  0.00     0.031 C 
ATOM     47  C   UNL A   1      47.005  24.529  26.368  1.00  0.00     0.029 A 
ATOM     48  C   UNL A   1      46.825  25.910  26.803  1.00  0.00     0.049 A 
ATOM     49  H   UNL A   1      45.131  26.758  27.666  1.00  0.00     0.167 HD
ATOM     50  C   UNL A   1      41.175  28.501  28.824  1.00  0.00     0.037 A 
ATOM     51  C   UNL A   1      47.744  26.889  26.726  1.00  0.00     0.037 A 
ATOM     52  C   UNL A   1      42.122  29.581  28.888  1.00  0.00     0.049 A 
ATOM     53  C   UNL A   1      47.361  28.266  27.201  1.00  0.00     0.074 A 
ATOM     54  C   UNL A   1      41.929  30.875  29.328  1.00  0.00     0.029 A 
ATOM     55  N   UNL A   1      43.455  29.473  28.513  1.00  0.00    -0.354 N 
ATOM     56  N   UNL A   1      46.198  28.699  27.630  1.00  0.00    -0.248 NA
ATOM     57  C   UNL A   1      48.414  29.288  27.187  1.00  0.00     0.031 C 
ATOM     58  C   UNL A   1      43.139  31.563  29.188  1.00  0.00     0.029 A 
ATOM     59  C   UNL A   1      44.096  30.682  28.705  1.00  0.00     0.049 A 
ATOM     60  H   UNL A   1      43.881  28.657  28.163  1.00  0.00     0.167 HD
ATOM     61  C   UNL A   1      46.385  30.032  27.965  1.00  0.00     0.074 A 
ATOM     62  C   UNL A   1      47.780  30.332  27.702  1.00  0.00     0.031 C 
ATOM     63  C   UNL A   1      45.491  30.933  28.443  1.00  0.00     0.037 A 
BRANCH  50  64
ATOM     64  C   UNL A   1      39.739  28.768  29.169  1.00  0.00     0.064 A 
ATOM     65  C   UNL A   1      39.240  28.590  30.470  1.00  0.00     0.173 A 
ATOM     66  C   UNL A   1      38.847  29.225  28.187  1.00  0.00     0.173 A 
ATOM     67  F   UNL A   1      40.044  28.139  31.445  1.00  0.00    -0.203 F 
ATOM     68  C   UNL A   1      37.900  28.821  30.765  1.00  0.00     0.198 A 
ATOM     69  C   UNL A   1      37.514  29.492  28.494  1.00  0.00     0.198 A 
ATOM     70  F   UNL A   1      39.266  29.413  26.927  1.00  0.00    -0.203 F 
ATOM     71  F   UNL A   1      37.436  28.582  31.999  1.00  0.00    -0.200 F 
ATOM     72  C   UNL A   1      37.039  29.280  29.780  1.00  0.00     0.200 A 
ATOM     73  F   UNL A   1      36.687  29.946  27.542  1.00  0.00    -0.200 F 
ATOM     74  F   UNL A   1      35.750  29.510  30.067  1.00  0.00    -0.200 F 
ENDBRANCH  50  64
BRANCH  51  75
ATOM     75  C   UNL A   1      49.107  26.595  26.214  1.00  0.00     0.064 A 
ATOM     76  C   UNL A   1      49.457  26.903  24.891  1.00  0.00     0.173 A 
ATOM     77  C   UNL A   1      50.092  26.018  27.029  1.00  0.00     0.173 A 
ATOM     78  F   UNL A   1      48.546  27.442  24.067  1.00  0.00    -0.203 F 
ATOM     79  C   UNL A   1      50.730  26.624  24.397  1.00  0.00     0.198 A 
ATOM     80  C   UNL A   1      51.374  25.768  26.542  1.00  0.00     0.198 A 
ATOM     81  F   UNL A   1      49.815  25.715  28.305  1.00  0.00    -0.203 F 
ATOM     82  F   UNL A   1      51.020  26.889  23.117  1.00  0.00    -0.200 F 
ATOM     83  C   UNL A   1      51.689  26.063  25.225  1.00  0.00     0.200 A 
ATOM     84  F   UNL A   1      52.304  25.239  27.350  1.00  0.00    -0.200 F 
ATOM     85  F   UNL A   1      52.915  25.801  24.751  1.00  0.00    -0.200 F 
ENDBRANCH  51  75
BRANCH  63  86
ATOM     86  C   UNL A   1      46.006  32.306  28.747  1.00  0.00     0.064 A 
ATOM     87  C   UNL A   1      46.549  32.626  29.999  1.00  0.00     0.173 A 
ATOM     88  C   UNL A   1      46.004  33.297  27.754  1.00  0.00     0.173 A 
ATOM     89  F   UNL A   1      46.562  31.714  30.983  1.00  0.00    -0.203 F 
ATOM     90  C   UNL A   1      47.052  33.898  30.253  1.00  0.00     0.198 A 
ATOM     91  C   UNL A   1      46.535  34.558  28.002  1.00  0.00     0.198 A 
ATOM     92  F   UNL A   1      45.503  33.034  26.538  1.00  0.00    -0.203 F 
ATOM     93  F   UNL A   1      47.526  34.198  31.471  1.00  0.00    -0.200 F 
ATOM     94  C   UNL A   1      47.051  34.860  29.253  1.00  0.00     0.200 A 
ATOM     95  F   UNL A   1      46.549  35.480  27.030  1.00  0.00    -0.200 F 
ATOM     96  F   UNL A   1      47.545  36.081  29.497  1.00  0.00    -0.200 F 
ENDBRANCH  63  86
ENDBRANCH  37  38
ENDBRANCH  29  32
ENDBRANCH  27  28
ENDBRANCH  26  27
ENDBRANCH   1  26
TORSDOF 15
ENDMDL
MODEL 3
REMARK VINA RESULT:     -12.3      0.327      2.025
REMARK SMILES CC(C)[NH2+][C@@]1(C(=O)NCCCCNC(=O)c2ccc(-c3c4nc(c(-c5c(F)c(F)c(F)c(F)c5F)c5ccc([nH]5)c(-c5c(F)c(F)c(F)c(F)c5F)c5nc(c(-c6c(F)c(F)c(F)c(F)c6F)c6ccc3[nH]6)C=C5)C=C4)cc2)CCC[C@H](SC2CCCCC2)C1
REMARK SMILES IDX 10 1 9 2 8 3 6 4 7 5 5 7 79 8 90 9 80 10 82 11 81 12 4 13
REMARK SMILES IDX 2 16 1 17 3 18 83 19 84 20 85 21 89 22 86 23 88 24 87 25
REMARK SMILES IDX 11 26 12 27 13 28 14 29 15 31 16 32 17 33 78 34 18 35 77 36
REMARK SMILES IDX 19 37 20 38 21 39 71 40 22 41 76 42 70 43 72 44 23 45 75 46
REMARK SMILES IDX 69 47 68 48 24 50 56 51 36 52 55 53 37 54 40 55 54 56 73 57
REMARK SMILES IDX 38 58 39 59 53 61 74 62 41 63 25 64 26 65 34 66 27 67 28 68
REMARK SMILES IDX 32 69 35 70 29 71 30 72 33 73 31 74 57 75 58 76 66 77 59 78
REMARK SMILES IDX 60 79 64 80 67 81 61 82 62 83 65 84 63 85 42 86 43 87 51 88
REMARK SMILES IDX 44 89 45 90 49 91 52 92 46 93 47 94 50 95 48 96
REMARK H PARENT 8 6 4 14 4 15 13 30 72 49 40 60
REMARK Flexibility Score: inf
ROOT
ATOM      1  C   UNL A   1      32.014  29.985  26.794  1.00  0.00     0.023 C 
ENDROOT
BRANCH   1   2
ATOM      2  C   UNL A   1      33.155  29.274  26.086  1.00  0.00     0.116 C 
BRANCH   2   3
ATOM      3  N   UNL A   1      33.248  29.752  24.724  1.00  0.00    -0.351 N 
ATOM      4  C   UNL A   1      32.835  29.065  23.612  1.00  0.00     0.281 C 
ATOM      5  O   UNL A   1      33.704  28.951  22.737  1.00  0.00    -0.268 OA
ATOM      6  H   UNL A   1      33.641  30.644  24.585  1.00  0.00     0.163 HD
BRANCH   4   7
ATOM      7  C   UNL A   1      31.334  28.626  23.358  1.00  0.00     0.176 C 
ATOM      8  C   UNL A   1      30.523  28.025  24.528  1.00  0.00     0.079 C 
ATOM      9  C   UNL A   1      31.277  27.633  22.143  1.00  0.00     0.093 C 
ATOM     10  C   UNL A   1      30.754  26.552  24.845  1.00  0.00     0.008 C 
ATOM     11  C   UNL A   1      31.549  26.113  22.429  1.00  0.00     0.053 C 
ATOM     12  C   UNL A   1      30.715  25.655  23.622  1.00  0.00     0.015 C 
BRANCH   7  13
ATOM     13  N   UNL A   1      30.517  29.847  22.953  1.00  0.00    -0.332 N 
ATOM     14  H   UNL A   1      30.988  30.658  23.354  1.00  0.00     0.347 HD
ATOM     15  H   UNL A   1      30.482  29.769  21.936  1.00  0.00     0.347 HD
BRANCH  13  16
ATOM     16  C   UNL A   1      29.100  29.959  23.321  1.00  0.00     0.176 C 
ATOM     17  C   UNL A   1      28.844  31.411  23.748  1.00  0.00     0.075 C 
ATOM     18  C   UNL A   1      28.163  29.651  22.147  1.00  0.00     0.075 C 
ENDBRANCH  13  16
ENDBRANCH   7  13
BRANCH  11  19
ATOM     19  S   UNL A   1      33.352  25.754  22.177  1.00  0.00    -0.155 SA
BRANCH  19  20
ATOM     20  C   UNL A   1      34.101  24.661  23.479  1.00  0.00     0.047 C 
ATOM     21  C   UNL A   1      34.180  25.053  24.951  1.00  0.00     0.014 C 
ATOM     22  C   UNL A   1      33.533  23.233  23.333  1.00  0.00     0.014 C 
ATOM     23  C   UNL A   1      35.007  24.032  25.744  1.00  0.00     0.001 C 
ATOM     24  C   UNL A   1      34.320  22.211  24.163  1.00  0.00     0.001 C 
ATOM     25  C   UNL A   1      34.437  22.625  25.625  1.00  0.00     0.000 C 
ENDBRANCH  19  20
ENDBRANCH  11  19
ENDBRANCH   4   7
ENDBRANCH   2   3
ENDBRANCH   1   2
BRANCH   1  26
ATOM     26  C   UNL A   1      31.907  31.472  26.520  1.00  0.00     0.023 C 
BRANCH  26  27
ATOM     27  C   UNL A   1      32.908  32.252  27.344  1.00  0.00     0.116 C 
BRANCH  27  28
ATOM     28  N   UNL A   1      32.502  33.638  27.594  1.00  0.00    -0.352 N 
ATOM     29  C   UNL A   1      33.037  34.554  28.469  1.00  0.00     0.251 C 
ATOM     30  H   UNL A   1      31.741  33.959  27.060  1.00  0.00     0.163 HD
ATOM     31  O   UNL A   1      32.559  35.663  28.609  1.00  0.00    -0.269 OA
BRANCH  29  32
ATOM     32  C   UNL A   1      34.204  34.134  29.255  1.00  0.00     0.039 A 
ATOM     33  C   UNL A   1      34.034  33.246  30.318  1.00  0.00     0.014 A 
ATOM     34  C   UNL A   1      35.468  34.557  28.849  1.00  0.00     0.014 A 
ATOM     35  C   UNL A   1      35.163  32.734  30.952  1.00  0.00     0.010 A 
ATOM     36  C   UNL A   1      36.579  33.948  29.388  1.00  0.00     0.010 A 
ATOM     37  C   UNL A   1      36.437  33.061  30.468  1.00  0.00    -0.014 A 
BRANCH  37  38
ATOM     38  C   UNL A   1      37.683  32.591  31.103  1.00  0.00     0.031 A 
ATOM     39  C   UNL A   1      38.448  31.499  30.409  1.00  0.00     0.074 A 
ATOM     40  C   UNL A   1      38.016  33.017  32.333  1.00  0.00     0.049 A 
ATOM     41  N   UNL A   1      39.379  30.712  30.876  1.00  0.00    -0.248 NA
ATOM     42  C   UNL A   1      38.045  31.199  29.022  1.00  0.00     0.031 C 
ATOM     43  C   UNL A   1      37.299  34.033  33.107  1.00  0.00     0.029 A 
ATOM     44  N   UNL A   1      39.027  32.615  33.165  1.00  0.00    -0.354 N 
ATOM     45  C   UNL A   1      39.620  29.788  29.866  1.00  0.00     0.074 A 
ATOM     46  C   UNL A   1      38.700  30.074  28.790  1.00  0.00     0.031 C 
ATOM     47  C   UNL A   1      37.896  34.177  34.301  1.00  0.00     0.029 A 
ATOM     48  C   UNL A   1      39.005  33.233  34.392  1.00  0.00     0.049 A 
ATOM     49  H   UNL A   1      39.703  31.948  32.910  1.00  0.00     0.167 HD
ATOM     50  C   UNL A   1      40.546  28.803  29.839  1.00  0.00     0.037 A 
ATOM     51  C   UNL A   1      39.786  33.033  35.468  1.00  0.00     0.037 A 
ATOM     52  C   UNL A   1      41.501  28.599  30.894  1.00  0.00     0.049 A 
ATOM     53  C   UNL A   1      40.867  31.988  35.381  1.00  0.00     0.074 A 
ATOM     54  C   UNL A   1      42.558  27.712  30.944  1.00  0.00     0.029 A 
ATOM     55  N   UNL A   1      41.517  29.317  32.082  1.00  0.00    -0.354 N 
ATOM     56  N   UNL A   1      41.134  31.154  34.402  1.00  0.00    -0.248 NA
ATOM     57  C   UNL A   1      41.759  31.859  36.539  1.00  0.00     0.031 C 
ATOM     58  C   UNL A   1      43.196  27.870  32.179  1.00  0.00     0.029 A 
ATOM     59  C   UNL A   1      42.563  28.888  32.878  1.00  0.00     0.049 A 
ATOM     60  H   UNL A   1      40.879  30.028  32.324  1.00  0.00     0.167 HD
ATOM     61  C   UNL A   1      42.239  30.423  34.813  1.00  0.00     0.074 A 
ATOM     62  C   UNL A   1      42.601  30.923  36.125  1.00  0.00     0.031 C 
ATOM     63  C   UNL A   1      42.897  29.425  34.172  1.00  0.00     0.037 A 
BRANCH  50  64
ATOM     64  C   UNL A   1      40.575  27.898  28.643  1.00  0.00     0.064 A 
ATOM     65  C   UNL A   1      39.871  26.683  28.611  1.00  0.00     0.173 A 
ATOM     66  C   UNL A   1      41.307  28.256  27.500  1.00  0.00     0.173 A 
ATOM     67  F   UNL A   1      39.168  26.282  29.681  1.00  0.00    -0.203 F 
ATOM     68  C   UNL A   1      39.929  25.846  27.500  1.00  0.00     0.198 A 
ATOM     69  C   UNL A   1      41.333  27.434  26.376  1.00  0.00     0.198 A 
ATOM     70  F   UNL A   1      42.000  29.404  27.473  1.00  0.00    -0.203 F 
ATOM     71  F   UNL A   1      39.300  24.663  27.521  1.00  0.00    -0.200 F 
ATOM     72  C   UNL A   1      40.653  26.225  26.380  1.00  0.00     0.200 A 
ATOM     73  F   UNL A   1      42.024  27.808  25.290  1.00  0.00    -0.200 F 
ATOM     74  F   UNL A   1      40.702  25.422  25.308  1.00  0.00    -0.200 F 
ENDBRANCH  50  64
BRANCH  51  75
ATOM     75  C   UNL A   1      39.596  33.854  36.692  1.00  0.00     0.064 A 
ATOM     76  C   UNL A   1      40.184  35.122  36.802  1.00  0.00     0.173 A 
ATOM     77  C   UNL A   1      38.816  33.404  37.767  1.00  0.00     0.173 A 
ATOM     78  F   UNL A   1      40.952  35.591  35.806  1.00  0.00    -0.203 F 
ATOM     79  C   UNL A   1      40.020  35.898  37.947  1.00  0.00     0.198 A 
ATOM     80  C   UNL A   1      38.628  34.194  38.901  1.00  0.00     0.198 A 
ATOM     81  F   UNL A   1      38.221  32.204  37.710  1.00  0.00    -0.203 F 
ATOM     82  F   UNL A   1      40.630  37.086  38.040  1.00  0.00    -0.200 F 
ATOM     83  C   UNL A   1      39.237  35.436  38.993  1.00  0.00     0.200 A 
ATOM     84  F   UNL A   1      37.857  33.750  39.904  1.00  0.00    -0.200 F 
ATOM     85  F   UNL A   1      39.074  36.185  40.092  1.00  0.00    -0.200 F 
ENDBRANCH  51  75
BRANCH  63  86
ATOM     86  C   UNL A   1      44.092  28.844  34.864  1.00  0.00     0.064 A 
ATOM     87  C   UNL A   1      43.983  27.726  35.702  1.00  0.00     0.173 A 
ATOM     88  C   UNL A   1      45.368  29.383  34.641  1.00  0.00     0.173 A 
ATOM     89  F   UNL A   1      42.782  27.185  35.954  1.00  0.00    -0.203 F 
ATOM     90  C   UNL A   1      45.109  27.181  36.311  1.00  0.00     0.198 A 
ATOM     91  C   UNL A   1      46.495  28.816  35.227  1.00  0.00     0.198 A 
ATOM     92  F   UNL A   1      45.522  30.447  33.839  1.00  0.00    -0.203 F 
ATOM     93  F   UNL A   1      44.978  26.139  37.145  1.00  0.00    -0.200 F 
ATOM     94  C   UNL A   1      46.363  27.721  36.067  1.00  0.00     0.200 A 
ATOM     95  F   UNL A   1      47.706  29.329  34.977  1.00  0.00    -0.200 F 
ATOM     96  F   UNL A   1      47.447  27.187  36.647  1.00  0.00    -0.200 F 
ENDBRANCH  63  86
ENDBRANCH  37  38
ENDBRANCH  29  32
ENDBRANCH  27  28
ENDBRANCH  26  27
ENDBRANCH   1  26
TORSDOF 15
ENDMDL
