MODEL 1
REMARK VINA RESULT:     -12.8      0.000      0.000
REMARK SMILES C[C@H]1CCC[C@@](NC(=O)N2CCO[C@H](C#N)C2)(C(=O)NCCCCNC(=O)c2ccc(-c3c4nc(c(-c5c(F)c(F)c(F)c(F)c5F)c5ccc([nH]5)c(-c5c(F)c(F)c(F)c(F)c5F)c5nc(c(-c6c(F)c(F)c(F)c(F)c6F)c6ccc3[nH]6)C=C5)C=C4)cc2)C1
REMARK SMILES IDX 22 1 21 2 20 3 18 4 19 5 6 7 1 8 2 9 3 10 91 11 4 12 5 13
REMARK SMILES IDX 7 14 8 15 9 17 10 18 11 19 17 20 12 21 14 22 13 23 15 24
REMARK SMILES IDX 16 25 23 26 24 27 25 28 26 29 27 31 28 32 29 33 90 34 30 35
REMARK SMILES IDX 89 36 31 37 32 38 33 39 83 40 34 41 88 42 82 43 84 44 35 45
REMARK SMILES IDX 87 46 81 47 80 48 36 50 68 51 48 52 67 53 49 54 52 55 66 56
REMARK SMILES IDX 85 57 50 58 51 59 65 61 86 62 53 63 37 64 38 65 46 66 39 67
REMARK SMILES IDX 40 68 44 69 47 70 41 71 42 72 45 73 43 74 69 75 70 76 78 77
REMARK SMILES IDX 71 78 72 79 76 80 79 81 73 82 74 83 77 84 75 85 54 86 55 87
REMARK SMILES IDX 63 88 56 89 57 90 61 91 64 92 58 93 59 94 62 95 60 96
REMARK H PARENT 20 6 7 16 25 30 84 49 52 60
REMARK Flexibility Score: inf
ROOT
ATOM      1  C   UNL A   1      32.107  30.588  26.766  1.00  0.00     0.023 C 
ENDROOT
BRANCH   1   2
ATOM      2  C   UNL A   1      31.736  30.008  25.409  1.00  0.00     0.116 C 
BRANCH   2   3
ATOM      3  N   UNL A   1      32.939  29.703  24.643  1.00  0.00    -0.354 N 
ATOM      4  C   UNL A   1      33.126  28.858  23.584  1.00  0.00     0.245 C 
ATOM      5  O   UNL A   1      34.253  28.838  23.081  1.00  0.00    -0.272 OA
ATOM      6  H   UNL A   1      33.747  30.182  24.937  1.00  0.00     0.163 HD
BRANCH   4   7
ATOM      7  C   UNL A   1      31.995  27.910  23.116  1.00  0.00     0.121 C 
ATOM      8  C   UNL A   1      29.440  25.740  25.202  1.00  0.00     0.008 C 
ATOM      9  C   UNL A   1      29.994  26.476  23.982  1.00  0.00    -0.011 C 
ATOM     10  C   UNL A   1      29.019  27.593  23.603  1.00  0.00     0.003 C 
ATOM     11  C   UNL A   1      31.424  27.013  24.250  1.00  0.00     0.042 C 
ATOM     12  C   UNL A   1      29.523  28.340  22.389  1.00  0.00     0.003 C 
ATOM     13  C   UNL A   1      30.883  28.929  22.690  1.00  0.00     0.039 C 
BRANCH   7  14
ATOM     14  N   UNL A   1      32.457  27.063  21.989  1.00  0.00    -0.323 N 
ATOM     15  C   UNL A   1      32.877  25.780  21.836  1.00  0.00     0.318 C 
ATOM     16  H   UNL A   1      32.458  27.556  21.136  1.00  0.00     0.166 HD
ATOM     17  O   UNL A   1      33.187  25.449  20.689  1.00  0.00    -0.249 OA
BRANCH  15  18
ATOM     18  N   UNL A   1      33.176  24.981  22.907  1.00  0.00    -0.319 N 
ATOM     19  C   UNL A   1      34.451  25.227  23.599  1.00  0.00     0.150 C 
ATOM     20  C   UNL A   1      32.662  23.619  23.159  1.00  0.00     0.169 C 
ATOM     21  C   UNL A   1      34.327  24.881  25.088  1.00  0.00     0.183 C 
ATOM     22  C   UNL A   1      32.605  23.313  24.675  1.00  0.00     0.240 C 
ATOM     23  O   UNL A   1      33.913  23.521  25.270  1.00  0.00    -0.360 OA
BRANCH  22  24
ATOM     24  C   UNL A   1      32.136  21.941  24.933  1.00  0.00     0.096 C 
ATOM     25  N   UNL A   1      31.775  20.852  25.107  1.00  0.00    -0.195 NA
ENDBRANCH  22  24
ENDBRANCH  15  18
ENDBRANCH   7  14
ENDBRANCH   4   7
ENDBRANCH   2   3
ENDBRANCH   1   2
BRANCH   1  26
ATOM     26  C   UNL A   1      31.732  32.062  26.883  1.00  0.00     0.023 C 
BRANCH  26  27
ATOM     27  C   UNL A   1      32.903  32.963  27.245  1.00  0.00     0.116 C 
BRANCH  27  28
ATOM     28  N   UNL A   1      32.490  34.283  27.679  1.00  0.00    -0.352 N 
ATOM     29  C   UNL A   1      33.019  35.043  28.692  1.00  0.00     0.251 C 
ATOM     30  H   UNL A   1      31.738  34.684  27.186  1.00  0.00     0.163 HD
ATOM     31  O   UNL A   1      32.501  36.103  29.020  1.00  0.00    -0.269 OA
BRANCH  29  32
ATOM     32  C   UNL A   1      34.202  34.535  29.414  1.00  0.00     0.039 A 
ATOM     33  C   UNL A   1      34.008  33.878  30.630  1.00  0.00     0.014 A 
ATOM     34  C   UNL A   1      35.481  34.651  28.861  1.00  0.00     0.014 A 
ATOM     35  C   UNL A   1      35.098  33.294  31.274  1.00  0.00     0.010 A 
ATOM     36  C   UNL A   1      36.548  33.991  29.460  1.00  0.00     0.010 A 
ATOM     37  C   UNL A   1      36.371  33.319  30.681  1.00  0.00    -0.014 A 
BRANCH  37  38
ATOM     38  C   UNL A   1      37.543  32.695  31.346  1.00  0.00     0.031 A 
ATOM     39  C   UNL A   1      38.259  31.561  30.667  1.00  0.00     0.074 A 
ATOM     40  C   UNL A   1      37.933  33.108  32.566  1.00  0.00     0.049 A 
ATOM     41  N   UNL A   1      39.235  30.812  31.110  1.00  0.00    -0.248 NA
ATOM     42  C   UNL A   1      37.796  31.206  29.315  1.00  0.00     0.031 C 
ATOM     43  C   UNL A   1      37.314  34.188  33.334  1.00  0.00     0.029 A 
ATOM     44  N   UNL A   1      38.941  32.656  33.384  1.00  0.00    -0.354 N 
ATOM     45  C   UNL A   1      39.492  29.893  30.101  1.00  0.00     0.074 A 
ATOM     46  C   UNL A   1      38.529  30.136  29.051  1.00  0.00     0.031 C 
ATOM     47  C   UNL A   1      37.964  34.326  34.502  1.00  0.00     0.029 A 
ATOM     48  C   UNL A   1      39.009  33.311  34.589  1.00  0.00     0.049 A 
ATOM     49  H   UNL A   1      39.556  31.931  33.129  1.00  0.00     0.167 HD
ATOM     50  C   UNL A   1      40.460  28.948  30.045  1.00  0.00     0.037 A 
ATOM     51  C   UNL A   1      39.809  33.100  35.653  1.00  0.00     0.037 A 
ATOM     52  C   UNL A   1      41.421  28.716  31.090  1.00  0.00     0.049 A 
ATOM     53  C   UNL A   1      40.839  32.002  35.590  1.00  0.00     0.074 A 
ATOM     54  C   UNL A   1      42.460  27.804  31.118  1.00  0.00     0.029 A 
ATOM     55  N   UNL A   1      41.453  29.398  32.299  1.00  0.00    -0.354 N 
ATOM     56  N   UNL A   1      41.104  31.167  34.615  1.00  0.00    -0.248 NA
ATOM     57  C   UNL A   1      41.688  31.818  36.777  1.00  0.00     0.031 C 
ATOM     58  C   UNL A   1      43.076  27.883  32.370  1.00  0.00     0.029 A 
ATOM     59  C   UNL A   1      42.479  28.906  33.089  1.00  0.00     0.049 A 
ATOM     60  H   UNL A   1      40.838  30.124  32.556  1.00  0.00     0.167 HD
ATOM     61  C   UNL A   1      42.174  30.395  35.048  1.00  0.00     0.074 A 
ATOM     62  C   UNL A   1      42.512  30.860  36.377  1.00  0.00     0.031 C 
ATOM     63  C   UNL A   1      42.823  29.397  34.400  1.00  0.00     0.037 A 
BRANCH  50  64
ATOM     64  C   UNL A   1      40.515  28.082  28.818  1.00  0.00     0.064 A 
ATOM     65  C   UNL A   1      41.275  28.438  27.693  1.00  0.00     0.173 A 
ATOM     66  C   UNL A   1      39.820  26.863  28.777  1.00  0.00     0.173 A 
ATOM     67  F   UNL A   1      41.952  29.597  27.674  1.00  0.00    -0.203 F 
ATOM     68  C   UNL A   1      41.304  27.629  26.561  1.00  0.00     0.198 A 
ATOM     69  C   UNL A   1      39.884  26.037  27.659  1.00  0.00     0.198 A 
ATOM     70  F   UNL A   1      39.083  26.468  29.827  1.00  0.00    -0.203 F 
ATOM     71  F   UNL A   1      41.984  28.023  25.476  1.00  0.00    -0.200 F 
ATOM     72  C   UNL A   1      40.616  26.425  26.548  1.00  0.00     0.200 A 
ATOM     73  F   UNL A   1      39.234  24.865  27.656  1.00  0.00    -0.200 F 
ATOM     74  F   UNL A   1      40.651  25.643  25.460  1.00  0.00    -0.200 F 
ENDBRANCH  50  64
BRANCH  51  75
ATOM     75  C   UNL A   1      39.671  33.944  36.870  1.00  0.00     0.064 A 
ATOM     76  C   UNL A   1      38.871  33.537  37.947  1.00  0.00     0.173 A 
ATOM     77  C   UNL A   1      40.317  35.186  36.975  1.00  0.00     0.173 A 
ATOM     78  F   UNL A   1      38.216  32.367  37.890  1.00  0.00    -0.203 F 
ATOM     79  C   UNL A   1      38.697  34.350  39.067  1.00  0.00     0.198 A 
ATOM     80  C   UNL A   1      40.172  35.981  38.110  1.00  0.00     0.198 A 
ATOM     81  F   UNL A   1      41.100  35.622  35.977  1.00  0.00    -0.203 F 
ATOM     82  F   UNL A   1      37.879  33.962  40.054  1.00  0.00    -0.200 F 
ATOM     83  C   UNL A   1      39.353  35.569  39.149  1.00  0.00     0.200 A 
ATOM     84  F   UNL A   1      40.825  37.149  38.193  1.00  0.00    -0.200 F 
ATOM     85  F   UNL A   1      39.188  36.349  40.226  1.00  0.00    -0.200 F 
ENDBRANCH  51  75
BRANCH  63  86
ATOM     86  C   UNL A   1      44.019  28.784  35.072  1.00  0.00     0.064 A 
ATOM     87  C   UNL A   1      45.311  29.310  34.929  1.00  0.00     0.173 A 
ATOM     88  C   UNL A   1      43.850  27.691  35.938  1.00  0.00     0.173 A 
ATOM     89  F   UNL A   1      45.531  30.345  34.104  1.00  0.00    -0.203 F 
ATOM     90  C   UNL A   1      46.391  28.754  35.611  1.00  0.00     0.198 A 
ATOM     91  C   UNL A   1      44.924  27.162  36.649  1.00  0.00     0.198 A 
ATOM     92  F   UNL A   1      42.634  27.154  36.119  1.00  0.00    -0.203 F 
ATOM     93  F   UNL A   1      47.624  29.245  35.425  1.00  0.00    -0.200 F 
ATOM     94  C   UNL A   1      46.193  27.690  36.480  1.00  0.00     0.200 A 
ATOM     95  F   UNL A   1      44.725  26.149  37.503  1.00  0.00    -0.200 F 
ATOM     96  F   UNL A   1      47.231  27.170  37.152  1.00  0.00    -0.200 F 
ENDBRANCH  63  86
ENDBRANCH  37  38
ENDBRANCH  29  32
ENDBRANCH  27  28
ENDBRANCH  26  27
ENDBRANCH   1  26
TORSDOF 14
ENDMDL
MODEL 2
REMARK VINA RESULT:     -12.8      0.101      1.578
REMARK SMILES C[C@H]1CCC[C@@](NC(=O)N2CCO[C@H](C#N)C2)(C(=O)NCCCCNC(=O)c2ccc(-c3c4nc(c(-c5c(F)c(F)c(F)c(F)c5F)c5ccc([nH]5)c(-c5c(F)c(F)c(F)c(F)c5F)c5nc(c(-c6c(F)c(F)c(F)c(F)c6F)c6ccc3[nH]6)C=C5)C=C4)cc2)C1
REMARK SMILES IDX 22 1 21 2 20 3 18 4 19 5 6 7 1 8 2 9 3 10 91 11 4 12 5 13
REMARK SMILES IDX 7 14 8 15 9 17 10 18 11 19 17 20 12 21 14 22 13 23 15 24
REMARK SMILES IDX 16 25 23 26 24 27 25 28 26 29 27 31 28 32 29 33 90 34 30 35
REMARK SMILES IDX 89 36 31 37 32 38 33 39 83 40 34 41 88 42 82 43 84 44 35 45
REMARK SMILES IDX 87 46 81 47 80 48 36 50 68 51 48 52 67 53 49 54 52 55 66 56
REMARK SMILES IDX 85 57 50 58 51 59 65 61 86 62 53 63 37 64 38 65 46 66 39 67
REMARK SMILES IDX 40 68 44 69 47 70 41 71 42 72 45 73 43 74 69 75 70 76 78 77
REMARK SMILES IDX 71 78 72 79 76 80 79 81 73 82 74 83 77 84 75 85 54 86 55 87
REMARK SMILES IDX 63 88 56 89 57 90 61 91 64 92 58 93 59 94 62 95 60 96
REMARK H PARENT 20 6 7 16 25 30 84 49 52 60
REMARK Flexibility Score: inf
ROOT
ATOM      1  C   UNL A   1      32.105  30.579  26.822  1.00  0.00     0.023 C 
ENDROOT
BRANCH   1   2
ATOM      2  C   UNL A   1      31.712  29.966  25.486  1.00  0.00     0.116 C 
BRANCH   2   3
ATOM      3  N   UNL A   1      32.897  29.719  24.674  1.00  0.00    -0.354 N 
ATOM      4  C   UNL A   1      33.069  28.926  23.574  1.00  0.00     0.245 C 
ATOM      5  O   UNL A   1      34.181  28.951  23.038  1.00  0.00    -0.272 OA
ATOM      6  H   UNL A   1      33.704  30.202  24.966  1.00  0.00     0.163 HD
BRANCH   4   7
ATOM      7  C   UNL A   1      31.943  27.977  23.096  1.00  0.00     0.121 C 
ATOM      8  C   UNL A   1      29.385  25.789  25.160  1.00  0.00     0.008 C 
ATOM      9  C   UNL A   1      29.943  26.533  23.947  1.00  0.00    -0.011 C 
ATOM     10  C   UNL A   1      28.966  27.648  23.567  1.00  0.00     0.003 C 
ATOM     11  C   UNL A   1      31.370  27.073  24.223  1.00  0.00     0.042 C 
ATOM     12  C   UNL A   1      29.474  28.402  22.360  1.00  0.00     0.003 C 
ATOM     13  C   UNL A   1      30.830  28.994  22.669  1.00  0.00     0.039 C 
BRANCH   7  14
ATOM     14  N   UNL A   1      32.413  27.136  21.967  1.00  0.00    -0.323 N 
ATOM     15  C   UNL A   1      32.844  25.857  21.812  1.00  0.00     0.318 C 
ATOM     16  H   UNL A   1      32.411  27.630  21.115  1.00  0.00     0.166 HD
ATOM     17  O   UNL A   1      33.158  25.531  20.665  1.00  0.00    -0.249 OA
BRANCH  15  18
ATOM     18  N   UNL A   1      33.150  25.058  22.882  1.00  0.00    -0.319 N 
ATOM     19  C   UNL A   1      34.435  25.295  23.557  1.00  0.00     0.150 C 
ATOM     20  C   UNL A   1      32.627  23.702  23.144  1.00  0.00     0.169 C 
ATOM     21  C   UNL A   1      34.327  24.954  25.048  1.00  0.00     0.183 C 
ATOM     22  C   UNL A   1      32.586  23.401  24.662  1.00  0.00     0.240 C 
ATOM     23  O   UNL A   1      33.903  23.598  25.240  1.00  0.00    -0.360 OA
BRANCH  22  24
ATOM     24  C   UNL A   1      32.107  22.033  24.929  1.00  0.00     0.096 C 
ATOM     25  N   UNL A   1      31.744  20.948  25.114  1.00  0.00    -0.195 NA
ENDBRANCH  22  24
ENDBRANCH  15  18
ENDBRANCH   7  14
ENDBRANCH   4   7
ENDBRANCH   2   3
ENDBRANCH   1   2
BRANCH   1  26
ATOM     26  C   UNL A   1      31.751  32.061  26.901  1.00  0.00     0.023 C 
BRANCH  26  27
ATOM     27  C   UNL A   1      32.927  32.951  27.274  1.00  0.00     0.116 C 
BRANCH  27  28
ATOM     28  N   UNL A   1      32.525  34.278  27.694  1.00  0.00    -0.352 N 
ATOM     29  C   UNL A   1      33.059  35.044  28.700  1.00  0.00     0.251 C 
ATOM     30  H   UNL A   1      31.776  34.680  27.197  1.00  0.00     0.163 HD
ATOM     31  O   UNL A   1      32.549  36.111  29.017  1.00  0.00    -0.269 OA
BRANCH  29  32
ATOM     32  C   UNL A   1      34.238  34.535  29.428  1.00  0.00     0.039 A 
ATOM     33  C   UNL A   1      34.036  33.867  30.637  1.00  0.00     0.014 A 
ATOM     34  C   UNL A   1      35.520  34.660  28.887  1.00  0.00     0.014 A 
ATOM     35  C   UNL A   1      35.122  33.281  31.285  1.00  0.00     0.010 A 
ATOM     36  C   UNL A   1      36.585  33.998  29.489  1.00  0.00     0.010 A 
ATOM     37  C   UNL A   1      36.400  33.316  30.703  1.00  0.00    -0.014 A 
BRANCH  37  38
ATOM     38  C   UNL A   1      37.568  32.691  31.373  1.00  0.00     0.031 A 
ATOM     39  C   UNL A   1      38.286  31.555  30.698  1.00  0.00     0.074 A 
ATOM     40  C   UNL A   1      37.955  33.105  32.595  1.00  0.00     0.049 A 
ATOM     41  N   UNL A   1      39.259  30.805  31.146  1.00  0.00    -0.248 NA
ATOM     42  C   UNL A   1      37.827  31.199  29.345  1.00  0.00     0.031 C 
ATOM     43  C   UNL A   1      37.335  34.186  33.359  1.00  0.00     0.029 A 
ATOM     44  N   UNL A   1      38.959  32.652  33.416  1.00  0.00    -0.354 N 
ATOM     45  C   UNL A   1      39.518  29.884  30.139  1.00  0.00     0.074 A 
ATOM     46  C   UNL A   1      38.559  30.127  29.084  1.00  0.00     0.031 C 
ATOM     47  C   UNL A   1      37.981  34.325  34.529  1.00  0.00     0.029 A 
ATOM     48  C   UNL A   1      39.024  33.308  34.621  1.00  0.00     0.049 A 
ATOM     49  H   UNL A   1      39.575  31.926  33.164  1.00  0.00     0.167 HD
ATOM     50  C   UNL A   1      40.484  28.938  30.087  1.00  0.00     0.037 A 
ATOM     51  C   UNL A   1      39.820  33.097  35.688  1.00  0.00     0.037 A 
ATOM     52  C   UNL A   1      41.441  28.706  31.136  1.00  0.00     0.049 A 
ATOM     53  C   UNL A   1      40.849  31.997  35.630  1.00  0.00     0.074 A 
ATOM     54  C   UNL A   1      42.478  27.792  31.169  1.00  0.00     0.029 A 
ATOM     55  N   UNL A   1      41.470  29.389  32.344  1.00  0.00    -0.354 N 
ATOM     56  N   UNL A   1      41.115  31.161  34.657  1.00  0.00    -0.248 NA
ATOM     57  C   UNL A   1      41.693  31.813  36.820  1.00  0.00     0.031 C 
ATOM     58  C   UNL A   1      43.090  27.871  32.423  1.00  0.00     0.029 A 
ATOM     59  C   UNL A   1      42.492  28.896  33.138  1.00  0.00     0.049 A 
ATOM     60  H   UNL A   1      40.856  30.116  32.599  1.00  0.00     0.167 HD
ATOM     61  C   UNL A   1      42.183  30.387  35.095  1.00  0.00     0.074 A 
ATOM     62  C   UNL A   1      42.517  30.853  36.424  1.00  0.00     0.031 C 
ATOM     63  C   UNL A   1      42.833  29.388  34.450  1.00  0.00     0.037 A 
BRANCH  50  64
ATOM     64  C   UNL A   1      40.542  28.070  28.861  1.00  0.00     0.064 A 
ATOM     65  C   UNL A   1      39.833  26.862  28.774  1.00  0.00     0.173 A 
ATOM     66  C   UNL A   1      41.296  28.466  27.746  1.00  0.00     0.173 A 
ATOM     67  F   UNL A   1      39.103  26.430  29.815  1.00  0.00    -0.203 F 
ATOM     68  C   UNL A   1      39.908  26.066  27.635  1.00  0.00     0.198 A 
ATOM     69  C   UNL A   1      41.337  27.687  26.593  1.00  0.00     0.198 A 
ATOM     70  F   UNL A   1      41.989  29.615  27.770  1.00  0.00    -0.203 F 
ATOM     71  F   UNL A   1      39.275  24.885  27.602  1.00  0.00    -0.200 F 
ATOM     72  C   UNL A   1      40.654  26.483  26.543  1.00  0.00     0.200 A 
ATOM     73  F   UNL A   1      42.042  28.102  25.532  1.00  0.00    -0.200 F 
ATOM     74  F   UNL A   1      40.720  25.718  25.443  1.00  0.00    -0.200 F 
ENDBRANCH  50  64
BRANCH  51  75
ATOM     75  C   UNL A   1      39.678  33.943  36.904  1.00  0.00     0.064 A 
ATOM     76  C   UNL A   1      38.868  33.542  37.975  1.00  0.00     0.173 A 
ATOM     77  C   UNL A   1      40.332  35.180  37.013  1.00  0.00     0.173 A 
ATOM     78  F   UNL A   1      38.206  32.376  37.914  1.00  0.00    -0.203 F 
ATOM     79  C   UNL A   1      38.692  34.356  39.093  1.00  0.00     0.198 A 
ATOM     80  C   UNL A   1      40.185  35.977  38.147  1.00  0.00     0.198 A 
ATOM     81  F   UNL A   1      41.125  35.610  36.021  1.00  0.00    -0.203 F 
ATOM     82  F   UNL A   1      37.864  33.974  40.075  1.00  0.00    -0.200 F 
ATOM     83  C   UNL A   1      39.355  35.570  39.179  1.00  0.00     0.200 A 
ATOM     84  F   UNL A   1      40.845  37.140  38.234  1.00  0.00    -0.200 F 
ATOM     85  F   UNL A   1      39.188  36.353  40.255  1.00  0.00    -0.200 F 
ENDBRANCH  51  75
BRANCH  63  86
ATOM     86  C   UNL A   1      44.026  28.774  35.127  1.00  0.00     0.064 A 
ATOM     87  C   UNL A   1      43.922  27.640  35.945  1.00  0.00     0.173 A 
ATOM     88  C   UNL A   1      45.309  29.291  34.884  1.00  0.00     0.173 A 
ATOM     89  F   UNL A   1      42.719  27.112  36.220  1.00  0.00    -0.203 F 
ATOM     90  C   UNL A   1      45.055  27.059  36.511  1.00  0.00     0.198 A 
ATOM     91  C   UNL A   1      46.442  28.685  35.420  1.00  0.00     0.198 A 
ATOM     92  F   UNL A   1      45.466  30.370  34.102  1.00  0.00    -0.203 F 
ATOM     93  F   UNL A   1      44.928  26.003  37.326  1.00  0.00    -0.200 F 
ATOM     94  C   UNL A   1      46.314  27.575  36.237  1.00  0.00     0.200 A 
ATOM     95  F   UNL A   1      47.657  29.174  35.135  1.00  0.00    -0.200 F 
ATOM     96  F   UNL A   1      47.404  27.001  36.765  1.00  0.00    -0.200 F 
ENDBRANCH  63  86
ENDBRANCH  37  38
ENDBRANCH  29  32
ENDBRANCH  27  28
ENDBRANCH  26  27
ENDBRANCH   1  26
TORSDOF 14
ENDMDL
MODEL 3
REMARK VINA RESULT:     -12.8      3.875      7.988
REMARK SMILES C[C@H]1CCC[C@@](NC(=O)N2CCO[C@H](C#N)C2)(C(=O)NCCCCNC(=O)c2ccc(-c3c4nc(c(-c5c(F)c(F)c(F)c(F)c5F)c5ccc([nH]5)c(-c5c(F)c(F)c(F)c(F)c5F)c5nc(c(-c6c(F)c(F)c(F)c(F)c6F)c6ccc3[nH]6)C=C5)C=C4)cc2)C1
REMARK SMILES IDX 22 1 21 2 20 3 18 4 19 5 6 7 1 8 2 9 3 10 91 11 4 12 5 13
REMARK SMILES IDX 7 14 8 15 9 17 10 18 11 19 17 20 12 21 14 22 13 23 15 24
REMARK SMILES IDX 16 25 23 26 24 27 25 28 26 29 27 31 28 32 29 33 90 34 30 35
REMARK SMILES IDX 89 36 31 37 32 38 33 39 83 40 34 41 88 42 82 43 84 44 35 45
REMARK SMILES IDX 87 46 81 47 80 48 36 50 68 51 48 52 67 53 49 54 52 55 66 56
REMARK SMILES IDX 85 57 50 58 51 59 65 61 86 62 53 63 37 64 38 65 46 66 39 67
REMARK SMILES IDX 40 68 44 69 47 70 41 71 42 72 45 73 43 74 69 75 70 76 78 77
REMARK SMILES IDX 71 78 72 79 76 80 79 81 73 82 74 83 77 84 75 85 54 86 55 87
REMARK SMILES IDX 63 88 56 89 57 90 61 91 64 92 58 93 59 94 62 95 60 96
REMARK H PARENT 20 6 7 16 25 30 84 49 52 60
REMARK Flexibility Score: inf
ROOT
ATOM      1  C   UNL A   1      34.588  23.908  26.036  1.00  0.00     0.023 C 
ENDROOT
BRANCH   1   2
ATOM      2  C   UNL A   1      33.901  25.103  25.392  1.00  0.00     0.116 C 
BRANCH   2   3
ATOM      3  N   UNL A   1      32.633  25.375  26.057  1.00  0.00    -0.354 N 
ATOM      4  C   UNL A   1      31.957  26.551  26.232  1.00  0.00     0.245 C 
ATOM      5  O   UNL A   1      30.857  26.484  26.788  1.00  0.00    -0.272 OA
ATOM      6  H   UNL A   1      32.191  24.584  26.442  1.00  0.00     0.163 HD
BRANCH   4   7
ATOM      7  C   UNL A   1      32.600  27.902  25.834  1.00  0.00     0.121 C 
ATOM      8  C   UNL A   1      31.403  31.606  26.501  1.00  0.00     0.008 C 
ATOM      9  C   UNL A   1      32.383  30.482  26.163  1.00  0.00    -0.011 C 
ATOM     10  C   UNL A   1      33.472  30.445  27.238  1.00  0.00     0.003 C 
ATOM     11  C   UNL A   1      31.654  29.121  26.020  1.00  0.00     0.042 C 
ATOM     12  C   UNL A   1      34.472  29.354  26.934  1.00  0.00     0.003 C 
ATOM     13  C   UNL A   1      33.762  28.020  26.879  1.00  0.00     0.039 C 
BRANCH   7  14
ATOM     14  N   UNL A   1      33.091  27.856  24.435  1.00  0.00    -0.323 N 
ATOM     15  C   UNL A   1      32.575  28.119  23.207  1.00  0.00     0.318 C 
ATOM     16  H   UNL A   1      34.029  27.560  24.385  1.00  0.00     0.166 HD
ATOM     17  O   UNL A   1      33.338  27.947  22.254  1.00  0.00    -0.249 OA
BRANCH  15  18
ATOM     18  N   UNL A   1      31.234  28.319  23.010  1.00  0.00    -0.319 N 
ATOM     19  C   UNL A   1      30.372  27.128  22.965  1.00  0.00     0.150 C 
ATOM     20  C   UNL A   1      30.606  29.484  22.352  1.00  0.00     0.169 C 
ATOM     21  C   UNL A   1      28.974  27.459  23.501  1.00  0.00     0.183 C 
ATOM     22  C   UNL A   1      29.182  29.737  22.903  1.00  0.00     0.240 C 
ATOM     23  O   UNL A   1      28.379  28.535  22.766  1.00  0.00    -0.360 OA
BRANCH  22  24
ATOM     24  C   UNL A   1      28.532  30.870  22.220  1.00  0.00     0.096 C 
ATOM     25  N   UNL A   1      28.027  31.748  21.657  1.00  0.00    -0.195 NA
ENDBRANCH  22  24
ENDBRANCH  15  18
ENDBRANCH   7  14
ENDBRANCH   4   7
ENDBRANCH   2   3
ENDBRANCH   1   2
BRANCH   1  26
ATOM     26  C   UNL A   1      35.498  23.171  25.056  1.00  0.00     0.023 C 
BRANCH  26  27
ATOM     27  C   UNL A   1      36.934  23.674  25.061  1.00  0.00     0.116 C 
BRANCH  27  28
ATOM     28  N   UNL A   1      37.888  22.661  25.466  1.00  0.00    -0.352 N 
ATOM     29  C   UNL A   1      39.032  22.826  26.207  1.00  0.00     0.251 C 
ATOM     30  H   UNL A   1      37.692  21.742  25.175  1.00  0.00     0.163 HD
ATOM     31  O   UNL A   1      39.805  21.894  26.387  1.00  0.00    -0.269 OA
BRANCH  29  32
ATOM     32  C   UNL A   1      39.338  24.166  26.747  1.00  0.00     0.039 A 
ATOM     33  C   UNL A   1      38.970  24.454  28.062  1.00  0.00     0.014 A 
ATOM     34  C   UNL A   1      40.039  25.101  25.981  1.00  0.00     0.014 A 
ATOM     35  C   UNL A   1      39.347  25.670  28.628  1.00  0.00     0.010 A 
ATOM     36  C   UNL A   1      40.490  26.274  26.576  1.00  0.00     0.010 A 
ATOM     37  C   UNL A   1      40.135  26.578  27.901  1.00  0.00    -0.014 A 
BRANCH  37  38
ATOM     38  C   UNL A   1      40.555  27.876  28.489  1.00  0.00     0.031 A 
ATOM     39  C   UNL A   1      41.988  28.072  28.897  1.00  0.00     0.074 A 
ATOM     40  C   UNL A   1      39.652  28.853  28.698  1.00  0.00     0.049 A 
ATOM     41  N   UNL A   1      42.544  29.081  29.516  1.00  0.00    -0.248 NA
ATOM     42  C   UNL A   1      42.916  26.971  28.588  1.00  0.00     0.031 C 
ATOM     43  C   UNL A   1      38.231  28.781  28.358  1.00  0.00     0.029 A 
ATOM     44  N   UNL A   1      39.795  30.098  29.262  1.00  0.00    -0.354 N 
ATOM     45  C   UNL A   1      43.878  28.731  29.682  1.00  0.00     0.074 A 
ATOM     46  C   UNL A   1      44.035  27.393  29.157  1.00  0.00     0.031 C 
ATOM     47  C   UNL A   1      37.637  29.935  28.704  1.00  0.00     0.029 A 
ATOM     48  C   UNL A   1      38.621  30.806  29.340  1.00  0.00     0.049 A 
ATOM     49  H   UNL A   1      40.658  30.448  29.579  1.00  0.00     0.167 HD
ATOM     50  C   UNL A   1      44.886  29.469  30.203  1.00  0.00     0.037 A 
ATOM     51  C   UNL A   1      38.364  32.012  29.883  1.00  0.00     0.037 A 
ATOM     52  C   UNL A   1      44.726  30.803  30.716  1.00  0.00     0.049 A 
ATOM     53  C   UNL A   1      39.492  32.790  30.511  1.00  0.00     0.074 A 
ATOM     54  C   UNL A   1      45.690  31.647  31.237  1.00  0.00     0.029 A 
ATOM     55  N   UNL A   1      43.519  31.485  30.781  1.00  0.00    -0.354 N 
ATOM     56  N   UNL A   1      40.759  32.469  30.624  1.00  0.00    -0.248 NA
ATOM     57  C   UNL A   1      39.157  34.101  31.085  1.00  0.00     0.031 C 
ATOM     58  C   UNL A   1      45.057  32.809  31.684  1.00  0.00     0.029 A 
ATOM     59  C   UNL A   1      43.712  32.728  31.360  1.00  0.00     0.049 A 
ATOM     60  H   UNL A   1      42.654  31.136  30.464  1.00  0.00     0.167 HD
ATOM     61  C   UNL A   1      41.377  33.553  31.235  1.00  0.00     0.074 A 
ATOM     62  C   UNL A   1      40.346  34.542  31.471  1.00  0.00     0.031 C 
ATOM     63  C   UNL A   1      42.682  33.716  31.564  1.00  0.00     0.037 A 
BRANCH  50  64
ATOM     64  C   UNL A   1      46.250  28.840  30.258  1.00  0.00     0.064 A 
ATOM     65  C   UNL A   1      47.157  28.942  29.192  1.00  0.00     0.173 A 
ATOM     66  C   UNL A   1      46.668  28.150  31.406  1.00  0.00     0.173 A 
ATOM     67  F   UNL A   1      46.807  29.582  28.065  1.00  0.00    -0.203 F 
ATOM     68  C   UNL A   1      48.412  28.342  29.256  1.00  0.00     0.198 A 
ATOM     69  C   UNL A   1      47.939  27.587  31.484  1.00  0.00     0.198 A 
ATOM     70  F   UNL A   1      45.846  28.027  32.459  1.00  0.00    -0.203 F 
ATOM     71  F   UNL A   1      49.234  28.397  28.199  1.00  0.00    -0.200 F 
ATOM     72  C   UNL A   1      48.805  27.672  30.405  1.00  0.00     0.200 A 
ATOM     73  F   UNL A   1      48.323  26.957  32.602  1.00  0.00    -0.200 F 
ATOM     74  F   UNL A   1      50.016  27.102  30.470  1.00  0.00    -0.200 F 
ENDBRANCH  50  64
BRANCH  51  75
ATOM     75  C   UNL A   1      36.982  32.563  29.860  1.00  0.00     0.064 A 
ATOM     76  C   UNL A   1      36.498  33.257  28.742  1.00  0.00     0.173 A 
ATOM     77  C   UNL A   1      36.123  32.426  30.961  1.00  0.00     0.173 A 
ATOM     78  F   UNL A   1      37.285  33.432  27.670  1.00  0.00    -0.203 F 
ATOM     79  C   UNL A   1      35.222  33.820  28.738  1.00  0.00     0.198 A 
ATOM     80  C   UNL A   1      34.834  32.957  30.942  1.00  0.00     0.198 A 
ATOM     81  F   UNL A   1      36.532  31.765  32.054  1.00  0.00    -0.203 F 
ATOM     82  F   UNL A   1      34.808  34.529  27.680  1.00  0.00    -0.200 F 
ATOM     83  C   UNL A   1      34.390  33.663  29.836  1.00  0.00     0.200 A 
ATOM     84  F   UNL A   1      34.027  32.785  31.998  1.00  0.00    -0.200 F 
ATOM     85  F   UNL A   1      33.162  34.202  29.831  1.00  0.00    -0.200 F 
ENDBRANCH  51  75
BRANCH  63  86
ATOM     86  C   UNL A   1      43.102  35.039  32.140  1.00  0.00     0.064 A 
ATOM     87  C   UNL A   1      43.583  36.086  31.340  1.00  0.00     0.173 A 
ATOM     88  C   UNL A   1      42.943  35.284  33.513  1.00  0.00     0.173 A 
ATOM     89  F   UNL A   1      43.765  35.902  30.024  1.00  0.00    -0.203 F 
ATOM     90  C   UNL A   1      43.909  37.321  31.898  1.00  0.00     0.198 A 
ATOM     91  C   UNL A   1      43.233  36.531  34.061  1.00  0.00     0.198 A 
ATOM     92  F   UNL A   1      42.478  34.320  34.323  1.00  0.00    -0.203 F 
ATOM     93  F   UNL A   1      44.409  38.292  31.122  1.00  0.00    -0.200 F 
ATOM     94  C   UNL A   1      43.721  37.545  33.254  1.00  0.00     0.200 A 
ATOM     95  F   UNL A   1      43.030  36.750  35.367  1.00  0.00    -0.200 F 
ATOM     96  F   UNL A   1      44.015  38.741  33.784  1.00  0.00    -0.200 F 
ENDBRANCH  63  86
ENDBRANCH  37  38
ENDBRANCH  29  32
ENDBRANCH  27  28
ENDBRANCH  26  27
ENDBRANCH   1  26
TORSDOF 14
ENDMDL
