MODEL 1
REMARK VINA RESULT:     -13.0      0.000      0.000
REMARK SMILES O=C(NCCCCNC(=O)c1cn(-c2ccnc3ccc(Cl)cc23)cn1)c1ccc(-c2c3nc(c(-c4c(F)c(F)c(F)c(F)c4F)c4ccc([nH]4)c(-c4c(F)c(F)c(F)c(F)c4F)c4nc(c(-c5c(F)c(F)c(F)c(F)c5F)c5ccc2[nH]5)C=C4)C=C3)cc1
REMARK SMILES IDX 5 1 4 2 3 3 1 4 2 5 27 7 28 8 89 9 29 10 88 11 30 12 31 13
REMARK SMILES IDX 32 14 82 15 33 16 87 17 81 18 83 19 34 20 86 21 80 22 79 23
REMARK SMILES IDX 35 25 67 26 47 27 66 28 48 29 51 30 65 31 84 32 49 33 50 34
REMARK SMILES IDX 64 36 85 37 52 38 36 39 37 40 45 41 38 42 39 43 43 44 46 45
REMARK SMILES IDX 40 46 41 47 44 48 42 49 68 50 69 51 77 52 70 53 71 54 75 55
REMARK SMILES IDX 78 56 72 57 73 58 76 59 74 60 53 61 54 62 62 63 55 64 56 65
REMARK SMILES IDX 60 66 63 67 57 68 58 69 61 70 59 71 6 72 7 73 8 74 9 75
REMARK SMILES IDX 10 77 11 78 12 79 26 80 13 81 25 82 14 83 15 84 24 85 16 86
REMARK SMILES IDX 18 87 23 88 17 89 19 90 21 91 20 92 22 93
REMARK H PARENT 3 6 83 24 51 35 8 76
REMARK Flexibility Score: inf
ROOT
ATOM      1  C   UNL A   1      35.168  34.587  28.769  1.00  0.00     0.023 C 
ENDROOT
BRANCH   1   2
ATOM      2  C   UNL A   1      34.570  33.333  29.403  1.00  0.00     0.116 C 
BRANCH   2   3
ATOM      3  N   UNL A   1      34.166  32.312  28.458  1.00  0.00    -0.352 N 
ATOM      4  O   UNL A   1      33.976  30.439  27.308  1.00  0.00    -0.269 OA
ATOM      5  C   UNL A   1      34.710  31.142  28.008  1.00  0.00     0.251 C 
ATOM      6  H   UNL A   1      33.295  32.508  28.042  1.00  0.00     0.163 HD
BRANCH   5   7
ATOM      7  C   UNL A   1      36.111  30.690  28.239  1.00  0.00     0.039 A 
ATOM      8  C   UNL A   1      37.155  31.468  28.739  1.00  0.00     0.014 A 
ATOM      9  C   UNL A   1      36.375  29.343  27.916  1.00  0.00     0.014 A 
ATOM     10  C   UNL A   1      38.441  30.933  28.851  1.00  0.00     0.010 A 
ATOM     11  C   UNL A   1      37.653  28.804  28.031  1.00  0.00     0.010 A 
ATOM     12  C   UNL A   1      38.695  29.608  28.479  1.00  0.00    -0.014 A 
BRANCH  12  13
ATOM     13  C   UNL A   1      40.014  29.040  28.766  1.00  0.00     0.031 A 
ATOM     14  C   UNL A   1      40.316  28.902  30.225  1.00  0.00     0.074 A 
ATOM     15  C   UNL A   1      40.841  28.522  27.834  1.00  0.00     0.049 A 
ATOM     16  N   UNL A   1      41.311  29.394  30.889  1.00  0.00    -0.248 NA
ATOM     17  C   UNL A   1      39.332  28.196  31.064  1.00  0.00     0.031 C 
ATOM     18  C   UNL A   1      40.567  28.305  26.413  1.00  0.00     0.029 A 
ATOM     19  N   UNL A   1      42.088  27.982  27.989  1.00  0.00    -0.354 N 
ATOM     20  C   UNL A   1      41.169  28.938  32.200  1.00  0.00     0.074 A 
ATOM     21  C   UNL A   1      39.876  28.311  32.276  1.00  0.00     0.031 C 
ATOM     22  C   UNL A   1      41.519  27.497  25.889  1.00  0.00     0.029 A 
ATOM     23  C   UNL A   1      42.534  27.240  26.899  1.00  0.00     0.049 A 
ATOM     24  H   UNL A   1      42.626  28.106  28.804  1.00  0.00     0.167 HD
ATOM     25  C   UNL A   1      42.215  28.938  33.072  1.00  0.00     0.037 A 
ATOM     26  C   UNL A   1      43.626  26.433  26.847  1.00  0.00     0.037 A 
ATOM     27  C   UNL A   1      43.240  29.854  32.653  1.00  0.00     0.049 A 
ATOM     28  C   UNL A   1      44.521  26.812  27.964  1.00  0.00     0.074 A 
ATOM     29  C   UNL A   1      43.304  31.220  32.451  1.00  0.00     0.029 A 
ATOM     30  N   UNL A   1      44.358  29.340  32.047  1.00  0.00    -0.354 N 
ATOM     31  N   UNL A   1      45.189  27.928  28.023  1.00  0.00    -0.248 NA
ATOM     32  C   UNL A   1      44.357  26.111  29.227  1.00  0.00     0.031 C 
ATOM     33  C   UNL A   1      44.166  31.387  31.329  1.00  0.00     0.029 A 
ATOM     34  C   UNL A   1      44.624  30.123  30.955  1.00  0.00     0.049 A 
ATOM     35  H   UNL A   1      44.872  28.554  32.340  1.00  0.00     0.167 HD
ATOM     36  C   UNL A   1      45.130  28.294  29.357  1.00  0.00     0.074 A 
ATOM     37  C   UNL A   1      44.697  27.092  30.065  1.00  0.00     0.031 C 
ATOM     38  C   UNL A   1      45.163  29.608  29.721  1.00  0.00     0.037 A 
BRANCH  25  39
ATOM     39  C   UNL A   1      42.475  27.857  34.097  1.00  0.00     0.064 A 
ATOM     40  C   UNL A   1      43.057  26.641  33.681  1.00  0.00     0.173 A 
ATOM     41  C   UNL A   1      41.892  27.839  35.383  1.00  0.00     0.173 A 
ATOM     42  F   UNL A   1      43.632  26.534  32.473  1.00  0.00    -0.203 F 
ATOM     43  C   UNL A   1      42.973  25.477  34.452  1.00  0.00     0.198 A 
ATOM     44  C   UNL A   1      41.857  26.689  36.171  1.00  0.00     0.198 A 
ATOM     45  F   UNL A   1      41.236  28.891  35.884  1.00  0.00    -0.203 F 
ATOM     46  F   UNL A   1      43.419  24.316  33.953  1.00  0.00    -0.200 F 
ATOM     47  C   UNL A   1      42.364  25.500  35.692  1.00  0.00     0.200 A 
ATOM     48  F   UNL A   1      41.246  26.726  37.363  1.00  0.00    -0.200 F 
ATOM     49  F   UNL A   1      42.219  24.373  36.400  1.00  0.00    -0.200 F 
ENDBRANCH  25  39
BRANCH  26  50
ATOM     50  C   UNL A   1      43.839  25.177  26.086  1.00  0.00     0.064 A 
ATOM     51  C   UNL A   1      44.990  24.985  25.300  1.00  0.00     0.173 A 
ATOM     52  C   UNL A   1      43.071  24.028  26.353  1.00  0.00     0.173 A 
ATOM     53  F   UNL A   1      45.805  26.017  25.034  1.00  0.00    -0.203 F 
ATOM     54  C   UNL A   1      45.366  23.719  24.840  1.00  0.00     0.198 A 
ATOM     55  C   UNL A   1      43.443  22.765  25.888  1.00  0.00     0.198 A 
ATOM     56  F   UNL A   1      42.000  24.090  27.157  1.00  0.00    -0.203 F 
ATOM     57  F   UNL A   1      46.507  23.566  24.153  1.00  0.00    -0.200 F 
ATOM     58  C   UNL A   1      44.598  22.608  25.145  1.00  0.00     0.200 A 
ATOM     59  F   UNL A   1      42.712  21.692  26.222  1.00  0.00    -0.200 F 
ATOM     60  F   UNL A   1      44.991  21.384  24.763  1.00  0.00    -0.200 F 
ENDBRANCH  26  50
BRANCH  38  61
ATOM     61  C   UNL A   1      45.568  30.615  28.683  1.00  0.00     0.064 A 
ATOM     62  C   UNL A   1      44.688  31.188  27.747  1.00  0.00     0.173 A 
ATOM     63  C   UNL A   1      46.876  31.117  28.731  1.00  0.00     0.173 A 
ATOM     64  F   UNL A   1      43.397  30.836  27.704  1.00  0.00    -0.203 F 
ATOM     65  C   UNL A   1      45.117  32.184  26.872  1.00  0.00     0.198 A 
ATOM     66  C   UNL A   1      47.289  32.140  27.884  1.00  0.00     0.198 A 
ATOM     67  F   UNL A   1      47.744  30.644  29.639  1.00  0.00    -0.203 F 
ATOM     68  F   UNL A   1      44.264  32.705  25.977  1.00  0.00    -0.200 F 
ATOM     69  C   UNL A   1      46.414  32.665  26.948  1.00  0.00     0.200 A 
ATOM     70  F   UNL A   1      48.528  32.636  27.995  1.00  0.00    -0.200 F 
ATOM     71  F   UNL A   1      46.813  33.654  26.135  1.00  0.00    -0.200 F 
ENDBRANCH  38  61
ENDBRANCH  12  13
ENDBRANCH   5   7
ENDBRANCH   2   3
ENDBRANCH   1   2
BRANCH   1  72
ATOM     72  C   UNL A   1      34.180  35.733  28.515  1.00  0.00     0.023 C 
BRANCH  72  73
ATOM     73  C   UNL A   1      32.911  35.728  29.372  1.00  0.00     0.116 C 
BRANCH  73  74
ATOM     74  N   UNL A   1      32.850  36.854  30.285  1.00  0.00    -0.351 N 
ATOM     75  C   UNL A   1      33.175  36.921  31.623  1.00  0.00     0.271 C 
ATOM     76  H   UNL A   1      32.528  37.697  29.890  1.00  0.00     0.163 HD
ATOM     77  O   UNL A   1      32.903  37.946  32.239  1.00  0.00    -0.267 OA
BRANCH  75  78
ATOM     78  C   UNL A   1      33.843  35.778  32.249  1.00  0.00     0.146 A 
ATOM     79  C   UNL A   1      35.149  35.715  32.698  1.00  0.00     0.127 A 
ATOM     80  N   UNL A   1      33.208  34.577  32.499  1.00  0.00    -0.231 NA
ATOM     81  N   UNL A   1      35.327  34.441  33.185  1.00  0.00    -0.305 N 
ATOM     82  C   UNL A   1      34.122  33.799  33.031  1.00  0.00     0.205 A 
BRANCH  81  83
ATOM     83  C   UNL A   1      36.535  33.870  33.652  1.00  0.00     0.057 A 
ATOM     84  C   UNL A   1      36.571  33.455  34.986  1.00  0.00     0.047 A 
ATOM     85  C   UNL A   1      37.658  33.679  32.802  1.00  0.00     0.026 A 
ATOM     86  C   UNL A   1      37.700  32.797  35.420  1.00  0.00     0.114 A 
ATOM     87  C   UNL A   1      38.762  33.006  33.375  1.00  0.00     0.072 A 
ATOM     88  C   UNL A   1      37.791  34.169  31.473  1.00  0.00     0.033 A 
ATOM     89  N   UNL A   1      38.774  32.561  34.640  1.00  0.00    -0.256 NA
ATOM     90  C   UNL A   1      39.906  32.804  32.614  1.00  0.00     0.030 A 
ATOM     91  C   UNL A   1      38.955  33.959  30.738  1.00  0.00     0.041 A 
ATOM     92  C   UNL A   1      40.016  33.271  31.303  1.00  0.00     0.023 A 
ATOM     93  Cl  UNL A   1      39.081  34.571  29.137  1.00  0.00    -0.084 Cl
ENDBRANCH  81  83
ENDBRANCH  75  78
ENDBRANCH  73  74
ENDBRANCH  72  73
ENDBRANCH   1  72
TORSDOF 12
ENDMDL
MODEL 2
REMARK VINA RESULT:     -12.6      4.124     11.705
REMARK SMILES O=C(NCCCCNC(=O)c1cn(-c2ccnc3ccc(Cl)cc23)cn1)c1ccc(-c2c3nc(c(-c4c(F)c(F)c(F)c(F)c4F)c4ccc([nH]4)c(-c4c(F)c(F)c(F)c(F)c4F)c4nc(c(-c5c(F)c(F)c(F)c(F)c5F)c5ccc2[nH]5)C=C4)C=C3)cc1
REMARK SMILES IDX 5 1 4 2 3 3 1 4 2 5 27 7 28 8 89 9 29 10 88 11 30 12 31 13
REMARK SMILES IDX 32 14 82 15 33 16 87 17 81 18 83 19 34 20 86 21 80 22 79 23
REMARK SMILES IDX 35 25 67 26 47 27 66 28 48 29 51 30 65 31 84 32 49 33 50 34
REMARK SMILES IDX 64 36 85 37 52 38 36 39 37 40 45 41 38 42 39 43 43 44 46 45
REMARK SMILES IDX 40 46 41 47 44 48 42 49 68 50 69 51 77 52 70 53 71 54 75 55
REMARK SMILES IDX 78 56 72 57 73 58 76 59 74 60 53 61 54 62 62 63 55 64 56 65
REMARK SMILES IDX 60 66 63 67 57 68 58 69 61 70 59 71 6 72 7 73 8 74 9 75
REMARK SMILES IDX 10 77 11 78 12 79 26 80 13 81 25 82 14 83 15 84 24 85 16 86
REMARK SMILES IDX 18 87 23 88 17 89 19 90 21 91 20 92 22 93
REMARK H PARENT 3 6 83 24 51 35 8 76
REMARK Flexibility Score: inf
ROOT
ATOM      1  C   UNL A   1      41.977  19.245  27.755  1.00  0.00     0.023 C 
ENDROOT
BRANCH   1   2
ATOM      2  C   UNL A   1      41.710  20.693  27.346  1.00  0.00     0.116 C 
BRANCH   2   3
ATOM      3  N   UNL A   1      40.405  20.925  26.763  1.00  0.00    -0.352 N 
ATOM      4  O   UNL A   1      38.635  21.840  25.814  1.00  0.00    -0.269 OA
ATOM      5  C   UNL A   1      39.654  22.033  26.483  1.00  0.00     0.251 C 
ATOM      6  H   UNL A   1      39.951  20.089  26.509  1.00  0.00     0.163 HD
BRANCH   5   7
ATOM      7  C   UNL A   1      39.931  23.414  26.967  1.00  0.00     0.039 A 
ATOM      8  C   UNL A   1      39.242  24.570  26.599  1.00  0.00     0.014 A 
ATOM      9  C   UNL A   1      40.995  23.533  27.885  1.00  0.00     0.014 A 
ATOM     10  C   UNL A   1      39.647  25.816  27.085  1.00  0.00     0.010 A 
ATOM     11  C   UNL A   1      41.398  24.771  28.377  1.00  0.00     0.010 A 
ATOM     12  C   UNL A   1      40.736  25.920  27.957  1.00  0.00    -0.014 A 
BRANCH  12  13
ATOM     13  C   UNL A   1      41.022  27.219  28.570  1.00  0.00     0.031 A 
ATOM     14  C   UNL A   1      42.266  27.876  28.060  1.00  0.00     0.074 A 
ATOM     15  C   UNL A   1      40.180  27.874  29.396  1.00  0.00     0.049 A 
ATOM     16  N   UNL A   1      43.296  28.274  28.733  1.00  0.00    -0.248 NA
ATOM     17  C   UNL A   1      42.413  28.027  26.603  1.00  0.00     0.031 C 
ATOM     18  C   UNL A   1      38.806  27.512  29.749  1.00  0.00     0.029 A 
ATOM     19  N   UNL A   1      40.350  29.075  30.029  1.00  0.00    -0.354 N 
ATOM     20  C   UNL A   1      44.161  28.864  27.810  1.00  0.00     0.074 A 
ATOM     21  C   UNL A   1      43.624  28.576  26.506  1.00  0.00     0.031 C 
ATOM     22  C   UNL A   1      38.204  28.565  30.349  1.00  0.00     0.029 A 
ATOM     23  C   UNL A   1      39.178  29.628  30.538  1.00  0.00     0.049 A 
ATOM     24  H   UNL A   1      41.227  29.513  30.116  1.00  0.00     0.167 HD
ATOM     25  C   UNL A   1      45.147  29.717  28.202  1.00  0.00     0.037 A 
ATOM     26  C   UNL A   1      39.009  30.885  31.027  1.00  0.00     0.037 A 
ATOM     27  C   UNL A   1      45.466  29.540  29.592  1.00  0.00     0.049 A 
ATOM     28  C   UNL A   1      40.348  31.423  31.362  1.00  0.00     0.074 A 
ATOM     29  C   UNL A   1      45.956  28.496  30.353  1.00  0.00     0.029 A 
ATOM     30  N   UNL A   1      44.971  30.449  30.490  1.00  0.00    -0.354 N 
ATOM     31  N   UNL A   1      41.083  30.999  32.349  1.00  0.00    -0.248 NA
ATOM     32  C   UNL A   1      41.050  32.173  30.333  1.00  0.00     0.031 C 
ATOM     33  C   UNL A   1      45.286  28.606  31.605  1.00  0.00     0.029 A 
ATOM     34  C   UNL A   1      44.478  29.743  31.554  1.00  0.00     0.049 A 
ATOM     35  H   UNL A   1      44.969  31.429  30.389  1.00  0.00     0.167 HD
ATOM     36  C   UNL A   1      42.375  31.025  31.851  1.00  0.00     0.074 A 
ATOM     37  C   UNL A   1      42.305  31.851  30.648  1.00  0.00     0.031 C 
ATOM     38  C   UNL A   1      43.313  30.145  32.303  1.00  0.00     0.037 A 
BRANCH  25  39
ATOM     39  C   UNL A   1      45.567  30.951  27.434  1.00  0.00     0.064 A 
ATOM     40  C   UNL A   1      46.940  31.191  27.217  1.00  0.00     0.173 A 
ATOM     41  C   UNL A   1      44.716  32.051  27.191  1.00  0.00     0.173 A 
ATOM     42  F   UNL A   1      47.847  30.224  27.427  1.00  0.00    -0.203 F 
ATOM     43  C   UNL A   1      47.428  32.458  26.880  1.00  0.00     0.198 A 
ATOM     44  C   UNL A   1      45.202  33.300  26.803  1.00  0.00     0.198 A 
ATOM     45  F   UNL A   1      43.400  32.001  27.424  1.00  0.00    -0.203 F 
ATOM     46  F   UNL A   1      48.750  32.668  26.821  1.00  0.00    -0.200 F 
ATOM     47  C   UNL A   1      46.558  33.514  26.683  1.00  0.00     0.200 A 
ATOM     48  F   UNL A   1      44.344  34.316  26.634  1.00  0.00    -0.200 F 
ATOM     49  F   UNL A   1      47.025  34.743  26.429  1.00  0.00    -0.200 F 
ENDBRANCH  25  39
BRANCH  26  50
ATOM     50  C   UNL A   1      37.818  31.769  30.972  1.00  0.00     0.064 A 
ATOM     51  C   UNL A   1      37.316  32.242  29.745  1.00  0.00     0.173 A 
ATOM     52  C   UNL A   1      36.975  31.920  32.088  1.00  0.00     0.173 A 
ATOM     53  F   UNL A   1      38.034  32.098  28.621  1.00  0.00    -0.203 F 
ATOM     54  C   UNL A   1      36.038  32.801  29.638  1.00  0.00     0.198 A 
ATOM     55  C   UNL A   1      35.701  32.483  31.981  1.00  0.00     0.198 A 
ATOM     56  F   UNL A   1      37.327  31.431  33.285  1.00  0.00    -0.203 F 
ATOM     57  F   UNL A   1      35.568  33.176  28.440  1.00  0.00    -0.200 F 
ATOM     58  C   UNL A   1      35.226  32.909  30.755  1.00  0.00     0.200 A 
ATOM     59  F   UNL A   1      34.911  32.547  33.062  1.00  0.00    -0.200 F 
ATOM     60  F   UNL A   1      33.977  33.380  30.643  1.00  0.00    -0.200 F 
ENDBRANCH  26  50
BRANCH  38  61
ATOM     61  C   UNL A   1      43.003  29.366  33.550  1.00  0.00     0.064 A 
ATOM     62  C   UNL A   1      42.184  28.224  33.589  1.00  0.00     0.173 A 
ATOM     63  C   UNL A   1      43.678  29.717  34.727  1.00  0.00     0.173 A 
ATOM     64  F   UNL A   1      41.584  27.763  32.484  1.00  0.00    -0.203 F 
ATOM     65  C   UNL A   1      42.015  27.499  34.767  1.00  0.00     0.198 A 
ATOM     66  C   UNL A   1      43.539  28.968  35.890  1.00  0.00     0.198 A 
ATOM     67  F   UNL A   1      44.515  30.767  34.735  1.00  0.00    -0.203 F 
ATOM     68  F   UNL A   1      41.215  26.422  34.785  1.00  0.00    -0.200 F 
ATOM     69  C   UNL A   1      42.700  27.867  35.914  1.00  0.00     0.200 A 
ATOM     70  F   UNL A   1      44.242  29.297  36.982  1.00  0.00    -0.200 F 
ATOM     71  F   UNL A   1      42.571  27.143  37.035  1.00  0.00    -0.200 F 
ENDBRANCH  38  61
ENDBRANCH  12  13
ENDBRANCH   5   7
ENDBRANCH   2   3
ENDBRANCH   1   2
BRANCH   1  72
ATOM     72  C   UNL A   1      42.739  18.400  26.726  1.00  0.00     0.023 C 
BRANCH  72  73
ATOM     73  C   UNL A   1      43.010  19.068  25.375  1.00  0.00     0.116 C 
BRANCH  73  74
ATOM     74  N   UNL A   1      44.192  18.541  24.719  1.00  0.00    -0.351 N 
ATOM     75  C   UNL A   1      45.216  19.208  24.081  1.00  0.00     0.271 C 
ATOM     76  H   UNL A   1      44.276  17.559  24.732  1.00  0.00     0.163 HD
ATOM     77  O   UNL A   1      46.045  18.549  23.463  1.00  0.00    -0.267 OA
BRANCH  75  78
ATOM     78  C   UNL A   1      45.281  20.667  24.179  1.00  0.00     0.146 A 
ATOM     79  C   UNL A   1      46.084  21.414  25.021  1.00  0.00     0.127 A 
ATOM     80  N   UNL A   1      44.530  21.512  23.386  1.00  0.00    -0.231 NA
ATOM     81  N   UNL A   1      45.783  22.733  24.771  1.00  0.00    -0.305 N 
ATOM     82  C   UNL A   1      44.832  22.727  23.780  1.00  0.00     0.205 A 
BRANCH  81  83
ATOM     83  C   UNL A   1      46.270  23.864  25.467  1.00  0.00     0.057 A 
ATOM     84  C   UNL A   1      47.146  24.708  24.779  1.00  0.00     0.047 A 
ATOM     85  C   UNL A   1      45.865  24.167  26.796  1.00  0.00     0.026 A 
ATOM     86  C   UNL A   1      47.538  25.871  25.405  1.00  0.00     0.114 A 
ATOM     87  C   UNL A   1      46.353  25.381  27.331  1.00  0.00     0.072 A 
ATOM     88  C   UNL A   1      45.087  23.328  27.641  1.00  0.00     0.033 A 
ATOM     89  N   UNL A   1      47.150  26.216  26.648  1.00  0.00    -0.256 NA
ATOM     90  C   UNL A   1      46.020  25.734  28.633  1.00  0.00     0.030 A 
ATOM     91  C   UNL A   1      44.777  23.705  28.946  1.00  0.00     0.041 A 
ATOM     92  C   UNL A   1      45.237  24.912  29.446  1.00  0.00     0.023 A 
ATOM     93  Cl  UNL A   1      43.840  22.663  29.940  1.00  0.00    -0.084 Cl
ENDBRANCH  81  83
ENDBRANCH  75  78
ENDBRANCH  73  74
ENDBRANCH  72  73
ENDBRANCH   1  72
TORSDOF 12
ENDMDL
MODEL 3
REMARK VINA RESULT:     -12.5      3.950      6.659
REMARK SMILES O=C(NCCCCNC(=O)c1cn(-c2ccnc3ccc(Cl)cc23)cn1)c1ccc(-c2c3nc(c(-c4c(F)c(F)c(F)c(F)c4F)c4ccc([nH]4)c(-c4c(F)c(F)c(F)c(F)c4F)c4nc(c(-c5c(F)c(F)c(F)c(F)c5F)c5ccc2[nH]5)C=C4)C=C3)cc1
REMARK SMILES IDX 5 1 4 2 3 3 1 4 2 5 27 7 28 8 89 9 29 10 88 11 30 12 31 13
REMARK SMILES IDX 32 14 82 15 33 16 87 17 81 18 83 19 34 20 86 21 80 22 79 23
REMARK SMILES IDX 35 25 67 26 47 27 66 28 48 29 51 30 65 31 84 32 49 33 50 34
REMARK SMILES IDX 64 36 85 37 52 38 36 39 37 40 45 41 38 42 39 43 43 44 46 45
REMARK SMILES IDX 40 46 41 47 44 48 42 49 68 50 69 51 77 52 70 53 71 54 75 55
REMARK SMILES IDX 78 56 72 57 73 58 76 59 74 60 53 61 54 62 62 63 55 64 56 65
REMARK SMILES IDX 60 66 63 67 57 68 58 69 61 70 59 71 6 72 7 73 8 74 9 75
REMARK SMILES IDX 10 77 11 78 12 79 26 80 13 81 25 82 14 83 15 84 24 85 16 86
REMARK SMILES IDX 18 87 23 88 17 89 19 90 21 91 20 92 22 93
REMARK H PARENT 3 6 83 24 51 35 8 76
REMARK Flexibility Score: inf
ROOT
ATOM      1  C   UNL A   1      32.498  29.887  27.038  1.00  0.00     0.023 C 
ENDROOT
BRANCH   1   2
ATOM      2  C   UNL A   1      33.758  30.738  27.187  1.00  0.00     0.116 C 
BRANCH   2   3
ATOM      3  N   UNL A   1      33.828  31.504  28.413  1.00  0.00    -0.352 N 
ATOM      4  O   UNL A   1      34.526  32.670  30.152  1.00  0.00    -0.269 OA
ATOM      5  C   UNL A   1      34.825  31.843  29.286  1.00  0.00     0.251 C 
ATOM      6  H   UNL A   1      32.953  31.865  28.682  1.00  0.00     0.163 HD
BRANCH   5   7
ATOM      7  C   UNL A   1      36.193  31.256  29.311  1.00  0.00     0.039 A 
ATOM      8  C   UNL A   1      37.390  31.961  29.441  1.00  0.00     0.014 A 
ATOM      9  C   UNL A   1      36.253  29.852  29.193  1.00  0.00     0.014 A 
ATOM     10  C   UNL A   1      38.613  31.288  29.388  1.00  0.00     0.010 A 
ATOM     11  C   UNL A   1      37.470  29.176  29.147  1.00  0.00     0.010 A 
ATOM     12  C   UNL A   1      38.655  29.899  29.222  1.00  0.00    -0.014 A 
BRANCH  12  13
ATOM     13  C   UNL A   1      39.946  29.217  29.338  1.00  0.00     0.031 A 
ATOM     14  C   UNL A   1      40.400  29.004  30.747  1.00  0.00     0.074 A 
ATOM     15  C   UNL A   1      40.614  28.668  28.302  1.00  0.00     0.049 A 
ATOM     16  N   UNL A   1      41.502  29.391  31.303  1.00  0.00    -0.248 NA
ATOM     17  C   UNL A   1      39.464  28.350  31.678  1.00  0.00     0.031 C 
ATOM     18  C   UNL A   1      40.162  28.524  26.918  1.00  0.00     0.029 A 
ATOM     19  N   UNL A   1      41.821  28.025  28.296  1.00  0.00    -0.354 N 
ATOM     20  C   UNL A   1      41.474  28.902  32.609  1.00  0.00     0.074 A 
ATOM     21  C   UNL A   1      40.151  28.378  32.820  1.00  0.00     0.031 C 
ATOM     22  C   UNL A   1      40.977  27.661  26.266  1.00  0.00     0.029 A 
ATOM     23  C   UNL A   1      42.076  27.289  27.143  1.00  0.00     0.049 A 
ATOM     24  H   UNL A   1      42.457  28.077  29.046  1.00  0.00     0.167 HD
ATOM     25  C   UNL A   1      42.609  28.788  33.352  1.00  0.00     0.037 A 
ATOM     26  C   UNL A   1      43.083  26.399  26.943  1.00  0.00     0.037 A 
ATOM     27  C   UNL A   1      43.653  29.633  32.840  1.00  0.00     0.049 A 
ATOM     28  C   UNL A   1      44.130  26.666  27.957  1.00  0.00     0.074 A 
ATOM     29  C   UNL A   1      43.807  30.995  32.667  1.00  0.00     0.029 A 
ATOM     30  N   UNL A   1      44.647  29.053  32.094  1.00  0.00    -0.354 N 
ATOM     31  N   UNL A   1      44.890  27.721  27.966  1.00  0.00    -0.248 NA
ATOM     32  C   UNL A   1      44.053  25.936  29.212  1.00  0.00     0.031 C 
ATOM     33  C   UNL A   1      44.546  31.132  31.457  1.00  0.00     0.029 A 
ATOM     34  C   UNL A   1      44.851  29.850  30.999  1.00  0.00     0.049 A 
ATOM     35  H   UNL A   1      45.124  28.218  32.305  1.00  0.00     0.167 HD
ATOM     36  C   UNL A   1      45.015  28.043  29.307  1.00  0.00     0.074 A 
ATOM     37  C   UNL A   1      44.568  26.856  30.029  1.00  0.00     0.031 C 
ATOM     38  C   UNL A   1      45.200  29.337  29.698  1.00  0.00     0.037 A 
BRANCH  25  39
ATOM     39  C   UNL A   1      42.894  27.654  34.312  1.00  0.00     0.064 A 
ATOM     40  C   UNL A   1      43.282  26.399  33.797  1.00  0.00     0.173 A 
ATOM     41  C   UNL A   1      42.496  27.655  35.667  1.00  0.00     0.173 A 
ATOM     42  F   UNL A   1      43.669  26.272  32.519  1.00  0.00    -0.203 F 
ATOM     43  C   UNL A   1      43.184  25.225  34.552  1.00  0.00     0.198 A 
ATOM     44  C   UNL A   1      42.449  26.489  36.432  1.00  0.00     0.198 A 
ATOM     45  F   UNL A   1      42.030  28.751  36.273  1.00  0.00    -0.203 F 
ATOM     46  F   UNL A   1      43.432  24.041  33.975  1.00  0.00    -0.200 F 
ATOM     47  C   UNL A   1      42.758  25.271  35.865  1.00  0.00     0.200 A 
ATOM     48  F   UNL A   1      42.017  26.551  37.699  1.00  0.00    -0.200 F 
ATOM     49  F   UNL A   1      42.595  24.142  36.568  1.00  0.00    -0.200 F 
ENDBRANCH  25  39
BRANCH  26  50
ATOM     50  C   UNL A   1      43.102  25.157  26.130  1.00  0.00     0.064 A 
ATOM     51  C   UNL A   1      44.139  24.899  25.214  1.00  0.00     0.173 A 
ATOM     52  C   UNL A   1      42.272  24.067  26.452  1.00  0.00     0.173 A 
ATOM     53  F   UNL A   1      45.005  25.869  24.885  1.00  0.00    -0.203 F 
ATOM     54  C   UNL A   1      44.351  23.623  24.681  1.00  0.00     0.198 A 
ATOM     55  C   UNL A   1      42.480  22.795  25.915  1.00  0.00     0.198 A 
ATOM     56  F   UNL A   1      41.306  24.189  27.373  1.00  0.00    -0.203 F 
ATOM     57  F   UNL A   1      45.392  23.401  23.866  1.00  0.00    -0.200 F 
ATOM     58  C   UNL A   1      43.529  22.569  25.042  1.00  0.00     0.200 A 
ATOM     59  F   UNL A   1      41.701  21.775  26.301  1.00  0.00    -0.200 F 
ATOM     60  F   UNL A   1      43.770  21.332  24.586  1.00  0.00    -0.200 F 
ENDBRANCH  26  50
BRANCH  38  61
ATOM     61  C   UNL A   1      45.566  30.344  28.645  1.00  0.00     0.064 A 
ATOM     62  C   UNL A   1      44.635  31.022  27.838  1.00  0.00     0.173 A 
ATOM     63  C   UNL A   1      46.909  30.735  28.550  1.00  0.00     0.173 A 
ATOM     64  F   UNL A   1      43.322  30.780  27.941  1.00  0.00    -0.203 F 
ATOM     65  C   UNL A   1      45.043  32.011  26.944  1.00  0.00     0.198 A 
ATOM     66  C   UNL A   1      47.306  31.750  27.687  1.00  0.00     0.198 A 
ATOM     67  F   UNL A   1      47.833  30.159  29.334  1.00  0.00    -0.203 F 
ATOM     68  F   UNL A   1      44.140  32.633  26.172  1.00  0.00    -0.200 F 
ATOM     69  C   UNL A   1      46.377  32.380  26.877  1.00  0.00     0.200 A 
ATOM     70  F   UNL A   1      48.589  32.138  27.662  1.00  0.00    -0.200 F 
ATOM     71  F   UNL A   1      46.762  33.362  26.049  1.00  0.00    -0.200 F 
ENDBRANCH  38  61
ENDBRANCH  12  13
ENDBRANCH   5   7
ENDBRANCH   2   3
ENDBRANCH   1   2
BRANCH   1  72
ATOM     72  C   UNL A   1      32.629  28.430  27.502  1.00  0.00     0.023 C 
BRANCH  72  73
ATOM     73  C   UNL A   1      32.703  27.376  26.395  1.00  0.00     0.116 C 
BRANCH  73  74
ATOM     74  N   UNL A   1      31.405  27.080  25.819  1.00  0.00    -0.351 N 
ATOM     75  C   UNL A   1      30.840  25.863  25.499  1.00  0.00     0.271 C 
ATOM     76  H   UNL A   1      30.842  27.865  25.627  1.00  0.00     0.163 HD
ATOM     77  O   UNL A   1      29.782  25.856  24.879  1.00  0.00    -0.267 OA
BRANCH  75  78
ATOM     78  C   UNL A   1      31.514  24.635  25.924  1.00  0.00     0.146 A 
ATOM     79  C   UNL A   1      32.362  23.843  25.172  1.00  0.00     0.127 A 
ATOM     80  N   UNL A   1      31.396  24.109  27.196  1.00  0.00    -0.231 NA
ATOM     81  N   UNL A   1      32.729  22.794  25.982  1.00  0.00    -0.305 N 
ATOM     82  C   UNL A   1      32.108  23.006  27.189  1.00  0.00     0.205 A 
BRANCH  81  83
ATOM     83  C   UNL A   1      33.501  21.666  25.617  1.00  0.00     0.057 A 
ATOM     84  C   UNL A   1      32.811  20.483  25.337  1.00  0.00     0.047 A 
ATOM     85  C   UNL A   1      34.916  21.726  25.494  1.00  0.00     0.026 A 
ATOM     86  C   UNL A   1      33.540  19.411  24.873  1.00  0.00     0.114 A 
ATOM     87  C   UNL A   1      35.548  20.551  25.024  1.00  0.00     0.072 A 
ATOM     88  C   UNL A   1      35.739  22.823  25.870  1.00  0.00     0.033 A 
ATOM     89  N   UNL A   1      34.877  19.435  24.705  1.00  0.00    -0.256 NA
ATOM     90  C   UNL A   1      36.931  20.525  24.901  1.00  0.00     0.030 A 
ATOM     91  C   UNL A   1      37.125  22.764  25.744  1.00  0.00     0.041 A 
ATOM     92  C   UNL A   1      37.727  21.617  25.254  1.00  0.00     0.023 A 
ATOM     93  Cl  UNL A   1      38.087  24.107  26.215  1.00  0.00    -0.084 Cl
ENDBRANCH  81  83
ENDBRANCH  75  78
ENDBRANCH  73  74
ENDBRANCH  72  73
ENDBRANCH   1  72
TORSDOF 12
ENDMDL
