MODEL 1
REMARK VINA RESULT:     -10.6      0.000      0.000
REMARK SMILES O=C(CCC(=O)/[NH+]=C1\S[C@H]2CS(=O)(=O)C[C@@H]2N1c1ccc2c(c1)OCO2)NCCCCNC(=O)c1ccc(-c2c3nc(c(-c4c(F)c(F)c(F)c(F)c4F)c4ccc([nH]4)c(-c4c(F)c(F)c(F)c(F)c4F)c4nc(c(-c5c(F)c(F)c(F)c(F)c5F)c5ccc2[nH]5)C=C4)C=C3)cc1
REMARK SMILES IDX 29 1 28 2 27 3 2 4 1 5 3 7 4 8 5 9 6 10 7 11 8 12 9 14 17 15
REMARK SMILES IDX 10 16 16 17 11 18 15 19 12 20 13 21 14 22 18 23 19 24 23 25
REMARK SMILES IDX 20 26 22 27 21 28 24 29 26 30 25 31 30 32 31 33 32 34 33 35
REMARK SMILES IDX 34 37 35 38 36 39 97 40 37 41 96 42 38 43 39 44 40 45 90 46
REMARK SMILES IDX 41 47 95 48 89 49 91 50 42 51 94 52 88 53 87 54 43 56 75 57
REMARK SMILES IDX 55 58 74 59 56 60 59 61 73 62 92 63 57 64 58 65 72 67 93 68
REMARK SMILES IDX 60 69 44 70 45 71 53 72 46 73 47 74 51 75 54 76 48 77 49 78
REMARK SMILES IDX 52 79 50 80 76 81 77 82 85 83 78 84 79 85 83 86 86 87 80 88
REMARK SMILES IDX 81 89 84 90 82 91 61 92 62 93 70 94 63 95 64 96 68 97 71 98
REMARK SMILES IDX 65 99 66 100 69 101 67 102
REMARK H PARENT 27 6 7 13 32 36 91 55 59 66
REMARK Flexibility Score: inf
ROOT
ATOM      1  C   UNL A   1      32.905  34.484  28.595  1.00  0.00     0.023 C 
ENDROOT
BRANCH   1   2
ATOM      2  C   UNL A   1      33.468  35.420  29.666  1.00  0.00     0.116 C 
BRANCH   2   3
ATOM      3  N   UNL A   1      33.145  35.029  31.027  1.00  0.00    -0.356 N 
ATOM      4  C   UNL A   1      33.836  34.262  31.909  1.00  0.00     0.220 C 
ATOM      5  O   UNL A   1      33.384  34.121  33.049  1.00  0.00    -0.275 OA
ATOM      6  H   UNL A   1      32.287  35.375  31.364  1.00  0.00     0.163 HD
BRANCH   4   7
ATOM      7  C   UNL A   1      35.126  33.602  31.500  1.00  0.00     0.112 C 
BRANCH   7   8
ATOM      8  C   UNL A   1      36.368  34.468  31.331  1.00  0.00     0.138 C 
BRANCH   8   9
ATOM      9  C   UNL A   1      37.789  33.913  31.316  1.00  0.00     0.308 C 
ATOM     10  O   UNL A   1      38.624  34.450  30.590  1.00  0.00    -0.247 OA
ATOM     11  N   UNL A   1      38.111  32.814  32.057  1.00  0.00    -0.204 N 
ATOM     12  C   UNL A   1      38.143  32.830  33.346  1.00  0.00     0.319 C 
ATOM     13  H   UNL A   1      38.327  31.976  31.589  1.00  0.00     0.316 HD
ATOM     14  S   UNL A   1      37.727  34.237  34.366  1.00  0.00    -0.029 SA
ATOM     15  N   UNL A   1      38.422  31.733  34.159  1.00  0.00    -0.216 N 
ATOM     16  C   UNL A   1      38.114  33.300  35.863  1.00  0.00     0.120 C 
ATOM     17  C   UNL A   1      37.816  31.846  35.474  1.00  0.00     0.212 C 
ATOM     18  C   UNL A   1      37.344  33.519  37.137  1.00  0.00     0.156 C 
ATOM     19  C   UNL A   1      38.318  31.035  36.643  1.00  0.00     0.188 C 
ATOM     20  S   UNL A   1      37.751  32.016  38.044  1.00  0.00     0.155 S 
ATOM     21  O   UNL A   1      38.896  32.290  38.891  1.00  0.00    -0.229 OA
ATOM     22  O   UNL A   1      36.531  31.437  38.552  1.00  0.00    -0.229 OA
BRANCH  15  23
ATOM     23  C   UNL A   1      39.237  30.666  33.790  1.00  0.00     0.132 A 
ATOM     24  C   UNL A   1      38.721  29.513  33.154  1.00  0.00     0.056 A 
ATOM     25  C   UNL A   1      40.621  30.748  34.027  1.00  0.00     0.102 A 
ATOM     26  C   UNL A   1      39.566  28.482  32.723  1.00  0.00     0.055 A 
ATOM     27  C   UNL A   1      41.430  29.728  33.585  1.00  0.00     0.170 A 
ATOM     28  C   UNL A   1      40.918  28.635  32.933  1.00  0.00     0.166 A 
ATOM     29  O   UNL A   1      42.784  29.685  33.695  1.00  0.00    -0.453 OA
ATOM     30  O   UNL A   1      41.895  27.795  32.513  1.00  0.00    -0.454 OA
ATOM     31  C   UNL A   1      43.074  28.551  32.858  1.00  0.00     0.468 C 
ENDBRANCH  15  23
ENDBRANCH   8   9
ENDBRANCH   7   8
ENDBRANCH   4   7
ENDBRANCH   2   3
ENDBRANCH   1   2
BRANCH   1  32
ATOM     32  C   UNL A   1      33.948  33.695  27.804  1.00  0.00     0.023 C 
BRANCH  32  33
ATOM     33  C   UNL A   1      34.594  32.544  28.558  1.00  0.00     0.116 C 
BRANCH  33  34
ATOM     34  N   UNL A   1      33.938  31.282  28.275  1.00  0.00    -0.352 N 
ATOM     35  C   UNL A   1      34.492  30.063  27.976  1.00  0.00     0.251 C 
ATOM     36  H   UNL A   1      32.954  31.303  28.300  1.00  0.00     0.163 HD
ATOM     37  O   UNL A   1      33.789  29.178  27.495  1.00  0.00    -0.269 OA
BRANCH  35  38
ATOM     38  C   UNL A   1      35.928  29.800  28.229  1.00  0.00     0.039 A 
ATOM     39  C   UNL A   1      36.316  29.345  29.493  1.00  0.00     0.014 A 
ATOM     40  C   UNL A   1      36.899  30.061  27.259  1.00  0.00     0.014 A 
ATOM     41  C   UNL A   1      37.667  29.122  29.772  1.00  0.00     0.010 A 
ATOM     42  C   UNL A   1      38.235  29.754  27.509  1.00  0.00     0.010 A 
ATOM     43  C   UNL A   1      38.639  29.300  28.775  1.00  0.00    -0.014 A 
BRANCH  43  44
ATOM     44  C   UNL A   1      40.080  29.040  29.036  1.00  0.00     0.031 A 
ATOM     45  C   UNL A   1      40.946  30.119  29.626  1.00  0.00     0.074 A 
ATOM     46  C   UNL A   1      40.634  27.867  28.674  1.00  0.00     0.049 A 
ATOM     47  N   UNL A   1      42.237  30.120  29.841  1.00  0.00    -0.248 NA
ATOM     48  C   UNL A   1      40.275  31.372  30.005  1.00  0.00     0.031 C 
ATOM     49  C   UNL A   1      39.908  26.748  28.081  1.00  0.00     0.029 A 
ATOM     50  N   UNL A   1      41.933  27.426  28.720  1.00  0.00    -0.354 N 
ATOM     51  C   UNL A   1      42.530  31.366  30.379  1.00  0.00     0.074 A 
ATOM     52  C   UNL A   1      41.297  32.124  30.384  1.00  0.00     0.031 C 
ATOM     53  C   UNL A   1      40.768  25.765  27.777  1.00  0.00     0.029 A 
ATOM     54  C   UNL A   1      42.111  26.184  28.156  1.00  0.00     0.049 A 
ATOM     55  H   UNL A   1      42.666  27.948  29.119  1.00  0.00     0.167 HD
ATOM     56  C   UNL A   1      43.711  31.823  30.860  1.00  0.00     0.037 A 
ATOM     57  C   UNL A   1      43.230  25.463  27.960  1.00  0.00     0.037 A 
ATOM     58  C   UNL A   1      44.929  31.055  30.867  1.00  0.00     0.049 A 
ATOM     59  C   UNL A   1      44.537  26.000  28.470  1.00  0.00     0.074 A 
ATOM     60  C   UNL A   1      46.162  31.396  31.392  1.00  0.00     0.029 A 
ATOM     61  N   UNL A   1      45.067  29.790  30.310  1.00  0.00    -0.354 N 
ATOM     62  N   UNL A   1      44.783  27.144  29.059  1.00  0.00    -0.248 NA
ATOM     63  C   UNL A   1      45.714  25.136  28.314  1.00  0.00     0.031 C 
ATOM     64  C   UNL A   1      47.061  30.365  31.103  1.00  0.00     0.029 A 
ATOM     65  C   UNL A   1      46.375  29.352  30.449  1.00  0.00     0.049 A 
ATOM     66  H   UNL A   1      44.344  29.280  29.880  1.00  0.00     0.167 HD
ATOM     67  C   UNL A   1      46.135  27.128  29.373  1.00  0.00     0.074 A 
ATOM     68  C   UNL A   1      46.652  25.853  28.919  1.00  0.00     0.031 C 
ATOM     69  C   UNL A   1      46.877  28.083  29.987  1.00  0.00     0.037 A 
BRANCH  56  70
ATOM     70  C   UNL A   1      43.735  33.217  31.420  1.00  0.00     0.064 A 
ATOM     71  C   UNL A   1      43.637  33.461  32.799  1.00  0.00     0.173 A 
ATOM     72  C   UNL A   1      43.874  34.325  30.570  1.00  0.00     0.173 A 
ATOM     73  F   UNL A   1      43.493  32.438  33.657  1.00  0.00    -0.203 F 
ATOM     74  C   UNL A   1      43.631  34.759  33.302  1.00  0.00     0.198 A 
ATOM     75  C   UNL A   1      43.904  35.622  31.080  1.00  0.00     0.198 A 
ATOM     76  F   UNL A   1      43.980  34.153  29.244  1.00  0.00    -0.203 F 
ATOM     77  F   UNL A   1      43.468  34.966  34.616  1.00  0.00    -0.200 F 
ATOM     78  C   UNL A   1      43.770  35.838  32.443  1.00  0.00     0.200 A 
ATOM     79  F   UNL A   1      44.052  36.663  30.249  1.00  0.00    -0.200 F 
ATOM     80  F   UNL A   1      43.765  37.088  32.927  1.00  0.00    -0.200 F 
ENDBRANCH  56  70
BRANCH  57  81
ATOM     81  C   UNL A   1      43.146  24.144  27.281  1.00  0.00     0.064 A 
ATOM     82  C   UNL A   1      42.754  22.994  27.978  1.00  0.00     0.173 A 
ATOM     83  C   UNL A   1      43.434  24.011  25.914  1.00  0.00     0.173 A 
ATOM     84  F   UNL A   1      42.482  23.068  29.290  1.00  0.00    -0.203 F 
ATOM     85  C   UNL A   1      42.670  21.758  27.341  1.00  0.00     0.198 A 
ATOM     86  C   UNL A   1      43.323  22.779  25.271  1.00  0.00     0.198 A 
ATOM     87  F   UNL A   1      43.803  25.083  25.197  1.00  0.00    -0.203 F 
ATOM     88  F   UNL A   1      42.327  20.668  28.042  1.00  0.00    -0.200 F 
ATOM     89  C   UNL A   1      42.947  21.653  25.986  1.00  0.00     0.200 A 
ATOM     90  F   UNL A   1      43.576  22.686  23.957  1.00  0.00    -0.200 F 
ATOM     91  F   UNL A   1      42.857  20.465  25.372  1.00  0.00    -0.200 F 
ENDBRANCH  57  81
BRANCH  69  92
ATOM     92  C   UNL A   1      48.327  27.777  30.222  1.00  0.00     0.064 A 
ATOM     93  C   UNL A   1      48.763  27.130  31.388  1.00  0.00     0.173 A 
ATOM     94  C   UNL A   1      49.287  28.097  29.249  1.00  0.00     0.173 A 
ATOM     95  F   UNL A   1      47.887  26.818  32.355  1.00  0.00    -0.203 F 
ATOM     96  C   UNL A   1      50.110  26.836  31.580  1.00  0.00     0.198 A 
ATOM     97  C   UNL A   1      50.627  27.772  29.432  1.00  0.00     0.198 A 
ATOM     98  F   UNL A   1      48.921  28.713  28.115  1.00  0.00    -0.203 F 
ATOM     99  F   UNL A   1      50.511  26.261  32.723  1.00  0.00    -0.200 F 
ATOM    100  C   UNL A   1      51.038  27.149  30.600  1.00  0.00     0.200 A 
ATOM    101  F   UNL A   1      51.521  28.062  28.476  1.00  0.00    -0.200 F 
ATOM    102  F   UNL A   1      52.333  26.855  30.783  1.00  0.00    -0.200 F 
ENDBRANCH  69  92
ENDBRANCH  43  44
ENDBRANCH  35  38
ENDBRANCH  33  34
ENDBRANCH  32  33
ENDBRANCH   1  32
TORSDOF 14
ENDMDL
MODEL 2
REMARK VINA RESULT:     -10.3      4.798     10.351
REMARK SMILES O=C(CCC(=O)/[NH+]=C1\S[C@H]2CS(=O)(=O)C[C@@H]2N1c1ccc2c(c1)OCO2)NCCCCNC(=O)c1ccc(-c2c3nc(c(-c4c(F)c(F)c(F)c(F)c4F)c4ccc([nH]4)c(-c4c(F)c(F)c(F)c(F)c4F)c4nc(c(-c5c(F)c(F)c(F)c(F)c5F)c5ccc2[nH]5)C=C4)C=C3)cc1
REMARK SMILES IDX 29 1 28 2 27 3 2 4 1 5 3 7 4 8 5 9 6 10 7 11 8 12 9 14 17 15
REMARK SMILES IDX 10 16 16 17 11 18 15 19 12 20 13 21 14 22 18 23 19 24 23 25
REMARK SMILES IDX 20 26 22 27 21 28 24 29 26 30 25 31 30 32 31 33 32 34 33 35
REMARK SMILES IDX 34 37 35 38 36 39 97 40 37 41 96 42 38 43 39 44 40 45 90 46
REMARK SMILES IDX 41 47 95 48 89 49 91 50 42 51 94 52 88 53 87 54 43 56 75 57
REMARK SMILES IDX 55 58 74 59 56 60 59 61 73 62 92 63 57 64 58 65 72 67 93 68
REMARK SMILES IDX 60 69 44 70 45 71 53 72 46 73 47 74 51 75 54 76 48 77 49 78
REMARK SMILES IDX 52 79 50 80 76 81 77 82 85 83 78 84 79 85 83 86 86 87 80 88
REMARK SMILES IDX 81 89 84 90 82 91 61 92 62 93 70 94 63 95 64 96 68 97 71 98
REMARK SMILES IDX 65 99 66 100 69 101 67 102
REMARK H PARENT 27 6 7 13 32 36 91 55 59 66
REMARK Flexibility Score: inf
ROOT
ATOM      1  C   UNL A   1      33.949  23.445  26.469  1.00  0.00     0.023 C 
ENDROOT
BRANCH   1   2
ATOM      2  C   UNL A   1      32.606  23.020  27.062  1.00  0.00     0.116 C 
BRANCH   2   3
ATOM      3  N   UNL A   1      31.615  24.080  27.112  1.00  0.00    -0.356 N 
ATOM      4  C   UNL A   1      30.721  24.493  26.176  1.00  0.00     0.220 C 
ATOM      5  O   UNL A   1      29.923  25.385  26.476  1.00  0.00    -0.275 OA
ATOM      6  H   UNL A   1      31.586  24.580  27.960  1.00  0.00     0.163 HD
BRANCH   4   7
ATOM      7  C   UNL A   1      30.708  23.870  24.806  1.00  0.00     0.112 C 
BRANCH   7   8
ATOM      8  C   UNL A   1      31.398  24.603  23.663  1.00  0.00     0.138 C 
BRANCH   8   9
ATOM      9  C   UNL A   1      32.544  25.590  23.861  1.00  0.00     0.308 C 
ATOM     10  O   UNL A   1      33.672  25.265  23.490  1.00  0.00    -0.247 OA
ATOM     11  N   UNL A   1      32.330  26.786  24.481  1.00  0.00    -0.204 N 
ATOM     12  C   UNL A   1      31.627  27.727  23.949  1.00  0.00     0.319 C 
ATOM     13  H   UNL A   1      32.727  26.936  25.368  1.00  0.00     0.316 HD
ATOM     14  S   UNL A   1      30.783  27.618  22.378  1.00  0.00    -0.029 SA
ATOM     15  N   UNL A   1      31.336  28.952  24.548  1.00  0.00    -0.216 N 
ATOM     16  C   UNL A   1      30.203  29.322  22.539  1.00  0.00     0.120 C 
ATOM     17  C   UNL A   1      30.099  29.532  24.056  1.00  0.00     0.212 C 
ATOM     18  C   UNL A   1      28.860  29.739  22.004  1.00  0.00     0.156 C 
ATOM     19  C   UNL A   1      29.806  31.005  24.211  1.00  0.00     0.188 C 
ATOM     20  S   UNL A   1      28.600  31.280  22.902  1.00  0.00     0.155 S 
ATOM     21  O   UNL A   1      29.076  32.374  22.077  1.00  0.00    -0.229 OA
ATOM     22  O   UNL A   1      27.277  31.262  23.478  1.00  0.00    -0.229 OA
BRANCH  15  23
ATOM     23  C   UNL A   1      32.158  29.591  25.473  1.00  0.00     0.132 A 
ATOM     24  C   UNL A   1      31.708  30.689  26.243  1.00  0.00     0.056 A 
ATOM     25  C   UNL A   1      33.464  29.112  25.673  1.00  0.00     0.102 A 
ATOM     26  C   UNL A   1      32.524  31.273  27.221  1.00  0.00     0.055 A 
ATOM     27  C   UNL A   1      34.241  29.695  26.647  1.00  0.00     0.170 A 
ATOM     28  C   UNL A   1      33.775  30.733  27.413  1.00  0.00     0.166 A 
ATOM     29  O   UNL A   1      35.500  29.314  26.990  1.00  0.00    -0.453 OA
ATOM     30  O   UNL A   1      34.670  31.099  28.364  1.00  0.00    -0.454 OA
ATOM     31  C   UNL A   1      35.684  30.089  28.189  1.00  0.00     0.468 C 
ENDBRANCH  15  23
ENDBRANCH   8   9
ENDBRANCH   7   8
ENDBRANCH   4   7
ENDBRANCH   2   3
ENDBRANCH   1   2
BRANCH   1  32
ATOM     32  C   UNL A   1      34.948  22.313  26.234  1.00  0.00     0.023 C 
BRANCH  32  33
ATOM     33  C   UNL A   1      36.363  22.759  25.905  1.00  0.00     0.116 C 
BRANCH  33  34
ATOM     34  N   UNL A   1      37.317  21.680  26.066  1.00  0.00    -0.352 N 
ATOM     35  C   UNL A   1      38.682  21.739  26.197  1.00  0.00     0.251 C 
ATOM     36  H   UNL A   1      36.932  20.775  26.084  1.00  0.00     0.163 HD
ATOM     37  O   UNL A   1      39.351  20.720  26.044  1.00  0.00    -0.269 OA
BRANCH  35  38
ATOM     38  C   UNL A   1      39.358  23.017  26.522  1.00  0.00     0.039 A 
ATOM     39  C   UNL A   1      40.224  23.059  27.619  1.00  0.00     0.014 A 
ATOM     40  C   UNL A   1      39.096  24.184  25.800  1.00  0.00     0.014 A 
ATOM     41  C   UNL A   1      40.848  24.259  27.971  1.00  0.00     0.010 A 
ATOM     42  C   UNL A   1      39.787  25.358  26.098  1.00  0.00     0.010 A 
ATOM     43  C   UNL A   1      40.656  25.415  27.199  1.00  0.00    -0.014 A 
BRANCH  43  44
ATOM     44  C   UNL A   1      41.333  26.698  27.533  1.00  0.00     0.031 A 
ATOM     45  C   UNL A   1      42.782  26.899  27.184  1.00  0.00     0.074 A 
ATOM     46  C   UNL A   1      40.675  27.653  28.219  1.00  0.00     0.049 A 
ATOM     47  N   UNL A   1      43.572  27.902  27.472  1.00  0.00    -0.248 NA
ATOM     48  C   UNL A   1      43.436  25.819  26.429  1.00  0.00     0.031 C 
ATOM     49  C   UNL A   1      39.277  27.574  28.629  1.00  0.00     0.029 A 
ATOM     50  N   UNL A   1      41.095  28.860  28.719  1.00  0.00    -0.354 N 
ATOM     51  C   UNL A   1      44.809  27.574  26.934  1.00  0.00     0.074 A 
ATOM     52  C   UNL A   1      44.688  26.247  26.373  1.00  0.00     0.031 C 
ATOM     53  C   UNL A   1      38.959  28.657  29.353  1.00  0.00     0.029 A 
ATOM     54  C   UNL A   1      40.135  29.511  29.457  1.00  0.00     0.049 A 
ATOM     55  H   UNL A   1      41.996  29.224  28.565  1.00  0.00     0.167 HD
ATOM     56  C   UNL A   1      45.933  28.329  26.880  1.00  0.00     0.037 A 
ATOM     57  C   UNL A   1      40.192  30.666  30.147  1.00  0.00     0.037 A 
ATOM     58  C   UNL A   1      46.039  29.657  27.426  1.00  0.00     0.049 A 
ATOM     59  C   UNL A   1      41.459  31.472  30.104  1.00  0.00     0.074 A 
ATOM     60  C   UNL A   1      47.108  30.533  27.365  1.00  0.00     0.029 A 
ATOM     61  N   UNL A   1      45.038  30.297  28.146  1.00  0.00    -0.354 N 
ATOM     62  N   UNL A   1      42.594  31.192  29.514  1.00  0.00    -0.248 NA
ATOM     63  C   UNL A   1      41.442  32.768  30.796  1.00  0.00     0.031 C 
ATOM     64  C   UNL A   1      46.776  31.678  28.096  1.00  0.00     0.029 A 
ATOM     65  C   UNL A   1      45.478  31.543  28.563  1.00  0.00     0.049 A 
ATOM     66  H   UNL A   1      44.148  29.920  28.331  1.00  0.00     0.167 HD
ATOM     67  C   UNL A   1      43.420  32.285  29.736  1.00  0.00     0.074 A 
ATOM     68  C   UNL A   1      42.647  33.240  30.504  1.00  0.00     0.031 C 
ATOM     69  C   UNL A   1      44.699  32.480  29.333  1.00  0.00     0.037 A 
BRANCH  56  70
ATOM     70  C   UNL A   1      47.134  27.731  26.203  1.00  0.00     0.064 A 
ATOM     71  C   UNL A   1      47.321  27.824  24.814  1.00  0.00     0.173 A 
ATOM     72  C   UNL A   1      48.118  27.068  26.951  1.00  0.00     0.173 A 
ATOM     73  F   UNL A   1      46.406  28.439  24.049  1.00  0.00    -0.203 F 
ATOM     74  C   UNL A   1      48.423  27.239  24.197  1.00  0.00     0.198 A 
ATOM     75  C   UNL A   1      49.239  26.515  26.334  1.00  0.00     0.198 A 
ATOM     76  F   UNL A   1      47.996  26.955  28.282  1.00  0.00    -0.203 F 
ATOM     77  F   UNL A   1      48.544  27.285  22.862  1.00  0.00    -0.200 F 
ATOM     78  C   UNL A   1      49.384  26.590  24.957  1.00  0.00     0.200 A 
ATOM     79  F   UNL A   1      50.173  25.900  27.071  1.00  0.00    -0.200 F 
ATOM     80  F   UNL A   1      50.445  26.028  24.361  1.00  0.00    -0.200 F 
ENDBRANCH  56  70
BRANCH  57  81
ATOM     81  C   UNL A   1      39.001  31.133  30.902  1.00  0.00     0.064 A 
ATOM     82  C   UNL A   1      38.014  31.915  30.287  1.00  0.00     0.173 A 
ATOM     83  C   UNL A   1      38.812  30.786  32.249  1.00  0.00     0.173 A 
ATOM     84  F   UNL A   1      38.156  32.283  29.005  1.00  0.00    -0.203 F 
ATOM     85  C   UNL A   1      36.894  32.348  30.993  1.00  0.00     0.198 A 
ATOM     86  C   UNL A   1      37.678  31.197  32.946  1.00  0.00     0.198 A 
ATOM     87  F   UNL A   1      39.721  30.030  32.882  1.00  0.00    -0.203 F 
ATOM     88  F   UNL A   1      35.985  33.125  30.389  1.00  0.00    -0.200 F 
ATOM     89  C   UNL A   1      36.723  31.983  32.320  1.00  0.00     0.200 A 
ATOM     90  F   UNL A   1      37.508  30.828  34.224  1.00  0.00    -0.200 F 
ATOM     91  F   UNL A   1      35.641  32.393  32.995  1.00  0.00    -0.200 F 
ENDBRANCH  57  81
BRANCH  69  92
ATOM     92  C   UNL A   1      45.341  33.786  29.701  1.00  0.00     0.064 A 
ATOM     93  C   UNL A   1      46.057  33.944  30.897  1.00  0.00     0.173 A 
ATOM     94  C   UNL A   1      45.274  34.881  28.826  1.00  0.00     0.173 A 
ATOM     95  F   UNL A   1      46.136  32.932  31.775  1.00  0.00    -0.203 F 
ATOM     96  C   UNL A   1      46.662  35.156  31.212  1.00  0.00     0.198 A 
ATOM     97  C   UNL A   1      45.908  36.081  29.130  1.00  0.00     0.198 A 
ATOM     98  F   UNL A   1      44.604  34.781  27.667  1.00  0.00    -0.203 F 
ATOM     99  F   UNL A   1      47.301  35.299  32.383  1.00  0.00    -0.200 F 
ATOM    100  C   UNL A   1      46.595  36.220  30.326  1.00  0.00     0.200 A 
ATOM    101  F   UNL A   1      45.855  37.103  28.265  1.00  0.00    -0.200 F 
ATOM    102  F   UNL A   1      47.189  37.383  30.628  1.00  0.00    -0.200 F 
ENDBRANCH  69  92
ENDBRANCH  43  44
ENDBRANCH  35  38
ENDBRANCH  33  34
ENDBRANCH  32  33
ENDBRANCH   1  32
TORSDOF 14
ENDMDL
MODEL 3
REMARK VINA RESULT:     -10.3      4.678     10.474
REMARK SMILES O=C(CCC(=O)/[NH+]=C1\S[C@H]2CS(=O)(=O)C[C@@H]2N1c1ccc2c(c1)OCO2)NCCCCNC(=O)c1ccc(-c2c3nc(c(-c4c(F)c(F)c(F)c(F)c4F)c4ccc([nH]4)c(-c4c(F)c(F)c(F)c(F)c4F)c4nc(c(-c5c(F)c(F)c(F)c(F)c5F)c5ccc2[nH]5)C=C4)C=C3)cc1
REMARK SMILES IDX 29 1 28 2 27 3 2 4 1 5 3 7 4 8 5 9 6 10 7 11 8 12 9 14 17 15
REMARK SMILES IDX 10 16 16 17 11 18 15 19 12 20 13 21 14 22 18 23 19 24 23 25
REMARK SMILES IDX 20 26 22 27 21 28 24 29 26 30 25 31 30 32 31 33 32 34 33 35
REMARK SMILES IDX 34 37 35 38 36 39 97 40 37 41 96 42 38 43 39 44 40 45 90 46
REMARK SMILES IDX 41 47 95 48 89 49 91 50 42 51 94 52 88 53 87 54 43 56 75 57
REMARK SMILES IDX 55 58 74 59 56 60 59 61 73 62 92 63 57 64 58 65 72 67 93 68
REMARK SMILES IDX 60 69 44 70 45 71 53 72 46 73 47 74 51 75 54 76 48 77 49 78
REMARK SMILES IDX 52 79 50 80 76 81 77 82 85 83 78 84 79 85 83 86 86 87 80 88
REMARK SMILES IDX 81 89 84 90 82 91 61 92 62 93 70 94 63 95 64 96 68 97 71 98
REMARK SMILES IDX 65 99 66 100 69 101 67 102
REMARK H PARENT 27 6 7 13 32 36 91 55 59 66
REMARK Flexibility Score: inf
ROOT
ATOM      1  C   UNL A   1      34.021  22.952  27.090  1.00  0.00     0.023 C 
ENDROOT
BRANCH   1   2
ATOM      2  C   UNL A   1      32.526  22.674  26.918  1.00  0.00     0.116 C 
BRANCH   2   3
ATOM      3  N   UNL A   1      31.684  23.850  27.048  1.00  0.00    -0.356 N 
ATOM      4  C   UNL A   1      30.897  24.474  26.134  1.00  0.00     0.220 C 
ATOM      5  O   UNL A   1      30.212  25.432  26.501  1.00  0.00    -0.275 OA
ATOM      6  H   UNL A   1      31.684  24.261  27.942  1.00  0.00     0.163 HD
BRANCH   4   7
ATOM      7  C   UNL A   1      30.862  23.999  24.706  1.00  0.00     0.112 C 
BRANCH   7   8
ATOM      8  C   UNL A   1      31.378  24.927  23.614  1.00  0.00     0.138 C 
BRANCH   8   9
ATOM      9  C   UNL A   1      32.475  25.964  23.834  1.00  0.00     0.308 C 
ATOM     10  O   UNL A   1      33.623  25.691  23.484  1.00  0.00    -0.247 OA
ATOM     11  N   UNL A   1      32.196  27.148  24.451  1.00  0.00    -0.204 N 
ATOM     12  C   UNL A   1      31.461  28.058  23.908  1.00  0.00     0.319 C 
ATOM     13  H   UNL A   1      32.569  27.314  25.346  1.00  0.00     0.316 HD
ATOM     14  S   UNL A   1      30.653  27.914  22.321  1.00  0.00    -0.029 SA
ATOM     15  N   UNL A   1      31.105  29.267  24.503  1.00  0.00    -0.216 N 
ATOM     16  C   UNL A   1      29.993  29.589  22.474  1.00  0.00     0.120 C 
ATOM     17  C   UNL A   1      29.852  29.792  23.988  1.00  0.00     0.212 C 
ATOM     18  C   UNL A   1      28.643  29.947  21.914  1.00  0.00     0.156 C 
ATOM     19  C   UNL A   1      29.490  31.250  24.139  1.00  0.00     0.188 C 
ATOM     20  S   UNL A   1      28.297  31.473  22.808  1.00  0.00     0.155 S 
ATOM     21  O   UNL A   1      28.739  32.589  21.993  1.00  0.00    -0.229 OA
ATOM     22  O   UNL A   1      26.966  31.395  23.360  1.00  0.00    -0.229 OA
BRANCH  15  23
ATOM     23  C   UNL A   1      31.879  29.941  25.444  1.00  0.00     0.132 A 
ATOM     24  C   UNL A   1      31.403  31.084  26.126  1.00  0.00     0.056 A 
ATOM     25  C   UNL A   1      33.162  29.452  25.749  1.00  0.00     0.102 A 
ATOM     26  C   UNL A   1      32.168  31.705  27.123  1.00  0.00     0.055 A 
ATOM     27  C   UNL A   1      33.888  30.073  26.738  1.00  0.00     0.170 A 
ATOM     28  C   UNL A   1      33.395  31.156  27.420  1.00  0.00     0.166 A 
ATOM     29  O   UNL A   1      35.115  29.691  27.179  1.00  0.00    -0.453 OA
ATOM     30  O   UNL A   1      34.236  31.558  28.405  1.00  0.00    -0.454 OA
ATOM     31  C   UNL A   1      35.240  30.525  28.346  1.00  0.00     0.468 C 
ENDBRANCH  15  23
ENDBRANCH   8   9
ENDBRANCH   7   8
ENDBRANCH   4   7
ENDBRANCH   2   3
ENDBRANCH   1   2
BRANCH   1  32
ATOM     32  C   UNL A   1      34.812  23.095  25.791  1.00  0.00     0.023 C 
BRANCH  32  33
ATOM     33  C   UNL A   1      36.218  23.650  25.951  1.00  0.00     0.116 C 
BRANCH  33  34
ATOM     34  N   UNL A   1      37.199  22.593  26.101  1.00  0.00    -0.352 N 
ATOM     35  C   UNL A   1      38.553  22.686  26.300  1.00  0.00     0.251 C 
ATOM     36  H   UNL A   1      36.842  21.677  26.052  1.00  0.00     0.163 HD
ATOM     37  O   UNL A   1      39.261  21.697  26.126  1.00  0.00    -0.269 OA
BRANCH  35  38
ATOM     38  C   UNL A   1      39.171  23.963  26.724  1.00  0.00     0.039 A 
ATOM     39  C   UNL A   1      39.790  24.764  25.760  1.00  0.00     0.014 A 
ATOM     40  C   UNL A   1      39.205  24.346  28.067  1.00  0.00     0.014 A 
ATOM     41  C   UNL A   1      40.412  25.958  26.135  1.00  0.00     0.010 A 
ATOM     42  C   UNL A   1      39.747  25.579  28.428  1.00  0.00     0.010 A 
ATOM     43  C   UNL A   1      40.375  26.390  27.470  1.00  0.00    -0.014 A 
BRANCH  43  44
ATOM     44  C   UNL A   1      41.002  27.672  27.892  1.00  0.00     0.031 A 
ATOM     45  C   UNL A   1      42.497  27.830  27.850  1.00  0.00     0.074 A 
ATOM     46  C   UNL A   1      40.242  28.668  28.386  1.00  0.00     0.049 A 
ATOM     47  N   UNL A   1      43.237  28.829  28.260  1.00  0.00    -0.248 NA
ATOM     48  C   UNL A   1      43.265  26.706  27.291  1.00  0.00     0.031 C 
ATOM     49  C   UNL A   1      38.787  28.634  28.494  1.00  0.00     0.029 A 
ATOM     50  N   UNL A   1      40.580  29.888  28.919  1.00  0.00    -0.354 N 
ATOM     51  C   UNL A   1      44.550  28.455  28.010  1.00  0.00     0.074 A 
ATOM     52  C   UNL A   1      44.512  27.107  27.485  1.00  0.00     0.031 C 
ATOM     53  C   UNL A   1      38.354  29.753  29.093  1.00  0.00     0.029 A 
ATOM     54  C   UNL A   1      39.505  30.588  29.412  1.00  0.00     0.049 A 
ATOM     55  H   UNL A   1      41.503  30.227  28.945  1.00  0.00     0.167 HD
ATOM     56  C   UNL A   1      45.680  29.184  28.167  1.00  0.00     0.037 A 
ATOM     57  C   UNL A   1      39.448  31.769  30.055  1.00  0.00     0.037 A 
ATOM     58  C   UNL A   1      45.707  30.531  28.673  1.00  0.00     0.049 A 
ATOM     59  C   UNL A   1      40.717  32.548  30.251  1.00  0.00     0.074 A 
ATOM     60  C   UNL A   1      46.788  31.383  28.806  1.00  0.00     0.029 A 
ATOM     61  N   UNL A   1      44.595  31.221  29.140  1.00  0.00    -0.354 N 
ATOM     62  N   UNL A   1      41.943  32.221  29.926  1.00  0.00    -0.248 NA
ATOM     63  C   UNL A   1      40.592  33.872  30.875  1.00  0.00     0.031 C 
ATOM     64  C   UNL A   1      46.342  32.565  29.408  1.00  0.00     0.029 A 
ATOM     65  C   UNL A   1      44.972  32.475  29.594  1.00  0.00     0.049 A 
ATOM     66  H   UNL A   1      43.675  30.870  29.147  1.00  0.00     0.167 HD
ATOM     67  C   UNL A   1      42.734  33.306  30.276  1.00  0.00     0.074 A 
ATOM     68  C   UNL A   1      41.844  34.308  30.827  1.00  0.00     0.031 C 
ATOM     69  C   UNL A   1      44.075  33.459  30.146  1.00  0.00     0.037 A 
BRANCH  56  70
ATOM     70  C   UNL A   1      46.980  28.534  27.782  1.00  0.00     0.064 A 
ATOM     71  C   UNL A   1      47.432  28.519  26.453  1.00  0.00     0.173 A 
ATOM     72  C   UNL A   1      47.791  27.931  28.754  1.00  0.00     0.173 A 
ATOM     73  F   UNL A   1      46.691  29.073  25.481  1.00  0.00    -0.203 F 
ATOM     74  C   UNL A   1      48.624  27.887  26.106  1.00  0.00     0.198 A 
ATOM     75  C   UNL A   1      49.001  27.331  28.409  1.00  0.00     0.198 A 
ATOM     76  F   UNL A   1      47.413  27.922  30.041  1.00  0.00    -0.203 F 
ATOM     77  F   UNL A   1      48.999  27.829  24.820  1.00  0.00    -0.200 F 
ATOM     78  C   UNL A   1      49.410  27.299  27.085  1.00  0.00     0.200 A 
ATOM     79  F   UNL A   1      49.766  26.775  29.358  1.00  0.00    -0.200 F 
ATOM     80  F   UNL A   1      50.557  26.692  26.750  1.00  0.00    -0.200 F 
ENDBRANCH  56  70
BRANCH  57  81
ATOM     81  C   UNL A   1      38.138  32.291  30.522  1.00  0.00     0.064 A 
ATOM     82  C   UNL A   1      37.641  31.969  31.792  1.00  0.00     0.173 A 
ATOM     83  C   UNL A   1      37.366  33.144  29.717  1.00  0.00     0.173 A 
ATOM     84  F   UNL A   1      38.336  31.148  32.593  1.00  0.00    -0.203 F 
ATOM     85  C   UNL A   1      36.415  32.464  32.233  1.00  0.00     0.198 A 
ATOM     86  C   UNL A   1      36.154  33.659  30.170  1.00  0.00     0.198 A 
ATOM     87  F   UNL A   1      37.802  33.492  28.497  1.00  0.00    -0.203 F 
ATOM     88  F   UNL A   1      35.948  32.110  33.438  1.00  0.00    -0.200 F 
ATOM     89  C   UNL A   1      35.676  33.314  31.424  1.00  0.00     0.200 A 
ATOM     90  F   UNL A   1      35.450  34.494  29.392  1.00  0.00    -0.200 F 
ATOM     91  F   UNL A   1      34.502  33.796  31.853  1.00  0.00    -0.200 F 
ENDBRANCH  57  81
BRANCH  69  92
ATOM     92  C   UNL A   1      44.661  34.766  30.592  1.00  0.00     0.064 A 
ATOM     93  C   UNL A   1      44.734  35.872  29.731  1.00  0.00     0.173 A 
ATOM     94  C   UNL A   1      45.118  34.927  31.909  1.00  0.00     0.173 A 
ATOM     95  F   UNL A   1      44.326  35.764  28.458  1.00  0.00    -0.203 F 
ATOM     96  C   UNL A   1      45.263  37.083  30.168  1.00  0.00     0.198 A 
ATOM     97  C   UNL A   1      45.615  36.150  32.350  1.00  0.00     0.198 A 
ATOM     98  F   UNL A   1      45.067  33.902  32.773  1.00  0.00    -0.203 F 
ATOM     99  F   UNL A   1      45.367  38.112  29.314  1.00  0.00    -0.200 F 
ATOM    100  C   UNL A   1      45.694  37.224  31.477  1.00  0.00     0.200 A 
ATOM    101  F   UNL A   1      46.018  36.288  33.621  1.00  0.00    -0.200 F 
ATOM    102  F   UNL A   1      46.193  38.395  31.898  1.00  0.00    -0.200 F 
ENDBRANCH  69  92
ENDBRANCH  43  44
ENDBRANCH  35  38
ENDBRANCH  33  34
ENDBRANCH  32  33
ENDBRANCH   1  32
TORSDOF 14
ENDMDL
