MODEL 1
REMARK VINA RESULT:     -12.9      0.000      0.000
REMARK SMILES Cc1cc(C)c(C(=O)NCCCCNC(=O)c2ccc(-c3c4nc(c(-c5c(F)c(F)c(F)c(F)c5F)c5ccc([nH]5)c(-c5c(F)c(F)c(F)c(F)c5F)c5nc(c(-c6c(F)c(F)c(F)c(F)c6F)c6ccc3[nH]6)C=C5)C=C4)cc2)c(Sc2cccc(F)c2)n1
REMARK SMILES IDX 11 1 10 2 9 3 7 4 8 5 6 7 1 8 2 9 3 10 89 11 4 12 80 13 5 14
REMARK SMILES IDX 81 15 82 16 83 17 88 18 84 19 86 20 85 21 87 22 12 23 13 24
REMARK SMILES IDX 14 25 15 26 16 28 17 29 18 30 79 31 19 32 78 33 20 34 21 35
REMARK SMILES IDX 22 36 72 37 23 38 77 39 71 40 73 41 24 42 76 43 70 44 69 45
REMARK SMILES IDX 25 47 57 48 37 49 56 50 38 51 41 52 55 53 74 54 39 55 40 56
REMARK SMILES IDX 54 58 75 59 42 60 26 61 27 62 35 63 28 64 29 65 33 66 36 67
REMARK SMILES IDX 30 68 31 69 34 70 32 71 58 72 59 73 67 74 60 75 61 76 65 77
REMARK SMILES IDX 68 78 62 79 63 80 66 81 64 82 43 83 44 84 52 85 45 86 46 87
REMARK SMILES IDX 50 88 53 89 47 90 48 91 51 92 49 93
REMARK H PARENT 9 6 14 27 73 46 41 57
REMARK Flexibility Score: inf
ROOT
ATOM      1  C   UNL A   1      31.802  30.485  26.636  1.00  0.00     0.023 C 
ENDROOT
BRANCH   1   2
ATOM      2  C   UNL A   1      31.703  29.983  25.198  1.00  0.00     0.116 C 
BRANCH   2   3
ATOM      3  N   UNL A   1      32.964  29.771  24.511  1.00  0.00    -0.352 N 
ATOM      4  C   UNL A   1      33.439  28.603  23.946  1.00  0.00     0.254 C 
ATOM      5  O   UNL A   1      34.276  28.657  23.050  1.00  0.00    -0.269 OA
ATOM      6  H   UNL A   1      33.553  30.556  24.437  1.00  0.00     0.163 HD
BRANCH   4   7
ATOM      7  C   UNL A   1      32.930  27.293  24.388  1.00  0.00     0.075 A 
ATOM      8  C   UNL A   1      31.422  23.506  25.630  1.00  0.00     0.067 C 
ATOM      9  C   UNL A   1      31.973  24.840  25.225  1.00  0.00     0.039 A 
ATOM     10  C   UNL A   1      32.869  25.509  26.034  1.00  0.00     0.027 A 
ATOM     11  N   UNL A   1      31.540  25.358  24.060  1.00  0.00    -0.246 NA
ATOM     12  C   UNL A   1      33.333  26.772  25.643  1.00  0.00    -0.034 A 
ATOM     13  C   UNL A   1      31.981  26.582  23.639  1.00  0.00     0.114 A 
ATOM     14  C   UNL A   1      34.219  27.497  26.617  1.00  0.00     0.045 C 
BRANCH  13  15
ATOM     15  S   UNL A   1      31.079  27.006  22.164  1.00  0.00    -0.069 SA
BRANCH  15  16
ATOM     16  C   UNL A   1      29.880  28.258  22.488  1.00  0.00     0.017 A 
ATOM     17  C   UNL A   1      28.676  27.903  23.113  1.00  0.00     0.015 A 
ATOM     18  C   UNL A   1      30.045  29.561  22.017  1.00  0.00     0.054 A 
ATOM     19  C   UNL A   1      27.664  28.848  23.307  1.00  0.00     0.004 A 
ATOM     20  C   UNL A   1      29.035  30.495  22.222  1.00  0.00     0.124 A 
ATOM     21  C   UNL A   1      27.849  30.153  22.863  1.00  0.00     0.039 A 
ATOM     22  F   UNL A   1      29.208  31.751  21.790  1.00  0.00    -0.207 F 
ENDBRANCH  15  16
ENDBRANCH  13  15
ENDBRANCH   4   7
ENDBRANCH   2   3
ENDBRANCH   1   2
BRANCH   1  23
ATOM     23  C   UNL A   1      31.556  31.975  26.880  1.00  0.00     0.023 C 
BRANCH  23  24
ATOM     24  C   UNL A   1      32.748  32.833  27.299  1.00  0.00     0.116 C 
BRANCH  24  25
ATOM     25  N   UNL A   1      32.405  34.184  27.712  1.00  0.00    -0.352 N 
ATOM     26  C   UNL A   1      33.005  35.027  28.618  1.00  0.00     0.251 C 
ATOM     27  H   UNL A   1      31.611  34.558  27.268  1.00  0.00     0.163 HD
ATOM     28  O   UNL A   1      32.509  36.132  28.835  1.00  0.00    -0.269 OA
BRANCH  26  29
ATOM     29  C   UNL A   1      34.204  34.610  29.382  1.00  0.00     0.039 A 
ATOM     30  C   UNL A   1      34.028  34.116  30.678  1.00  0.00     0.014 A 
ATOM     31  C   UNL A   1      35.491  34.694  28.847  1.00  0.00     0.014 A 
ATOM     32  C   UNL A   1      35.120  33.607  31.390  1.00  0.00     0.010 A 
ATOM     33  C   UNL A   1      36.565  34.110  29.520  1.00  0.00     0.010 A 
ATOM     34  C   UNL A   1      36.388  33.545  30.793  1.00  0.00    -0.014 A 
BRANCH  34  35
ATOM     35  C   UNL A   1      37.530  32.867  31.466  1.00  0.00     0.031 A 
ATOM     36  C   UNL A   1      38.219  31.701  30.812  1.00  0.00     0.074 A 
ATOM     37  C   UNL A   1      37.893  33.246  32.708  1.00  0.00     0.049 A 
ATOM     38  N   UNL A   1      39.156  30.918  31.288  1.00  0.00    -0.248 NA
ATOM     39  C   UNL A   1      37.779  31.349  29.454  1.00  0.00     0.031 C 
ATOM     40  C   UNL A   1      37.273  34.327  33.479  1.00  0.00     0.029 A 
ATOM     41  N   UNL A   1      38.860  32.755  33.550  1.00  0.00    -0.354 N 
ATOM     42  C   UNL A   1      39.396  29.971  30.302  1.00  0.00     0.074 A 
ATOM     43  C   UNL A   1      38.480  30.249  29.217  1.00  0.00     0.031 C 
ATOM     44  C   UNL A   1      37.886  34.428  34.669  1.00  0.00     0.029 A 
ATOM     45  C   UNL A   1      38.915  33.398  34.764  1.00  0.00     0.049 A 
ATOM     46  H   UNL A   1      39.459  32.013  33.307  1.00  0.00     0.167 HD
ATOM     47  C   UNL A   1      40.312  28.972  30.293  1.00  0.00     0.037 A 
ATOM     48  C   UNL A   1      39.697  33.176  35.838  1.00  0.00     0.037 A 
ATOM     49  C   UNL A   1      41.252  28.719  31.353  1.00  0.00     0.049 A 
ATOM     50  C   UNL A   1      40.716  32.069  35.794  1.00  0.00     0.074 A 
ATOM     51  C   UNL A   1      42.263  27.774  31.402  1.00  0.00     0.029 A 
ATOM     52  N   UNL A   1      41.300  29.417  32.551  1.00  0.00    -0.354 N 
ATOM     53  N   UNL A   1      40.976  31.223  34.828  1.00  0.00    -0.248 NA
ATOM     54  C   UNL A   1      41.553  31.891  36.988  1.00  0.00     0.031 C 
ATOM     55  C   UNL A   1      42.899  27.876  32.643  1.00  0.00     0.029 A 
ATOM     56  C   UNL A   1      42.313  28.913  33.351  1.00  0.00     0.049 A 
ATOM     57  H   UNL A   1      40.703  30.160  32.795  1.00  0.00     0.167 HD
ATOM     58  C   UNL A   1      42.024  30.435  35.284  1.00  0.00     0.074 A 
ATOM     59  C   UNL A   1      42.360  30.911  36.609  1.00  0.00     0.031 C 
ATOM     60  C   UNL A   1      42.649  29.407  34.661  1.00  0.00     0.037 A 
BRANCH  47  61
ATOM     61  C   UNL A   1      40.353  28.077  29.089  1.00  0.00     0.064 A 
ATOM     62  C   UNL A   1      39.612  26.888  29.034  1.00  0.00     0.173 A 
ATOM     63  C   UNL A   1      41.099  28.441  27.957  1.00  0.00     0.173 A 
ATOM     64  F   UNL A   1      38.890  26.492  30.093  1.00  0.00    -0.203 F 
ATOM     65  C   UNL A   1      39.636  26.082  27.898  1.00  0.00     0.198 A 
ATOM     66  C   UNL A   1      41.098  27.647  26.813  1.00  0.00     0.198 A 
ATOM     67  F   UNL A   1      41.818  29.572  27.955  1.00  0.00    -0.203 F 
ATOM     68  F   UNL A   1      38.953  24.929  27.884  1.00  0.00    -0.200 F 
ATOM     69  C   UNL A   1      40.372  26.465  26.787  1.00  0.00     0.200 A 
ATOM     70  F   UNL A   1      41.799  28.025  25.735  1.00  0.00    -0.200 F 
ATOM     71  F   UNL A   1      40.384  25.694  25.691  1.00  0.00    -0.200 F 
ENDBRANCH  47  61
BRANCH  48  72
ATOM     72  C   UNL A   1      39.565  34.031  37.047  1.00  0.00     0.064 A 
ATOM     73  C   UNL A   1      38.811  33.605  38.149  1.00  0.00     0.173 A 
ATOM     74  C   UNL A   1      40.170  35.294  37.118  1.00  0.00     0.173 A 
ATOM     75  F   UNL A   1      38.196  32.414  38.117  1.00  0.00    -0.203 F 
ATOM     76  C   UNL A   1      38.648  34.419  39.267  1.00  0.00     0.198 A 
ATOM     77  C   UNL A   1      40.028  36.096  38.249  1.00  0.00     0.198 A 
ATOM     78  F   UNL A   1      40.904  35.747  36.092  1.00  0.00    -0.203 F 
ATOM     79  F   UNL A   1      37.881  34.007  40.286  1.00  0.00    -0.200 F 
ATOM     80  C   UNL A   1      39.260  35.662  39.319  1.00  0.00     0.200 A 
ATOM     81  F   UNL A   1      40.631  37.292  38.300  1.00  0.00    -0.200 F 
ATOM     82  F   UNL A   1      39.102  36.444  40.395  1.00  0.00    -0.200 F 
ENDBRANCH  48  72
BRANCH  60  83
ATOM     83  C   UNL A   1      43.789  28.754  35.383  1.00  0.00     0.064 A 
ATOM     84  C   UNL A   1      45.116  29.168  35.189  1.00  0.00     0.173 A 
ATOM     85  C   UNL A   1      43.548  27.730  36.310  1.00  0.00     0.173 A 
ATOM     86  F   UNL A   1      45.398  30.133  34.300  1.00  0.00    -0.203 F 
ATOM     87  C   UNL A   1      46.161  28.564  35.882  1.00  0.00     0.198 A 
ATOM     88  C   UNL A   1      44.594  27.146  37.021  1.00  0.00     0.198 A 
ATOM     89  F   UNL A   1      42.297  27.302  36.535  1.00  0.00    -0.203 F 
ATOM     90  F   UNL A   1      47.425  28.945  35.650  1.00  0.00    -0.200 F 
ATOM     91  C   UNL A   1      45.899  27.559  36.803  1.00  0.00     0.200 A 
ATOM     92  F   UNL A   1      44.337  26.184  37.919  1.00  0.00    -0.200 F 
ATOM     93  F   UNL A   1      46.906  26.985  37.474  1.00  0.00    -0.200 F 
ENDBRANCH  60  83
ENDBRANCH  34  35
ENDBRANCH  26  29
ENDBRANCH  24  25
ENDBRANCH  23  24
ENDBRANCH   1  23
TORSDOF 13
ENDMDL
MODEL 2
REMARK VINA RESULT:     -12.9      0.478      7.315
REMARK SMILES Cc1cc(C)c(C(=O)NCCCCNC(=O)c2ccc(-c3c4nc(c(-c5c(F)c(F)c(F)c(F)c5F)c5ccc([nH]5)c(-c5c(F)c(F)c(F)c(F)c5F)c5nc(c(-c6c(F)c(F)c(F)c(F)c6F)c6ccc3[nH]6)C=C5)C=C4)cc2)c(Sc2cccc(F)c2)n1
REMARK SMILES IDX 11 1 10 2 9 3 7 4 8 5 6 7 1 8 2 9 3 10 89 11 4 12 80 13 5 14
REMARK SMILES IDX 81 15 82 16 83 17 88 18 84 19 86 20 85 21 87 22 12 23 13 24
REMARK SMILES IDX 14 25 15 26 16 28 17 29 18 30 79 31 19 32 78 33 20 34 21 35
REMARK SMILES IDX 22 36 72 37 23 38 77 39 71 40 73 41 24 42 76 43 70 44 69 45
REMARK SMILES IDX 25 47 57 48 37 49 56 50 38 51 41 52 55 53 74 54 39 55 40 56
REMARK SMILES IDX 54 58 75 59 42 60 26 61 27 62 35 63 28 64 29 65 33 66 36 67
REMARK SMILES IDX 30 68 31 69 34 70 32 71 58 72 59 73 67 74 60 75 61 76 65 77
REMARK SMILES IDX 68 78 62 79 63 80 66 81 64 82 43 83 44 84 52 85 45 86 46 87
REMARK SMILES IDX 50 88 53 89 47 90 48 91 51 92 49 93
REMARK H PARENT 9 6 14 27 73 46 41 57
REMARK Flexibility Score: inf
ROOT
ATOM      1  C   UNL A   1      31.751  30.609  26.725  1.00  0.00     0.023 C 
ENDROOT
BRANCH   1   2
ATOM      2  C   UNL A   1      31.598  30.101  25.294  1.00  0.00     0.116 C 
BRANCH   2   3
ATOM      3  N   UNL A   1      32.826  29.956  24.535  1.00  0.00    -0.352 N 
ATOM      4  C   UNL A   1      33.333  28.813  23.946  1.00  0.00     0.254 C 
ATOM      5  O   UNL A   1      34.112  28.910  23.003  1.00  0.00    -0.269 OA
ATOM      6  H   UNL A   1      33.364  30.773  24.425  1.00  0.00     0.163 HD
BRANCH   4   7
ATOM      7  C   UNL A   1      32.926  27.480  24.422  1.00  0.00     0.075 A 
ATOM      8  C   UNL A   1      31.713  23.620  25.758  1.00  0.00     0.067 C 
ATOM      9  C   UNL A   1      32.160  24.981  25.319  1.00  0.00     0.039 A 
ATOM     10  C   UNL A   1      33.020  25.728  26.099  1.00  0.00     0.027 A 
ATOM     11  N   UNL A   1      31.672  25.446  24.154  1.00  0.00    -0.246 NA
ATOM     12  C   UNL A   1      33.387  27.012  25.677  1.00  0.00    -0.034 A 
ATOM     13  C   UNL A   1      32.017  26.689  23.703  1.00  0.00     0.114 A 
ATOM     14  C   UNL A   1      34.237  27.817  26.622  1.00  0.00     0.045 C 
BRANCH  13  15
ATOM     15  S   UNL A   1      31.061  27.020  22.238  1.00  0.00    -0.069 SA
BRANCH  15  16
ATOM     16  C   UNL A   1      29.869  28.287  22.528  1.00  0.00     0.017 A 
ATOM     17  C   UNL A   1      28.633  27.941  23.095  1.00  0.00     0.015 A 
ATOM     18  C   UNL A   1      30.072  29.593  22.083  1.00  0.00     0.054 A 
ATOM     19  C   UNL A   1      27.628  28.898  23.259  1.00  0.00     0.004 A 
ATOM     20  C   UNL A   1      29.068  30.539  22.258  1.00  0.00     0.124 A 
ATOM     21  C   UNL A   1      27.850  30.206  22.842  1.00  0.00     0.039 A 
ATOM     22  F   UNL A   1      29.277  31.798  21.851  1.00  0.00    -0.207 F 
ENDBRANCH  15  16
ENDBRANCH  13  15
ENDBRANCH   4   7
ENDBRANCH   2   3
ENDBRANCH   1   2
BRANCH   1  23
ATOM     23  C   UNL A   1      31.484  32.094  26.977  1.00  0.00     0.023 C 
BRANCH  23  24
ATOM     24  C   UNL A   1      32.690  33.019  27.123  1.00  0.00     0.116 C 
BRANCH  24  25
ATOM     25  N   UNL A   1      32.383  34.335  27.657  1.00  0.00    -0.352 N 
ATOM     26  C   UNL A   1      32.987  35.067  28.653  1.00  0.00     0.251 C 
ATOM     27  H   UNL A   1      31.611  34.778  27.235  1.00  0.00     0.163 HD
ATOM     28  O   UNL A   1      32.523  36.162  28.965  1.00  0.00    -0.269 OA
BRANCH  26  29
ATOM     29  C   UNL A   1      34.153  34.536  29.397  1.00  0.00     0.039 A 
ATOM     30  C   UNL A   1      33.928  33.902  30.623  1.00  0.00     0.014 A 
ATOM     31  C   UNL A   1      35.458  34.650  28.913  1.00  0.00     0.014 A 
ATOM     32  C   UNL A   1      34.986  33.289  31.303  1.00  0.00     0.010 A 
ATOM     33  C   UNL A   1      36.498  33.967  29.545  1.00  0.00     0.010 A 
ATOM     34  C   UNL A   1      36.271  33.265  30.739  1.00  0.00    -0.014 A 
BRANCH  34  35
ATOM     35  C   UNL A   1      37.377  32.488  31.362  1.00  0.00     0.031 A 
ATOM     36  C   UNL A   1      37.896  32.857  32.725  1.00  0.00     0.074 A 
ATOM     37  C   UNL A   1      37.976  31.503  30.663  1.00  0.00     0.049 A 
ATOM     38  N   UNL A   1      38.919  32.370  33.382  1.00  0.00    -0.248 NA
ATOM     39  C   UNL A   1      37.188  33.934  33.432  1.00  0.00     0.031 C 
ATOM     40  C   UNL A   1      37.609  31.080  29.310  1.00  0.00     0.029 A 
ATOM     41  N   UNL A   1      39.034  30.688  30.986  1.00  0.00    -0.354 N 
ATOM     42  C   UNL A   1      38.992  33.096  34.563  1.00  0.00     0.074 A 
ATOM     43  C   UNL A   1      37.937  34.085  34.516  1.00  0.00     0.031 C 
ATOM     44  C   UNL A   1      38.412  30.074  28.929  1.00  0.00     0.029 A 
ATOM     45  C   UNL A   1      39.377  29.806  29.990  1.00  0.00     0.049 A 
ATOM     46  H   UNL A   1      39.502  30.731  31.852  1.00  0.00     0.167 HD
ATOM     47  C   UNL A   1      39.849  32.940  35.601  1.00  0.00     0.037 A 
ATOM     48  C   UNL A   1      40.366  28.893  29.931  1.00  0.00     0.037 A 
ATOM     49  C   UNL A   1      40.873  31.930  35.668  1.00  0.00     0.049 A 
ATOM     50  C   UNL A   1      41.292  28.731  31.106  1.00  0.00     0.074 A 
ATOM     51  C   UNL A   1      41.742  31.651  36.709  1.00  0.00     0.029 A 
ATOM     52  N   UNL A   1      41.164  31.031  34.653  1.00  0.00    -0.354 N 
ATOM     53  N   UNL A   1      41.307  29.381  32.243  1.00  0.00    -0.248 NA
ATOM     54  C   UNL A   1      42.336  27.702  30.989  1.00  0.00     0.031 C 
ATOM     55  C   UNL A   1      42.583  30.607  36.310  1.00  0.00     0.029 A 
ATOM     56  C   UNL A   1      42.209  30.207  35.038  1.00  0.00     0.049 A 
ATOM     57  H   UNL A   1      40.697  30.986  33.788  1.00  0.00     0.167 HD
ATOM     58  C   UNL A   1      42.338  28.822  32.987  1.00  0.00     0.074 A 
ATOM     59  C   UNL A   1      42.917  27.771  32.178  1.00  0.00     0.031 C 
ATOM     60  C   UNL A   1      42.765  29.153  34.229  1.00  0.00     0.037 A 
BRANCH  47  61
ATOM     61  C   UNL A   1      39.710  33.878  36.765  1.00  0.00     0.064 A 
ATOM     62  C   UNL A   1      38.912  33.559  37.873  1.00  0.00     0.173 A 
ATOM     63  C   UNL A   1      40.426  35.085  36.794  1.00  0.00     0.173 A 
ATOM     64  F   UNL A   1      38.201  32.422  37.888  1.00  0.00    -0.203 F 
ATOM     65  C   UNL A   1      38.817  34.426  38.959  1.00  0.00     0.198 A 
ATOM     66  C   UNL A   1      40.350  35.936  37.895  1.00  0.00     0.198 A 
ATOM     67  F   UNL A   1      41.210  35.433  35.764  1.00  0.00    -0.203 F 
ATOM     68  F   UNL A   1      38.016  34.120  39.988  1.00  0.00    -0.200 F 
ATOM     69  C   UNL A   1      39.541  35.609  38.972  1.00  0.00     0.200 A 
ATOM     70  F   UNL A   1      41.060  37.072  37.912  1.00  0.00    -0.200 F 
ATOM     71  F   UNL A   1      39.456  36.436  40.023  1.00  0.00    -0.200 F 
ENDBRANCH  47  61
BRANCH  48  72
ATOM     72  C   UNL A   1      40.523  28.040  28.723  1.00  0.00     0.064 A 
ATOM     73  C   UNL A   1      41.317  28.460  27.647  1.00  0.00     0.173 A 
ATOM     74  C   UNL A   1      39.871  26.804  28.610  1.00  0.00     0.173 A 
ATOM     75  F   UNL A   1      41.942  29.646  27.701  1.00  0.00    -0.203 F 
ATOM     76  C   UNL A   1      41.435  27.688  26.495  1.00  0.00     0.198 A 
ATOM     77  C   UNL A   1      40.011  26.019  27.467  1.00  0.00     0.198 A 
ATOM     78  F   UNL A   1      39.102  26.356  29.613  1.00  0.00    -0.203 F 
ATOM     79  F   UNL A   1      42.161  28.136  25.462  1.00  0.00    -0.200 F 
ATOM     80  C   UNL A   1      40.786  26.465  26.407  1.00  0.00     0.200 A 
ATOM     81  F   UNL A   1      39.392  24.833  27.391  1.00  0.00    -0.200 F 
ATOM     82  F   UNL A   1      40.899  25.722  25.298  1.00  0.00    -0.200 F 
ENDBRANCH  48  72
BRANCH  60  83
ATOM     83  C   UNL A   1      43.886  28.344  34.811  1.00  0.00     0.064 A 
ATOM     84  C   UNL A   1      45.226  28.738  34.673  1.00  0.00     0.173 A 
ATOM     85  C   UNL A   1      43.613  27.184  35.550  1.00  0.00     0.173 A 
ATOM     86  F   UNL A   1      45.538  29.831  33.962  1.00  0.00    -0.203 F 
ATOM     87  C   UNL A   1      46.252  27.985  35.237  1.00  0.00     0.198 A 
ATOM     88  C   UNL A   1      44.641  26.448  36.134  1.00  0.00     0.198 A 
ATOM     89  F   UNL A   1      42.349  26.768  35.714  1.00  0.00    -0.203 F 
ATOM     90  F   UNL A   1      47.529  28.355  35.056  1.00  0.00    -0.200 F 
ATOM     91  C   UNL A   1      45.959  26.846  35.972  1.00  0.00     0.200 A 
ATOM     92  F   UNL A   1      44.355  25.354  36.855  1.00  0.00    -0.200 F 
ATOM     93  F   UNL A   1      46.949  26.128  36.519  1.00  0.00    -0.200 F 
ENDBRANCH  60  83
ENDBRANCH  34  35
ENDBRANCH  26  29
ENDBRANCH  24  25
ENDBRANCH  23  24
ENDBRANCH   1  23
TORSDOF 13
ENDMDL
MODEL 3
REMARK VINA RESULT:     -12.7      6.104     10.350
REMARK SMILES Cc1cc(C)c(C(=O)NCCCCNC(=O)c2ccc(-c3c4nc(c(-c5c(F)c(F)c(F)c(F)c5F)c5ccc([nH]5)c(-c5c(F)c(F)c(F)c(F)c5F)c5nc(c(-c6c(F)c(F)c(F)c(F)c6F)c6ccc3[nH]6)C=C5)C=C4)cc2)c(Sc2cccc(F)c2)n1
REMARK SMILES IDX 11 1 10 2 9 3 7 4 8 5 6 7 1 8 2 9 3 10 89 11 4 12 80 13 5 14
REMARK SMILES IDX 81 15 82 16 83 17 88 18 84 19 86 20 85 21 87 22 12 23 13 24
REMARK SMILES IDX 14 25 15 26 16 28 17 29 18 30 79 31 19 32 78 33 20 34 21 35
REMARK SMILES IDX 22 36 72 37 23 38 77 39 71 40 73 41 24 42 76 43 70 44 69 45
REMARK SMILES IDX 25 47 57 48 37 49 56 50 38 51 41 52 55 53 74 54 39 55 40 56
REMARK SMILES IDX 54 58 75 59 42 60 26 61 27 62 35 63 28 64 29 65 33 66 36 67
REMARK SMILES IDX 30 68 31 69 34 70 32 71 58 72 59 73 67 74 60 75 61 76 65 77
REMARK SMILES IDX 68 78 62 79 63 80 66 81 64 82 43 83 44 84 52 85 45 86 46 87
REMARK SMILES IDX 50 88 53 89 47 90 48 91 51 92 49 93
REMARK H PARENT 9 6 14 27 73 46 41 57
REMARK Flexibility Score: inf
ROOT
ATOM      1  C   UNL A   1      36.465  20.211  25.039  1.00  0.00     0.023 C 
ENDROOT
BRANCH   1   2
ATOM      2  C   UNL A   1      36.063  21.681  25.126  1.00  0.00     0.116 C 
BRANCH   2   3
ATOM      3  N   UNL A   1      35.693  22.314  23.873  1.00  0.00    -0.352 N 
ATOM      4  C   UNL A   1      34.618  23.147  23.626  1.00  0.00     0.254 C 
ATOM      5  O   UNL A   1      34.663  23.934  22.685  1.00  0.00    -0.269 OA
ATOM      6  H   UNL A   1      36.280  22.128  23.105  1.00  0.00     0.163 HD
BRANCH   4   7
ATOM      7  C   UNL A   1      33.429  23.118  24.496  1.00  0.00     0.075 A 
ATOM      8  C   UNL A   1      29.969  22.996  26.979  1.00  0.00     0.067 C 
ATOM      9  C   UNL A   1      31.197  23.070  26.123  1.00  0.00     0.039 A 
ATOM     10  C   UNL A   1      32.111  24.092  26.285  1.00  0.00     0.027 A 
ATOM     11  N   UNL A   1      31.353  22.118  25.185  1.00  0.00    -0.246 NA
ATOM     12  C   UNL A   1      33.227  24.153  25.441  1.00  0.00    -0.034 A 
ATOM     13  C   UNL A   1      32.438  22.136  24.352  1.00  0.00     0.114 A 
ATOM     14  C   UNL A   1      34.126  25.349  25.595  1.00  0.00     0.045 C 
BRANCH  13  15
ATOM     15  S   UNL A   1      32.222  20.839  23.152  1.00  0.00    -0.069 SA
BRANCH  15  16
ATOM     16  C   UNL A   1      32.625  19.264  23.836  1.00  0.00     0.017 A 
ATOM     17  C   UNL A   1      32.451  19.055  25.212  1.00  0.00     0.015 A 
ATOM     18  C   UNL A   1      33.235  18.273  23.068  1.00  0.00     0.054 A 
ATOM     19  C   UNL A   1      32.841  17.852  25.808  1.00  0.00     0.004 A 
ATOM     20  C   UNL A   1      33.613  17.077  23.669  1.00  0.00     0.124 A 
ATOM     21  C   UNL A   1      33.420  16.856  25.029  1.00  0.00     0.039 A 
ATOM     22  F   UNL A   1      34.177  16.118  22.923  1.00  0.00    -0.207 F 
ENDBRANCH  15  16
ENDBRANCH  13  15
ENDBRANCH   4   7
ENDBRANCH   2   3
ENDBRANCH   1   2
BRANCH   1  23
ATOM     23  C   UNL A   1      37.920  19.900  24.683  1.00  0.00     0.023 C 
BRANCH  23  24
ATOM     24  C   UNL A   1      38.987  20.187  25.736  1.00  0.00     0.116 C 
BRANCH  24  25
ATOM     25  N   UNL A   1      40.041  19.190  25.817  1.00  0.00    -0.352 N 
ATOM     26  C   UNL A   1      41.379  19.316  26.112  1.00  0.00     0.251 C 
ATOM     27  H   UNL A   1      39.748  18.269  25.629  1.00  0.00     0.163 HD
ATOM     28  O   UNL A   1      42.100  18.319  26.085  1.00  0.00    -0.269 OA
BRANCH  26  29
ATOM     29  C   UNL A   1      41.981  20.637  26.405  1.00  0.00     0.039 A 
ATOM     30  C   UNL A   1      42.313  21.470  25.331  1.00  0.00     0.014 A 
ATOM     31  C   UNL A   1      42.224  21.069  27.710  1.00  0.00     0.014 A 
ATOM     32  C   UNL A   1      42.778  22.769  25.567  1.00  0.00     0.010 A 
ATOM     33  C   UNL A   1      42.606  22.391  27.947  1.00  0.00     0.010 A 
ATOM     34  C   UNL A   1      42.872  23.260  26.878  1.00  0.00    -0.014 A 
BRANCH  34  35
ATOM     35  C   UNL A   1      43.213  24.684  27.150  1.00  0.00     0.031 A 
ATOM     36  C   UNL A   1      44.609  25.193  26.914  1.00  0.00     0.074 A 
ATOM     37  C   UNL A   1      42.287  25.500  27.693  1.00  0.00     0.049 A 
ATOM     38  N   UNL A   1      45.121  26.366  27.193  1.00  0.00    -0.248 NA
ATOM     39  C   UNL A   1      45.563  24.251  26.311  1.00  0.00     0.031 C 
ATOM     40  C   UNL A   1      40.912  25.119  28.023  1.00  0.00     0.029 A 
ATOM     41  N   UNL A   1      42.366  26.815  28.081  1.00  0.00    -0.354 N 
ATOM     42  C   UNL A   1      46.458  26.293  26.825  1.00  0.00     0.074 A 
ATOM     43  C   UNL A   1      46.690  24.950  26.340  1.00  0.00     0.031 C 
ATOM     44  C   UNL A   1      40.273  26.180  28.543  1.00  0.00     0.029 A 
ATOM     45  C   UNL A   1      41.201  27.303  28.622  1.00  0.00     0.049 A 
ATOM     46  H   UNL A   1      43.182  27.358  27.979  1.00  0.00     0.167 HD
ATOM     47  C   UNL A   1      47.401  27.265  26.867  1.00  0.00     0.037 A 
ATOM     48  C   UNL A   1      40.914  28.515  29.136  1.00  0.00     0.037 A 
ATOM     49  C   UNL A   1      47.164  28.614  27.309  1.00  0.00     0.049 A 
ATOM     50  C   UNL A   1      41.978  29.579  29.155  1.00  0.00     0.074 A 
ATOM     51  C   UNL A   1      48.041  29.685  27.322  1.00  0.00     0.029 A 
ATOM     52  N   UNL A   1      45.959  29.078  27.815  1.00  0.00    -0.354 N 
ATOM     53  N   UNL A   1      43.220  29.515  28.742  1.00  0.00    -0.248 NA
ATOM     54  C   UNL A   1      41.597  30.887  29.708  1.00  0.00     0.031 C 
ATOM     55  C   UNL A   1      47.378  30.788  27.868  1.00  0.00     0.029 A 
ATOM     56  C   UNL A   1      46.075  30.416  28.156  1.00  0.00     0.049 A 
ATOM     57  H   UNL A   1      45.143  28.537  27.917  1.00  0.00     0.167 HD
ATOM     58  C   UNL A   1      43.758  30.777  28.956  1.00  0.00     0.074 A 
ATOM     59  C   UNL A   1      42.704  31.591  29.524  1.00  0.00     0.031 C 
ATOM     60  C   UNL A   1      45.013  31.219  28.705  1.00  0.00     0.037 A 
BRANCH  47  61
ATOM     61  C   UNL A   1      48.787  26.909  26.410  1.00  0.00     0.064 A 
ATOM     62  C   UNL A   1      49.737  26.380  27.295  1.00  0.00     0.173 A 
ATOM     63  C   UNL A   1      49.149  27.049  25.061  1.00  0.00     0.173 A 
ATOM     64  F   UNL A   1      49.443  26.235  28.595  1.00  0.00    -0.203 F 
ATOM     65  C   UNL A   1      51.009  26.026  26.850  1.00  0.00     0.198 A 
ATOM     66  C   UNL A   1      50.412  26.668  24.615  1.00  0.00     0.198 A 
ATOM     67  F   UNL A   1      48.274  27.543  24.173  1.00  0.00    -0.203 F 
ATOM     68  F   UNL A   1      51.915  25.561  27.722  1.00  0.00    -0.200 F 
ATOM     69  C   UNL A   1      51.343  26.164  25.511  1.00  0.00     0.200 A 
ATOM     70  F   UNL A   1      50.729  26.790  23.319  1.00  0.00    -0.200 F 
ATOM     71  F   UNL A   1      52.563  25.812  25.084  1.00  0.00    -0.200 F 
ENDBRANCH  47  61
BRANCH  48  72
ATOM     72  C   UNL A   1      39.553  28.800  29.659  1.00  0.00     0.064 A 
ATOM     73  C   UNL A   1      38.568  29.357  28.830  1.00  0.00     0.173 A 
ATOM     74  C   UNL A   1      39.213  28.543  30.995  1.00  0.00     0.173 A 
ATOM     75  F   UNL A   1      38.854  29.640  27.551  1.00  0.00    -0.203 F 
ATOM     76  C   UNL A   1      37.303  29.667  29.323  1.00  0.00     0.198 A 
ATOM     77  C   UNL A   1      37.938  28.829  31.480  1.00  0.00     0.198 A 
ATOM     78  F   UNL A   1      40.117  28.009  31.827  1.00  0.00    -0.203 F 
ATOM     79  F   UNL A   1      36.397  30.243  28.522  1.00  0.00    -0.200 F 
ATOM     80  C   UNL A   1      36.987  29.399  30.647  1.00  0.00     0.200 A 
ATOM     81  F   UNL A   1      37.633  28.558  32.757  1.00  0.00    -0.200 F 
ATOM     82  F   UNL A   1      35.770  29.698  31.121  1.00  0.00    -0.200 F 
ENDBRANCH  48  72
BRANCH  60  83
ATOM     83  C   UNL A   1      45.309  32.660  29.001  1.00  0.00     0.064 A 
ATOM     84  C   UNL A   1      45.071  33.668  28.055  1.00  0.00     0.173 A 
ATOM     85  C   UNL A   1      45.796  33.039  30.260  1.00  0.00     0.173 A 
ATOM     86  F   UNL A   1      44.621  33.353  26.832  1.00  0.00    -0.203 F 
ATOM     87  C   UNL A   1      45.332  35.003  28.354  1.00  0.00     0.198 A 
ATOM     88  C   UNL A   1      46.031  34.378  30.564  1.00  0.00     0.198 A 
ATOM     89  F   UNL A   1      46.035  32.113  31.201  1.00  0.00    -0.203 F 
ATOM     90  F   UNL A   1      45.140  35.946  27.421  1.00  0.00    -0.200 F 
ATOM     91  C   UNL A   1      45.805  35.357  29.610  1.00  0.00     0.200 A 
ATOM     92  F   UNL A   1      46.476  34.719  31.782  1.00  0.00    -0.200 F 
ATOM     93  F   UNL A   1      46.048  36.643  29.896  1.00  0.00    -0.200 F 
ENDBRANCH  60  83
ENDBRANCH  34  35
ENDBRANCH  26  29
ENDBRANCH  24  25
ENDBRANCH  23  24
ENDBRANCH   1  23
TORSDOF 13
ENDMDL
