MODEL 1
REMARK VINA RESULT:     -12.0      0.000      0.000
REMARK SMILES O=C(Cc1ccc(S(=O)(=O)N2CCNC(=O)C2)cc1)NCCCCNC(=O)c1ccc(-c2c3nc(c(-c4c(F)c(F)c(F)c(F)c4F)c4ccc([nH]4)c(-c4c(F)c(F)c(F)c(F)c4F)c4nc(c(-c5c(F)c(F)c(F)c(F)c5F)c5ccc2[nH]5)C=C4)C=C3)cc1
REMARK SMILES IDX 22 1 21 2 20 3 1 4 2 5 3 7 4 8 5 9 19 10 6 11 18 12 7 13
REMARK SMILES IDX 8 14 9 15 10 16 11 17 12 18 17 19 13 20 15 21 14 22 16 23
REMARK SMILES IDX 23 25 24 26 25 27 26 28 27 30 28 31 29 32 90 33 30 34 89 35
REMARK SMILES IDX 31 36 32 37 33 38 83 39 34 40 88 41 82 42 84 43 35 44 87 45
REMARK SMILES IDX 81 46 80 47 36 49 68 50 48 51 67 52 49 53 52 54 66 55 85 56
REMARK SMILES IDX 50 57 51 58 65 60 86 61 53 62 37 63 38 64 46 65 39 66 40 67
REMARK SMILES IDX 44 68 47 69 41 70 42 71 45 72 43 73 69 74 70 75 78 76 71 77
REMARK SMILES IDX 72 78 76 79 79 80 73 81 74 82 77 83 75 84 54 85 55 86 63 87
REMARK SMILES IDX 56 88 57 89 61 90 64 91 58 92 59 93 62 94 60 95
REMARK H PARENT 20 6 14 24 25 29 84 48 52 59
REMARK Flexibility Score: inf
ROOT
ATOM      1  C   UNL A   1      34.623  33.651  28.933  1.00  0.00     0.023 C 
ENDROOT
BRANCH   1   2
ATOM      2  C   UNL A   1      34.453  32.133  28.976  1.00  0.00     0.116 C 
BRANCH   2   3
ATOM      3  N   UNL A   1      33.877  31.607  27.753  1.00  0.00    -0.356 N 
ATOM      4  O   UNL A   1      34.957  29.580  27.838  1.00  0.00    -0.275 OA
ATOM      5  C   UNL A   1      34.151  30.331  27.296  1.00  0.00     0.224 C 
ATOM      6  H   UNL A   1      33.270  32.178  27.230  1.00  0.00     0.163 HD
BRANCH   5   7
ATOM      7  C   UNL A   1      33.346  29.916  26.068  1.00  0.00     0.135 C 
BRANCH   7   8
ATOM      8  C   UNL A   1      32.938  28.462  26.120  1.00  0.00    -0.039 A 
ATOM      9  C   UNL A   1      31.857  28.027  26.900  1.00  0.00     0.005 A 
ATOM     10  C   UNL A   1      33.631  27.522  25.354  1.00  0.00     0.005 A 
ATOM     11  C   UNL A   1      31.441  26.689  26.856  1.00  0.00     0.022 A 
ATOM     12  C   UNL A   1      33.225  26.191  25.323  1.00  0.00     0.022 A 
ATOM     13  C   UNL A   1      32.112  25.772  26.039  1.00  0.00     0.082 A 
BRANCH  13  14
ATOM     14  S   UNL A   1      31.505  24.098  25.951  1.00  0.00     0.243 S 
ATOM     15  O   UNL A   1      30.886  23.827  27.227  1.00  0.00    -0.207 OA
ATOM     16  O   UNL A   1      30.756  24.007  24.712  1.00  0.00    -0.207 OA
BRANCH  14  17
ATOM     17  N   UNL A   1      32.825  23.070  25.793  1.00  0.00    -0.187 NA
ATOM     18  C   UNL A   1      33.913  23.041  26.787  1.00  0.00     0.124 C 
ATOM     19  C   UNL A   1      32.755  21.871  24.931  1.00  0.00     0.202 C 
ATOM     20  C   UNL A   1      33.781  21.808  27.675  1.00  0.00     0.132 C 
ATOM     21  C   UNL A   1      33.006  20.549  25.661  1.00  0.00     0.235 C 
ATOM     22  N   UNL A   1      33.554  20.590  26.919  1.00  0.00    -0.354 N 
ATOM     23  O   UNL A   1      32.727  19.457  25.170  1.00  0.00    -0.274 OA
ATOM     24  H   UNL A   1      33.810  19.735  27.337  1.00  0.00     0.163 HD
ENDBRANCH  14  17
ENDBRANCH  13  14
ENDBRANCH   7   8
ENDBRANCH   5   7
ENDBRANCH   2   3
ENDBRANCH   1   2
BRANCH   1  25
ATOM     25  C   UNL A   1      33.323  34.459  28.849  1.00  0.00     0.023 C 
BRANCH  25  26
ATOM     26  C   UNL A   1      33.393  35.884  29.387  1.00  0.00     0.116 C 
BRANCH  26  27
ATOM     27  N   UNL A   1      32.500  36.112  30.511  1.00  0.00    -0.352 N 
ATOM     28  C   UNL A   1      32.590  35.690  31.817  1.00  0.00     0.251 C 
ATOM     29  H   UNL A   1      31.703  36.654  30.305  1.00  0.00     0.163 HD
ATOM     30  O   UNL A   1      31.643  35.861  32.579  1.00  0.00    -0.269 OA
BRANCH  28  31
ATOM     31  C   UNL A   1      33.808  35.006  32.311  1.00  0.00     0.039 A 
ATOM     32  C   UNL A   1      33.690  33.712  32.828  1.00  0.00     0.014 A 
ATOM     33  C   UNL A   1      35.057  35.634  32.292  1.00  0.00     0.014 A 
ATOM     34  C   UNL A   1      34.829  33.024  33.255  1.00  0.00     0.010 A 
ATOM     35  C   UNL A   1      36.202  34.919  32.644  1.00  0.00     0.010 A 
ATOM     36  C   UNL A   1      36.101  33.605  33.127  1.00  0.00    -0.014 A 
BRANCH  36  37
ATOM     37  C   UNL A   1      37.334  32.847  33.480  1.00  0.00     0.031 A 
ATOM     38  C   UNL A   1      38.074  33.143  34.755  1.00  0.00     0.074 A 
ATOM     39  C   UNL A   1      37.820  31.929  32.621  1.00  0.00     0.049 A 
ATOM     40  N   UNL A   1      39.199  32.638  35.198  1.00  0.00    -0.248 NA
ATOM     41  C   UNL A   1      37.485  34.158  35.642  1.00  0.00     0.031 C 
ATOM     42  C   UNL A   1      37.221  31.577  31.333  1.00  0.00     0.029 A 
ATOM     43  N   UNL A   1      38.937  31.134  32.694  1.00  0.00    -0.354 N 
ATOM     44  C   UNL A   1      39.455  33.278  36.403  1.00  0.00     0.074 A 
ATOM     45  C   UNL A   1      38.399  34.249  36.597  1.00  0.00     0.031 C 
ATOM     46  C   UNL A   1      37.963  30.624  30.747  1.00  0.00     0.029 A 
ATOM     47  C   UNL A   1      39.116  30.332  31.593  1.00  0.00     0.049 A 
ATOM     48  H   UNL A   1      39.552  31.138  33.463  1.00  0.00     0.167 HD
ATOM     49  C   UNL A   1      40.463  33.060  37.281  1.00  0.00     0.037 A 
ATOM     50  C   UNL A   1      40.106  29.469  31.290  1.00  0.00     0.037 A 
ATOM     51  C   UNL A   1      41.507  32.085  37.092  1.00  0.00     0.049 A 
ATOM     52  C   UNL A   1      41.233  29.268  32.269  1.00  0.00     0.074 A 
ATOM     53  C   UNL A   1      42.547  31.757  37.947  1.00  0.00     0.029 A 
ATOM     54  N   UNL A   1      41.651  31.287  35.966  1.00  0.00    -0.354 N 
ATOM     55  N   UNL A   1      41.426  29.830  33.436  1.00  0.00    -0.248 NA
ATOM     56  C   UNL A   1      42.277  28.306  31.889  1.00  0.00     0.031 C 
ATOM     57  C   UNL A   1      43.352  30.806  37.313  1.00  0.00     0.029 A 
ATOM     58  C   UNL A   1      42.777  30.488  36.093  1.00  0.00     0.049 A 
ATOM     59  H   UNL A   1      41.043  31.288  35.191  1.00  0.00     0.167 HD
ATOM     60  C   UNL A   1      42.591  29.269  33.944  1.00  0.00     0.074 A 
ATOM     61  C   UNL A   1      43.051  28.307  32.963  1.00  0.00     0.031 C 
ATOM     62  C   UNL A   1      43.222  29.526  35.116  1.00  0.00     0.037 A 
BRANCH  49  63
ATOM     63  C   UNL A   1      40.492  33.892  38.533  1.00  0.00     0.064 A 
ATOM     64  C   UNL A   1      41.235  35.079  38.611  1.00  0.00     0.173 A 
ATOM     65  C   UNL A   1      39.733  33.522  39.654  1.00  0.00     0.173 A 
ATOM     66  F   UNL A   1      41.987  35.476  37.573  1.00  0.00    -0.203 F 
ATOM     67  C   UNL A   1      41.242  35.848  39.773  1.00  0.00     0.198 A 
ATOM     68  C   UNL A   1      39.714  34.311  40.801  1.00  0.00     0.198 A 
ATOM     69  F   UNL A   1      38.998  32.400  39.634  1.00  0.00    -0.203 F 
ATOM     70  F   UNL A   1      42.003  36.950  39.840  1.00  0.00    -0.200 F 
ATOM     71  C   UNL A   1      40.474  35.468  40.863  1.00  0.00     0.200 A 
ATOM     72  F   UNL A   1      38.959  33.951  41.848  1.00  0.00    -0.200 F 
ATOM     73  F   UNL A   1      40.475  36.214  41.977  1.00  0.00    -0.200 F 
ENDBRANCH  49  63
BRANCH  50  74
ATOM     74  C   UNL A   1      40.075  28.720  30.004  1.00  0.00     0.064 A 
ATOM     75  C   UNL A   1      39.467  27.460  29.916  1.00  0.00     0.173 A 
ATOM     76  C   UNL A   1      40.667  29.238  28.843  1.00  0.00     0.173 A 
ATOM     77  F   UNL A   1      38.904  26.910  31.002  1.00  0.00    -0.203 F 
ATOM     78  C   UNL A   1      39.476  26.737  28.725  1.00  0.00     0.198 A 
ATOM     79  C   UNL A   1      40.645  28.529  27.644  1.00  0.00     0.198 A 
ATOM     80  F   UNL A   1      41.258  30.443  28.870  1.00  0.00    -0.203 F 
ATOM     81  F   UNL A   1      38.938  25.510  28.685  1.00  0.00    -0.200 F 
ATOM     82  C   UNL A   1      40.061  27.273  27.588  1.00  0.00     0.200 A 
ATOM     83  F   UNL A   1      41.196  29.061  26.544  1.00  0.00    -0.200 F 
ATOM     84  F   UNL A   1      40.068  26.579  26.443  1.00  0.00    -0.200 F 
ENDBRANCH  50  74
BRANCH  62  85
ATOM     85  C   UNL A   1      44.455  28.727  35.428  1.00  0.00     0.064 A 
ATOM     86  C   UNL A   1      44.393  27.502  36.110  1.00  0.00     0.173 A 
ATOM     87  C   UNL A   1      45.716  29.175  35.004  1.00  0.00     0.173 A 
ATOM     88  F   UNL A   1      43.215  27.034  36.551  1.00  0.00    -0.203 F 
ATOM     89  C   UNL A   1      45.549  26.774  36.383  1.00  0.00     0.198 A 
ATOM     90  C   UNL A   1      46.864  28.426  35.246  1.00  0.00     0.198 A 
ATOM     91  F   UNL A   1      45.833  30.335  34.340  1.00  0.00    -0.203 F 
ATOM     92  F   UNL A   1      45.469  25.635  37.085  1.00  0.00    -0.200 F 
ATOM     93  C   UNL A   1      46.781  27.232  35.943  1.00  0.00     0.200 A 
ATOM     94  F   UNL A   1      48.052  28.863  34.804  1.00  0.00    -0.200 F 
ATOM     95  F   UNL A   1      47.891  26.524  36.198  1.00  0.00    -0.200 F 
ENDBRANCH  62  85
ENDBRANCH  36  37
ENDBRANCH  28  31
ENDBRANCH  26  27
ENDBRANCH  25  26
ENDBRANCH   1  25
TORSDOF 14
ENDMDL
MODEL 2
REMARK VINA RESULT:     -11.9      2.100      7.790
REMARK SMILES O=C(Cc1ccc(S(=O)(=O)N2CCNC(=O)C2)cc1)NCCCCNC(=O)c1ccc(-c2c3nc(c(-c4c(F)c(F)c(F)c(F)c4F)c4ccc([nH]4)c(-c4c(F)c(F)c(F)c(F)c4F)c4nc(c(-c5c(F)c(F)c(F)c(F)c5F)c5ccc2[nH]5)C=C4)C=C3)cc1
REMARK SMILES IDX 22 1 21 2 20 3 1 4 2 5 3 7 4 8 5 9 19 10 6 11 18 12 7 13
REMARK SMILES IDX 8 14 9 15 10 16 11 17 12 18 17 19 13 20 15 21 14 22 16 23
REMARK SMILES IDX 23 25 24 26 25 27 26 28 27 30 28 31 29 32 90 33 30 34 89 35
REMARK SMILES IDX 31 36 32 37 33 38 83 39 34 40 88 41 82 42 84 43 35 44 87 45
REMARK SMILES IDX 81 46 80 47 36 49 68 50 48 51 67 52 49 53 52 54 66 55 85 56
REMARK SMILES IDX 50 57 51 58 65 60 86 61 53 62 37 63 38 64 46 65 39 66 40 67
REMARK SMILES IDX 44 68 47 69 41 70 42 71 45 72 43 73 69 74 70 75 78 76 71 77
REMARK SMILES IDX 72 78 76 79 79 80 73 81 74 82 77 83 75 84 54 85 55 86 63 87
REMARK SMILES IDX 56 88 57 89 61 90 64 91 58 92 59 93 62 94 60 95
REMARK H PARENT 20 6 14 24 25 29 84 48 52 59
REMARK Flexibility Score: inf
ROOT
ATOM      1  C   UNL A   1      31.650  30.500  26.659  1.00  0.00     0.023 C 
ENDROOT
BRANCH   1   2
ATOM      2  C   UNL A   1      31.978  29.957  25.269  1.00  0.00     0.116 C 
BRANCH   2   3
ATOM      3  N   UNL A   1      31.106  28.864  24.883  1.00  0.00    -0.356 N 
ATOM      4  O   UNL A   1      30.127  29.959  23.115  1.00  0.00    -0.275 OA
ATOM      5  C   UNL A   1      30.263  28.942  23.789  1.00  0.00     0.224 C 
ATOM      6  H   UNL A   1      31.114  28.038  25.418  1.00  0.00     0.163 HD
BRANCH   5   7
ATOM      7  C   UNL A   1      29.526  27.645  23.469  1.00  0.00     0.135 C 
BRANCH   7   8
ATOM      8  C   UNL A   1      30.467  26.466  23.375  1.00  0.00    -0.039 A 
ATOM      9  C   UNL A   1      30.350  25.359  24.229  1.00  0.00     0.005 A 
ATOM     10  C   UNL A   1      31.465  26.453  22.398  1.00  0.00     0.005 A 
ATOM     11  C   UNL A   1      31.175  24.238  24.058  1.00  0.00     0.022 A 
ATOM     12  C   UNL A   1      32.292  25.346  22.239  1.00  0.00     0.022 A 
ATOM     13  C   UNL A   1      32.133  24.221  23.037  1.00  0.00     0.082 A 
BRANCH  13  14
ATOM     14  S   UNL A   1      33.108  22.748  22.803  1.00  0.00     0.243 S 
ATOM     15  O   UNL A   1      32.248  21.798  22.138  1.00  0.00    -0.207 OA
ATOM     16  O   UNL A   1      34.358  23.184  22.208  1.00  0.00    -0.207 OA
BRANCH  14  17
ATOM     17  N   UNL A   1      33.487  22.124  24.317  1.00  0.00    -0.187 NA
ATOM     18  C   UNL A   1      32.821  20.923  24.853  1.00  0.00     0.124 C 
ATOM     19  C   UNL A   1      34.767  22.457  24.977  1.00  0.00     0.202 C 
ATOM     20  C   UNL A   1      33.750  19.718  24.754  1.00  0.00     0.132 C 
ATOM     21  C   UNL A   1      35.648  21.248  25.299  1.00  0.00     0.235 C 
ATOM     22  N   UNL A   1      35.088  19.996  25.242  1.00  0.00    -0.354 N 
ATOM     23  O   UNL A   1      36.837  21.354  25.595  1.00  0.00    -0.274 OA
ATOM     24  H   UNL A   1      35.631  19.235  25.553  1.00  0.00     0.163 HD
ENDBRANCH  14  17
ENDBRANCH  13  14
ENDBRANCH   7   8
ENDBRANCH   5   7
ENDBRANCH   2   3
ENDBRANCH   1   2
BRANCH   1  25
ATOM     25  C   UNL A   1      31.463  32.020  26.746  1.00  0.00     0.023 C 
BRANCH  25  26
ATOM     26  C   UNL A   1      32.716  32.823  27.085  1.00  0.00     0.116 C 
BRANCH  26  27
ATOM     27  N   UNL A   1      32.420  34.166  27.553  1.00  0.00    -0.352 N 
ATOM     28  C   UNL A   1      32.978  34.893  28.578  1.00  0.00     0.251 C 
ATOM     29  H   UNL A   1      31.706  34.631  27.057  1.00  0.00     0.163 HD
ATOM     30  O   UNL A   1      32.474  35.962  28.912  1.00  0.00    -0.269 OA
BRANCH  28  31
ATOM     31  C   UNL A   1      34.167  34.390  29.306  1.00  0.00     0.039 A 
ATOM     32  C   UNL A   1      33.981  33.746  30.533  1.00  0.00     0.014 A 
ATOM     33  C   UNL A   1      35.459  34.565  28.803  1.00  0.00     0.014 A 
ATOM     34  C   UNL A   1      35.079  33.217  31.217  1.00  0.00     0.010 A 
ATOM     35  C   UNL A   1      36.544  33.969  29.446  1.00  0.00     0.010 A 
ATOM     36  C   UNL A   1      36.366  33.286  30.660  1.00  0.00    -0.014 A 
BRANCH  36  37
ATOM     37  C   UNL A   1      37.530  32.637  31.324  1.00  0.00     0.031 A 
ATOM     38  C   UNL A   1      38.246  31.491  30.663  1.00  0.00     0.074 A 
ATOM     39  C   UNL A   1      37.908  33.044  32.553  1.00  0.00     0.049 A 
ATOM     40  N   UNL A   1      39.233  30.758  31.116  1.00  0.00    -0.248 NA
ATOM     41  C   UNL A   1      37.777  31.102  29.325  1.00  0.00     0.031 C 
ATOM     42  C   UNL A   1      37.273  34.116  33.320  1.00  0.00     0.029 A 
ATOM     43  N   UNL A   1      38.909  32.595  33.378  1.00  0.00    -0.354 N 
ATOM     44  C   UNL A   1      39.494  29.819  30.126  1.00  0.00     0.074 A 
ATOM     45  C   UNL A   1      38.525  30.038  29.073  1.00  0.00     0.031 C 
ATOM     46  C   UNL A   1      37.910  34.256  34.493  1.00  0.00     0.029 A 
ATOM     47  C   UNL A   1      38.967  33.253  34.583  1.00  0.00     0.049 A 
ATOM     48  H   UNL A   1      39.527  31.870  33.131  1.00  0.00     0.167 HD
ATOM     49  C   UNL A   1      40.466  28.877  30.087  1.00  0.00     0.037 A 
ATOM     50  C   UNL A   1      39.770  33.061  35.648  1.00  0.00     0.037 A 
ATOM     51  C   UNL A   1      41.436  28.668  31.132  1.00  0.00     0.049 A 
ATOM     52  C   UNL A   1      40.823  31.986  35.592  1.00  0.00     0.074 A 
ATOM     53  C   UNL A   1      42.489  27.769  31.164  1.00  0.00     0.029 A 
ATOM     54  N   UNL A   1      41.466  29.359  32.335  1.00  0.00    -0.354 N 
ATOM     55  N   UNL A   1      41.103  31.150  34.622  1.00  0.00    -0.248 NA
ATOM     56  C   UNL A   1      41.677  31.832  36.778  1.00  0.00     0.031 C 
ATOM     57  C   UNL A   1      43.119  27.876  32.408  1.00  0.00     0.029 A 
ATOM     58  C   UNL A   1      42.502  28.889  33.126  1.00  0.00     0.049 A 
ATOM     59  H   UNL A   1      40.843  30.078  32.589  1.00  0.00     0.167 HD
ATOM     60  C   UNL A   1      42.182  30.396  35.066  1.00  0.00     0.074 A 
ATOM     61  C   UNL A   1      42.517  30.886  36.387  1.00  0.00     0.031 C 
ATOM     62  C   UNL A   1      42.835  29.389  34.436  1.00  0.00     0.037 A 
BRANCH  49  63
ATOM     63  C   UNL A   1      40.534  27.993  28.873  1.00  0.00     0.064 A 
ATOM     64  C   UNL A   1      39.809  26.795  28.793  1.00  0.00     0.173 A 
ATOM     65  C   UNL A   1      41.298  28.369  27.758  1.00  0.00     0.173 A 
ATOM     66  F   UNL A   1      39.070  26.381  29.833  1.00  0.00    -0.203 F 
ATOM     67  C   UNL A   1      39.871  25.992  27.656  1.00  0.00     0.198 A 
ATOM     68  C   UNL A   1      41.330  27.582  26.609  1.00  0.00     0.198 A 
ATOM     69  F   UNL A   1      42.007  29.508  27.775  1.00  0.00    -0.203 F 
ATOM     70  F   UNL A   1      39.212  24.825  27.626  1.00  0.00    -0.200 F 
ATOM     71  C   UNL A   1      40.623  26.391  26.562  1.00  0.00     0.200 A 
ATOM     72  F   UNL A   1      42.045  27.978  25.547  1.00  0.00    -0.200 F 
ATOM     73  F   UNL A   1      40.675  25.622  25.466  1.00  0.00    -0.200 F 
ENDBRANCH  49  63
BRANCH  50  74
ATOM     74  C   UNL A   1      39.619  33.913  36.860  1.00  0.00     0.064 A 
ATOM     75  C   UNL A   1      38.841  33.491  37.947  1.00  0.00     0.173 A 
ATOM     76  C   UNL A   1      40.231  35.172  36.948  1.00  0.00     0.173 A 
ATOM     77  F   UNL A   1      38.218  32.304  37.904  1.00  0.00    -0.203 F 
ATOM     78  C   UNL A   1      38.660  34.306  39.062  1.00  0.00     0.198 A 
ATOM     79  C   UNL A   1      40.078  35.971  38.079  1.00  0.00     0.198 A 
ATOM     80  F   UNL A   1      40.991  35.622  35.938  1.00  0.00    -0.203 F 
ATOM     81  F   UNL A   1      37.865  33.901  40.063  1.00  0.00    -0.200 F 
ATOM     82  C   UNL A   1      39.282  35.543  39.130  1.00  0.00     0.200 A 
ATOM     83  F   UNL A   1      40.696  37.158  38.146  1.00  0.00    -0.200 F 
ATOM     84  F   UNL A   1      39.109  36.325  40.204  1.00  0.00    -0.200 F 
ENDBRANCH  50  74
BRANCH  62  85
ATOM     85  C   UNL A   1      44.009  28.776  35.145  1.00  0.00     0.064 A 
ATOM     86  C   UNL A   1      45.316  29.255  34.969  1.00  0.00     0.173 A 
ATOM     87  C   UNL A   1      43.818  27.716  36.045  1.00  0.00     0.173 A 
ATOM     88  F   UNL A   1      45.558  30.257  34.109  1.00  0.00    -0.203 F 
ATOM     89  C   UNL A   1      46.389  28.676  35.642  1.00  0.00     0.198 A 
ATOM     90  C   UNL A   1      44.888  27.163  36.744  1.00  0.00     0.198 A 
ATOM     91  F   UNL A   1      42.588  27.223  36.258  1.00  0.00    -0.203 F 
ATOM     92  F   UNL A   1      47.635  29.114  35.415  1.00  0.00    -0.200 F 
ATOM     93  C   UNL A   1      46.173  27.637  36.535  1.00  0.00     0.200 A 
ATOM     94  F   UNL A   1      44.674  26.171  37.619  1.00  0.00    -0.200 F 
ATOM     95  F   UNL A   1      47.206  27.088  37.189  1.00  0.00    -0.200 F 
ENDBRANCH  62  85
ENDBRANCH  36  37
ENDBRANCH  28  31
ENDBRANCH  26  27
ENDBRANCH  25  26
ENDBRANCH   1  25
TORSDOF 14
ENDMDL
MODEL 3
REMARK VINA RESULT:     -11.9      0.966      2.361
REMARK SMILES O=C(Cc1ccc(S(=O)(=O)N2CCNC(=O)C2)cc1)NCCCCNC(=O)c1ccc(-c2c3nc(c(-c4c(F)c(F)c(F)c(F)c4F)c4ccc([nH]4)c(-c4c(F)c(F)c(F)c(F)c4F)c4nc(c(-c5c(F)c(F)c(F)c(F)c5F)c5ccc2[nH]5)C=C4)C=C3)cc1
REMARK SMILES IDX 22 1 21 2 20 3 1 4 2 5 3 7 4 8 5 9 19 10 6 11 18 12 7 13
REMARK SMILES IDX 8 14 9 15 10 16 11 17 12 18 17 19 13 20 15 21 14 22 16 23
REMARK SMILES IDX 23 25 24 26 25 27 26 28 27 30 28 31 29 32 90 33 30 34 89 35
REMARK SMILES IDX 31 36 32 37 33 38 83 39 34 40 88 41 82 42 84 43 35 44 87 45
REMARK SMILES IDX 81 46 80 47 36 49 68 50 48 51 67 52 49 53 52 54 66 55 85 56
REMARK SMILES IDX 50 57 51 58 65 60 86 61 53 62 37 63 38 64 46 65 39 66 40 67
REMARK SMILES IDX 44 68 47 69 41 70 42 71 45 72 43 73 69 74 70 75 78 76 71 77
REMARK SMILES IDX 72 78 76 79 79 80 73 81 74 82 77 83 75 84 54 85 55 86 63 87
REMARK SMILES IDX 56 88 57 89 61 90 64 91 58 92 59 93 62 94 60 95
REMARK H PARENT 20 6 14 24 25 29 84 48 52 59
REMARK Flexibility Score: inf
ROOT
ATOM      1  C   UNL A   1      34.623  33.713  29.001  1.00  0.00     0.023 C 
ENDROOT
BRANCH   1   2
ATOM      2  C   UNL A   1      34.410  32.201  29.084  1.00  0.00     0.116 C 
BRANCH   2   3
ATOM      3  N   UNL A   1      33.864  31.652  27.858  1.00  0.00    -0.356 N 
ATOM      4  O   UNL A   1      35.092  29.709  27.904  1.00  0.00    -0.275 OA
ATOM      5  C   UNL A   1      34.228  30.406  27.380  1.00  0.00     0.224 C 
ATOM      6  H   UNL A   1      33.212  32.184  27.348  1.00  0.00     0.163 HD
BRANCH   5   7
ATOM      7  C   UNL A   1      33.446  29.951  26.152  1.00  0.00     0.135 C 
BRANCH   7   8
ATOM      8  C   UNL A   1      33.018  28.505  26.255  1.00  0.00    -0.039 A 
ATOM      9  C   UNL A   1      31.818  28.133  26.877  1.00  0.00     0.005 A 
ATOM     10  C   UNL A   1      33.817  27.506  25.693  1.00  0.00     0.005 A 
ATOM     11  C   UNL A   1      31.400  26.794  26.875  1.00  0.00     0.022 A 
ATOM     12  C   UNL A   1      33.407  26.177  25.704  1.00  0.00     0.022 A 
ATOM     13  C   UNL A   1      32.187  25.815  26.258  1.00  0.00     0.082 A 
BRANCH  13  14
ATOM     14  S   UNL A   1      31.584  24.139  26.208  1.00  0.00     0.243 S 
ATOM     15  O   UNL A   1      32.557  23.339  26.914  1.00  0.00    -0.207 OA
ATOM     16  O   UNL A   1      30.199  24.196  26.635  1.00  0.00    -0.207 OA
BRANCH  14  17
ATOM     17  N   UNL A   1      31.573  23.634  24.604  1.00  0.00    -0.187 NA
ATOM     18  C   UNL A   1      30.654  24.218  23.611  1.00  0.00     0.124 C 
ATOM     19  C   UNL A   1      32.737  22.935  24.021  1.00  0.00     0.202 C 
ATOM     20  C   UNL A   1      31.405  25.189  22.706  1.00  0.00     0.132 C 
ATOM     21  C   UNL A   1      33.360  23.638  22.812  1.00  0.00     0.235 C 
ATOM     22  N   UNL A   1      32.650  24.642  22.201  1.00  0.00    -0.354 N 
ATOM     23  O   UNL A   1      34.473  23.348  22.377  1.00  0.00    -0.274 OA
ATOM     24  H   UNL A   1      33.010  25.015  21.364  1.00  0.00     0.163 HD
ENDBRANCH  14  17
ENDBRANCH  13  14
ENDBRANCH   7   8
ENDBRANCH   5   7
ENDBRANCH   2   3
ENDBRANCH   1   2
BRANCH   1  25
ATOM     25  C   UNL A   1      33.347  34.552  28.861  1.00  0.00     0.023 C 
BRANCH  25  26
ATOM     26  C   UNL A   1      33.415  35.961  29.441  1.00  0.00     0.116 C 
BRANCH  26  27
ATOM     27  N   UNL A   1      32.491  36.166  30.544  1.00  0.00    -0.352 N 
ATOM     28  C   UNL A   1      32.551  35.725  31.846  1.00  0.00     0.251 C 
ATOM     29  H   UNL A   1      31.697  36.706  30.326  1.00  0.00     0.163 HD
ATOM     30  O   UNL A   1      31.584  35.878  32.586  1.00  0.00    -0.269 OA
BRANCH  28  31
ATOM     31  C   UNL A   1      33.761  35.041  32.361  1.00  0.00     0.039 A 
ATOM     32  C   UNL A   1      33.649  33.718  32.800  1.00  0.00     0.014 A 
ATOM     33  C   UNL A   1      34.993  35.695  32.436  1.00  0.00     0.014 A 
ATOM     34  C   UNL A   1      34.784  33.032  33.244  1.00  0.00     0.010 A 
ATOM     35  C   UNL A   1      36.138  34.987  32.804  1.00  0.00     0.010 A 
ATOM     36  C   UNL A   1      36.046  33.646  33.210  1.00  0.00    -0.014 A 
BRANCH  36  37
ATOM     37  C   UNL A   1      37.278  32.897  33.580  1.00  0.00     0.031 A 
ATOM     38  C   UNL A   1      37.994  33.191  34.870  1.00  0.00     0.074 A 
ATOM     39  C   UNL A   1      37.788  31.988  32.725  1.00  0.00     0.049 A 
ATOM     40  N   UNL A   1      39.115  32.693  35.330  1.00  0.00    -0.248 NA
ATOM     41  C   UNL A   1      37.380  34.196  35.751  1.00  0.00     0.031 C 
ATOM     42  C   UNL A   1      37.214  31.638  31.425  1.00  0.00     0.029 A 
ATOM     43  N   UNL A   1      38.910  31.201  32.814  1.00  0.00    -0.354 N 
ATOM     44  C   UNL A   1      39.343  33.328  36.543  1.00  0.00     0.074 A 
ATOM     45  C   UNL A   1      38.276  34.289  36.723  1.00  0.00     0.031 C 
ATOM     46  C   UNL A   1      37.975  30.695  30.846  1.00  0.00     0.029 A 
ATOM     47  C   UNL A   1      39.115  30.407  31.711  1.00  0.00     0.049 A 
ATOM     48  H   UNL A   1      39.511  31.206  33.593  1.00  0.00     0.167 HD
ATOM     49  C   UNL A   1      40.338  33.114  37.437  1.00  0.00     0.037 A 
ATOM     50  C   UNL A   1      40.118  29.554  31.421  1.00  0.00     0.037 A 
ATOM     51  C   UNL A   1      41.393  32.149  37.261  1.00  0.00     0.049 A 
ATOM     52  C   UNL A   1      41.229  29.358  32.418  1.00  0.00     0.074 A 
ATOM     53  C   UNL A   1      42.420  31.825  38.133  1.00  0.00     0.029 A 
ATOM     54  N   UNL A   1      41.564  31.358  36.134  1.00  0.00    -0.354 N 
ATOM     55  N   UNL A   1      41.396  29.914  33.592  1.00  0.00    -0.248 NA
ATOM     56  C   UNL A   1      42.287  28.406  32.052  1.00  0.00     0.031 C 
ATOM     57  C   UNL A   1      43.244  30.883  37.508  1.00  0.00     0.029 A 
ATOM     58  C   UNL A   1      42.694  30.568  36.276  1.00  0.00     0.049 A 
ATOM     59  H   UNL A   1      40.970  31.359  35.349  1.00  0.00     0.167 HD
ATOM     60  C   UNL A   1      42.556  29.360  34.118  1.00  0.00     0.074 A 
ATOM     61  C   UNL A   1      43.042  28.408  33.140  1.00  0.00     0.031 C 
ATOM     62  C   UNL A   1      43.164  29.616  35.302  1.00  0.00     0.037 A 
BRANCH  49  63
ATOM     63  C   UNL A   1      40.338  33.939  38.695  1.00  0.00     0.064 A 
ATOM     64  C   UNL A   1      39.650  33.526  39.846  1.00  0.00     0.173 A 
ATOM     65  C   UNL A   1      41.069  35.134  38.764  1.00  0.00     0.173 A 
ATOM     66  F   UNL A   1      38.927  32.396  39.834  1.00  0.00    -0.203 F 
ATOM     67  C   UNL A   1      39.670  34.294  41.008  1.00  0.00     0.198 A 
ATOM     68  C   UNL A   1      41.115  35.882  39.938  1.00  0.00     0.198 A 
ATOM     69  F   UNL A   1      41.750  35.574  37.695  1.00  0.00    -0.203 F 
ATOM     70  F   UNL A   1      38.961  33.905  42.077  1.00  0.00    -0.200 F 
ATOM     71  C   UNL A   1      40.409  35.466  41.056  1.00  0.00     0.200 A 
ATOM     72  F   UNL A   1      41.843  37.006  39.987  1.00  0.00    -0.200 F 
ATOM     73  F   UNL A   1      40.434  36.199  42.178  1.00  0.00    -0.200 F 
ENDBRANCH  49  63
BRANCH  50  74
ATOM     74  C   UNL A   1      40.115  28.812  30.130  1.00  0.00     0.064 A 
ATOM     75  C   UNL A   1      40.722  29.349  28.987  1.00  0.00     0.173 A 
ATOM     76  C   UNL A   1      39.492  27.562  30.009  1.00  0.00     0.173 A 
ATOM     77  F   UNL A   1      41.314  30.551  29.044  1.00  0.00    -0.203 F 
ATOM     78  C   UNL A   1      40.681  28.678  27.767  1.00  0.00     0.198 A 
ATOM     79  C   UNL A   1      39.482  26.875  28.797  1.00  0.00     0.198 A 
ATOM     80  F   UNL A   1      38.901  26.999  31.074  1.00  0.00    -0.203 F 
ATOM     81  F   UNL A   1      41.219  29.241  26.676  1.00  0.00    -0.200 F 
ATOM     82  C   UNL A   1      40.065  27.439  27.673  1.00  0.00     0.200 A 
ATOM     83  F   UNL A   1      38.901  25.670  28.717  1.00  0.00    -0.200 F 
ATOM     84  F   UNL A   1      40.028  26.793  26.500  1.00  0.00    -0.200 F 
ENDBRANCH  50  74
BRANCH  62  85
ATOM     85  C   UNL A   1      44.398  28.824  35.632  1.00  0.00     0.064 A 
ATOM     86  C   UNL A   1      45.682  29.273  35.287  1.00  0.00     0.173 A 
ATOM     87  C   UNL A   1      44.296  27.616  36.339  1.00  0.00     0.173 A 
ATOM     88  F   UNL A   1      45.836  30.413  34.597  1.00  0.00    -0.203 F 
ATOM     89  C   UNL A   1      46.813  28.526  35.610  1.00  0.00     0.198 A 
ATOM     90  C   UNL A   1      45.431  26.891  36.692  1.00  0.00     0.198 A 
ATOM     91  F   UNL A   1      43.094  27.144  36.702  1.00  0.00    -0.203 F 
ATOM     92  F   UNL A   1      48.024  28.947  35.220  1.00  0.00    -0.200 F 
ATOM     93  C   UNL A   1      46.687  27.342  36.320  1.00  0.00     0.200 A 
ATOM     94  F   UNL A   1      45.308  25.756  37.394  1.00  0.00    -0.200 F 
ATOM     95  F   UNL A   1      47.778  26.630  36.637  1.00  0.00    -0.200 F 
ENDBRANCH  62  85
ENDBRANCH  36  37
ENDBRANCH  28  31
ENDBRANCH  26  27
ENDBRANCH  25  26
ENDBRANCH   1  25
TORSDOF 14
ENDMDL
