MODEL 1
REMARK VINA RESULT:     -14.7      0.000      0.000
REMARK SMILES CC(=O)Nc1cnc(N2CC=C(c3ccccc3C)CC2)c(C(=O)NCCCCNC(=O)c2ccc(-c3c4nc(c(-c5c(F)c(F)c(F)c(F)c5F)c5ccc([nH]5)c(-c5c(F)c(F)c(F)c(F)c5F)c5nc(c(-c6c(F)c(F)c(F)c(F)c6F)c6ccc3[nH]6)C=C5)C=C4)cc2)c1
REMARK SMILES IDX 27 1 26 2 25 3 23 4 24 5 22 7 5 8 6 9 96 10 7 11 8 12 4 13
REMARK SMILES IDX 1 14 2 15 3 16 9 18 10 19 21 20 11 21 20 22 12 23 13 24
REMARK SMILES IDX 14 25 18 26 15 27 17 28 19 29 16 30 28 31 29 32 30 33 31 34
REMARK SMILES IDX 32 36 33 37 34 38 95 39 35 40 94 41 36 42 37 43 38 44 88 45
REMARK SMILES IDX 39 46 93 47 87 48 89 49 40 50 92 51 86 52 85 53 41 55 73 56
REMARK SMILES IDX 53 57 72 58 54 59 57 60 71 61 90 62 55 63 56 64 70 66 91 67
REMARK SMILES IDX 58 68 42 69 43 70 51 71 44 72 45 73 49 74 52 75 46 76 47 77
REMARK SMILES IDX 50 78 48 79 74 80 75 81 83 82 76 83 77 84 81 85 84 86 78 87
REMARK SMILES IDX 79 88 82 89 80 90 59 91 60 92 68 93 61 94 62 95 66 96 69 97
REMARK SMILES IDX 63 98 64 99 67 100 65 101
REMARK H PARENT 25 6 4 17 30 35 89 54 57 65
REMARK Flexibility Score: inf
ROOT
ATOM      1  C   UNL A   1      34.100  28.197  26.935  1.00  0.00     0.023 C 
ENDROOT
BRANCH   1   2
ATOM      2  C   UNL A   1      33.233  27.494  25.881  1.00  0.00     0.116 C 
BRANCH   2   3
ATOM      3  N   UNL A   1      32.318  26.522  26.448  1.00  0.00    -0.352 N 
ATOM      4  C   UNL A   1      32.067  25.177  26.303  1.00  0.00     0.255 C 
ATOM      5  O   UNL A   1      31.309  24.751  27.175  1.00  0.00    -0.269 OA
ATOM      6  H   UNL A   1      31.718  26.934  27.111  1.00  0.00     0.163 HD
BRANCH   4   7
ATOM      7  C   UNL A   1      32.648  24.267  25.250  1.00  0.00     0.084 A 
ATOM      8  C   UNL A   1      34.003  22.313  24.660  1.00  0.00     0.060 A 
ATOM      9  C   UNL A   1      33.551  22.455  23.367  1.00  0.00     0.139 A 
ATOM     10  C   UNL A   1      33.576  23.264  25.582  1.00  0.00     0.045 A 
ATOM     11  N   UNL A   1      32.688  23.416  22.985  1.00  0.00    -0.236 NA
ATOM     12  C   UNL A   1      32.236  24.327  23.896  1.00  0.00     0.141 A 
BRANCH   8  13
ATOM     13  N   UNL A   1      34.891  21.271  24.970  1.00  0.00    -0.325 N 
ATOM     14  C   UNL A   1      37.064  22.398  24.492  1.00  0.00     0.114 C 
ATOM     15  C   UNL A   1      36.244  21.170  24.792  1.00  0.00     0.221 C 
ATOM     16  O   UNL A   1      36.787  20.076  24.947  1.00  0.00    -0.275 OA
ATOM     17  H   UNL A   1      34.472  20.483  25.386  1.00  0.00     0.169 HD
ENDBRANCH   8  13
BRANCH  12  18
ATOM     18  N   UNL A   1      31.416  25.275  23.337  1.00  0.00    -0.352 N 
ATOM     19  C   UNL A   1      32.009  26.268  22.453  1.00  0.00     0.146 C 
ATOM     20  C   UNL A   1      29.983  25.317  23.591  1.00  0.00     0.123 C 
ATOM     21  C   UNL A   1      31.240  27.562  22.475  1.00  0.00    -0.002 C 
ATOM     22  C   UNL A   1      29.581  26.705  24.104  1.00  0.00     0.057 C 
ATOM     23  C   UNL A   1      30.146  27.792  23.224  1.00  0.00    -0.041 C 
BRANCH  23  24
ATOM     24  C   UNL A   1      29.451  29.092  23.171  1.00  0.00    -0.020 A 
ATOM     25  C   UNL A   1      28.340  29.212  22.316  1.00  0.00     0.008 A 
ATOM     26  C   UNL A   1      29.851  30.208  23.933  1.00  0.00    -0.044 A 
ATOM     27  C   UNL A   1      27.628  30.408  22.222  1.00  0.00     0.001 A 
ATOM     28  C   UNL A   1      29.114  31.402  23.839  1.00  0.00     0.004 A 
ATOM     29  C   UNL A   1      31.033  30.168  24.863  1.00  0.00     0.045 C 
ATOM     30  C   UNL A   1      28.014  31.503  22.987  1.00  0.00     0.000 A 
ENDBRANCH  23  24
ENDBRANCH  12  18
ENDBRANCH   4   7
ENDBRANCH   2   3
ENDBRANCH   1   2
BRANCH   1  31
ATOM     31  C   UNL A   1      33.474  29.460  27.544  1.00  0.00     0.023 C 
BRANCH  31  32
ATOM     32  C   UNL A   1      34.092  30.762  27.048  1.00  0.00     0.116 C 
BRANCH  32  33
ATOM     33  N   UNL A   1      34.679  31.612  28.074  1.00  0.00    -0.352 N 
ATOM     34  C   UNL A   1      35.676  31.333  29.001  1.00  0.00     0.251 C 
ATOM     35  H   UNL A   1      34.314  32.525  28.117  1.00  0.00     0.163 HD
ATOM     36  O   UNL A   1      35.925  32.138  29.883  1.00  0.00    -0.269 OA
BRANCH  34  37
ATOM     37  C   UNL A   1      36.540  30.133  28.833  1.00  0.00     0.039 A 
ATOM     38  C   UNL A   1      36.686  29.273  29.930  1.00  0.00     0.014 A 
ATOM     39  C   UNL A   1      37.358  29.975  27.720  1.00  0.00     0.014 A 
ATOM     40  C   UNL A   1      37.818  28.465  30.023  1.00  0.00     0.010 A 
ATOM     41  C   UNL A   1      38.540  29.278  27.863  1.00  0.00     0.010 A 
ATOM     42  C   UNL A   1      38.802  28.585  29.049  1.00  0.00    -0.014 A 
BRANCH  42  43
ATOM     43  C   UNL A   1      40.174  28.126  29.215  1.00  0.00     0.031 A 
ATOM     44  C   UNL A   1      40.558  26.767  28.785  1.00  0.00     0.074 A 
ATOM     45  C   UNL A   1      41.118  29.013  29.612  1.00  0.00     0.049 A 
ATOM     46  N   UNL A   1      41.690  26.219  29.067  1.00  0.00    -0.248 NA
ATOM     47  C   UNL A   1      39.660  25.872  28.058  1.00  0.00     0.031 C 
ATOM     48  C   UNL A   1      42.567  28.895  29.468  1.00  0.00     0.029 A 
ATOM     49  N   UNL A   1      40.944  30.144  30.430  1.00  0.00    -0.354 N 
ATOM     50  C   UNL A   1      41.794  25.070  28.322  1.00  0.00     0.074 A 
ATOM     51  C   UNL A   1      40.464  24.826  27.831  1.00  0.00     0.031 C 
ATOM     52  C   UNL A   1      43.162  29.687  30.373  1.00  0.00     0.029 A 
ATOM     53  C   UNL A   1      42.113  30.206  31.229  1.00  0.00     0.049 A 
ATOM     54  H   UNL A   1      40.176  30.761  30.444  1.00  0.00     0.167 HD
ATOM     55  C   UNL A   1      43.036  24.555  28.103  1.00  0.00     0.037 A 
ATOM     56  C   UNL A   1      42.065  30.035  32.582  1.00  0.00     0.037 A 
ATOM     57  C   UNL A   1      44.005  25.142  29.031  1.00  0.00     0.049 A 
ATOM     58  C   UNL A   1      42.915  28.894  33.089  1.00  0.00     0.074 A 
ATOM     59  C   UNL A   1      45.037  26.053  28.892  1.00  0.00     0.029 A 
ATOM     60  N   UNL A   1      43.799  24.983  30.400  1.00  0.00    -0.354 N 
ATOM     61  N   UNL A   1      43.324  27.904  32.343  1.00  0.00    -0.248 NA
ATOM     62  C   UNL A   1      43.354  28.766  34.475  1.00  0.00     0.031 C 
ATOM     63  C   UNL A   1      45.391  26.508  30.192  1.00  0.00     0.029 A 
ATOM     64  C   UNL A   1      44.607  25.839  31.119  1.00  0.00     0.049 A 
ATOM     65  H   UNL A   1      43.162  24.348  30.800  1.00  0.00     0.167 HD
ATOM     66  C   UNL A   1      44.042  27.020  33.106  1.00  0.00     0.074 A 
ATOM     67  C   UNL A   1      44.049  27.615  34.428  1.00  0.00     0.031 C 
ATOM     68  C   UNL A   1      44.553  25.867  32.576  1.00  0.00     0.037 A 
BRANCH  55  69
ATOM     69  C   UNL A   1      43.435  23.668  26.936  1.00  0.00     0.064 A 
ATOM     70  C   UNL A   1      43.061  22.304  26.924  1.00  0.00     0.173 A 
ATOM     71  C   UNL A   1      44.290  24.043  25.876  1.00  0.00     0.173 A 
ATOM     72  F   UNL A   1      42.257  21.796  27.869  1.00  0.00    -0.203 F 
ATOM     73  C   UNL A   1      43.520  21.402  25.956  1.00  0.00     0.198 A 
ATOM     74  C   UNL A   1      44.707  23.152  24.882  1.00  0.00     0.198 A 
ATOM     75  F   UNL A   1      44.816  25.266  25.775  1.00  0.00    -0.203 F 
ATOM     76  F   UNL A   1      43.180  20.108  26.037  1.00  0.00    -0.200 F 
ATOM     77  C   UNL A   1      44.337  21.828  24.929  1.00  0.00     0.200 A 
ATOM     78  F   UNL A   1      45.503  23.590  23.894  1.00  0.00    -0.200 F 
ATOM     79  F   UNL A   1      44.780  20.968  24.003  1.00  0.00    -0.200 F 
ENDBRANCH  55  69
BRANCH  56  80
ATOM     80  C   UNL A   1      40.777  30.479  33.177  1.00  0.00     0.064 A 
ATOM     81  C   UNL A   1      40.544  31.865  33.286  1.00  0.00     0.173 A 
ATOM     82  C   UNL A   1      39.667  29.628  33.233  1.00  0.00     0.173 A 
ATOM     83  F   UNL A   1      41.575  32.722  33.229  1.00  0.00    -0.203 F 
ATOM     84  C   UNL A   1      39.251  32.381  33.311  1.00  0.00     0.198 A 
ATOM     85  C   UNL A   1      38.372  30.151  33.279  1.00  0.00     0.198 A 
ATOM     86  F   UNL A   1      39.822  28.303  33.113  1.00  0.00    -0.203 F 
ATOM     87  F   UNL A   1      39.061  33.708  33.278  1.00  0.00    -0.200 F 
ATOM     88  C   UNL A   1      38.165  31.523  33.276  1.00  0.00     0.200 A 
ATOM     89  F   UNL A   1      37.319  29.324  33.210  1.00  0.00    -0.200 F 
ATOM     90  F   UNL A   1      36.921  32.017  33.189  1.00  0.00    -0.200 F 
ENDBRANCH  56  80
BRANCH  68  91
ATOM     91  C   UNL A   1      45.121  24.692  33.349  1.00  0.00     0.064 A 
ATOM     92  C   UNL A   1      44.411  23.515  33.643  1.00  0.00     0.173 A 
ATOM     93  C   UNL A   1      46.496  24.664  33.700  1.00  0.00     0.173 A 
ATOM     94  F   UNL A   1      43.143  23.344  33.249  1.00  0.00    -0.203 F 
ATOM     95  C   UNL A   1      45.005  22.431  34.300  1.00  0.00     0.198 A 
ATOM     96  C   UNL A   1      47.099  23.557  34.297  1.00  0.00     0.198 A 
ATOM     97  F   UNL A   1      47.307  25.701  33.447  1.00  0.00    -0.203 F 
ATOM     98  F   UNL A   1      44.266  21.352  34.596  1.00  0.00    -0.200 F 
ATOM     99  C   UNL A   1      46.349  22.446  34.616  1.00  0.00     0.200 A 
ATOM    100  F   UNL A   1      48.417  23.568  34.540  1.00  0.00    -0.200 F 
ATOM    101  F   UNL A   1      46.924  21.386  35.198  1.00  0.00    -0.200 F 
ENDBRANCH  68  91
ENDBRANCH  42  43
ENDBRANCH  34  37
ENDBRANCH  32  33
ENDBRANCH  31  32
ENDBRANCH   1  31
TORSDOF 14
ENDMDL
MODEL 2
REMARK VINA RESULT:     -14.7      1.330      4.398
REMARK SMILES CC(=O)Nc1cnc(N2CC=C(c3ccccc3C)CC2)c(C(=O)NCCCCNC(=O)c2ccc(-c3c4nc(c(-c5c(F)c(F)c(F)c(F)c5F)c5ccc([nH]5)c(-c5c(F)c(F)c(F)c(F)c5F)c5nc(c(-c6c(F)c(F)c(F)c(F)c6F)c6ccc3[nH]6)C=C5)C=C4)cc2)c1
REMARK SMILES IDX 27 1 26 2 25 3 23 4 24 5 22 7 5 8 6 9 96 10 7 11 8 12 4 13
REMARK SMILES IDX 1 14 2 15 3 16 9 18 10 19 21 20 11 21 20 22 12 23 13 24
REMARK SMILES IDX 14 25 18 26 15 27 17 28 19 29 16 30 28 31 29 32 30 33 31 34
REMARK SMILES IDX 32 36 33 37 34 38 95 39 35 40 94 41 36 42 37 43 38 44 88 45
REMARK SMILES IDX 39 46 93 47 87 48 89 49 40 50 92 51 86 52 85 53 41 55 73 56
REMARK SMILES IDX 53 57 72 58 54 59 57 60 71 61 90 62 55 63 56 64 70 66 91 67
REMARK SMILES IDX 58 68 42 69 43 70 51 71 44 72 45 73 49 74 52 75 46 76 47 77
REMARK SMILES IDX 50 78 48 79 74 80 75 81 83 82 76 83 77 84 81 85 84 86 78 87
REMARK SMILES IDX 79 88 82 89 80 90 59 91 60 92 68 93 61 94 62 95 66 96 69 97
REMARK SMILES IDX 63 98 64 99 67 100 65 101
REMARK H PARENT 25 6 4 17 30 35 89 54 57 65
REMARK Flexibility Score: inf
ROOT
ATOM      1  C   UNL A   1      31.548  29.258  27.311  1.00  0.00     0.023 C 
ENDROOT
BRANCH   1   2
ATOM      2  C   UNL A   1      32.316  27.929  27.278  1.00  0.00     0.116 C 
BRANCH   2   3
ATOM      3  N   UNL A   1      31.500  26.808  26.853  1.00  0.00    -0.352 N 
ATOM      4  C   UNL A   1      30.876  26.402  25.696  1.00  0.00     0.255 C 
ATOM      5  O   UNL A   1      30.463  25.244  25.774  1.00  0.00    -0.269 OA
ATOM      6  H   UNL A   1      31.354  26.168  27.588  1.00  0.00     0.163 HD
BRANCH   4   7
ATOM      7  C   UNL A   1      30.719  27.213  24.434  1.00  0.00     0.084 A 
ATOM      8  C   UNL A   1      29.529  28.940  23.167  1.00  0.00     0.060 A 
ATOM      9  C   UNL A   1      30.533  28.867  22.226  1.00  0.00     0.139 A 
ATOM     10  C   UNL A   1      29.616  28.065  24.246  1.00  0.00     0.045 A 
ATOM     11  N   UNL A   1      31.594  28.047  22.338  1.00  0.00    -0.236 NA
ATOM     12  C   UNL A   1      31.703  27.215  23.415  1.00  0.00     0.141 A 
BRANCH   8  13
ATOM     13  N   UNL A   1      28.466  29.837  22.975  1.00  0.00    -0.325 N 
ATOM     14  C   UNL A   1      29.331  31.808  24.233  1.00  0.00     0.114 C 
ATOM     15  C   UNL A   1      28.228  31.067  23.523  1.00  0.00     0.221 C 
ATOM     16  O   UNL A   1      27.122  31.586  23.370  1.00  0.00    -0.275 OA
ATOM     17  H   UNL A   1      27.779  29.530  22.340  1.00  0.00     0.169 HD
ENDBRANCH   8  13
BRANCH  12  18
ATOM     18  N   UNL A   1      32.806  26.401  23.349  1.00  0.00    -0.352 N 
ATOM     19  C   UNL A   1      32.825  25.341  22.352  1.00  0.00     0.146 C 
ATOM     20  C   UNL A   1      33.952  26.564  24.232  1.00  0.00     0.123 C 
ATOM     21  C   UNL A   1      33.661  24.172  22.798  1.00  0.00    -0.002 C 
ATOM     22  C   UNL A   1      34.252  25.244  24.952  1.00  0.00     0.057 C 
ATOM     23  C   UNL A   1      34.307  24.096  23.977  1.00  0.00    -0.041 C 
BRANCH  23  24
ATOM     24  C   UNL A   1      35.114  22.910  24.322  1.00  0.00    -0.020 A 
ATOM     25  C   UNL A   1      36.474  22.911  23.967  1.00  0.00     0.008 A 
ATOM     26  C   UNL A   1      34.582  21.787  24.988  1.00  0.00    -0.044 A 
ATOM     27  C   UNL A   1      37.301  21.829  24.271  1.00  0.00     0.001 A 
ATOM     28  C   UNL A   1      35.431  20.711  25.302  1.00  0.00     0.004 A 
ATOM     29  C   UNL A   1      33.136  21.701  25.394  1.00  0.00     0.045 C 
ATOM     30  C   UNL A   1      36.779  20.730  24.941  1.00  0.00     0.000 A 
ENDBRANCH  23  24
ENDBRANCH  12  18
ENDBRANCH   4   7
ENDBRANCH   2   3
ENDBRANCH   1   2
BRANCH   1  31
ATOM     31  C   UNL A   1      32.365  30.483  26.874  1.00  0.00     0.023 C 
BRANCH  31  32
ATOM     32  C   UNL A   1      33.872  30.314  27.029  1.00  0.00     0.116 C 
BRANCH  32  33
ATOM     33  N   UNL A   1      34.545  31.344  27.807  1.00  0.00    -0.352 N 
ATOM     34  C   UNL A   1      35.631  31.246  28.668  1.00  0.00     0.251 C 
ATOM     35  H   UNL A   1      34.172  32.250  27.709  1.00  0.00     0.163 HD
ATOM     36  O   UNL A   1      35.954  32.205  29.349  1.00  0.00    -0.269 OA
BRANCH  34  37
ATOM     37  C   UNL A   1      36.492  30.032  28.651  1.00  0.00     0.039 A 
ATOM     38  C   UNL A   1      36.678  29.345  29.859  1.00  0.00     0.014 A 
ATOM     39  C   UNL A   1      37.271  29.708  27.547  1.00  0.00     0.014 A 
ATOM     40  C   UNL A   1      37.815  28.557  30.033  1.00  0.00     0.010 A 
ATOM     41  C   UNL A   1      38.459  29.037  27.751  1.00  0.00     0.010 A 
ATOM     42  C   UNL A   1      38.765  28.528  29.018  1.00  0.00    -0.014 A 
BRANCH  42  43
ATOM     43  C   UNL A   1      40.143  28.096  29.203  1.00  0.00     0.031 A 
ATOM     44  C   UNL A   1      40.565  26.754  28.754  1.00  0.00     0.074 A 
ATOM     45  C   UNL A   1      41.058  28.995  29.637  1.00  0.00     0.049 A 
ATOM     46  N   UNL A   1      41.703  26.225  29.049  1.00  0.00    -0.248 NA
ATOM     47  C   UNL A   1      39.702  25.854  27.992  1.00  0.00     0.031 C 
ATOM     48  C   UNL A   1      42.513  28.911  29.520  1.00  0.00     0.029 A 
ATOM     49  N   UNL A   1      40.843  30.106  30.473  1.00  0.00    -0.354 N 
ATOM     50  C   UNL A   1      41.848  25.094  28.284  1.00  0.00     0.074 A 
ATOM     51  C   UNL A   1      40.533  24.831  27.761  1.00  0.00     0.031 C 
ATOM     52  C   UNL A   1      43.072  29.698  30.453  1.00  0.00     0.029 A 
ATOM     53  C   UNL A   1      41.994  30.176  31.297  1.00  0.00     0.049 A 
ATOM     54  H   UNL A   1      40.062  30.705  30.483  1.00  0.00     0.167 HD
ATOM     55  C   UNL A   1      43.104  24.610  28.080  1.00  0.00     0.037 A 
ATOM     56  C   UNL A   1      41.923  29.977  32.646  1.00  0.00     0.037 A 
ATOM     57  C   UNL A   1      44.041  25.199  29.039  1.00  0.00     0.049 A 
ATOM     58  C   UNL A   1      42.788  28.844  33.147  1.00  0.00     0.074 A 
ATOM     59  C   UNL A   1      45.056  26.135  28.940  1.00  0.00     0.029 A 
ATOM     60  N   UNL A   1      43.811  25.009  30.400  1.00  0.00    -0.354 N 
ATOM     61  N   UNL A   1      43.233  27.880  32.390  1.00  0.00    -0.248 NA
ATOM     62  C   UNL A   1      43.201  28.698  34.539  1.00  0.00     0.031 C 
ATOM     63  C   UNL A   1      45.373  26.571  30.255  1.00  0.00     0.029 A 
ATOM     64  C   UNL A   1      44.585  25.867  31.152  1.00  0.00     0.049 A 
ATOM     65  H   UNL A   1      43.181  24.352  30.775  1.00  0.00     0.167 HD
ATOM     66  C   UNL A   1      43.955  26.995  33.151  1.00  0.00     0.074 A 
ATOM     67  C   UNL A   1      43.922  27.564  34.484  1.00  0.00     0.031 C 
ATOM     68  C   UNL A   1      44.502  25.865  32.609  1.00  0.00     0.037 A 
BRANCH  55  69
ATOM     69  C   UNL A   1      43.546  23.755  26.904  1.00  0.00     0.064 A 
ATOM     70  C   UNL A   1      43.175  22.392  26.842  1.00  0.00     0.173 A 
ATOM     71  C   UNL A   1      44.438  24.159  25.887  1.00  0.00     0.173 A 
ATOM     72  F   UNL A   1      42.338  21.858  27.743  1.00  0.00    -0.203 F 
ATOM     73  C   UNL A   1      43.670  21.518  25.867  1.00  0.00     0.198 A 
ATOM     74  C   UNL A   1      44.892  23.297  24.884  1.00  0.00     0.198 A 
ATOM     75  F   UNL A   1      44.966  25.385  25.838  1.00  0.00    -0.203 F 
ATOM     76  F   UNL A   1      43.329  20.222  25.900  1.00  0.00    -0.200 F 
ATOM     77  C   UNL A   1      44.522  21.971  24.882  1.00  0.00     0.200 A 
ATOM     78  F   UNL A   1      45.722  23.762  23.939  1.00  0.00    -0.200 F 
ATOM     79  F   UNL A   1      44.999  21.137  23.949  1.00  0.00    -0.200 F 
ENDBRANCH  55  69
BRANCH  56  80
ATOM     80  C   UNL A   1      40.613  30.382  33.222  1.00  0.00     0.064 A 
ATOM     81  C   UNL A   1      40.345  31.759  33.347  1.00  0.00     0.173 A 
ATOM     82  C   UNL A   1      39.524  29.503  33.245  1.00  0.00     0.173 A 
ATOM     83  F   UNL A   1      41.356  32.642  33.322  1.00  0.00    -0.203 F 
ATOM     84  C   UNL A   1      39.040  32.244  33.355  1.00  0.00     0.198 A 
ATOM     85  C   UNL A   1      38.216  29.994  33.274  1.00  0.00     0.198 A 
ATOM     86  F   UNL A   1      39.713  28.184  33.108  1.00  0.00    -0.203 F 
ATOM     87  F   UNL A   1      38.819  33.567  33.337  1.00  0.00    -0.200 F 
ATOM     88  C   UNL A   1      37.976  31.361  33.287  1.00  0.00     0.200 A 
ATOM     89  F   UNL A   1      37.184  29.144  33.172  1.00  0.00    -0.200 F 
ATOM     90  F   UNL A   1      36.722  31.826  33.183  1.00  0.00    -0.200 F 
ENDBRANCH  56  80
BRANCH  68  91
ATOM     91  C   UNL A   1      45.080  24.687  33.370  1.00  0.00     0.064 A 
ATOM     92  C   UNL A   1      44.368  23.516  33.683  1.00  0.00     0.173 A 
ATOM     93  C   UNL A   1      46.462  24.650  33.688  1.00  0.00     0.173 A 
ATOM     94  F   UNL A   1      43.090  23.354  33.321  1.00  0.00    -0.203 F 
ATOM     95  C   UNL A   1      44.970  22.429  34.328  1.00  0.00     0.198 A 
ATOM     96  C   UNL A   1      47.072  23.540  34.273  1.00  0.00     0.198 A 
ATOM     97  F   UNL A   1      47.275  25.680  33.414  1.00  0.00    -0.203 F 
ATOM     98  F   UNL A   1      44.231  21.355  34.644  1.00  0.00    -0.200 F 
ATOM     99  C   UNL A   1      46.322  22.435  34.611  1.00  0.00     0.200 A 
ATOM    100  F   UNL A   1      48.395  23.541  34.483  1.00  0.00    -0.200 F 
ATOM    101  F   UNL A   1      46.902  21.372  35.182  1.00  0.00    -0.200 F 
ENDBRANCH  68  91
ENDBRANCH  42  43
ENDBRANCH  34  37
ENDBRANCH  32  33
ENDBRANCH  31  32
ENDBRANCH   1  31
TORSDOF 14
ENDMDL
MODEL 3
REMARK VINA RESULT:     -13.6      3.596     10.098
REMARK SMILES CC(=O)Nc1cnc(N2CC=C(c3ccccc3C)CC2)c(C(=O)NCCCCNC(=O)c2ccc(-c3c4nc(c(-c5c(F)c(F)c(F)c(F)c5F)c5ccc([nH]5)c(-c5c(F)c(F)c(F)c(F)c5F)c5nc(c(-c6c(F)c(F)c(F)c(F)c6F)c6ccc3[nH]6)C=C5)C=C4)cc2)c1
REMARK SMILES IDX 27 1 26 2 25 3 23 4 24 5 22 7 5 8 6 9 96 10 7 11 8 12 4 13
REMARK SMILES IDX 1 14 2 15 3 16 9 18 10 19 21 20 11 21 20 22 12 23 13 24
REMARK SMILES IDX 14 25 18 26 15 27 17 28 19 29 16 30 28 31 29 32 30 33 31 34
REMARK SMILES IDX 32 36 33 37 34 38 95 39 35 40 94 41 36 42 37 43 38 44 88 45
REMARK SMILES IDX 39 46 93 47 87 48 89 49 40 50 92 51 86 52 85 53 41 55 73 56
REMARK SMILES IDX 53 57 72 58 54 59 57 60 71 61 90 62 55 63 56 64 70 66 91 67
REMARK SMILES IDX 58 68 42 69 43 70 51 71 44 72 45 73 49 74 52 75 46 76 47 77
REMARK SMILES IDX 50 78 48 79 74 80 75 81 83 82 76 83 77 84 81 85 84 86 78 87
REMARK SMILES IDX 79 88 82 89 80 90 59 91 60 92 68 93 61 94 62 95 66 96 69 97
REMARK SMILES IDX 63 98 64 99 67 100 65 101
REMARK H PARENT 25 6 4 17 30 35 89 54 57 65
REMARK Flexibility Score: inf
ROOT
ATOM      1  C   UNL A   1      35.760  23.506  25.795  1.00  0.00     0.023 C 
ENDROOT
BRANCH   1   2
ATOM      2  C   UNL A   1      34.906  24.773  25.639  1.00  0.00     0.116 C 
BRANCH   2   3
ATOM      3  N   UNL A   1      33.639  24.697  26.339  1.00  0.00    -0.352 N 
ATOM      4  C   UNL A   1      32.370  25.204  26.176  1.00  0.00     0.255 C 
ATOM      5  O   UNL A   1      31.558  24.676  26.938  1.00  0.00    -0.269 OA
ATOM      6  H   UNL A   1      33.703  24.134  27.145  1.00  0.00     0.163 HD
BRANCH   4   7
ATOM      7  C   UNL A   1      31.948  26.250  25.175  1.00  0.00     0.084 A 
ATOM      8  C   UNL A   1      31.549  28.603  24.619  1.00  0.00     0.060 A 
ATOM      9  C   UNL A   1      31.390  28.211  23.308  1.00  0.00     0.139 A 
ATOM     10  C   UNL A   1      31.781  27.595  25.551  1.00  0.00     0.045 A 
ATOM     11  N   UNL A   1      31.506  26.935  22.896  1.00  0.00    -0.236 NA
ATOM     12  C   UNL A   1      31.772  25.949  23.802  1.00  0.00     0.141 A 
BRANCH   8  13
ATOM     13  N   UNL A   1      31.424  29.960  24.955  1.00  0.00    -0.325 N 
ATOM     14  C   UNL A   1      32.720  29.999  27.085  1.00  0.00     0.114 C 
ATOM     15  C   UNL A   1      31.784  30.634  26.089  1.00  0.00     0.221 C 
ATOM     16  O   UNL A   1      31.387  31.788  26.251  1.00  0.00    -0.275 OA
ATOM     17  H   UNL A   1      31.010  30.520  24.259  1.00  0.00     0.169 HD
ENDBRANCH   8  13
BRANCH  12  18
ATOM     18  N   UNL A   1      31.797  24.699  23.235  1.00  0.00    -0.352 N 
ATOM     19  C   UNL A   1      30.616  23.859  23.360  1.00  0.00     0.146 C 
ATOM     20  C   UNL A   1      32.955  24.191  22.512  1.00  0.00     0.123 C 
ATOM     21  C   UNL A   1      30.969  22.396  23.346  1.00  0.00    -0.002 C 
ATOM     22  C   UNL A   1      33.393  22.845  23.101  1.00  0.00     0.057 C 
ATOM     23  C   UNL A   1      32.220  21.909  23.244  1.00  0.00    -0.041 C 
BRANCH  23  24
ATOM     24  C   UNL A   1      32.467  20.455  23.228  1.00  0.00    -0.020 A 
ATOM     25  C   UNL A   1      32.106  19.737  22.074  1.00  0.00     0.008 A 
ATOM     26  C   UNL A   1      33.045  19.762  24.311  1.00  0.00    -0.044 A 
ATOM     27  C   UNL A   1      32.321  18.361  21.983  1.00  0.00     0.001 A 
ATOM     28  C   UNL A   1      33.269  18.379  24.199  1.00  0.00     0.004 A 
ATOM     29  C   UNL A   1      33.451  20.453  25.585  1.00  0.00     0.045 C 
ATOM     30  C   UNL A   1      32.905  17.683  23.046  1.00  0.00     0.000 A 
ENDBRANCH  23  24
ENDBRANCH  12  18
ENDBRANCH   4   7
ENDBRANCH   2   3
ENDBRANCH   1   2
BRANCH   1  31
ATOM     31  C   UNL A   1      37.204  23.757  26.255  1.00  0.00     0.023 C 
BRANCH  31  32
ATOM     32  C   UNL A   1      38.244  22.910  25.531  1.00  0.00     0.116 C 
BRANCH  32  33
ATOM     33  N   UNL A   1      39.512  22.739  26.226  1.00  0.00    -0.352 N 
ATOM     34  C   UNL A   1      40.353  23.687  26.797  1.00  0.00     0.251 C 
ATOM     35  H   UNL A   1      39.822  21.808  26.304  1.00  0.00     0.163 HD
ATOM     36  O   UNL A   1      41.454  23.355  27.204  1.00  0.00    -0.269 OA
BRANCH  34  37
ATOM     37  C   UNL A   1      39.858  25.068  27.053  1.00  0.00     0.039 A 
ATOM     38  C   UNL A   1      40.428  26.114  26.314  1.00  0.00     0.014 A 
ATOM     39  C   UNL A   1      39.032  25.357  28.133  1.00  0.00     0.014 A 
ATOM     40  C   UNL A   1      40.404  27.410  26.827  1.00  0.00     0.010 A 
ATOM     41  C   UNL A   1      39.114  26.608  28.709  1.00  0.00     0.010 A 
ATOM     42  C   UNL A   1      39.866  27.613  28.093  1.00  0.00    -0.014 A 
BRANCH  42  43
ATOM     43  C   UNL A   1      40.123  28.792  28.909  1.00  0.00     0.031 A 
ATOM     44  C   UNL A   1      39.115  29.868  28.995  1.00  0.00     0.074 A 
ATOM     45  C   UNL A   1      41.215  28.809  29.709  1.00  0.00     0.049 A 
ATOM     46  N   UNL A   1      39.339  31.018  29.533  1.00  0.00    -0.248 NA
ATOM     47  C   UNL A   1      37.781  29.766  28.408  1.00  0.00     0.031 C 
ATOM     48  C   UNL A   1      41.458  29.668  30.866  1.00  0.00     0.029 A 
ATOM     49  N   UNL A   1      42.445  28.158  29.498  1.00  0.00    -0.354 N 
ATOM     50  C   UNL A   1      38.133  31.667  29.645  1.00  0.00     0.074 A 
ATOM     51  C   UNL A   1      37.233  30.919  28.808  1.00  0.00     0.031 C 
ATOM     52  C   UNL A   1      42.780  29.737  31.089  1.00  0.00     0.029 A 
ATOM     53  C   UNL A   1      43.427  29.059  29.982  1.00  0.00     0.049 A 
ATOM     54  H   UNL A   1      42.592  27.270  29.101  1.00  0.00     0.167 HD
ATOM     55  C   UNL A   1      38.028  32.677  30.552  1.00  0.00     0.037 A 
ATOM     56  C   UNL A   1      44.340  29.638  29.148  1.00  0.00     0.037 A 
ATOM     57  C   UNL A   1      39.356  33.119  30.984  1.00  0.00     0.049 A 
ATOM     58  C   UNL A   1      44.306  31.148  29.153  1.00  0.00     0.074 A 
ATOM     59  C   UNL A   1      40.082  32.978  32.153  1.00  0.00     0.029 A 
ATOM     60  N   UNL A   1      40.242  33.604  30.024  1.00  0.00    -0.354 N 
ATOM     61  N   UNL A   1      43.282  31.852  29.552  1.00  0.00    -0.248 NA
ATOM     62  C   UNL A   1      45.410  31.984  28.691  1.00  0.00     0.031 C 
ATOM     63  C   UNL A   1      41.436  33.301  31.863  1.00  0.00     0.029 A 
ATOM     64  C   UNL A   1      41.522  33.681  30.533  1.00  0.00     0.049 A 
ATOM     65  H   UNL A   1      39.990  33.857  29.106  1.00  0.00     0.167 HD
ATOM     66  C   UNL A   1      43.553  33.187  29.398  1.00  0.00     0.074 A 
ATOM     67  C   UNL A   1      44.906  33.216  28.875  1.00  0.00     0.031 C 
ATOM     68  C   UNL A   1      42.628  34.146  29.704  1.00  0.00     0.037 A 
BRANCH  55  69
ATOM     69  C   UNL A   1      36.741  33.149  31.208  1.00  0.00     0.064 A 
ATOM     70  C   UNL A   1      35.827  33.944  30.478  1.00  0.00     0.173 A 
ATOM     71  C   UNL A   1      36.406  32.984  32.569  1.00  0.00     0.173 A 
ATOM     72  F   UNL A   1      36.011  34.196  29.175  1.00  0.00    -0.203 F 
ATOM     73  C   UNL A   1      34.699  34.532  31.066  1.00  0.00     0.198 A 
ATOM     74  C   UNL A   1      35.254  33.531  33.143  1.00  0.00     0.198 A 
ATOM     75  F   UNL A   1      37.198  32.341  33.432  1.00  0.00    -0.203 F 
ATOM     76  F   UNL A   1      33.906  35.326  30.334  1.00  0.00    -0.200 F 
ATOM     77  C   UNL A   1      34.408  34.318  32.396  1.00  0.00     0.200 A 
ATOM     78  F   UNL A   1      34.994  33.310  34.440  1.00  0.00    -0.200 F 
ATOM     79  F   UNL A   1      33.333  34.881  32.962  1.00  0.00    -0.200 F 
ENDBRANCH  55  69
BRANCH  56  80
ATOM     80  C   UNL A   1      44.676  28.787  27.976  1.00  0.00     0.064 A 
ATOM     81  C   UNL A   1      45.480  27.651  28.195  1.00  0.00     0.173 A 
ATOM     82  C   UNL A   1      43.912  28.827  26.804  1.00  0.00     0.173 A 
ATOM     83  F   UNL A   1      46.224  27.563  29.309  1.00  0.00    -0.203 F 
ATOM     84  C   UNL A   1      45.417  26.547  27.349  1.00  0.00     0.198 A 
ATOM     85  C   UNL A   1      43.868  27.724  25.947  1.00  0.00     0.198 A 
ATOM     86  F   UNL A   1      43.111  29.870  26.550  1.00  0.00    -0.203 F 
ATOM     87  F   UNL A   1      46.091  25.429  27.658  1.00  0.00    -0.200 F 
ATOM     88  C   UNL A   1      44.586  26.573  26.241  1.00  0.00     0.200 A 
ATOM     89  F   UNL A   1      43.038  27.732  24.894  1.00  0.00    -0.200 F 
ATOM     90  F   UNL A   1      44.438  25.474  25.487  1.00  0.00    -0.200 F 
ENDBRANCH  56  80
BRANCH  68  91
ATOM     91  C   UNL A   1      42.694  35.616  29.333  1.00  0.00     0.064 A 
ATOM     92  C   UNL A   1      43.487  36.568  29.995  1.00  0.00     0.173 A 
ATOM     93  C   UNL A   1      42.043  36.088  28.164  1.00  0.00     0.173 A 
ATOM     94  F   UNL A   1      44.264  36.234  31.033  1.00  0.00    -0.203 F 
ATOM     95  C   UNL A   1      43.565  37.899  29.569  1.00  0.00     0.198 A 
ATOM     96  C   UNL A   1      42.174  37.399  27.706  1.00  0.00     0.198 A 
ATOM     97  F   UNL A   1      41.282  35.284  27.409  1.00  0.00    -0.203 F 
ATOM     98  F   UNL A   1      44.302  38.775  30.267  1.00  0.00    -0.200 F 
ATOM     99  C   UNL A   1      42.920  38.312  28.420  1.00  0.00     0.200 A 
ATOM    100  F   UNL A   1      41.590  37.764  26.556  1.00  0.00    -0.200 F 
ATOM    101  F   UNL A   1      43.039  39.574  27.988  1.00  0.00    -0.200 F 
ENDBRANCH  68  91
ENDBRANCH  42  43
ENDBRANCH  34  37
ENDBRANCH  32  33
ENDBRANCH  31  32
ENDBRANCH   1  31
TORSDOF 14
ENDMDL
