MODEL 1
REMARK VINA RESULT:     -12.9      0.000      0.000
REMARK SMILES COc1ccc([C@H]2[C@H](C(=O)NCCCCNC(=O)c3ccc(-c4c5nc(c(-c6c(F)c(F)c(F)c(F)c6F)c6ccc([nH]6)c(-c6c(F)c(F)c(F)c(F)c6F)c6nc(c(-c7c(F)c(F)c(F)c(F)c7F)c7ccc4[nH]7)C=C6)C=C5)cc3)CCN2c2ccc(F)cc2)cc1
REMARK SMILES IDX 13 1 12 2 11 3 9 4 10 5 8 7 7 8 84 9 82 10 83 11 6 12 3 13
REMARK SMILES IDX 4 14 93 15 5 16 92 17 2 18 1 19 85 20 86 21 91 22 87 23
REMARK SMILES IDX 90 24 88 25 89 26 14 27 15 28 16 29 17 30 18 32 19 33 20 34
REMARK SMILES IDX 81 35 21 36 80 37 22 38 23 39 24 40 74 41 25 42 79 43 73 44
REMARK SMILES IDX 75 45 26 46 78 47 72 48 71 49 27 51 59 52 39 53 58 54 40 55
REMARK SMILES IDX 43 56 57 57 76 58 41 59 42 60 56 62 77 63 44 64 28 65 29 66
REMARK SMILES IDX 37 67 30 68 31 69 35 70 38 71 32 72 33 73 36 74 34 75 60 76
REMARK SMILES IDX 61 77 69 78 62 79 63 80 67 81 70 82 64 83 65 84 68 85 66 86
REMARK SMILES IDX 45 87 46 88 54 89 47 90 48 91 52 92 55 93 49 94 50 95 53 96
REMARK SMILES IDX 51 97
REMARK H PARENT 11 6 16 31 75 50 43 61
REMARK Flexibility Score: inf
ROOT
ATOM      1  C   UNL A   1      31.849  26.474  26.577  1.00  0.00     0.023 C 
ENDROOT
BRANCH   1   2
ATOM      2  C   UNL A   1      30.532  26.024  25.954  1.00  0.00     0.116 C 
BRANCH   2   3
ATOM      3  N   UNL A   1      30.267  24.625  26.222  1.00  0.00    -0.356 N 
ATOM      4  C   UNL A   1      30.856  23.478  25.809  1.00  0.00     0.225 C 
ATOM      5  O   UNL A   1      30.272  22.435  26.135  1.00  0.00    -0.275 OA
ATOM      6  H   UNL A   1      29.504  24.479  26.826  1.00  0.00     0.163 HD
BRANCH   4   7
ATOM      7  C   UNL A   1      32.119  23.366  24.961  1.00  0.00     0.107 C 
ATOM      8  C   UNL A   1      32.941  22.108  25.304  1.00  0.00     0.125 C 
ATOM      9  N   UNL A   1      32.594  21.199  24.194  1.00  0.00    -0.364 N 
ATOM     10  C   UNL A   1      31.992  23.379  23.443  1.00  0.00     0.037 C 
ATOM     11  C   UNL A   1      32.325  21.962  22.975  1.00  0.00     0.118 C 
BRANCH   8  12
ATOM     12  C   UNL A   1      34.447  22.412  25.325  1.00  0.00    -0.024 A 
ATOM     13  C   UNL A   1      37.237  22.844  25.562  1.00  0.00     0.118 A 
ATOM     14  C   UNL A   1      36.747  21.653  25.026  1.00  0.00     0.047 A 
ATOM     15  C   UNL A   1      36.341  23.850  25.905  1.00  0.00     0.047 A 
ATOM     16  C   UNL A   1      35.369  21.439  24.903  1.00  0.00     0.010 A 
ATOM     17  C   UNL A   1      34.965  23.636  25.781  1.00  0.00     0.010 A 
BRANCH  13  18
ATOM     18  O   UNL A   1      38.597  22.926  25.687  1.00  0.00    -0.497 OA
ATOM     19  C   UNL A   1      39.247  21.728  26.106  1.00  0.00     0.278 C 
ENDBRANCH  13  18
ENDBRANCH   8  12
BRANCH   9  20
ATOM     20  C   UNL A   1      32.559  19.822  24.252  1.00  0.00     0.037 A 
ATOM     21  C   UNL A   1      32.637  19.139  25.481  1.00  0.00     0.029 A 
ATOM     22  C   UNL A   1      32.526  19.021  23.096  1.00  0.00     0.029 A 
ATOM     23  C   UNL A   1      32.755  17.744  25.551  1.00  0.00     0.041 A 
ATOM     24  C   UNL A   1      32.663  17.628  23.154  1.00  0.00     0.041 A 
ATOM     25  C   UNL A   1      32.787  17.004  24.383  1.00  0.00     0.123 A 
ATOM     26  F   UNL A   1      32.944  15.675  24.441  1.00  0.00    -0.207 F 
ENDBRANCH   9  20
ENDBRANCH   4   7
ENDBRANCH   2   3
ENDBRANCH   1   2
BRANCH   1  27
ATOM     27  C   UNL A   1      31.848  27.880  27.162  1.00  0.00     0.023 C 
BRANCH  27  28
ATOM     28  C   UNL A   1      33.227  28.517  27.277  1.00  0.00     0.116 C 
BRANCH  28  29
ATOM     29  N   UNL A   1      33.216  29.927  27.648  1.00  0.00    -0.352 N 
ATOM     30  C   UNL A   1      34.264  30.700  28.097  1.00  0.00     0.251 C 
ATOM     31  H   UNL A   1      32.348  30.385  27.568  1.00  0.00     0.163 HD
ATOM     32  O   UNL A   1      34.097  31.877  28.399  1.00  0.00    -0.269 OA
BRANCH  30  33
ATOM     33  C   UNL A   1      35.589  30.069  28.271  1.00  0.00     0.039 A 
ATOM     34  C   UNL A   1      36.506  30.125  27.219  1.00  0.00     0.014 A 
ATOM     35  C   UNL A   1      35.958  29.536  29.507  1.00  0.00     0.014 A 
ATOM     36  C   UNL A   1      37.831  29.747  27.443  1.00  0.00     0.010 A 
ATOM     37  C   UNL A   1      37.296  29.251  29.754  1.00  0.00     0.010 A 
ATOM     38  C   UNL A   1      38.249  29.368  28.730  1.00  0.00    -0.014 A 
BRANCH  38  39
ATOM     39  C   UNL A   1      39.678  29.114  29.042  1.00  0.00     0.031 A 
ATOM     40  C   UNL A   1      40.492  30.166  29.741  1.00  0.00     0.074 A 
ATOM     41  C   UNL A   1      40.270  27.985  28.602  1.00  0.00     0.049 A 
ATOM     42  N   UNL A   1      41.778  30.190  29.989  1.00  0.00    -0.248 NA
ATOM     43  C   UNL A   1      39.773  31.372  30.180  1.00  0.00     0.031 C 
ATOM     44  C   UNL A   1      39.609  26.921  27.844  1.00  0.00     0.029 A 
ATOM     45  N   UNL A   1      41.568  27.553  28.714  1.00  0.00    -0.354 N 
ATOM     46  C   UNL A   1      42.022  31.424  30.577  1.00  0.00     0.074 A 
ATOM     47  C   UNL A   1      40.766  32.139  30.603  1.00  0.00     0.031 C 
ATOM     48  C   UNL A   1      40.497  25.948  27.582  1.00  0.00     0.029 A 
ATOM     49  C   UNL A   1      41.797  26.334  28.121  1.00  0.00     0.049 A 
ATOM     50  H   UNL A   1      42.269  28.067  29.176  1.00  0.00     0.167 HD
ATOM     51  C   UNL A   1      43.187  31.908  31.073  1.00  0.00     0.037 A 
ATOM     52  C   UNL A   1      42.928  25.612  28.023  1.00  0.00     0.037 A 
ATOM     53  C   UNL A   1      44.421  31.170  31.101  1.00  0.00     0.049 A 
ATOM     54  C   UNL A   1      44.195  26.146  28.633  1.00  0.00     0.074 A 
ATOM     55  C   UNL A   1      45.629  31.531  31.670  1.00  0.00     0.029 A 
ATOM     56  N   UNL A   1      44.600  29.914  30.541  1.00  0.00    -0.354 N 
ATOM     57  N   UNL A   1      44.398  27.282  29.255  1.00  0.00    -0.248 NA
ATOM     58  C   UNL A   1      45.389  25.294  28.534  1.00  0.00     0.031 C 
ATOM     59  C   UNL A   1      46.548  30.504  31.428  1.00  0.00     0.029 A 
ATOM     60  C   UNL A   1      45.904  29.490  30.739  1.00  0.00     0.049 A 
ATOM     61  H   UNL A   1      43.903  29.399  30.072  1.00  0.00     0.167 HD
ATOM     62  C   UNL A   1      45.732  27.274  29.635  1.00  0.00     0.074 A 
ATOM     63  C   UNL A   1      46.288  26.013  29.190  1.00  0.00     0.031 C 
ATOM     64  C   UNL A   1      46.435  28.229  30.292  1.00  0.00     0.037 A 
BRANCH  51  65
ATOM     65  C   UNL A   1      43.172  33.296  31.640  1.00  0.00     0.064 A 
ATOM     66  C   UNL A   1      42.916  33.532  32.999  1.00  0.00     0.173 A 
ATOM     67  C   UNL A   1      43.433  34.403  30.818  1.00  0.00     0.173 A 
ATOM     68  F   UNL A   1      42.646  32.508  33.823  1.00  0.00    -0.203 F 
ATOM     69  C   UNL A   1      42.891  34.827  33.509  1.00  0.00     0.198 A 
ATOM     70  C   UNL A   1      43.436  35.694  31.338  1.00  0.00     0.198 A 
ATOM     71  F   UNL A   1      43.686  34.231  29.513  1.00  0.00    -0.203 F 
ATOM     72  F   UNL A   1      42.591  35.031  34.799  1.00  0.00    -0.200 F 
ATOM     73  C   UNL A   1      43.156  35.906  32.680  1.00  0.00     0.200 A 
ATOM     74  F   UNL A   1      43.702  36.736  30.538  1.00  0.00    -0.200 F 
ATOM     75  F   UNL A   1      43.133  37.152  33.172  1.00  0.00    -0.200 F 
ENDBRANCH  51  65
BRANCH  52  76
ATOM     76  C   UNL A   1      42.908  24.289  27.348  1.00  0.00     0.064 A 
ATOM     77  C   UNL A   1      43.222  24.176  25.986  1.00  0.00     0.173 A 
ATOM     78  C   UNL A   1      42.582  23.117  28.043  1.00  0.00     0.173 A 
ATOM     79  F   UNL A   1      43.519  25.274  25.276  1.00  0.00    -0.203 F 
ATOM     80  C   UNL A   1      43.193  22.943  25.341  1.00  0.00     0.198 A 
ATOM     81  C   UNL A   1      42.576  21.880  27.401  1.00  0.00     0.198 A 
ATOM     82  F   UNL A   1      42.280  23.172  29.349  1.00  0.00    -0.203 F 
ATOM     83  F   UNL A   1      43.458  22.868  24.029  1.00  0.00    -0.200 F 
ATOM     84  C   UNL A   1      42.875  21.794  26.050  1.00  0.00     0.200 A 
ATOM     85  F   UNL A   1      42.280  20.770  28.092  1.00  0.00    -0.200 F 
ATOM     86  F   UNL A   1      42.849  20.607  25.430  1.00  0.00    -0.200 F 
ENDBRANCH  52  76
BRANCH  64  87
ATOM     87  C   UNL A   1      47.876  27.938  30.587  1.00  0.00     0.064 A 
ATOM     88  C   UNL A   1      48.261  27.255  31.749  1.00  0.00     0.173 A 
ATOM     89  C   UNL A   1      48.876  28.306  29.674  1.00  0.00     0.173 A 
ATOM     90  F   UNL A   1      47.340  26.897  32.658  1.00  0.00    -0.203 F 
ATOM     91  C   UNL A   1      49.600  26.965  31.996  1.00  0.00     0.198 A 
ATOM     92  C   UNL A   1      50.211  27.993  29.914  1.00  0.00     0.198 A 
ATOM     93  F   UNL A   1      48.556  28.957  28.546  1.00  0.00    -0.203 F 
ATOM     94  F   UNL A   1      49.950  26.344  33.132  1.00  0.00    -0.200 F 
ATOM     95  C   UNL A   1      50.572  27.327  31.076  1.00  0.00     0.200 A 
ATOM     96  F   UNL A   1      51.148  28.334  29.019  1.00  0.00    -0.200 F 
ATOM     97  F   UNL A   1      51.860  27.041  31.312  1.00  0.00    -0.200 F 
ENDBRANCH  64  87
ENDBRANCH  38  39
ENDBRANCH  30  33
ENDBRANCH  28  29
ENDBRANCH  27  28
ENDBRANCH   1  27
TORSDOF 14
ENDMDL
MODEL 2
REMARK VINA RESULT:     -12.9      2.835      3.843
REMARK SMILES COc1ccc([C@H]2[C@H](C(=O)NCCCCNC(=O)c3ccc(-c4c5nc(c(-c6c(F)c(F)c(F)c(F)c6F)c6ccc([nH]6)c(-c6c(F)c(F)c(F)c(F)c6F)c6nc(c(-c7c(F)c(F)c(F)c(F)c7F)c7ccc4[nH]7)C=C6)C=C5)cc3)CCN2c2ccc(F)cc2)cc1
REMARK SMILES IDX 13 1 12 2 11 3 9 4 10 5 8 7 7 8 84 9 82 10 83 11 6 12 3 13
REMARK SMILES IDX 4 14 93 15 5 16 92 17 2 18 1 19 85 20 86 21 91 22 87 23
REMARK SMILES IDX 90 24 88 25 89 26 14 27 15 28 16 29 17 30 18 32 19 33 20 34
REMARK SMILES IDX 81 35 21 36 80 37 22 38 23 39 24 40 74 41 25 42 79 43 73 44
REMARK SMILES IDX 75 45 26 46 78 47 72 48 71 49 27 51 59 52 39 53 58 54 40 55
REMARK SMILES IDX 43 56 57 57 76 58 41 59 42 60 56 62 77 63 44 64 28 65 29 66
REMARK SMILES IDX 37 67 30 68 31 69 35 70 38 71 32 72 33 73 36 74 34 75 60 76
REMARK SMILES IDX 61 77 69 78 62 79 63 80 67 81 70 82 64 83 65 84 68 85 66 86
REMARK SMILES IDX 45 87 46 88 54 89 47 90 48 91 52 92 55 93 49 94 50 95 53 96
REMARK SMILES IDX 51 97
REMARK H PARENT 11 6 16 31 75 50 43 61
REMARK Flexibility Score: inf
ROOT
ATOM      1  C   UNL A   1      32.047  27.010  26.721  1.00  0.00     0.023 C 
ENDROOT
BRANCH   1   2
ATOM      2  C   UNL A   1      30.943  26.293  25.953  1.00  0.00     0.116 C 
BRANCH   2   3
ATOM      3  N   UNL A   1      30.763  24.934  26.425  1.00  0.00    -0.356 N 
ATOM      4  C   UNL A   1      31.396  23.769  26.149  1.00  0.00     0.225 C 
ATOM      5  O   UNL A   1      30.880  22.756  26.644  1.00  0.00    -0.275 OA
ATOM      6  H   UNL A   1      30.032  24.839  27.078  1.00  0.00     0.163 HD
BRANCH   4   7
ATOM      7  C   UNL A   1      32.630  23.598  25.269  1.00  0.00     0.107 C 
ATOM      8  C   UNL A   1      33.347  22.258  25.525  1.00  0.00     0.125 C 
ATOM      9  N   UNL A   1      32.904  21.445  24.375  1.00  0.00    -0.364 N 
ATOM     10  C   UNL A   1      32.478  23.707  23.757  1.00  0.00     0.037 C 
ATOM     11  C   UNL A   1      32.679  22.295  23.206  1.00  0.00     0.118 C 
BRANCH   8  12
ATOM     12  C   UNL A   1      34.873  22.432  25.529  1.00  0.00    -0.024 A 
ATOM     13  C   UNL A   1      37.689  22.649  25.749  1.00  0.00     0.118 A 
ATOM     14  C   UNL A   1      37.100  21.449  25.352  1.00  0.00     0.047 A 
ATOM     15  C   UNL A   1      36.884  23.762  25.957  1.00  0.00     0.047 A 
ATOM     16  C   UNL A   1      35.709  21.340  25.238  1.00  0.00     0.010 A 
ATOM     17  C   UNL A   1      35.494  23.653  25.841  1.00  0.00     0.010 A 
BRANCH  13  18
ATOM     18  O   UNL A   1      39.052  22.629  25.881  1.00  0.00    -0.497 OA
ATOM     19  C   UNL A   1      39.624  21.347  26.128  1.00  0.00     0.278 C 
ENDBRANCH  13  18
ENDBRANCH   8  12
BRANCH   9  20
ATOM     20  C   UNL A   1      32.753  20.075  24.360  1.00  0.00     0.037 A 
ATOM     21  C   UNL A   1      32.904  19.308  25.531  1.00  0.00     0.029 A 
ATOM     22  C   UNL A   1      32.521  19.357  23.172  1.00  0.00     0.029 A 
ATOM     23  C   UNL A   1      32.903  17.907  25.509  1.00  0.00     0.041 A 
ATOM     24  C   UNL A   1      32.539  17.957  23.136  1.00  0.00     0.041 A 
ATOM     25  C   UNL A   1      32.740  17.246  24.306  1.00  0.00     0.123 A 
ATOM     26  F   UNL A   1      32.782  15.907  24.271  1.00  0.00    -0.207 F 
ENDBRANCH   9  20
ENDBRANCH   4   7
ENDBRANCH   2   3
ENDBRANCH   1   2
BRANCH   1  27
ATOM     27  C   UNL A   1      31.784  28.479  27.022  1.00  0.00     0.023 C 
BRANCH  27  28
ATOM     28  C   UNL A   1      32.765  29.444  26.368  1.00  0.00     0.116 C 
BRANCH  28  29
ATOM     29  N   UNL A   1      32.580  30.843  26.736  1.00  0.00    -0.352 N 
ATOM     30  C   UNL A   1      33.471  31.685  27.364  1.00  0.00     0.251 C 
ATOM     31  H   UNL A   1      31.707  31.234  26.507  1.00  0.00     0.163 HD
ATOM     32  O   UNL A   1      33.162  32.841  27.637  1.00  0.00    -0.269 OA
BRANCH  30  33
ATOM     33  C   UNL A   1      34.789  31.154  27.766  1.00  0.00     0.039 A 
ATOM     34  C   UNL A   1      35.834  32.051  28.002  1.00  0.00     0.014 A 
ATOM     35  C   UNL A   1      34.952  29.792  28.024  1.00  0.00     0.014 A 
ATOM     36  C   UNL A   1      37.008  31.594  28.603  1.00  0.00     0.010 A 
ATOM     37  C   UNL A   1      36.081  29.358  28.708  1.00  0.00     0.010 A 
ATOM     38  C   UNL A   1      37.114  30.256  29.019  1.00  0.00    -0.014 A 
BRANCH  38  39
ATOM     39  C   UNL A   1      38.279  29.773  29.803  1.00  0.00     0.031 A 
ATOM     40  C   UNL A   1      38.499  30.270  31.204  1.00  0.00     0.074 A 
ATOM     41  C   UNL A   1      39.195  28.975  29.219  1.00  0.00     0.049 A 
ATOM     42  N   UNL A   1      39.516  30.070  32.004  1.00  0.00    -0.248 NA
ATOM     43  C   UNL A   1      37.457  31.146  31.764  1.00  0.00     0.031 C 
ATOM     44  C   UNL A   1      39.138  28.485  27.840  1.00  0.00     0.029 A 
ATOM     45  N   UNL A   1      40.364  28.448  29.708  1.00  0.00    -0.354 N 
ATOM     46  C   UNL A   1      39.251  30.823  33.141  1.00  0.00     0.074 A 
ATOM     47  C   UNL A   1      38.006  31.522  32.908  1.00  0.00     0.031 C 
ATOM     48  C   UNL A   1      40.209  27.710  27.602  1.00  0.00     0.029 A 
ATOM     49  C   UNL A   1      41.045  27.675  28.797  1.00  0.00     0.049 A 
ATOM     50  H   UNL A   1      40.685  28.608  30.625  1.00  0.00     0.167 HD
ATOM     51  C   UNL A   1      39.970  30.904  34.286  1.00  0.00     0.037 A 
ATOM     52  C   UNL A   1      42.212  27.017  28.914  1.00  0.00     0.037 A 
ATOM     53  C   UNL A   1      41.175  30.161  34.538  1.00  0.00     0.049 A 
ATOM     54  C   UNL A   1      42.962  27.077  30.216  1.00  0.00     0.074 A 
ATOM     55  C   UNL A   1      41.922  30.097  35.700  1.00  0.00     0.029 A 
ATOM     56  N   UNL A   1      41.804  29.343  33.611  1.00  0.00    -0.354 N 
ATOM     57  N   UNL A   1      42.664  27.731  31.312  1.00  0.00    -0.248 NA
ATOM     58  C   UNL A   1      44.208  26.302  30.300  1.00  0.00     0.031 C 
ATOM     59  C   UNL A   1      43.021  29.262  35.467  1.00  0.00     0.029 A 
ATOM     60  C   UNL A   1      42.939  28.781  34.171  1.00  0.00     0.049 A 
ATOM     61  H   UNL A   1      41.490  29.186  32.690  1.00  0.00     0.167 HD
ATOM     62  C   UNL A   1      43.671  27.433  32.219  1.00  0.00     0.074 A 
ATOM     63  C   UNL A   1      44.581  26.526  31.552  1.00  0.00     0.031 C 
ATOM     64  C   UNL A   1      43.829  27.875  33.491  1.00  0.00     0.037 A 
BRANCH  51  65
ATOM     65  C   UNL A   1      39.459  31.820  35.358  1.00  0.00     0.064 A 
ATOM     66  C   UNL A   1      39.856  33.164  35.428  1.00  0.00     0.173 A 
ATOM     67  C   UNL A   1      38.549  31.353  36.318  1.00  0.00     0.173 A 
ATOM     68  F   UNL A   1      40.737  33.654  34.542  1.00  0.00    -0.203 F 
ATOM     69  C   UNL A   1      39.385  33.999  36.437  1.00  0.00     0.198 A 
ATOM     70  C   UNL A   1      38.057  32.199  37.308  1.00  0.00     0.198 A 
ATOM     71  F   UNL A   1      38.135  30.078  36.294  1.00  0.00    -0.203 F 
ATOM     72  F   UNL A   1      39.821  35.264  36.515  1.00  0.00    -0.200 F 
ATOM     73  C   UNL A   1      38.483  33.518  37.373  1.00  0.00     0.200 A 
ATOM     74  F   UNL A   1      37.177  31.736  38.207  1.00  0.00    -0.200 F 
ATOM     75  F   UNL A   1      38.029  34.323  38.343  1.00  0.00    -0.200 F 
ENDBRANCH  51  65
BRANCH  52  76
ATOM     76  C   UNL A   1      42.728  26.214  27.776  1.00  0.00     0.064 A 
ATOM     77  C   UNL A   1      43.638  26.768  26.864  1.00  0.00     0.173 A 
ATOM     78  C   UNL A   1      42.332  24.885  27.577  1.00  0.00     0.173 A 
ATOM     79  F   UNL A   1      44.029  28.044  27.002  1.00  0.00    -0.203 F 
ATOM     80  C   UNL A   1      44.117  26.029  25.786  1.00  0.00     0.198 A 
ATOM     81  C   UNL A   1      42.831  24.138  26.511  1.00  0.00     0.198 A 
ATOM     82  F   UNL A   1      41.468  24.307  28.425  1.00  0.00    -0.203 F 
ATOM     83  F   UNL A   1      44.954  26.596  24.906  1.00  0.00    -0.200 F 
ATOM     84  C   UNL A   1      43.717  24.713  25.612  1.00  0.00     0.200 A 
ATOM     85  F   UNL A   1      42.451  22.863  26.353  1.00  0.00    -0.200 F 
ATOM     86  F   UNL A   1      44.181  24.000  24.577  1.00  0.00    -0.200 F 
ENDBRANCH  52  76
BRANCH  64  87
ATOM     87  C   UNL A   1      45.018  27.368  34.249  1.00  0.00     0.064 A 
ATOM     88  C   UNL A   1      46.234  28.066  34.254  1.00  0.00     0.173 A 
ATOM     89  C   UNL A   1      44.925  26.197  35.016  1.00  0.00     0.173 A 
ATOM     90  F   UNL A   1      46.374  29.183  33.522  1.00  0.00    -0.203 F 
ATOM     91  C   UNL A   1      47.322  27.600  34.987  1.00  0.00     0.198 A 
ATOM     92  C   UNL A   1      46.007  25.747  35.766  1.00  0.00     0.198 A 
ATOM     93  F   UNL A   1      43.781  25.498  35.047  1.00  0.00    -0.203 F 
ATOM     94  F   UNL A   1      48.487  28.262  34.946  1.00  0.00    -0.200 F 
ATOM     95  C   UNL A   1      47.206  26.446  35.747  1.00  0.00     0.200 A 
ATOM     96  F   UNL A   1      45.891  24.639  36.510  1.00  0.00    -0.200 F 
ATOM     97  F   UNL A   1      48.252  26.002  36.458  1.00  0.00    -0.200 F 
ENDBRANCH  64  87
ENDBRANCH  38  39
ENDBRANCH  30  33
ENDBRANCH  28  29
ENDBRANCH  27  28
ENDBRANCH   1  27
TORSDOF 14
ENDMDL
MODEL 3
REMARK VINA RESULT:     -12.7      3.785      8.930
REMARK SMILES COc1ccc([C@H]2[C@H](C(=O)NCCCCNC(=O)c3ccc(-c4c5nc(c(-c6c(F)c(F)c(F)c(F)c6F)c6ccc([nH]6)c(-c6c(F)c(F)c(F)c(F)c6F)c6nc(c(-c7c(F)c(F)c(F)c(F)c7F)c7ccc4[nH]7)C=C6)C=C5)cc3)CCN2c2ccc(F)cc2)cc1
REMARK SMILES IDX 13 1 12 2 11 3 9 4 10 5 8 7 7 8 84 9 82 10 83 11 6 12 3 13
REMARK SMILES IDX 4 14 93 15 5 16 92 17 2 18 1 19 85 20 86 21 91 22 87 23
REMARK SMILES IDX 90 24 88 25 89 26 14 27 15 28 16 29 17 30 18 32 19 33 20 34
REMARK SMILES IDX 81 35 21 36 80 37 22 38 23 39 24 40 74 41 25 42 79 43 73 44
REMARK SMILES IDX 75 45 26 46 78 47 72 48 71 49 27 51 59 52 39 53 58 54 40 55
REMARK SMILES IDX 43 56 57 57 76 58 41 59 42 60 56 62 77 63 44 64 28 65 29 66
REMARK SMILES IDX 37 67 30 68 31 69 35 70 38 71 32 72 33 73 36 74 34 75 60 76
REMARK SMILES IDX 61 77 69 78 62 79 63 80 67 81 70 82 64 83 65 84 68 85 66 86
REMARK SMILES IDX 45 87 46 88 54 89 47 90 48 91 52 92 55 93 49 94 50 95 53 96
REMARK SMILES IDX 51 97
REMARK H PARENT 11 6 16 31 75 50 43 61
REMARK Flexibility Score: inf
ROOT
ATOM      1  C   UNL A   1      35.346  23.464  23.858  1.00  0.00     0.023 C 
ENDROOT
BRANCH   1   2
ATOM      2  C   UNL A   1      33.945  23.048  23.424  1.00  0.00     0.116 C 
BRANCH   2   3
ATOM      3  N   UNL A   1      33.389  23.977  22.460  1.00  0.00    -0.356 N 
ATOM      4  C   UNL A   1      32.632  25.093  22.584  1.00  0.00     0.225 C 
ATOM      5  O   UNL A   1      32.216  25.572  21.520  1.00  0.00    -0.275 OA
ATOM      6  H   UNL A   1      33.605  23.751  21.528  1.00  0.00     0.163 HD
BRANCH   4   7
ATOM      7  C   UNL A   1      32.222  25.766  23.891  1.00  0.00     0.107 C 
ATOM      8  C   UNL A   1      31.963  27.275  23.713  1.00  0.00     0.125 C 
ATOM      9  N   UNL A   1      30.489  27.336  23.681  1.00  0.00    -0.364 N 
ATOM     10  C   UNL A   1      31.018  25.225  24.652  1.00  0.00     0.037 C 
ATOM     11  C   UNL A   1      29.917  26.277  24.512  1.00  0.00     0.118 C 
BRANCH   8  12
ATOM     12  C   UNL A   1      32.530  28.082  24.891  1.00  0.00    -0.024 A 
ATOM     13  C   UNL A   1      33.652  29.727  26.906  1.00  0.00     0.118 A 
ATOM     14  C   UNL A   1      32.417  30.042  26.341  1.00  0.00     0.047 A 
ATOM     15  C   UNL A   1      34.290  28.551  26.526  1.00  0.00     0.047 A 
ATOM     16  C   UNL A   1      31.857  29.228  25.349  1.00  0.00     0.010 A 
ATOM     17  C   UNL A   1      33.729  27.738  25.536  1.00  0.00     0.010 A 
BRANCH  13  18
ATOM     18  O   UNL A   1      34.131  30.619  27.827  1.00  0.00    -0.497 OA
ATOM     19  C   UNL A   1      33.734  31.974  27.631  1.00  0.00     0.278 C 
ENDBRANCH  13  18
ENDBRANCH   8  12
BRANCH   9  20
ATOM     20  C   UNL A   1      29.729  28.269  23.008  1.00  0.00     0.037 A 
ATOM     21  C   UNL A   1      30.326  29.246  22.189  1.00  0.00     0.029 A 
ATOM     22  C   UNL A   1      28.333  28.353  23.161  1.00  0.00     0.029 A 
ATOM     23  C   UNL A   1      29.587  30.291  21.618  1.00  0.00     0.041 A 
ATOM     24  C   UNL A   1      27.589  29.405  22.613  1.00  0.00     0.041 A 
ATOM     25  C   UNL A   1      28.227  30.371  21.854  1.00  0.00     0.123 A 
ATOM     26  F   UNL A   1      27.522  31.392  21.349  1.00  0.00    -0.207 F 
ENDBRANCH   9  20
ENDBRANCH   4   7
ENDBRANCH   2   3
ENDBRANCH   1   2
BRANCH   1  27
ATOM     27  C   UNL A   1      36.351  22.329  23.995  1.00  0.00     0.023 C 
BRANCH  27  28
ATOM     28  C   UNL A   1      36.869  22.111  25.410  1.00  0.00     0.116 C 
BRANCH  28  29
ATOM     29  N   UNL A   1      37.946  21.133  25.521  1.00  0.00    -0.352 N 
ATOM     30  C   UNL A   1      39.185  21.289  26.102  1.00  0.00     0.251 C 
ATOM     31  H   UNL A   1      37.763  20.248  25.128  1.00  0.00     0.163 HD
ATOM     32  O   UNL A   1      40.005  20.376  26.095  1.00  0.00    -0.269 OA
BRANCH  30  33
ATOM     33  C   UNL A   1      39.538  22.601  26.682  1.00  0.00     0.039 A 
ATOM     34  C   UNL A   1      40.570  22.666  27.620  1.00  0.00     0.014 A 
ATOM     35  C   UNL A   1      38.934  23.767  26.209  1.00  0.00     0.014 A 
ATOM     36  C   UNL A   1      41.073  23.912  28.001  1.00  0.00     0.010 A 
ATOM     37  C   UNL A   1      39.498  24.999  26.515  1.00  0.00     0.010 A 
ATOM     38  C   UNL A   1      40.582  25.085  27.402  1.00  0.00    -0.014 A 
BRANCH  38  39
ATOM     39  C   UNL A   1      41.199  26.410  27.662  1.00  0.00     0.031 A 
ATOM     40  C   UNL A   1      42.606  26.684  27.213  1.00  0.00     0.074 A 
ATOM     41  C   UNL A   1      40.535  27.326  28.395  1.00  0.00     0.049 A 
ATOM     42  N   UNL A   1      43.366  27.724  27.453  1.00  0.00    -0.248 NA
ATOM     43  C   UNL A   1      43.265  25.628  26.427  1.00  0.00     0.031 C 
ATOM     44  C   UNL A   1      39.193  27.153  28.956  1.00  0.00     0.029 A 
ATOM     45  N   UNL A   1      40.905  28.581  28.809  1.00  0.00    -0.354 N 
ATOM     46  C   UNL A   1      44.596  27.429  26.880  1.00  0.00     0.074 A 
ATOM     47  C   UNL A   1      44.499  26.097  26.326  1.00  0.00     0.031 C 
ATOM     48  C   UNL A   1      38.844  28.268  29.618  1.00  0.00     0.029 A 
ATOM     49  C   UNL A   1      39.947  29.221  29.559  1.00  0.00     0.049 A 
ATOM     50  H   UNL A   1      41.776  28.985  28.589  1.00  0.00     0.167 HD
ATOM     51  C   UNL A   1      45.700  28.211  26.802  1.00  0.00     0.037 A 
ATOM     52  C   UNL A   1      39.960  30.437  30.134  1.00  0.00     0.037 A 
ATOM     53  C   UNL A   1      45.773  29.557  27.300  1.00  0.00     0.049 A 
ATOM     54  C   UNL A   1      41.177  31.308  29.983  1.00  0.00     0.074 A 
ATOM     55  C   UNL A   1      46.809  30.466  27.182  1.00  0.00     0.029 A 
ATOM     56  N   UNL A   1      44.760  30.193  28.004  1.00  0.00    -0.354 N 
ATOM     57  N   UNL A   1      42.308  31.049  29.373  1.00  0.00    -0.248 NA
ATOM     58  C   UNL A   1      41.117  32.643  30.595  1.00  0.00     0.031 C 
ATOM     59  C   UNL A   1      46.435  31.642  27.841  1.00  0.00     0.029 A 
ATOM     60  C   UNL A   1      45.154  31.477  28.340  1.00  0.00     0.049 A 
ATOM     61  H   UNL A   1      43.891  29.789  28.232  1.00  0.00     0.167 HD
ATOM     62  C   UNL A   1      43.085  32.190  29.512  1.00  0.00     0.074 A 
ATOM     63  C   UNL A   1      42.291  33.151  30.249  1.00  0.00     0.031 C 
ATOM     64  C   UNL A   1      44.346  32.420  29.070  1.00  0.00     0.037 A 
BRANCH  51  65
ATOM     65  C   UNL A   1      46.912  27.628  26.139  1.00  0.00     0.064 A 
ATOM     66  C   UNL A   1      47.912  26.978  26.877  1.00  0.00     0.173 A 
ATOM     67  C   UNL A   1      47.067  27.705  24.747  1.00  0.00     0.173 A 
ATOM     68  F   UNL A   1      47.817  26.891  28.213  1.00  0.00    -0.203 F 
ATOM     69  C   UNL A   1      49.040  26.454  26.250  1.00  0.00     0.198 A 
ATOM     70  C   UNL A   1      48.182  27.155  24.120  1.00  0.00     0.198 A 
ATOM     71  F   UNL A   1      46.138  28.314  23.995  1.00  0.00    -0.203 F 
ATOM     72  F   UNL A   1      50.008  25.886  26.981  1.00  0.00    -0.200 F 
ATOM     73  C   UNL A   1      49.171  26.538  24.872  1.00  0.00     0.200 A 
ATOM     74  F   UNL A   1      48.304  27.228  22.787  1.00  0.00    -0.200 F 
ATOM     75  F   UNL A   1      50.256  26.033  24.270  1.00  0.00    -0.200 F 
ENDBRANCH  51  65
BRANCH  52  76
ATOM     76  C   UNL A   1      38.768  30.919  30.878  1.00  0.00     0.064 A 
ATOM     77  C   UNL A   1      37.708  31.541  30.204  1.00  0.00     0.173 A 
ATOM     78  C   UNL A   1      38.659  30.765  32.266  1.00  0.00     0.173 A 
ATOM     79  F   UNL A   1      37.778  31.728  28.877  1.00  0.00    -0.203 F 
ATOM     80  C   UNL A   1      36.592  32.008  30.893  1.00  0.00     0.198 A 
ATOM     81  C   UNL A   1      37.531  31.213  32.952  1.00  0.00     0.198 A 
ATOM     82  F   UNL A   1      39.645  30.172  32.956  1.00  0.00    -0.203 F 
ATOM     83  F   UNL A   1      35.611  32.635  30.230  1.00  0.00    -0.200 F 
ATOM     84  C   UNL A   1      36.502  31.840  32.266  1.00  0.00     0.200 A 
ATOM     85  F   UNL A   1      37.442  31.038  34.278  1.00  0.00    -0.200 F 
ATOM     86  F   UNL A   1      35.427  32.286  32.929  1.00  0.00    -0.200 F 
ENDBRANCH  52  76
BRANCH  64  87
ATOM     87  C   UNL A   1      44.936  33.768  29.354  1.00  0.00     0.064 A 
ATOM     88  C   UNL A   1      44.750  34.847  28.477  1.00  0.00     0.173 A 
ATOM     89  C   UNL A   1      45.654  33.994  30.537  1.00  0.00     0.173 A 
ATOM     90  F   UNL A   1      44.082  34.673  27.326  1.00  0.00    -0.203 F 
ATOM     91  C   UNL A   1      45.279  36.101  28.768  1.00  0.00     0.198 A 
ATOM     92  C   UNL A   1      46.161  35.256  30.835  1.00  0.00     0.198 A 
ATOM     93  F   UNL A   1      45.854  32.995  31.409  1.00  0.00    -0.203 F 
ATOM     94  F   UNL A   1      45.122  37.109  27.898  1.00  0.00    -0.200 F 
ATOM     95  C   UNL A   1      45.977  36.306  29.948  1.00  0.00     0.200 A 
ATOM     96  F   UNL A   1      46.826  35.456  31.981  1.00  0.00    -0.200 F 
ATOM     97  F   UNL A   1      46.479  37.517  30.229  1.00  0.00    -0.200 F 
ENDBRANCH  64  87
ENDBRANCH  38  39
ENDBRANCH  30  33
ENDBRANCH  28  29
ENDBRANCH  27  28
ENDBRANCH   1  27
TORSDOF 14
ENDMDL
