MODEL 1
REMARK VINA RESULT:     -11.7      0.000      0.000
REMARK SMILES C[NH2+][C@]1(C(=O)NCCCCNC(=O)c2ccc(-c3c4nc(c(-c5c(F)c(F)c(F)c(F)c5F)c5ccc([nH]5)c(-c5c(F)c(F)c(F)c(F)c5F)c5nc(c(-c6c(F)c(F)c(F)c(F)c6F)c6ccc3[nH]6)C=C5)C=C4)cc2)CCC[C@@H]1CCOC[C@@H]1CCCO1
REMARK SMILES IDX 7 1 6 2 4 3 5 4 3 6 77 7 80 8 78 9 79 10 2 11 1 12 81 15
REMARK SMILES IDX 82 16 83 17 84 18 85 19 86 20 89 21 87 22 88 23 8 24 9 25
REMARK SMILES IDX 10 26 11 27 12 28 13 30 14 31 15 32 76 33 16 34 75 35 17 36
REMARK SMILES IDX 18 37 19 38 69 39 20 40 74 41 68 42 70 43 21 44 73 45 67 46
REMARK SMILES IDX 66 47 22 49 54 50 34 51 53 52 35 53 38 54 52 55 71 56 36 57
REMARK SMILES IDX 37 58 51 60 72 61 39 62 23 63 24 64 32 65 25 66 26 67 30 68
REMARK SMILES IDX 33 69 27 70 28 71 31 72 29 73 55 74 56 75 64 76 57 77 58 78
REMARK SMILES IDX 62 79 65 80 59 81 60 82 63 83 61 84 40 85 41 86 49 87 42 88
REMARK SMILES IDX 43 89 47 90 50 91 44 92 45 93 48 94 46 95
REMARK H PARENT 6 5 2 13 2 14 11 29 70 48 38 59
REMARK Flexibility Score: inf
ROOT
ATOM      1  C   UNL A   1      33.013  29.957  26.035  1.00  0.00     0.116 C 
ENDROOT
BRANCH   1   2
ATOM      2  N   UNL A   1      33.149  29.609  24.632  1.00  0.00    -0.351 N 
ATOM      3  C   UNL A   1      32.940  28.472  23.908  1.00  0.00     0.281 C 
ATOM      4  O   UNL A   1      33.016  28.645  22.687  1.00  0.00    -0.268 OA
ATOM      5  H   UNL A   1      33.463  30.361  24.079  1.00  0.00     0.163 HD
BRANCH   3   6
ATOM      6  C   UNL A   1      32.581  27.087  24.551  1.00  0.00     0.178 C 
ATOM      7  C   UNL A   1      33.226  26.854  25.938  1.00  0.00     0.079 C 
ATOM      8  C   UNL A   1      31.056  27.018  24.876  1.00  0.00     0.063 C 
ATOM      9  C   UNL A   1      32.210  26.043  26.756  1.00  0.00     0.008 C 
ATOM     10  C   UNL A   1      30.984  25.844  25.863  1.00  0.00     0.011 C 
BRANCH   6  11
ATOM     11  N   UNL A   1      32.947  25.879  23.744  1.00  0.00    -0.336 N 
ATOM     12  C   UNL A   1      34.181  25.186  24.063  1.00  0.00     0.331 C 
ATOM     13  H   UNL A   1      32.187  25.207  23.847  1.00  0.00     0.346 HD
ATOM     14  H   UNL A   1      33.098  26.242  22.803  1.00  0.00     0.346 HD
ENDBRANCH   6  11
BRANCH   8  15
ATOM     15  C   UNL A   1      30.128  26.903  23.650  1.00  0.00     0.039 C 
BRANCH  15  16
ATOM     16  C   UNL A   1      29.588  28.226  23.093  1.00  0.00     0.161 C 
BRANCH  16  17
ATOM     17  O   UNL A   1      28.173  28.326  23.077  1.00  0.00    -0.379 OA
BRANCH  17  18
ATOM     18  C   UNL A   1      27.542  29.527  22.647  1.00  0.00     0.192 C 
BRANCH  18  19
ATOM     19  C   UNL A   1      28.430  30.741  22.322  1.00  0.00     0.144 C 
ATOM     20  C   UNL A   1      28.450  31.847  23.363  1.00  0.00     0.037 C 
ATOM     21  O   UNL A   1      28.076  31.342  21.067  1.00  0.00    -0.376 OA
ATOM     22  C   UNL A   1      28.643  33.096  22.548  1.00  0.00     0.031 C 
ATOM     23  C   UNL A   1      27.934  32.754  21.257  1.00  0.00     0.160 C 
ENDBRANCH  18  19
ENDBRANCH  17  18
ENDBRANCH  16  17
ENDBRANCH  15  16
ENDBRANCH   8  15
ENDBRANCH   3   6
ENDBRANCH   1   2
BRANCH   1  24
ATOM     24  C   UNL A   1      31.622  30.471  26.392  1.00  0.00     0.023 C 
BRANCH  24  25
ATOM     25  C   UNL A   1      31.500  31.991  26.517  1.00  0.00     0.023 C 
BRANCH  25  26
ATOM     26  C   UNL A   1      32.623  32.692  27.278  1.00  0.00     0.116 C 
BRANCH  26  27
ATOM     27  N   UNL A   1      32.329  34.081  27.589  1.00  0.00    -0.352 N 
ATOM     28  C   UNL A   1      32.929  34.921  28.502  1.00  0.00     0.251 C 
ATOM     29  H   UNL A   1      31.594  34.481  27.070  1.00  0.00     0.163 HD
ATOM     30  O   UNL A   1      32.469  36.032  28.707  1.00  0.00    -0.269 OA
BRANCH  28  31
ATOM     31  C   UNL A   1      34.109  34.454  29.265  1.00  0.00     0.039 A 
ATOM     32  C   UNL A   1      33.907  33.844  30.505  1.00  0.00     0.014 A 
ATOM     33  C   UNL A   1      35.401  34.597  28.755  1.00  0.00     0.014 A 
ATOM     34  C   UNL A   1      34.994  33.304  31.197  1.00  0.00     0.010 A 
ATOM     35  C   UNL A   1      36.473  33.991  29.408  1.00  0.00     0.010 A 
ATOM     36  C   UNL A   1      36.279  33.334  30.633  1.00  0.00    -0.014 A 
BRANCH  36  37
ATOM     37  C   UNL A   1      37.429  32.673  31.304  1.00  0.00     0.031 A 
ATOM     38  C   UNL A   1      38.138  31.525  30.641  1.00  0.00     0.074 A 
ATOM     39  C   UNL A   1      37.793  33.063  32.542  1.00  0.00     0.049 A 
ATOM     40  N   UNL A   1      39.119  30.783  31.093  1.00  0.00    -0.248 NA
ATOM     41  C   UNL A   1      37.666  31.141  29.302  1.00  0.00     0.031 C 
ATOM     42  C   UNL A   1      37.152  34.129  33.314  1.00  0.00     0.029 A 
ATOM     43  N   UNL A   1      38.785  32.603  33.373  1.00  0.00    -0.354 N 
ATOM     44  C   UNL A   1      39.370  29.843  30.103  1.00  0.00     0.074 A 
ATOM     45  C   UNL A   1      38.402  30.069  29.051  1.00  0.00     0.031 C 
ATOM     46  C   UNL A   1      37.781  34.256  34.494  1.00  0.00     0.029 A 
ATOM     47  C   UNL A   1      38.841  33.257  34.579  1.00  0.00     0.049 A 
ATOM     48  H   UNL A   1      39.397  31.871  33.127  1.00  0.00     0.167 HD
ATOM     49  C   UNL A   1      40.334  28.893  30.063  1.00  0.00     0.037 A 
ATOM     50  C   UNL A   1      39.652  33.067  35.638  1.00  0.00     0.037 A 
ATOM     51  C   UNL A   1      41.309  28.683  31.103  1.00  0.00     0.049 A 
ATOM     52  C   UNL A   1      40.709  31.998  35.572  1.00  0.00     0.074 A 
ATOM     53  C   UNL A   1      42.362  27.786  31.129  1.00  0.00     0.029 A 
ATOM     54  N   UNL A   1      41.344  29.377  32.303  1.00  0.00    -0.354 N 
ATOM     55  N   UNL A   1      40.984  31.164  34.599  1.00  0.00    -0.248 NA
ATOM     56  C   UNL A   1      41.574  31.849  36.752  1.00  0.00     0.031 C 
ATOM     57  C   UNL A   1      43.003  27.901  32.366  1.00  0.00     0.029 A 
ATOM     58  C   UNL A   1      42.387  28.911  33.088  1.00  0.00     0.049 A 
ATOM     59  H   UNL A   1      40.720  30.094  32.560  1.00  0.00     0.167 HD
ATOM     60  C   UNL A   1      42.070  30.414  35.034  1.00  0.00     0.074 A 
ATOM     61  C   UNL A   1      42.413  30.904  36.353  1.00  0.00     0.031 C 
ATOM     62  C   UNL A   1      42.723  29.411  34.397  1.00  0.00     0.037 A 
BRANCH  49  63
ATOM     63  C   UNL A   1      40.386  28.005  28.852  1.00  0.00     0.064 A 
ATOM     64  C   UNL A   1      41.140  28.350  27.719  1.00  0.00     0.173 A 
ATOM     65  C   UNL A   1      39.703  26.779  28.835  1.00  0.00     0.173 A 
ATOM     66  F   UNL A   1      41.804  29.515  27.678  1.00  0.00    -0.203 F 
ATOM     67  C   UNL A   1      41.184  27.516  26.605  1.00  0.00     0.198 A 
ATOM     68  C   UNL A   1      39.777  25.932  27.733  1.00  0.00     0.198 A 
ATOM     69  F   UNL A   1      38.973  26.398  29.894  1.00  0.00    -0.203 F 
ATOM     70  F   UNL A   1      41.869  27.891  25.516  1.00  0.00    -0.200 F 
ATOM     71  C   UNL A   1      40.508  26.305  26.615  1.00  0.00     0.200 A 
ATOM     72  F   UNL A   1      39.135  24.755  27.751  1.00  0.00    -0.200 F 
ATOM     73  F   UNL A   1      40.558  25.498  25.546  1.00  0.00    -0.200 F 
ENDBRANCH  49  63
BRANCH  50  74
ATOM     74  C   UNL A   1      39.513  33.925  36.845  1.00  0.00     0.064 A 
ATOM     75  C   UNL A   1      40.147  35.174  36.918  1.00  0.00     0.173 A 
ATOM     76  C   UNL A   1      38.756  33.513  37.951  1.00  0.00     0.173 A 
ATOM     77  F   UNL A   1      40.899  35.603  35.895  1.00  0.00    -0.203 F 
ATOM     78  C   UNL A   1      40.048  35.967  38.059  1.00  0.00     0.198 A 
ATOM     79  C   UNL A   1      38.632  34.321  39.080  1.00  0.00     0.198 A 
ATOM     80  F   UNL A   1      38.125  32.330  37.931  1.00  0.00    -0.203 F 
ATOM     81  F   UNL A   1      40.704  37.133  38.121  1.00  0.00    -0.200 F 
ATOM     82  C   UNL A   1      39.286  35.543  39.137  1.00  0.00     0.200 A 
ATOM     83  F   UNL A   1      37.882  33.914  40.113  1.00  0.00    -0.200 F 
ATOM     84  F   UNL A   1      39.187  36.307  40.233  1.00  0.00    -0.200 F 
ENDBRANCH  50  74
BRANCH  62  85
ATOM     85  C   UNL A   1      43.902  28.800  35.099  1.00  0.00     0.064 A 
ATOM     86  C   UNL A   1      45.196  29.321  34.958  1.00  0.00     0.173 A 
ATOM     87  C   UNL A   1      43.725  27.702  35.955  1.00  0.00     0.173 A 
ATOM     88  F   UNL A   1      45.421  30.360  34.141  1.00  0.00    -0.203 F 
ATOM     89  C   UNL A   1      46.275  28.747  35.626  1.00  0.00     0.198 A 
ATOM     90  C   UNL A   1      44.801  27.151  36.647  1.00  0.00     0.198 A 
ATOM     91  F   UNL A   1      42.507  27.169  36.131  1.00  0.00    -0.203 F 
ATOM     92  F   UNL A   1      47.512  29.228  35.436  1.00  0.00    -0.200 F 
ATOM     93  C   UNL A   1      46.075  27.669  36.475  1.00  0.00     0.200 A 
ATOM     94  F   UNL A   1      44.602  26.119  37.478  1.00  0.00    -0.200 F 
ATOM     95  F   UNL A   1      47.114  27.122  37.123  1.00  0.00    -0.200 F 
ENDBRANCH  62  85
ENDBRANCH  36  37
ENDBRANCH  28  31
ENDBRANCH  26  27
ENDBRANCH  25  26
ENDBRANCH  24  25
ENDBRANCH   1  24
TORSDOF 17
ENDMDL
MODEL 2
REMARK VINA RESULT:     -11.5      0.687      7.432
REMARK SMILES C[NH2+][C@]1(C(=O)NCCCCNC(=O)c2ccc(-c3c4nc(c(-c5c(F)c(F)c(F)c(F)c5F)c5ccc([nH]5)c(-c5c(F)c(F)c(F)c(F)c5F)c5nc(c(-c6c(F)c(F)c(F)c(F)c6F)c6ccc3[nH]6)C=C5)C=C4)cc2)CCC[C@@H]1CCOC[C@@H]1CCCO1
REMARK SMILES IDX 7 1 6 2 4 3 5 4 3 6 77 7 80 8 78 9 79 10 2 11 1 12 81 15
REMARK SMILES IDX 82 16 83 17 84 18 85 19 86 20 89 21 87 22 88 23 8 24 9 25
REMARK SMILES IDX 10 26 11 27 12 28 13 30 14 31 15 32 76 33 16 34 75 35 17 36
REMARK SMILES IDX 18 37 19 38 69 39 20 40 74 41 68 42 70 43 21 44 73 45 67 46
REMARK SMILES IDX 66 47 22 49 54 50 34 51 53 52 35 53 38 54 52 55 71 56 36 57
REMARK SMILES IDX 37 58 51 60 72 61 39 62 23 63 24 64 32 65 25 66 26 67 30 68
REMARK SMILES IDX 33 69 27 70 28 71 31 72 29 73 55 74 56 75 64 76 57 77 58 78
REMARK SMILES IDX 62 79 65 80 59 81 60 82 63 83 61 84 40 85 41 86 49 87 42 88
REMARK SMILES IDX 43 89 47 90 50 91 44 92 45 93 48 94 46 95
REMARK H PARENT 6 5 2 13 2 14 11 29 70 48 38 59
REMARK Flexibility Score: inf
ROOT
ATOM      1  C   UNL A   1      32.945  29.936  25.901  1.00  0.00     0.116 C 
ENDROOT
BRANCH   1   2
ATOM      2  N   UNL A   1      33.478  29.584  24.597  1.00  0.00    -0.351 N 
ATOM      3  C   UNL A   1      33.425  28.466  23.817  1.00  0.00     0.281 C 
ATOM      4  O   UNL A   1      33.881  28.637  22.681  1.00  0.00    -0.268 OA
ATOM      5  H   UNL A   1      33.994  30.314  24.184  1.00  0.00     0.163 HD
BRANCH   3   6
ATOM      6  C   UNL A   1      32.798  27.107  24.288  1.00  0.00     0.178 C 
ATOM      7  C   UNL A   1      33.321  26.617  25.658  1.00  0.00     0.079 C 
ATOM      8  C   UNL A   1      31.270  27.279  24.556  1.00  0.00     0.063 C 
ATOM      9  C   UNL A   1      32.139  25.919  26.348  1.00  0.00     0.008 C 
ATOM     10  C   UNL A   1      30.944  26.039  25.401  1.00  0.00     0.011 C 
BRANCH   6  11
ATOM     11  N   UNL A   1      32.987  25.946  23.361  1.00  0.00    -0.336 N 
ATOM     12  C   UNL A   1      34.054  25.005  23.645  1.00  0.00     0.331 C 
ATOM     13  H   UNL A   1      32.114  25.421  23.354  1.00  0.00     0.346 HD
ATOM     14  H   UNL A   1      33.259  26.374  22.475  1.00  0.00     0.346 HD
ENDBRANCH   6  11
BRANCH   8  15
ATOM     15  C   UNL A   1      30.399  27.464  23.296  1.00  0.00     0.039 C 
BRANCH  15  16
ATOM     16  C   UNL A   1      30.346  28.884  22.722  1.00  0.00     0.161 C 
BRANCH  16  17
ATOM     17  O   UNL A   1      29.334  29.090  21.749  1.00  0.00    -0.379 OA
BRANCH  17  18
ATOM     18  C   UNL A   1      28.020  29.464  22.147  1.00  0.00     0.192 C 
BRANCH  18  19
ATOM     19  C   UNL A   1      27.760  30.938  22.508  1.00  0.00     0.144 C 
ATOM     20  C   UNL A   1      28.338  31.967  21.553  1.00  0.00     0.037 C 
ATOM     21  O   UNL A   1      28.237  31.259  23.823  1.00  0.00    -0.376 OA
ATOM     22  C   UNL A   1      28.666  33.132  22.446  1.00  0.00     0.031 C 
ATOM     23  C   UNL A   1      29.025  32.452  23.747  1.00  0.00     0.160 C 
ENDBRANCH  18  19
ENDBRANCH  17  18
ENDBRANCH  16  17
ENDBRANCH  15  16
ENDBRANCH   8  15
ENDBRANCH   3   6
ENDBRANCH   1   2
BRANCH   1  24
ATOM     24  C   UNL A   1      31.604  30.659  25.823  1.00  0.00     0.023 C 
BRANCH  24  25
ATOM     25  C   UNL A   1      31.425  31.814  26.810  1.00  0.00     0.023 C 
BRANCH  25  26
ATOM     26  C   UNL A   1      32.684  32.615  27.136  1.00  0.00     0.116 C 
BRANCH  26  27
ATOM     27  N   UNL A   1      32.407  33.983  27.541  1.00  0.00    -0.352 N 
ATOM     28  C   UNL A   1      33.020  34.753  28.505  1.00  0.00     0.251 C 
ATOM     29  H   UNL A   1      31.673  34.425  27.056  1.00  0.00     0.163 HD
ATOM     30  O   UNL A   1      32.574  35.853  28.788  1.00  0.00    -0.269 OA
BRANCH  28  31
ATOM     31  C   UNL A   1      34.200  34.224  29.228  1.00  0.00     0.039 A 
ATOM     32  C   UNL A   1      33.998  33.530  30.423  1.00  0.00     0.014 A 
ATOM     33  C   UNL A   1      35.491  34.391  28.723  1.00  0.00     0.014 A 
ATOM     34  C   UNL A   1      35.083  32.933  31.070  1.00  0.00     0.010 A 
ATOM     35  C   UNL A   1      36.560  33.731  29.325  1.00  0.00     0.010 A 
ATOM     36  C   UNL A   1      36.366  32.991  30.502  1.00  0.00    -0.014 A 
BRANCH  36  37
ATOM     37  C   UNL A   1      37.513  32.275  31.120  1.00  0.00     0.031 A 
ATOM     38  C   UNL A   1      37.998  32.657  32.490  1.00  0.00     0.074 A 
ATOM     39  C   UNL A   1      38.161  31.323  30.418  1.00  0.00     0.049 A 
ATOM     40  N   UNL A   1      39.018  32.192  33.169  1.00  0.00    -0.248 NA
ATOM     41  C   UNL A   1      37.255  33.723  33.181  1.00  0.00     0.031 C 
ATOM     42  C   UNL A   1      37.821  30.897  29.060  1.00  0.00     0.029 A 
ATOM     43  N   UNL A   1      39.246  30.549  30.747  1.00  0.00    -0.354 N 
ATOM     44  C   UNL A   1      39.045  32.914  34.354  1.00  0.00     0.074 A 
ATOM     45  C   UNL A   1      37.976  33.887  34.280  1.00  0.00     0.031 C 
ATOM     46  C   UNL A   1      38.664  29.923  28.681  1.00  0.00     0.029 A 
ATOM     47  C   UNL A   1      39.628  29.684  29.750  1.00  0.00     0.049 A 
ATOM     48  H   UNL A   1      39.708  30.609  31.614  1.00  0.00     0.167 HD
ATOM     49  C   UNL A   1      39.869  32.764  35.418  1.00  0.00     0.037 A 
ATOM     50  C   UNL A   1      40.645  28.803  29.702  1.00  0.00     0.037 A 
ATOM     51  C   UNL A   1      40.919  31.781  35.497  1.00  0.00     0.049 A 
ATOM     52  C   UNL A   1      41.553  28.662  30.894  1.00  0.00     0.074 A 
ATOM     53  C   UNL A   1      41.769  31.511  36.555  1.00  0.00     0.029 A 
ATOM     54  N   UNL A   1      41.265  30.911  34.473  1.00  0.00    -0.354 N 
ATOM     55  N   UNL A   1      41.522  29.299  32.039  1.00  0.00    -0.248 NA
ATOM     56  C   UNL A   1      42.636  27.672  30.788  1.00  0.00     0.031 C 
ATOM     57  C   UNL A   1      42.663  30.513  36.153  1.00  0.00     0.029 A 
ATOM     58  C   UNL A   1      42.333  30.120  34.867  1.00  0.00     0.049 A 
ATOM     59  H   UNL A   1      40.819  30.864  33.597  1.00  0.00     0.167 HD
ATOM     60  C   UNL A   1      42.556  28.768  32.800  1.00  0.00     0.074 A 
ATOM     61  C   UNL A   1      43.186  27.746  31.991  1.00  0.00     0.031 C 
ATOM     62  C   UNL A   1      42.947  29.100  34.055  1.00  0.00     0.037 A 
BRANCH  49  63
ATOM     63  C   UNL A   1      39.668  33.684  36.588  1.00  0.00     0.064 A 
ATOM     64  C   UNL A   1      38.863  33.322  37.680  1.00  0.00     0.173 A 
ATOM     65  C   UNL A   1      40.316  34.928  36.638  1.00  0.00     0.173 A 
ATOM     66  F   UNL A   1      38.213  32.148  37.679  1.00  0.00    -0.203 F 
ATOM     67  C   UNL A   1      38.690  34.182  38.761  1.00  0.00     0.198 A 
ATOM     68  C   UNL A   1      40.167  35.771  37.736  1.00  0.00     0.198 A 
ATOM     69  F   UNL A   1      41.103  35.322  35.625  1.00  0.00    -0.203 F 
ATOM     70  F   UNL A   1      37.874  33.835  39.767  1.00  0.00    -0.200 F 
ATOM     71  C   UNL A   1      39.347  35.403  38.791  1.00  0.00     0.200 A 
ATOM     72  F   UNL A   1      40.816  36.944  37.771  1.00  0.00    -0.200 F 
ATOM     73  F   UNL A   1      39.187  36.225  39.837  1.00  0.00    -0.200 F 
ENDBRANCH  49  63
BRANCH  50  74
ATOM     74  C   UNL A   1      40.847  27.965  28.490  1.00  0.00     0.064 A 
ATOM     75  C   UNL A   1      41.635  28.420  27.422  1.00  0.00     0.173 A 
ATOM     76  C   UNL A   1      40.253  26.700  28.368  1.00  0.00     0.173 A 
ATOM     77  F   UNL A   1      42.206  29.631  27.482  1.00  0.00    -0.203 F 
ATOM     78  C   UNL A   1      41.801  27.653  26.271  1.00  0.00     0.198 A 
ATOM     79  C   UNL A   1      40.446  25.920  27.229  1.00  0.00     0.198 A 
ATOM     80  F   UNL A   1      39.495  26.215  29.362  1.00  0.00    -0.203 F 
ATOM     81  F   UNL A   1      42.517  28.134  25.247  1.00  0.00    -0.200 F 
ATOM     82  C   UNL A   1      41.211  26.402  26.177  1.00  0.00     0.200 A 
ATOM     83  F   UNL A   1      39.887  24.705  27.149  1.00  0.00    -0.200 F 
ATOM     84  F   UNL A   1      41.374  25.662  25.072  1.00  0.00    -0.200 F 
ENDBRANCH  50  74
BRANCH  62  85
ATOM     85  C   UNL A   1      44.086  28.322  34.650  1.00  0.00     0.064 A 
ATOM     86  C   UNL A   1      43.877  27.119  35.339  1.00  0.00     0.173 A 
ATOM     87  C   UNL A   1      45.407  28.769  34.495  1.00  0.00     0.173 A 
ATOM     88  F   UNL A   1      42.632  26.655  35.529  1.00  0.00    -0.203 F 
ATOM     89  C   UNL A   1      44.946  26.406  35.876  1.00  0.00     0.198 A 
ATOM     90  C   UNL A   1      46.476  28.037  35.003  1.00  0.00     0.198 A 
ATOM     91  F   UNL A   1      45.663  29.910  33.838  1.00  0.00    -0.203 F 
ATOM     92  F   UNL A   1      44.720  25.286  36.576  1.00  0.00    -0.200 F 
ATOM     93  C   UNL A   1      46.244  26.862  35.700  1.00  0.00     0.200 A 
ATOM     94  F   UNL A   1      47.731  28.472  34.819  1.00  0.00    -0.200 F 
ATOM     95  F   UNL A   1      47.274  26.171  36.211  1.00  0.00    -0.200 F 
ENDBRANCH  62  85
ENDBRANCH  36  37
ENDBRANCH  28  31
ENDBRANCH  26  27
ENDBRANCH  25  26
ENDBRANCH  24  25
ENDBRANCH   1  24
TORSDOF 17
ENDMDL
MODEL 3
REMARK VINA RESULT:     -11.4      6.358     11.805
REMARK SMILES C[NH2+][C@]1(C(=O)NCCCCNC(=O)c2ccc(-c3c4nc(c(-c5c(F)c(F)c(F)c(F)c5F)c5ccc([nH]5)c(-c5c(F)c(F)c(F)c(F)c5F)c5nc(c(-c6c(F)c(F)c(F)c(F)c6F)c6ccc3[nH]6)C=C5)C=C4)cc2)CCC[C@@H]1CCOC[C@@H]1CCCO1
REMARK SMILES IDX 7 1 6 2 4 3 5 4 3 6 77 7 80 8 78 9 79 10 2 11 1 12 81 15
REMARK SMILES IDX 82 16 83 17 84 18 85 19 86 20 89 21 87 22 88 23 8 24 9 25
REMARK SMILES IDX 10 26 11 27 12 28 13 30 14 31 15 32 76 33 16 34 75 35 17 36
REMARK SMILES IDX 18 37 19 38 69 39 20 40 74 41 68 42 70 43 21 44 73 45 67 46
REMARK SMILES IDX 66 47 22 49 54 50 34 51 53 52 35 53 38 54 52 55 71 56 36 57
REMARK SMILES IDX 37 58 51 60 72 61 39 62 23 63 24 64 32 65 25 66 26 67 30 68
REMARK SMILES IDX 33 69 27 70 28 71 31 72 29 73 55 74 56 75 64 76 57 77 58 78
REMARK SMILES IDX 62 79 65 80 59 81 60 82 63 83 61 84 40 85 41 86 49 87 42 88
REMARK SMILES IDX 43 89 47 90 50 91 44 92 45 93 48 94 46 95
REMARK H PARENT 6 5 2 13 2 14 11 29 70 48 38 59
REMARK Flexibility Score: inf
ROOT
ATOM      1  C   UNL A   1      36.785  22.028  25.379  1.00  0.00     0.116 C 
ENDROOT
BRANCH   1   2
ATOM      2  N   UNL A   1      35.868  22.349  26.458  1.00  0.00    -0.351 N 
ATOM      3  C   UNL A   1      34.585  22.812  26.512  1.00  0.00     0.281 C 
ATOM      4  O   UNL A   1      34.103  22.794  27.650  1.00  0.00    -0.268 OA
ATOM      5  H   UNL A   1      36.258  22.202  27.350  1.00  0.00     0.163 HD
BRANCH   3   6
ATOM      6  C   UNL A   1      33.774  23.270  25.250  1.00  0.00     0.178 C 
ATOM      7  C   UNL A   1      34.494  24.340  24.396  1.00  0.00     0.079 C 
ATOM      8  C   UNL A   1      33.621  22.087  24.244  1.00  0.00     0.063 C 
ATOM      9  C   UNL A   1      34.121  24.050  22.935  1.00  0.00     0.008 C 
ATOM     10  C   UNL A   1      33.227  22.808  22.947  1.00  0.00     0.011 C 
BRANCH   6  11
ATOM     11  N   UNL A   1      32.414  23.838  25.520  1.00  0.00    -0.336 N 
ATOM     12  C   UNL A   1      32.321  25.212  25.977  1.00  0.00     0.331 C 
ATOM     13  H   UNL A   1      31.882  23.771  24.653  1.00  0.00     0.346 HD
ATOM     14  H   UNL A   1      32.064  23.288  26.304  1.00  0.00     0.346 HD
ENDBRANCH   6  11
BRANCH   8  15
ATOM     15  C   UNL A   1      32.661  20.965  24.689  1.00  0.00     0.039 C 
BRANCH  15  16
ATOM     16  C   UNL A   1      33.259  19.903  25.619  1.00  0.00     0.161 C 
BRANCH  16  17
ATOM     17  O   UNL A   1      32.335  18.925  26.068  1.00  0.00    -0.379 OA
BRANCH  17  18
ATOM     18  C   UNL A   1      32.692  17.547  26.075  1.00  0.00     0.192 C 
BRANCH  18  19
ATOM     19  C   UNL A   1      32.911  16.844  24.723  1.00  0.00     0.144 C 
ATOM     20  C   UNL A   1      34.350  16.752  24.249  1.00  0.00     0.037 C 
ATOM     21  O   UNL A   1      32.153  17.459  23.671  1.00  0.00    -0.376 OA
ATOM     22  C   UNL A   1      34.234  16.816  22.751  1.00  0.00     0.031 C 
ATOM     23  C   UNL A   1      33.022  17.699  22.558  1.00  0.00     0.160 C 
ENDBRANCH  18  19
ENDBRANCH  17  18
ENDBRANCH  16  17
ENDBRANCH  15  16
ENDBRANCH   8  15
ENDBRANCH   3   6
ENDBRANCH   1   2
BRANCH   1  24
ATOM     24  C   UNL A   1      36.788  20.546  25.019  1.00  0.00     0.023 C 
BRANCH  24  25
ATOM     25  C   UNL A   1      38.165  19.949  24.719  1.00  0.00     0.023 C 
BRANCH  25  26
ATOM     26  C   UNL A   1      39.254  20.228  25.752  1.00  0.00     0.116 C 
BRANCH  26  27
ATOM     27  N   UNL A   1      40.226  19.153  25.868  1.00  0.00    -0.352 N 
ATOM     28  C   UNL A   1      41.578  19.219  26.123  1.00  0.00     0.251 C 
ATOM     29  H   UNL A   1      39.865  18.246  25.747  1.00  0.00     0.163 HD
ATOM     30  O   UNL A   1      42.262  18.209  26.071  1.00  0.00    -0.269 OA
BRANCH  28  31
ATOM     31  C   UNL A   1      42.208  20.526  26.419  1.00  0.00     0.039 A 
ATOM     32  C   UNL A   1      42.731  21.274  25.361  1.00  0.00     0.014 A 
ATOM     33  C   UNL A   1      42.266  21.021  27.723  1.00  0.00     0.014 A 
ATOM     34  C   UNL A   1      43.237  22.554  25.600  1.00  0.00     0.010 A 
ATOM     35  C   UNL A   1      42.699  22.326  27.949  1.00  0.00     0.010 A 
ATOM     36  C   UNL A   1      43.184  23.107  26.889  1.00  0.00    -0.014 A 
BRANCH  36  37
ATOM     37  C   UNL A   1      43.621  24.505  27.144  1.00  0.00     0.031 A 
ATOM     38  C   UNL A   1      42.639  25.529  27.643  1.00  0.00     0.074 A 
ATOM     39  C   UNL A   1      44.888  24.870  26.862  1.00  0.00     0.049 A 
ATOM     40  N   UNL A   1      42.815  26.808  27.865  1.00  0.00    -0.248 NA
ATOM     41  C   UNL A   1      41.269  25.059  27.902  1.00  0.00     0.031 C 
ATOM     42  C   UNL A   1      45.922  23.984  26.324  1.00  0.00     0.029 A 
ATOM     43  N   UNL A   1      45.519  26.084  26.979  1.00  0.00    -0.354 N 
ATOM     44  C   UNL A   1      41.581  27.294  28.276  1.00  0.00     0.074 A 
ATOM     45  C   UNL A   1      40.651  26.187  28.218  1.00  0.00     0.031 C 
ATOM     46  C   UNL A   1      47.063  24.678  26.181  1.00  0.00     0.029 A 
ATOM     47  C   UNL A   1      46.832  26.063  26.577  1.00  0.00     0.049 A 
ATOM     48  H   UNL A   1      45.072  26.893  27.318  1.00  0.00     0.167 HD
ATOM     49  C   UNL A   1      41.259  28.543  28.688  1.00  0.00     0.037 A 
ATOM     50  C   UNL A   1      47.745  27.052  26.526  1.00  0.00     0.037 A 
ATOM     51  C   UNL A   1      42.191  29.638  28.764  1.00  0.00     0.049 A 
ATOM     52  C   UNL A   1      47.358  28.434  26.980  1.00  0.00     0.074 A 
ATOM     53  C   UNL A   1      41.975  30.925  29.224  1.00  0.00     0.029 A 
ATOM     54  N   UNL A   1      43.518  29.573  28.363  1.00  0.00    -0.354 N 
ATOM     55  N   UNL A   1      46.207  28.863  27.438  1.00  0.00    -0.248 NA
ATOM     56  C   UNL A   1      48.402  29.468  26.917  1.00  0.00     0.031 C 
ATOM     57  C   UNL A   1      43.156  31.654  29.053  1.00  0.00     0.029 A 
ATOM     58  C   UNL A   1      44.126  30.806  28.542  1.00  0.00     0.049 A 
ATOM     59  H   UNL A   1      43.962  28.772  28.003  1.00  0.00     0.167 HD
ATOM     60  C   UNL A   1      46.395  30.205  27.745  1.00  0.00     0.074 A 
ATOM     61  C   UNL A   1      47.776  30.514  27.437  1.00  0.00     0.031 C 
ATOM     62  C   UNL A   1      45.503  31.099  28.238  1.00  0.00     0.037 A 
BRANCH  49  63
ATOM     63  C   UNL A   1      39.834  28.795  29.092  1.00  0.00     0.064 A 
ATOM     64  C   UNL A   1      39.403  28.622  30.417  1.00  0.00     0.173 A 
ATOM     65  C   UNL A   1      38.895  29.250  28.153  1.00  0.00     0.173 A 
ATOM     66  F   UNL A   1      40.257  28.181  31.353  1.00  0.00    -0.203 F 
ATOM     67  C   UNL A   1      38.081  28.865  30.779  1.00  0.00     0.198 A 
ATOM     68  C   UNL A   1      37.582  29.523  28.526  1.00  0.00     0.198 A 
ATOM     69  F   UNL A   1      39.254  29.438  26.874  1.00  0.00    -0.203 F 
ATOM     70  F   UNL A   1      37.681  28.643  32.039  1.00  0.00    -0.200 F 
ATOM     71  C   UNL A   1      37.173  29.321  29.835  1.00  0.00     0.200 A 
ATOM     72  F   UNL A   1      36.710  29.979  27.615  1.00  0.00    -0.200 F 
ATOM     73  F   UNL A   1      35.903  29.563  30.187  1.00  0.00    -0.200 F 
ENDBRANCH  49  63
BRANCH  50  74
ATOM     74  C   UNL A   1      49.125  26.768  26.049  1.00  0.00     0.064 A 
ATOM     75  C   UNL A   1      49.486  26.998  24.713  1.00  0.00     0.173 A 
ATOM     76  C   UNL A   1      50.105  26.255  26.910  1.00  0.00     0.173 A 
ATOM     77  F   UNL A   1      48.578  27.468  23.846  1.00  0.00    -0.203 F 
ATOM     78  C   UNL A   1      50.768  26.703  24.253  1.00  0.00     0.198 A 
ATOM     79  C   UNL A   1      51.396  25.990  26.455  1.00  0.00     0.198 A 
ATOM     80  F   UNL A   1      49.814  26.022  28.198  1.00  0.00    -0.203 F 
ATOM     81  F   UNL A   1      51.071  26.885  22.961  1.00  0.00    -0.200 F 
ATOM     82  C   UNL A   1      51.723  26.204  25.125  1.00  0.00     0.200 A 
ATOM     83  F   UNL A   1      52.320  25.523  27.305  1.00  0.00    -0.200 F 
ATOM     84  F   UNL A   1      52.957  25.925  24.683  1.00  0.00    -0.200 F 
ENDBRANCH  50  74
BRANCH  62  85
ATOM     85  C   UNL A   1      46.002  32.489  28.515  1.00  0.00     0.064 A 
ATOM     86  C   UNL A   1      45.883  33.517  27.569  1.00  0.00     0.173 A 
ATOM     87  C   UNL A   1      46.571  32.804  29.758  1.00  0.00     0.173 A 
ATOM     88  F   UNL A   1      45.360  33.267  26.359  1.00  0.00    -0.203 F 
ATOM     89  C   UNL A   1      46.342  34.802  27.848  1.00  0.00     0.198 A 
ATOM     90  C   UNL A   1      46.999  34.096  30.046  1.00  0.00     0.198 A 
ATOM     91  F   UNL A   1      46.702  31.858  30.702  1.00  0.00    -0.203 F 
ATOM     92  F   UNL A   1      46.267  35.758  26.910  1.00  0.00    -0.200 F 
ATOM     93  C   UNL A   1      46.892  35.092  29.087  1.00  0.00     0.200 A 
ATOM     94  F   UNL A   1      47.515  34.377  31.250  1.00  0.00    -0.200 F 
ATOM     95  F   UNL A   1      47.326  36.332  29.357  1.00  0.00    -0.200 F 
ENDBRANCH  62  85
ENDBRANCH  36  37
ENDBRANCH  28  31
ENDBRANCH  26  27
ENDBRANCH  25  26
ENDBRANCH  24  25
ENDBRANCH   1  24
TORSDOF 17
ENDMDL
