MODEL 1
REMARK VINA RESULT:     -12.8      0.000      0.000
REMARK SMILES CC[C@@H](C(=O)NCCCCNC(=O)c1ccc(-c2c3nc(c(-c4c(F)c(F)c(F)c(F)c4F)c4ccc([nH]4)c(-c4c(F)c(F)c(F)c(F)c4F)c4nc(c(-c5c(F)c(F)c(F)c(F)c5F)c5ccc2[nH]5)C=C4)C=C3)cc1)N1CCN(Cc2cccc(C)c2)C(=O)C1=O
REMARK SMILES IDX 8 1 7 2 6 3 4 4 5 5 3 7 2 8 1 9 77 10 78 11 91 12 79 13
REMARK SMILES IDX 89 14 92 15 80 16 90 17 81 18 82 19 83 20 88 21 84 22 86 23
REMARK SMILES IDX 85 24 87 25 9 26 10 27 11 28 12 29 13 31 14 32 15 33 76 34
REMARK SMILES IDX 16 35 75 36 17 37 18 38 19 39 69 40 20 41 74 42 68 43 70 44
REMARK SMILES IDX 21 45 73 46 67 47 66 48 22 50 54 51 34 52 53 53 35 54 38 55
REMARK SMILES IDX 52 56 71 57 36 58 37 59 51 61 72 62 39 63 23 64 24 65 32 66
REMARK SMILES IDX 25 67 26 68 30 69 33 70 27 71 28 72 31 73 29 74 55 75 56 76
REMARK SMILES IDX 64 77 57 78 58 79 62 80 65 81 59 82 60 83 63 84 61 85 40 86
REMARK SMILES IDX 41 87 49 88 42 89 43 90 47 91 50 92 44 93 45 94 48 95 46 96
REMARK H PARENT 6 6 11 30 70 49 38 60
REMARK Flexibility Score: inf
ROOT
ATOM      1  C   UNL A   1      37.400  21.210  24.734  1.00  0.00     0.023 C 
ENDROOT
BRANCH   1   2
ATOM      2  C   UNL A   1      36.316  21.588  25.741  1.00  0.00     0.116 C 
BRANCH   2   3
ATOM      3  N   UNL A   1      36.030  23.002  25.676  1.00  0.00    -0.354 N 
ATOM      4  C   UNL A   1      34.857  23.665  25.476  1.00  0.00     0.242 C 
ATOM      5  O   UNL A   1      34.932  24.899  25.510  1.00  0.00    -0.273 OA
ATOM      6  H   UNL A   1      36.815  23.585  25.798  1.00  0.00     0.163 HD
BRANCH   4   7
ATOM      7  C   UNL A   1      33.499  22.913  25.329  1.00  0.00     0.174 C 
BRANCH   7   8
ATOM      8  C   UNL A   1      33.416  21.813  24.250  1.00  0.00     0.032 C 
ATOM      9  C   UNL A   1      32.558  20.597  24.558  1.00  0.00     0.006 C 
ENDBRANCH   7   8
BRANCH   7  10
ATOM     10  N   UNL A   1      32.467  23.960  25.098  1.00  0.00    -0.321 N 
ATOM     11  C   UNL A   1      32.181  24.376  23.733  1.00  0.00     0.142 C 
ATOM     12  C   UNL A   1      31.586  24.356  26.120  1.00  0.00     0.312 C 
ATOM     13  C   UNL A   1      30.673  24.459  23.501  1.00  0.00     0.142 C 
ATOM     14  C   UNL A   1      30.507  25.417  25.748  1.00  0.00     0.312 C 
ATOM     15  O   UNL A   1      31.612  23.917  27.265  1.00  0.00    -0.263 OA
ATOM     16  N   UNL A   1      30.078  25.417  24.421  1.00  0.00    -0.328 N 
ATOM     17  O   UNL A   1      30.083  26.183  26.607  1.00  0.00    -0.263 OA
BRANCH  16  18
ATOM     18  C   UNL A   1      28.933  26.226  24.020  1.00  0.00     0.155 C 
BRANCH  18  19
ATOM     19  C   UNL A   1      29.321  27.534  23.369  1.00  0.00    -0.028 A 
ATOM     20  C   UNL A   1      30.634  27.757  22.933  1.00  0.00     0.005 A 
ATOM     21  C   UNL A   1      28.372  28.550  23.180  1.00  0.00     0.009 A 
ATOM     22  C   UNL A   1      30.981  28.965  22.321  1.00  0.00     0.001 A 
ATOM     23  C   UNL A   1      28.692  29.731  22.501  1.00  0.00    -0.051 A 
ATOM     24  C   UNL A   1      30.012  29.942  22.095  1.00  0.00     0.003 A 
ATOM     25  C   UNL A   1      27.632  30.754  22.220  1.00  0.00     0.044 C 
ENDBRANCH  18  19
ENDBRANCH  16  18
ENDBRANCH   7  10
ENDBRANCH   4   7
ENDBRANCH   2   3
ENDBRANCH   1   2
BRANCH   1  26
ATOM     26  C   UNL A   1      38.212  19.972  25.097  1.00  0.00     0.023 C 
BRANCH  26  27
ATOM     27  C   UNL A   1      39.462  20.243  25.918  1.00  0.00     0.116 C 
BRANCH  27  28
ATOM     28  N   UNL A   1      40.397  19.127  25.934  1.00  0.00    -0.352 N 
ATOM     29  C   UNL A   1      41.763  19.148  26.094  1.00  0.00     0.251 C 
ATOM     30  H   UNL A   1      39.997  18.236  25.816  1.00  0.00     0.163 HD
ATOM     31  O   UNL A   1      42.424  18.124  25.964  1.00  0.00    -0.269 OA
BRANCH  29  32
ATOM     32  C   UNL A   1      42.430  20.433  26.385  1.00  0.00     0.039 A 
ATOM     33  C   UNL A   1      42.932  21.194  25.329  1.00  0.00     0.014 A 
ATOM     34  C   UNL A   1      42.493  20.912  27.696  1.00  0.00     0.014 A 
ATOM     35  C   UNL A   1      43.425  22.475  25.580  1.00  0.00     0.010 A 
ATOM     36  C   UNL A   1      42.886  22.223  27.928  1.00  0.00     0.010 A 
ATOM     37  C   UNL A   1      43.362  23.017  26.874  1.00  0.00    -0.014 A 
BRANCH  37  38
ATOM     38  C   UNL A   1      43.801  24.407  27.156  1.00  0.00     0.031 A 
ATOM     39  C   UNL A   1      42.804  25.418  27.650  1.00  0.00     0.074 A 
ATOM     40  C   UNL A   1      45.071  24.775  26.899  1.00  0.00     0.049 A 
ATOM     41  N   UNL A   1      42.963  26.698  27.877  1.00  0.00    -0.248 NA
ATOM     42  C   UNL A   1      41.432  24.936  27.885  1.00  0.00     0.031 C 
ATOM     43  C   UNL A   1      46.115  23.900  26.361  1.00  0.00     0.029 A 
ATOM     44  N   UNL A   1      45.699  25.987  27.044  1.00  0.00    -0.354 N 
ATOM     45  C   UNL A   1      41.716  27.170  28.262  1.00  0.00     0.074 A 
ATOM     46  C   UNL A   1      40.794  26.060  28.174  1.00  0.00     0.031 C 
ATOM     47  C   UNL A   1      47.258  24.595  26.249  1.00  0.00     0.029 A 
ATOM     48  C   UNL A   1      47.020  25.974  26.666  1.00  0.00     0.049 A 
ATOM     49  H   UNL A   1      45.245  26.791  27.386  1.00  0.00     0.167 HD
ATOM     50  C   UNL A   1      41.375  28.411  28.682  1.00  0.00     0.037 A 
ATOM     51  C   UNL A   1      47.932  26.965  26.652  1.00  0.00     0.037 A 
ATOM     52  C   UNL A   1      42.304  29.504  28.799  1.00  0.00     0.049 A 
ATOM     53  C   UNL A   1      47.527  28.336  27.125  1.00  0.00     0.074 A 
ATOM     54  C   UNL A   1      42.076  30.782  29.277  1.00  0.00     0.029 A 
ATOM     55  N   UNL A   1      43.641  29.445  28.431  1.00  0.00    -0.354 N 
ATOM     56  N   UNL A   1      46.363  28.752  27.561  1.00  0.00    -0.248 NA
ATOM     57  C   UNL A   1      48.567  29.374  27.109  1.00  0.00     0.031 C 
ATOM     58  C   UNL A   1      43.262  31.513  29.149  1.00  0.00     0.029 A 
ATOM     59  C   UNL A   1      44.245  30.673  28.648  1.00  0.00     0.049 A 
ATOM     60  H   UNL A   1      44.093  28.649  28.070  1.00  0.00     0.167 HD
ATOM     61  C   UNL A   1      46.537  30.087  27.901  1.00  0.00     0.074 A 
ATOM     62  C   UNL A   1      47.923  30.407  27.635  1.00  0.00     0.031 C 
ATOM     63  C   UNL A   1      45.630  30.970  28.388  1.00  0.00     0.037 A 
BRANCH  50  64
ATOM     64  C   UNL A   1      39.939  28.651  29.052  1.00  0.00     0.064 A 
ATOM     65  C   UNL A   1      39.464  28.421  30.352  1.00  0.00     0.173 A 
ATOM     66  C   UNL A   1      39.033  29.147  28.102  1.00  0.00     0.173 A 
ATOM     67  F   UNL A   1      40.285  27.935  31.295  1.00  0.00    -0.203 F 
ATOM     68  C   UNL A   1      38.130  28.648  30.679  1.00  0.00     0.198 A 
ATOM     69  C   UNL A   1      37.708  29.406  28.442  1.00  0.00     0.198 A 
ATOM     70  F   UNL A   1      39.434  29.387  26.845  1.00  0.00    -0.203 F 
ATOM     71  F   UNL A   1      37.687  28.368  31.913  1.00  0.00    -0.200 F 
ATOM     72  C   UNL A   1      37.255  29.148  29.727  1.00  0.00     0.200 A 
ATOM     73  F   UNL A   1      36.867  29.901  27.524  1.00  0.00    -0.200 F 
ATOM     74  F   UNL A   1      35.974  29.373  30.046  1.00  0.00    -0.200 F 
ENDBRANCH  50  64
BRANCH  51  75
ATOM     75  C   UNL A   1      49.322  26.693  26.199  1.00  0.00     0.064 A 
ATOM     76  C   UNL A   1      50.297  26.237  27.098  1.00  0.00     0.173 A 
ATOM     77  C   UNL A   1      49.711  26.897  24.867  1.00  0.00     0.173 A 
ATOM     78  F   UNL A   1      49.980  26.045  28.387  1.00  0.00    -0.203 F 
ATOM     79  C   UNL A   1      51.611  26.018  26.688  1.00  0.00     0.198 A 
ATOM     80  C   UNL A   1      51.017  26.648  24.450  1.00  0.00     0.198 A 
ATOM     81  F   UNL A   1      48.816  27.328  23.964  1.00  0.00    -0.203 F 
ATOM     82  F   UNL A   1      52.533  25.632  27.580  1.00  0.00    -0.200 F 
ATOM     83  C   UNL A   1      51.968  26.219  25.363  1.00  0.00     0.200 A 
ATOM     84  F   UNL A   1      51.355  26.829  23.166  1.00  0.00    -0.200 F 
ATOM     85  F   UNL A   1      53.231  26.008  24.969  1.00  0.00    -0.200 F 
ENDBRANCH  51  75
BRANCH  63  86
ATOM     86  C   UNL A   1      46.117  32.355  28.705  1.00  0.00     0.064 A 
ATOM     87  C   UNL A   1      46.631  32.687  29.966  1.00  0.00     0.173 A 
ATOM     88  C   UNL A   1      46.109  33.350  27.715  1.00  0.00     0.173 A 
ATOM     89  F   UNL A   1      46.647  31.774  30.950  1.00  0.00    -0.203 F 
ATOM     90  C   UNL A   1      47.093  33.972  30.234  1.00  0.00     0.198 A 
ATOM     91  C   UNL A   1      46.604  34.624  27.976  1.00  0.00     0.198 A 
ATOM     92  F   UNL A   1      45.636  33.081  26.488  1.00  0.00    -0.203 F 
ATOM     93  F   UNL A   1      47.533  34.281  31.461  1.00  0.00    -0.200 F 
ATOM     94  C   UNL A   1      47.088  34.936  29.237  1.00  0.00     0.200 A 
ATOM     95  F   UNL A   1      46.615  35.548  27.006  1.00  0.00    -0.200 F 
ATOM     96  F   UNL A   1      47.544  36.170  29.494  1.00  0.00    -0.200 F 
ENDBRANCH  63  86
ENDBRANCH  37  38
ENDBRANCH  29  32
ENDBRANCH  27  28
ENDBRANCH  26  27
ENDBRANCH   1  26
TORSDOF 15
ENDMDL
MODEL 2
REMARK VINA RESULT:     -12.7      0.833      7.386
REMARK SMILES CC[C@@H](C(=O)NCCCCNC(=O)c1ccc(-c2c3nc(c(-c4c(F)c(F)c(F)c(F)c4F)c4ccc([nH]4)c(-c4c(F)c(F)c(F)c(F)c4F)c4nc(c(-c5c(F)c(F)c(F)c(F)c5F)c5ccc2[nH]5)C=C4)C=C3)cc1)N1CCN(Cc2cccc(C)c2)C(=O)C1=O
REMARK SMILES IDX 8 1 7 2 6 3 4 4 5 5 3 7 2 8 1 9 77 10 78 11 91 12 79 13
REMARK SMILES IDX 89 14 92 15 80 16 90 17 81 18 82 19 83 20 88 21 84 22 86 23
REMARK SMILES IDX 85 24 87 25 9 26 10 27 11 28 12 29 13 31 14 32 15 33 76 34
REMARK SMILES IDX 16 35 75 36 17 37 18 38 19 39 69 40 20 41 74 42 68 43 70 44
REMARK SMILES IDX 21 45 73 46 67 47 66 48 22 50 54 51 34 52 53 53 35 54 38 55
REMARK SMILES IDX 52 56 71 57 36 58 37 59 51 61 72 62 39 63 23 64 24 65 32 66
REMARK SMILES IDX 25 67 26 68 30 69 33 70 27 71 28 72 31 73 29 74 55 75 56 76
REMARK SMILES IDX 64 77 57 78 58 79 62 80 65 81 59 82 60 83 63 84 61 85 40 86
REMARK SMILES IDX 41 87 49 88 42 89 43 90 47 91 50 92 44 93 45 94 48 95 46 96
REMARK H PARENT 6 6 11 30 70 49 38 60
REMARK Flexibility Score: inf
ROOT
ATOM      1  C   UNL A   1      37.203  21.031  24.681  1.00  0.00     0.023 C 
ENDROOT
BRANCH   1   2
ATOM      2  C   UNL A   1      36.270  21.480  25.804  1.00  0.00     0.116 C 
BRANCH   2   3
ATOM      3  N   UNL A   1      36.008  22.898  25.713  1.00  0.00    -0.354 N 
ATOM      4  C   UNL A   1      34.857  23.576  25.451  1.00  0.00     0.242 C 
ATOM      5  O   UNL A   1      34.948  24.809  25.477  1.00  0.00    -0.273 OA
ATOM      6  H   UNL A   1      36.795  23.470  25.867  1.00  0.00     0.163 HD
BRANCH   4   7
ATOM      7  C   UNL A   1      33.496  22.843  25.245  1.00  0.00     0.174 C 
BRANCH   7   8
ATOM      8  C   UNL A   1      33.428  21.785  24.124  1.00  0.00     0.032 C 
ATOM      9  C   UNL A   1      33.010  20.377  24.516  1.00  0.00     0.006 C 
ENDBRANCH   7   8
BRANCH   7  10
ATOM     10  N   UNL A   1      32.478  23.907  25.032  1.00  0.00    -0.321 N 
ATOM     11  C   UNL A   1      32.145  24.298  23.670  1.00  0.00     0.142 C 
ATOM     12  C   UNL A   1      31.648  24.346  26.080  1.00  0.00     0.312 C 
ATOM     13  C   UNL A   1      30.631  24.409  23.498  1.00  0.00     0.142 C 
ATOM     14  C   UNL A   1      30.577  25.422  25.727  1.00  0.00     0.312 C 
ATOM     15  O   UNL A   1      31.712  23.932  27.232  1.00  0.00    -0.263 OA
ATOM     16  N   UNL A   1      30.095  25.401  24.418  1.00  0.00    -0.328 N 
ATOM     17  O   UNL A   1      30.206  26.216  26.583  1.00  0.00    -0.263 OA
BRANCH  16  18
ATOM     18  C   UNL A   1      28.952  26.227  24.045  1.00  0.00     0.155 C 
BRANCH  18  19
ATOM     19  C   UNL A   1      29.342  27.521  23.369  1.00  0.00    -0.028 A 
ATOM     20  C   UNL A   1      30.661  27.743  22.949  1.00  0.00     0.005 A 
ATOM     21  C   UNL A   1      28.389  28.525  23.139  1.00  0.00     0.009 A 
ATOM     22  C   UNL A   1      31.010  28.938  22.314  1.00  0.00     0.001 A 
ATOM     23  C   UNL A   1      28.713  29.691  22.436  1.00  0.00    -0.051 A 
ATOM     24  C   UNL A   1      30.038  29.902  22.048  1.00  0.00     0.003 A 
ATOM     25  C   UNL A   1      27.651  30.699  22.113  1.00  0.00     0.044 C 
ENDBRANCH  18  19
ENDBRANCH  16  18
ENDBRANCH   7  10
ENDBRANCH   4   7
ENDBRANCH   2   3
ENDBRANCH   1   2
BRANCH   1  26
ATOM     26  C   UNL A   1      38.107  19.855  25.029  1.00  0.00     0.023 C 
BRANCH  26  27
ATOM     27  C   UNL A   1      39.335  20.212  25.850  1.00  0.00     0.116 C 
BRANCH  27  28
ATOM     28  N   UNL A   1      40.332  19.150  25.893  1.00  0.00    -0.352 N 
ATOM     29  C   UNL A   1      41.685  19.247  26.120  1.00  0.00     0.251 C 
ATOM     30  H   UNL A   1      39.990  18.240  25.740  1.00  0.00     0.163 HD
ATOM     31  O   UNL A   1      42.409  18.265  26.004  1.00  0.00    -0.269 OA
BRANCH  29  32
ATOM     32  C   UNL A   1      42.262  20.561  26.466  1.00  0.00     0.039 A 
ATOM     33  C   UNL A   1      42.677  21.413  25.442  1.00  0.00     0.014 A 
ATOM     34  C   UNL A   1      42.324  20.973  27.800  1.00  0.00     0.014 A 
ATOM     35  C   UNL A   1      43.079  22.713  25.753  1.00  0.00     0.010 A 
ATOM     36  C   UNL A   1      42.624  22.296  28.095  1.00  0.00     0.010 A 
ATOM     37  C   UNL A   1      43.011  23.179  27.076  1.00  0.00    -0.014 A 
BRANCH  37  38
ATOM     38  C   UNL A   1      43.351  24.582  27.424  1.00  0.00     0.031 A 
ATOM     39  C   UNL A   1      44.790  25.017  27.442  1.00  0.00     0.074 A 
ATOM     40  C   UNL A   1      42.378  25.437  27.791  1.00  0.00     0.049 A 
ATOM     41  N   UNL A   1      45.304  26.168  27.797  1.00  0.00    -0.248 NA
ATOM     42  C   UNL A   1      45.792  24.012  27.046  1.00  0.00     0.031 C 
ATOM     43  C   UNL A   1      40.951  25.115  27.870  1.00  0.00     0.029 A 
ATOM     44  N   UNL A   1      42.441  26.752  28.181  1.00  0.00    -0.354 N 
ATOM     45  C   UNL A   1      46.679  26.017  27.683  1.00  0.00     0.074 A 
ATOM     46  C   UNL A   1      46.927  24.647  27.293  1.00  0.00     0.031 C 
ATOM     47  C   UNL A   1      40.274  26.209  28.254  1.00  0.00     0.029 A 
ATOM     48  C   UNL A   1      41.218  27.296  28.489  1.00  0.00     0.049 A 
ATOM     49  H   UNL A   1      43.285  27.257  28.235  1.00  0.00     0.167 HD
ATOM     50  C   UNL A   1      47.648  26.947  27.856  1.00  0.00     0.037 A 
ATOM     51  C   UNL A   1      40.898  28.532  28.918  1.00  0.00     0.037 A 
ATOM     52  C   UNL A   1      47.393  28.318  28.213  1.00  0.00     0.049 A 
ATOM     53  C   UNL A   1      41.995  29.548  29.103  1.00  0.00     0.074 A 
ATOM     54  C   UNL A   1      48.297  29.356  28.347  1.00  0.00     0.029 A 
ATOM     55  N   UNL A   1      46.138  28.839  28.491  1.00  0.00    -0.354 N 
ATOM     56  N   UNL A   1      43.286  29.416  28.916  1.00  0.00    -0.248 NA
ATOM     57  C   UNL A   1      41.588  30.887  29.552  1.00  0.00     0.031 C 
ATOM     58  C   UNL A   1      47.596  30.493  28.760  1.00  0.00     0.029 A 
ATOM     59  C   UNL A   1      46.247  30.179  28.823  1.00  0.00     0.049 A 
ATOM     60  H   UNL A   1      45.295  28.332  28.458  1.00  0.00     0.167 HD
ATOM     61  C   UNL A   1      43.840  30.659  29.193  1.00  0.00     0.074 A 
ATOM     62  C   UNL A   1      42.744  31.535  29.545  1.00  0.00     0.031 C 
ATOM     63  C   UNL A   1      45.142  31.039  29.160  1.00  0.00     0.037 A 
BRANCH  50  64
ATOM     64  C   UNL A   1      49.072  26.513  27.657  1.00  0.00     0.064 A 
ATOM     65  C   UNL A   1      49.623  26.355  26.376  1.00  0.00     0.173 A 
ATOM     66  C   UNL A   1      49.907  26.283  28.761  1.00  0.00     0.173 A 
ATOM     67  F   UNL A   1      48.865  26.550  25.286  1.00  0.00    -0.203 F 
ATOM     68  C   UNL A   1      50.945  25.952  26.208  1.00  0.00     0.198 A 
ATOM     69  C   UNL A   1      51.238  25.913  28.589  1.00  0.00     0.198 A 
ATOM     70  F   UNL A   1      49.434  26.422  30.008  1.00  0.00    -0.203 F 
ATOM     71  F   UNL A   1      51.432  25.753  24.974  1.00  0.00    -0.200 F 
ATOM     72  C   UNL A   1      51.754  25.740  27.313  1.00  0.00     0.200 A 
ATOM     73  F   UNL A   1      52.022  25.721  29.658  1.00  0.00    -0.200 F 
ATOM     74  F   UNL A   1      53.028  25.360  27.149  1.00  0.00    -0.200 F 
ENDBRANCH  50  64
BRANCH  51  75
ATOM     75  C   UNL A   1      39.478  28.888  29.179  1.00  0.00     0.064 A 
ATOM     76  C   UNL A   1      38.660  29.388  28.156  1.00  0.00     0.173 A 
ATOM     77  C   UNL A   1      38.911  28.750  30.455  1.00  0.00     0.173 A 
ATOM     78  F   UNL A   1      39.160  29.557  26.922  1.00  0.00    -0.203 F 
ATOM     79  C   UNL A   1      37.340  29.759  28.403  1.00  0.00     0.198 A 
ATOM     80  C   UNL A   1      37.582  29.092  30.695  1.00  0.00     0.198 A 
ATOM     81  F   UNL A   1      39.648  28.270  31.469  1.00  0.00    -0.203 F 
ATOM     82  F   UNL A   1      36.598  30.284  27.417  1.00  0.00    -0.200 F 
ATOM     83  C   UNL A   1      36.800  29.606  29.671  1.00  0.00     0.200 A 
ATOM     84  F   UNL A   1      37.060  28.927  31.917  1.00  0.00    -0.200 F 
ATOM     85  F   UNL A   1      35.531  29.962  29.909  1.00  0.00    -0.200 F 
ENDBRANCH  51  75
BRANCH  63  86
ATOM     86  C   UNL A   1      45.448  32.476  29.473  1.00  0.00     0.064 A 
ATOM     87  C   UNL A   1      45.416  33.471  28.485  1.00  0.00     0.173 A 
ATOM     88  C   UNL A   1      45.732  32.867  30.791  1.00  0.00     0.173 A 
ATOM     89  F   UNL A   1      45.164  33.146  27.208  1.00  0.00    -0.203 F 
ATOM     90  C   UNL A   1      45.687  34.800  28.801  1.00  0.00     0.198 A 
ATOM     91  C   UNL A   1      45.966  34.201  31.108  1.00  0.00     0.198 A 
ATOM     92  F   UNL A   1      45.764  31.956  31.776  1.00  0.00    -0.203 F 
ATOM     93  F   UNL A   1      45.701  35.725  27.831  1.00  0.00    -0.200 F 
ATOM     94  C   UNL A   1      45.952  35.165  30.111  1.00  0.00     0.200 A 
ATOM     95  F   UNL A   1      46.205  34.554  32.379  1.00  0.00    -0.200 F 
ATOM     96  F   UNL A   1      46.200  36.446  30.414  1.00  0.00    -0.200 F 
ENDBRANCH  63  86
ENDBRANCH  37  38
ENDBRANCH  29  32
ENDBRANCH  27  28
ENDBRANCH  26  27
ENDBRANCH   1  26
TORSDOF 15
ENDMDL
MODEL 3
REMARK VINA RESULT:     -12.4      1.269      7.385
REMARK SMILES CC[C@@H](C(=O)NCCCCNC(=O)c1ccc(-c2c3nc(c(-c4c(F)c(F)c(F)c(F)c4F)c4ccc([nH]4)c(-c4c(F)c(F)c(F)c(F)c4F)c4nc(c(-c5c(F)c(F)c(F)c(F)c5F)c5ccc2[nH]5)C=C4)C=C3)cc1)N1CCN(Cc2cccc(C)c2)C(=O)C1=O
REMARK SMILES IDX 8 1 7 2 6 3 4 4 5 5 3 7 2 8 1 9 77 10 78 11 91 12 79 13
REMARK SMILES IDX 89 14 92 15 80 16 90 17 81 18 82 19 83 20 88 21 84 22 86 23
REMARK SMILES IDX 85 24 87 25 9 26 10 27 11 28 12 29 13 31 14 32 15 33 76 34
REMARK SMILES IDX 16 35 75 36 17 37 18 38 19 39 69 40 20 41 74 42 68 43 70 44
REMARK SMILES IDX 21 45 73 46 67 47 66 48 22 50 54 51 34 52 53 53 35 54 38 55
REMARK SMILES IDX 52 56 71 57 36 58 37 59 51 61 72 62 39 63 23 64 24 65 32 66
REMARK SMILES IDX 25 67 26 68 30 69 33 70 27 71 28 72 31 73 29 74 55 75 56 76
REMARK SMILES IDX 64 77 57 78 58 79 62 80 65 81 59 82 60 83 63 84 61 85 40 86
REMARK SMILES IDX 41 87 49 88 42 89 43 90 47 91 50 92 44 93 45 94 48 95 46 96
REMARK H PARENT 6 6 11 30 70 49 38 60
REMARK Flexibility Score: inf
ROOT
ATOM      1  C   UNL A   1      36.547  20.777  25.370  1.00  0.00     0.023 C 
ENDROOT
BRANCH   1   2
ATOM      2  C   UNL A   1      36.101  21.857  24.386  1.00  0.00     0.116 C 
BRANCH   2   3
ATOM      3  N   UNL A   1      34.686  21.749  24.117  1.00  0.00    -0.354 N 
ATOM      4  C   UNL A   1      33.635  22.493  24.560  1.00  0.00     0.242 C 
ATOM      5  O   UNL A   1      32.529  22.168  24.115  1.00  0.00    -0.273 OA
ATOM      6  H   UNL A   1      34.440  21.013  23.509  1.00  0.00     0.163 HD
BRANCH   4   7
ATOM      7  C   UNL A   1      33.835  23.739  25.476  1.00  0.00     0.174 C 
BRANCH   7   8
ATOM      8  C   UNL A   1      33.357  23.622  26.939  1.00  0.00     0.032 C 
ATOM      9  C   UNL A   1      33.252  22.226  27.530  1.00  0.00     0.006 C 
ENDBRANCH   7   8
BRANCH   7  10
ATOM     10  N   UNL A   1      33.162  24.873  24.788  1.00  0.00    -0.321 N 
ATOM     11  C   UNL A   1      32.303  25.756  25.564  1.00  0.00     0.142 C 
ATOM     12  C   UNL A   1      33.539  25.270  23.493  1.00  0.00     0.312 C 
ATOM     13  C   UNL A   1      32.591  27.218  25.228  1.00  0.00     0.142 C 
ATOM     14  C   UNL A   1      32.806  26.509  22.894  1.00  0.00     0.312 C 
ATOM     15  O   UNL A   1      34.401  24.713  22.822  1.00  0.00    -0.263 OA
ATOM     16  N   UNL A   1      32.360  27.460  23.812  1.00  0.00    -0.328 N 
ATOM     17  O   UNL A   1      32.660  26.603  21.681  1.00  0.00    -0.263 OA
BRANCH  16  18
ATOM     18  C   UNL A   1      31.849  28.744  23.346  1.00  0.00     0.155 C 
BRANCH  18  19
ATOM     19  C   UNL A   1      30.339  28.807  23.298  1.00  0.00    -0.028 A 
ATOM     20  C   UNL A   1      29.571  27.634  23.323  1.00  0.00     0.005 A 
ATOM     21  C   UNL A   1      29.674  30.041  23.235  1.00  0.00     0.009 A 
ATOM     22  C   UNL A   1      28.175  27.702  23.289  1.00  0.00     0.001 A 
ATOM     23  C   UNL A   1      28.278  30.121  23.279  1.00  0.00    -0.051 A 
ATOM     24  C   UNL A   1      27.532  28.940  23.280  1.00  0.00     0.003 A 
ATOM     25  C   UNL A   1      27.597  31.456  23.317  1.00  0.00     0.044 C 
ENDBRANCH  18  19
ENDBRANCH  16  18
ENDBRANCH   7  10
ENDBRANCH   4   7
ENDBRANCH   2   3
ENDBRANCH   1   2
BRANCH   1  26
ATOM     26  C   UNL A   1      37.811  20.025  24.969  1.00  0.00     0.023 C 
BRANCH  26  27
ATOM     27  C   UNL A   1      39.057  20.404  25.751  1.00  0.00     0.116 C 
BRANCH  27  28
ATOM     28  N   UNL A   1      40.030  19.325  25.847  1.00  0.00    -0.352 N 
ATOM     29  C   UNL A   1      41.382  19.402  26.094  1.00  0.00     0.251 C 
ATOM     30  H   UNL A   1      39.673  18.417  25.720  1.00  0.00     0.163 HD
ATOM     31  O   UNL A   1      42.087  18.402  26.025  1.00  0.00    -0.269 OA
BRANCH  29  32
ATOM     32  C   UNL A   1      41.980  20.716  26.405  1.00  0.00     0.039 A 
ATOM     33  C   UNL A   1      42.416  21.529  25.359  1.00  0.00     0.014 A 
ATOM     34  C   UNL A   1      42.041  21.166  27.726  1.00  0.00     0.014 A 
ATOM     35  C   UNL A   1      42.839  22.831  25.633  1.00  0.00     0.010 A 
ATOM     36  C   UNL A   1      42.363  22.491  27.984  1.00  0.00     0.010 A 
ATOM     37  C   UNL A   1      42.772  23.337  26.941  1.00  0.00    -0.014 A 
BRANCH  37  38
ATOM     38  C   UNL A   1      43.135  24.743  27.249  1.00  0.00     0.031 A 
ATOM     39  C   UNL A   1      44.544  25.216  27.022  1.00  0.00     0.074 A 
ATOM     40  C   UNL A   1      42.222  25.567  27.799  1.00  0.00     0.049 A 
ATOM     41  N   UNL A   1      45.085  26.375  27.301  1.00  0.00    -0.248 NA
ATOM     42  C   UNL A   1      45.483  24.244  26.436  1.00  0.00     0.031 C 
ATOM     43  C   UNL A   1      40.840  25.206  28.123  1.00  0.00     0.029 A 
ATOM     44  N   UNL A   1      42.323  26.877  28.196  1.00  0.00    -0.354 N 
ATOM     45  C   UNL A   1      46.421  26.263  26.943  1.00  0.00     0.074 A 
ATOM     46  C   UNL A   1      46.628  24.906  26.490  1.00  0.00     0.031 C 
ATOM     47  C   UNL A   1      40.215  26.276  28.640  1.00  0.00     0.029 A 
ATOM     48  C   UNL A   1      41.161  27.385  28.725  1.00  0.00     0.049 A 
ATOM     49  H   UNL A   1      43.150  27.404  28.109  1.00  0.00     0.167 HD
ATOM     50  C   UNL A   1      47.383  27.215  26.959  1.00  0.00     0.037 A 
ATOM     51  C   UNL A   1      40.893  28.605  29.227  1.00  0.00     0.037 A 
ATOM     52  C   UNL A   1      47.163  28.574  27.381  1.00  0.00     0.049 A 
ATOM     53  C   UNL A   1      41.980  29.647  29.234  1.00  0.00     0.074 A 
ATOM     54  C   UNL A   1      48.052  29.634  27.373  1.00  0.00     0.029 A 
ATOM     55  N   UNL A   1      45.965  29.058  27.886  1.00  0.00    -0.354 N 
ATOM     56  N   UNL A   1      43.221  29.552  28.819  1.00  0.00    -0.248 NA
ATOM     57  C   UNL A   1      41.628  30.968  29.772  1.00  0.00     0.031 C 
ATOM     58  C   UNL A   1      47.408  30.746  27.925  1.00  0.00     0.029 A 
ATOM     59  C   UNL A   1      46.100  30.395  28.219  1.00  0.00     0.049 A 
ATOM     60  H   UNL A   1      45.142  28.529  27.993  1.00  0.00     0.167 HD
ATOM     61  C   UNL A   1      43.786  30.806  29.017  1.00  0.00     0.074 A 
ATOM     62  C   UNL A   1      42.748  31.647  29.573  1.00  0.00     0.031 C 
ATOM     63  C   UNL A   1      45.051  31.221  28.762  1.00  0.00     0.037 A 
BRANCH  50  64
ATOM     64  C   UNL A   1      48.760  26.822  26.504  1.00  0.00     0.064 A 
ATOM     65  C   UNL A   1      49.703  26.281  27.391  1.00  0.00     0.173 A 
ATOM     66  C   UNL A   1      49.130  26.959  25.158  1.00  0.00     0.173 A 
ATOM     67  F   UNL A   1      49.405  26.141  28.692  1.00  0.00    -0.203 F 
ATOM     68  C   UNL A   1      50.975  25.922  26.955  1.00  0.00     0.198 A 
ATOM     69  C   UNL A   1      50.392  26.566  24.718  1.00  0.00     0.198 A 
ATOM     70  F   UNL A   1      48.267  27.467  24.266  1.00  0.00    -0.203 F 
ATOM     71  F   UNL A   1      51.878  25.460  27.832  1.00  0.00    -0.200 F 
ATOM     72  C   UNL A   1      51.316  26.056  25.617  1.00  0.00     0.200 A 
ATOM     73  F   UNL A   1      50.715  26.685  23.423  1.00  0.00    -0.200 F 
ATOM     74  F   UNL A   1      52.538  25.703  25.197  1.00  0.00    -0.200 F 
ENDBRANCH  50  64
BRANCH  51  75
ATOM     75  C   UNL A   1      39.533  28.919  29.741  1.00  0.00     0.064 A 
ATOM     76  C   UNL A   1      39.187  28.655  31.074  1.00  0.00     0.173 A 
ATOM     77  C   UNL A   1      38.547  29.474  28.912  1.00  0.00     0.173 A 
ATOM     78  F   UNL A   1      40.088  28.107  31.903  1.00  0.00    -0.203 F 
ATOM     79  C   UNL A   1      37.903  28.911  31.551  1.00  0.00     0.198 A 
ATOM     80  C   UNL A   1      37.272  29.758  29.397  1.00  0.00     0.198 A 
ATOM     81  F   UNL A   1      38.826  29.751  27.629  1.00  0.00    -0.203 F 
ATOM     82  F   UNL A   1      37.586  28.599  32.815  1.00  0.00    -0.200 F 
ATOM     83  C   UNL A   1      36.948  29.467  30.713  1.00  0.00     0.200 A 
ATOM     84  F   UNL A   1      36.358  30.311  28.588  1.00  0.00    -0.200 F 
ATOM     85  F   UNL A   1      35.714  29.714  31.172  1.00  0.00    -0.200 F 
ENDBRANCH  51  75
BRANCH  63  86
ATOM     86  C   UNL A   1      45.374  32.661  29.043  1.00  0.00     0.064 A 
ATOM     87  C   UNL A   1      45.156  33.667  28.090  1.00  0.00     0.173 A 
ATOM     88  C   UNL A   1      45.865  33.042  30.301  1.00  0.00     0.173 A 
ATOM     89  F   UNL A   1      44.701  33.351  26.868  1.00  0.00    -0.203 F 
ATOM     90  C   UNL A   1      45.446  34.998  28.377  1.00  0.00     0.198 A 
ATOM     91  C   UNL A   1      46.120  34.378  30.596  1.00  0.00     0.198 A 
ATOM     92  F   UNL A   1      46.082  32.120  31.252  1.00  0.00    -0.203 F 
ATOM     93  F   UNL A   1      45.278  35.935  27.434  1.00  0.00    -0.200 F 
ATOM     94  C   UNL A   1      45.918  35.353  29.631  1.00  0.00     0.200 A 
ATOM     95  F   UNL A   1      46.560  34.721  31.814  1.00  0.00    -0.200 F 
ATOM     96  F   UNL A   1      46.186  36.636  29.909  1.00  0.00    -0.200 F 
ENDBRANCH  63  86
ENDBRANCH  37  38
ENDBRANCH  29  32
ENDBRANCH  27  28
ENDBRANCH  26  27
ENDBRANCH   1  26
TORSDOF 15
ENDMDL
