MODEL 1
REMARK VINA RESULT:     -11.5      0.000      0.000
REMARK SMILES COc1cc(OC)cc(-c2cc3nc(C)c(CCC(=O)NCCCCNC(=O)c4ccc(-c5c6nc(c(-c7c(F)c(F)c(F)c(F)c7F)c7ccc([nH]7)c(-c7c(F)c(F)c(F)c(F)c7F)c7nc(c(-c8c(F)c(F)c(F)c(F)c8F)c8ccc5[nH]8)C=C7)C=C6)cc4)c(C)n3n2)c1
REMARK SMILES IDX 22 1 21 2 19 3 20 4 18 6 17 7 16 8 10 9 11 10 95 11 12 12
REMARK SMILES IDX 94 13 13 14 92 15 14 16 93 17 15 18 9 19 3 20 4 21 96 22
REMARK SMILES IDX 5 23 8 24 2 25 1 26 6 27 7 28 23 29 24 30 25 31 26 32 27 33
REMARK SMILES IDX 28 35 29 36 30 37 91 38 31 39 90 40 32 41 33 42 34 43 84 44
REMARK SMILES IDX 35 45 89 46 83 47 85 48 36 49 88 50 82 51 81 52 37 54 69 55
REMARK SMILES IDX 49 56 68 57 50 58 53 59 67 60 86 61 51 62 52 63 66 65 87 66
REMARK SMILES IDX 54 67 38 68 39 69 47 70 40 71 41 72 45 73 48 74 42 75 43 76
REMARK SMILES IDX 46 77 44 78 70 79 71 80 79 81 72 82 73 83 77 84 80 85 74 86
REMARK SMILES IDX 75 87 78 88 76 89 55 90 56 91 64 92 57 93 58 94 62 95 65 96
REMARK SMILES IDX 59 97 60 98 63 99 61 100
REMARK H PARENT 21 5 26 34 85 53 53 64
REMARK Flexibility Score: inf
ROOT
ATOM      1  C   UNL A   1      38.733  30.245  33.156  1.00  0.00     0.116 C 
ENDROOT
BRANCH   1   2
ATOM      2  N   UNL A   1      39.021  29.805  34.506  1.00  0.00    -0.356 N 
ATOM      3  C   UNL A   1      40.143  30.110  35.238  1.00  0.00     0.220 C 
ATOM      4  O   UNL A   1      40.420  29.406  36.209  1.00  0.00    -0.275 OA
ATOM      5  H   UNL A   1      38.348  29.233  34.941  1.00  0.00     0.163 HD
BRANCH   3   6
ATOM      6  C   UNL A   1      41.014  31.314  34.850  1.00  0.00     0.105 C 
BRANCH   6   7
ATOM      7  C   UNL A   1      40.752  32.623  35.652  1.00  0.00     0.049 C 
BRANCH   7   8
ATOM      8  C   UNL A   1      39.389  33.295  35.436  1.00  0.00    -0.005 A 
ATOM      9  C   UNL A   1      35.697  34.505  33.117  1.00  0.00     0.095 A 
ATOM     10  C   UNL A   1      35.446  34.049  34.436  1.00  0.00     0.080 A 
ATOM     11  N   UNL A   1      37.019  34.677  32.922  1.00  0.00    -0.166 NA
ATOM     12  C   UNL A   1      36.675  33.858  35.023  1.00  0.00     0.156 A 
ATOM     13  N   UNL A   1      37.629  34.259  34.090  1.00  0.00    -0.219 N 
ATOM     14  N   UNL A   1      37.014  33.335  36.233  1.00  0.00    -0.234 NA
ATOM     15  C   UNL A   1      39.015  34.024  34.343  1.00  0.00     0.046 A 
ATOM     16  C   UNL A   1      38.272  33.067  36.442  1.00  0.00     0.045 A 
ATOM     17  C   UNL A   1      39.978  34.450  33.266  1.00  0.00     0.067 C 
ATOM     18  C   UNL A   1      38.602  32.565  37.835  1.00  0.00     0.067 C 
BRANCH   9  19
ATOM     19  C   UNL A   1      34.655  34.712  32.090  1.00  0.00     0.009 A 
ATOM     20  C   UNL A   1      32.607  35.839  31.347  1.00  0.00     0.123 A 
ATOM     21  C   UNL A   1      32.888  35.530  30.032  1.00  0.00     0.092 A 
ATOM     22  C   UNL A   1      33.440  35.365  32.366  1.00  0.00     0.057 A 
ATOM     23  C   UNL A   1      34.017  34.768  29.750  1.00  0.00     0.123 A 
ATOM     24  C   UNL A   1      34.927  34.407  30.758  1.00  0.00     0.057 A 
BRANCH  20  25
ATOM     25  O   UNL A   1      31.466  36.529  31.660  1.00  0.00    -0.497 OA
ATOM     26  C   UNL A   1      30.958  36.145  32.947  1.00  0.00     0.278 C 
ENDBRANCH  20  25
BRANCH  23  27
ATOM     27  O   UNL A   1      34.181  34.427  28.435  1.00  0.00    -0.497 OA
ATOM     28  C   UNL A   1      35.412  33.750  28.206  1.00  0.00     0.278 C 
ENDBRANCH  23  27
ENDBRANCH   9  19
ENDBRANCH   7   8
ENDBRANCH   6   7
ENDBRANCH   3   6
ENDBRANCH   1   2
BRANCH   1  29
ATOM     29  C   UNL A   1      37.404  30.968  33.175  1.00  0.00     0.023 C 
BRANCH  29  30
ATOM     30  C   UNL A   1      36.307  30.489  32.243  1.00  0.00     0.023 C 
BRANCH  30  31
ATOM     31  C   UNL A   1      36.356  31.186  30.917  1.00  0.00     0.116 C 
BRANCH  31  32
ATOM     32  N   UNL A   1      35.670  30.420  29.870  1.00  0.00    -0.352 N 
ATOM     33  C   UNL A   1      36.233  29.658  28.872  1.00  0.00     0.251 C 
ATOM     34  H   UNL A   1      34.686  30.457  29.883  1.00  0.00     0.163 HD
ATOM     35  O   UNL A   1      35.645  29.203  27.922  1.00  0.00    -0.269 OA
BRANCH  33  36
ATOM     36  C   UNL A   1      37.647  29.426  29.096  1.00  0.00     0.039 A 
ATOM     37  C   UNL A   1      38.027  28.359  29.908  1.00  0.00     0.014 A 
ATOM     38  C   UNL A   1      38.446  29.930  28.081  1.00  0.00     0.014 A 
ATOM     39  C   UNL A   1      39.289  27.842  29.778  1.00  0.00     0.010 A 
ATOM     40  C   UNL A   1      39.584  29.231  27.795  1.00  0.00     0.010 A 
ATOM     41  C   UNL A   1      40.074  28.311  28.730  1.00  0.00    -0.014 A 
BRANCH  41  42
ATOM     42  C   UNL A   1      41.469  27.928  28.679  1.00  0.00     0.031 A 
ATOM     43  C   UNL A   1      41.821  26.696  27.924  1.00  0.00     0.074 A 
ATOM     44  C   UNL A   1      42.355  28.690  29.352  1.00  0.00     0.049 A 
ATOM     45  N   UNL A   1      42.384  25.635  28.408  1.00  0.00    -0.248 NA
ATOM     46  C   UNL A   1      41.381  26.547  26.525  1.00  0.00     0.031 C 
ATOM     47  C   UNL A   1      42.140  29.963  30.062  1.00  0.00     0.029 A 
ATOM     48  N   UNL A   1      43.696  28.536  29.430  1.00  0.00    -0.354 N 
ATOM     49  C   UNL A   1      42.539  24.754  27.345  1.00  0.00     0.074 A 
ATOM     50  C   UNL A   1      41.787  25.305  26.246  1.00  0.00     0.031 C 
ATOM     51  C   UNL A   1      43.308  30.613  30.190  1.00  0.00     0.029 A 
ATOM     52  C   UNL A   1      44.353  29.699  29.799  1.00  0.00     0.049 A 
ATOM     53  H   UNL A   1      44.157  27.686  29.245  1.00  0.00     0.167 HD
ATOM     54  C   UNL A   1      43.457  23.751  27.392  1.00  0.00     0.037 A 
ATOM     55  C   UNL A   1      45.680  29.908  29.720  1.00  0.00     0.037 A 
ATOM     56  C   UNL A   1      43.815  23.424  28.747  1.00  0.00     0.049 A 
ATOM     57  C   UNL A   1      46.317  28.568  29.770  1.00  0.00     0.074 A 
ATOM     58  C   UNL A   1      43.112  22.947  29.837  1.00  0.00     0.029 A 
ATOM     59  N   UNL A   1      44.991  23.919  29.254  1.00  0.00    -0.354 N 
ATOM     60  N   UNL A   1      46.260  27.799  30.829  1.00  0.00    -0.248 NA
ATOM     61  C   UNL A   1      46.564  27.873  28.515  1.00  0.00     0.031 C 
ATOM     62  C   UNL A   1      43.673  23.619  30.963  1.00  0.00     0.029 A 
ATOM     63  C   UNL A   1      44.721  24.419  30.503  1.00  0.00     0.049 A 
ATOM     64  H   UNL A   1      45.867  23.916  28.804  1.00  0.00     0.167 HD
ATOM     65  C   UNL A   1      46.052  26.518  30.334  1.00  0.00     0.074 A 
ATOM     66  C   UNL A   1      46.341  26.614  28.906  1.00  0.00     0.031 C 
ATOM     67  C   UNL A   1      45.379  25.577  31.064  1.00  0.00     0.037 A 
BRANCH  54  68
ATOM     68  C   UNL A   1      44.286  23.330  26.206  1.00  0.00     0.064 A 
ATOM     69  C   UNL A   1      44.295  21.981  25.802  1.00  0.00     0.173 A 
ATOM     70  C   UNL A   1      45.301  24.140  25.651  1.00  0.00     0.173 A 
ATOM     71  F   UNL A   1      43.393  21.116  26.288  1.00  0.00    -0.203 F 
ATOM     72  C   UNL A   1      45.289  21.472  24.959  1.00  0.00     0.198 A 
ATOM     73  C   UNL A   1      46.258  23.640  24.772  1.00  0.00     0.198 A 
ATOM     74  F   UNL A   1      45.477  25.414  26.022  1.00  0.00    -0.203 F 
ATOM     75  F   UNL A   1      45.330  20.158  24.697  1.00  0.00    -0.200 F 
ATOM     76  C   UNL A   1      46.272  22.300  24.452  1.00  0.00     0.200 A 
ATOM     77  F   UNL A   1      47.216  24.456  24.310  1.00  0.00    -0.200 F 
ATOM     78  F   UNL A   1      47.261  21.803  23.697  1.00  0.00    -0.200 F 
ENDBRANCH  54  68
BRANCH  55  79
ATOM     79  C   UNL A   1      46.300  31.164  29.255  1.00  0.00     0.064 A 
ATOM     80  C   UNL A   1      47.036  31.965  30.131  1.00  0.00     0.173 A 
ATOM     81  C   UNL A   1      46.352  31.512  27.884  1.00  0.00     0.173 A 
ATOM     82  F   UNL A   1      47.065  31.674  31.439  1.00  0.00    -0.203 F 
ATOM     83  C   UNL A   1      47.790  33.046  29.667  1.00  0.00     0.198 A 
ATOM     84  C   UNL A   1      47.092  32.599  27.425  1.00  0.00     0.198 A 
ATOM     85  F   UNL A   1      45.746  30.761  26.952  1.00  0.00    -0.203 F 
ATOM     86  F   UNL A   1      48.524  33.763  30.529  1.00  0.00    -0.200 F 
ATOM     87  C   UNL A   1      47.822  33.359  28.315  1.00  0.00     0.200 A 
ATOM     88  F   UNL A   1      47.132  32.872  26.112  1.00  0.00    -0.200 F 
ATOM     89  F   UNL A   1      48.582  34.368  27.870  1.00  0.00    -0.200 F 
ENDBRANCH  55  79
BRANCH  67  90
ATOM     90  C   UNL A   1      45.074  25.887  32.506  1.00  0.00     0.064 A 
ATOM     91  C   UNL A   1      43.931  26.588  32.928  1.00  0.00     0.173 A 
ATOM     92  C   UNL A   1      45.878  25.319  33.502  1.00  0.00     0.173 A 
ATOM     93  F   UNL A   1      43.048  27.058  32.040  1.00  0.00    -0.203 F 
ATOM     94  C   UNL A   1      43.639  26.759  34.280  1.00  0.00     0.198 A 
ATOM     95  C   UNL A   1      45.566  25.460  34.852  1.00  0.00     0.198 A 
ATOM     96  F   UNL A   1      46.942  24.576  33.162  1.00  0.00    -0.203 F 
ATOM     97  F   UNL A   1      42.547  27.445  34.652  1.00  0.00    -0.200 F 
ATOM     98  C   UNL A   1      44.455  26.192  35.242  1.00  0.00     0.200 A 
ATOM     99  F   UNL A   1      46.328  24.861  35.778  1.00  0.00    -0.200 F 
ATOM    100  F   UNL A   1      44.156  26.322  36.543  1.00  0.00    -0.200 F 
ENDBRANCH  67  90
ENDBRANCH  41  42
ENDBRANCH  33  36
ENDBRANCH  31  32
ENDBRANCH  30  31
ENDBRANCH  29  30
ENDBRANCH   1  29
TORSDOF 16
ENDMDL
MODEL 2
REMARK VINA RESULT:     -11.4      5.385     10.108
REMARK SMILES COc1cc(OC)cc(-c2cc3nc(C)c(CCC(=O)NCCCCNC(=O)c4ccc(-c5c6nc(c(-c7c(F)c(F)c(F)c(F)c7F)c7ccc([nH]7)c(-c7c(F)c(F)c(F)c(F)c7F)c7nc(c(-c8c(F)c(F)c(F)c(F)c8F)c8ccc5[nH]8)C=C7)C=C6)cc4)c(C)n3n2)c1
REMARK SMILES IDX 22 1 21 2 19 3 20 4 18 6 17 7 16 8 10 9 11 10 95 11 12 12
REMARK SMILES IDX 94 13 13 14 92 15 14 16 93 17 15 18 9 19 3 20 4 21 96 22
REMARK SMILES IDX 5 23 8 24 2 25 1 26 6 27 7 28 23 29 24 30 25 31 26 32 27 33
REMARK SMILES IDX 28 35 29 36 30 37 91 38 31 39 90 40 32 41 33 42 34 43 84 44
REMARK SMILES IDX 35 45 89 46 83 47 85 48 36 49 88 50 82 51 81 52 37 54 69 55
REMARK SMILES IDX 49 56 68 57 50 58 53 59 67 60 86 61 51 62 52 63 66 65 87 66
REMARK SMILES IDX 54 67 38 68 39 69 47 70 40 71 41 72 45 73 48 74 42 75 43 76
REMARK SMILES IDX 46 77 44 78 70 79 71 80 79 81 72 82 73 83 77 84 80 85 74 86
REMARK SMILES IDX 75 87 78 88 76 89 55 90 56 91 64 92 57 93 58 94 62 95 65 96
REMARK SMILES IDX 59 97 60 98 63 99 61 100
REMARK H PARENT 21 5 26 34 85 53 53 64
REMARK Flexibility Score: inf
ROOT
ATOM      1  C   UNL A   1      36.544  21.457  25.006  1.00  0.00     0.116 C 
ENDROOT
BRANCH   1   2
ATOM      2  N   UNL A   1      35.821  21.490  26.261  1.00  0.00    -0.356 N 
ATOM      3  C   UNL A   1      34.481  21.241  26.432  1.00  0.00     0.220 C 
ATOM      4  O   UNL A   1      33.938  21.636  27.464  1.00  0.00    -0.275 OA
ATOM      5  H   UNL A   1      36.340  21.709  27.068  1.00  0.00     0.163 HD
BRANCH   3   6
ATOM      6  C   UNL A   1      33.694  20.475  25.359  1.00  0.00     0.105 C 
BRANCH   6   7
ATOM      7  C   UNL A   1      32.154  20.708  25.355  1.00  0.00     0.049 C 
BRANCH   7   8
ATOM      8  C   UNL A   1      31.665  22.025  24.736  1.00  0.00    -0.005 A 
ATOM      9  C   UNL A   1      31.168  26.512  24.420  1.00  0.00     0.095 A 
ATOM     10  C   UNL A   1      31.471  25.861  23.198  1.00  0.00     0.080 A 
ATOM     11  N   UNL A   1      30.883  25.607  25.377  1.00  0.00    -0.166 NA
ATOM     12  C   UNL A   1      31.452  24.511  23.459  1.00  0.00     0.156 A 
ATOM     13  N   UNL A   1      31.077  24.368  24.794  1.00  0.00    -0.219 N 
ATOM     14  N   UNL A   1      31.773  23.446  22.675  1.00  0.00    -0.234 NA
ATOM     15  C   UNL A   1      31.129  23.083  25.414  1.00  0.00     0.046 A 
ATOM     16  C   UNL A   1      31.876  22.282  23.252  1.00  0.00     0.045 A 
ATOM     17  C   UNL A   1      30.748  23.022  26.871  1.00  0.00     0.067 C 
ATOM     18  C   UNL A   1      32.154  21.120  22.318  1.00  0.00     0.067 C 
BRANCH   9  19
ATOM     19  C   UNL A   1      31.208  27.974  24.623  1.00  0.00     0.009 A 
ATOM     20  C   UNL A   1      30.275  30.200  24.187  1.00  0.00     0.123 A 
ATOM     21  C   UNL A   1      30.904  30.707  25.306  1.00  0.00     0.092 A 
ATOM     22  C   UNL A   1      30.492  28.871  23.810  1.00  0.00     0.057 A 
ATOM     23  C   UNL A   1      31.727  29.868  26.050  1.00  0.00     0.123 A 
ATOM     24  C   UNL A   1      31.837  28.499  25.750  1.00  0.00     0.057 A 
BRANCH  20  25
ATOM     25  O   UNL A   1      29.513  31.021  23.398  1.00  0.00    -0.497 OA
ATOM     26  C   UNL A   1      29.420  30.519  22.056  1.00  0.00     0.278 C 
ENDBRANCH  20  25
BRANCH  23  27
ATOM     27  O   UNL A   1      32.385  30.462  27.090  1.00  0.00    -0.497 OA
ATOM     28  C   UNL A   1      33.800  30.388  26.944  1.00  0.00     0.278 C 
ENDBRANCH  23  27
ENDBRANCH   9  19
ENDBRANCH   7   8
ENDBRANCH   6   7
ENDBRANCH   3   6
ENDBRANCH   1   2
BRANCH   1  29
ATOM     29  C   UNL A   1      37.608  22.533  25.053  1.00  0.00     0.023 C 
BRANCH  29  30
ATOM     30  C   UNL A   1      37.429  23.684  26.026  1.00  0.00     0.023 C 
BRANCH  30  31
ATOM     31  C   UNL A   1      38.648  23.891  26.875  1.00  0.00     0.116 C 
BRANCH  31  32
ATOM     32  N   UNL A   1      39.727  22.962  26.521  1.00  0.00    -0.352 N 
ATOM     33  C   UNL A   1      41.048  23.255  26.270  1.00  0.00     0.251 C 
ATOM     34  H   UNL A   1      39.474  22.013  26.454  1.00  0.00     0.163 HD
ATOM     35  O   UNL A   1      41.856  22.494  25.798  1.00  0.00    -0.269 OA
BRANCH  33  36
ATOM     36  C   UNL A   1      41.391  24.607  26.666  1.00  0.00     0.039 A 
ATOM     37  C   UNL A   1      40.856  25.670  25.941  1.00  0.00     0.014 A 
ATOM     38  C   UNL A   1      41.754  24.704  28.001  1.00  0.00     0.014 A 
ATOM     39  C   UNL A   1      40.776  26.904  26.531  1.00  0.00     0.010 A 
ATOM     40  C   UNL A   1      41.419  25.863  28.641  1.00  0.00     0.010 A 
ATOM     41  C   UNL A   1      41.093  26.994  27.884  1.00  0.00    -0.014 A 
BRANCH  41  42
ATOM     42  C   UNL A   1      41.202  28.305  28.487  1.00  0.00     0.031 A 
ATOM     43  C   UNL A   1      42.388  29.131  28.137  1.00  0.00     0.074 A 
ATOM     44  C   UNL A   1      40.242  28.678  29.357  1.00  0.00     0.049 A 
ATOM     45  N   UNL A   1      43.287  29.568  28.961  1.00  0.00    -0.248 NA
ATOM     46  C   UNL A   1      42.708  29.386  26.722  1.00  0.00     0.031 C 
ATOM     47  C   UNL A   1      38.991  27.987  29.719  1.00  0.00     0.029 A 
ATOM     48  N   UNL A   1      40.128  29.852  30.020  1.00  0.00    -0.354 N 
ATOM     49  C   UNL A   1      44.188  30.305  28.202  1.00  0.00     0.074 A 
ATOM     50  C   UNL A   1      43.863  30.049  26.822  1.00  0.00     0.031 C 
ATOM     51  C   UNL A   1      38.121  28.869  30.238  1.00  0.00     0.029 A 
ATOM     52  C   UNL A   1      38.839  30.098  30.464  1.00  0.00     0.049 A 
ATOM     53  H   UNL A   1      40.883  30.465  30.172  1.00  0.00     0.167 HD
ATOM     54  C   UNL A   1      44.989  31.242  28.778  1.00  0.00     0.037 A 
ATOM     55  C   UNL A   1      38.383  31.277  30.928  1.00  0.00     0.037 A 
ATOM     56  C   UNL A   1      45.153  31.004  30.188  1.00  0.00     0.049 A 
ATOM     57  C   UNL A   1      39.568  32.012  31.436  1.00  0.00     0.074 A 
ATOM     58  C   UNL A   1      45.686  29.968  30.930  1.00  0.00     0.029 A 
ATOM     59  N   UNL A   1      44.409  31.746  31.071  1.00  0.00    -0.354 N 
ATOM     60  N   UNL A   1      40.264  31.603  32.467  1.00  0.00    -0.248 NA
ATOM     61  C   UNL A   1      40.281  32.890  30.518  1.00  0.00     0.031 C 
ATOM     62  C   UNL A   1      44.849  29.865  32.080  1.00  0.00     0.029 A 
ATOM     63  C   UNL A   1      43.893  30.879  32.001  1.00  0.00     0.049 A 
ATOM     64  H   UNL A   1      44.271  32.721  31.043  1.00  0.00     0.167 HD
ATOM     65  C   UNL A   1      41.591  31.825  32.118  1.00  0.00     0.074 A 
ATOM     66  C   UNL A   1      41.532  32.702  30.951  1.00  0.00     0.031 C 
ATOM     67  C   UNL A   1      42.595  31.043  32.618  1.00  0.00     0.037 A 
BRANCH  54  68
ATOM     68  C   UNL A   1      45.317  32.563  28.131  1.00  0.00     0.064 A 
ATOM     69  C   UNL A   1      44.290  33.494  27.881  1.00  0.00     0.173 A 
ATOM     70  C   UNL A   1      46.542  32.815  27.475  1.00  0.00     0.173 A 
ATOM     71  F   UNL A   1      43.077  33.337  28.432  1.00  0.00    -0.203 F 
ATOM     72  C   UNL A   1      44.461  34.555  26.987  1.00  0.00     0.198 A 
ATOM     73  C   UNL A   1      46.723  33.902  26.624  1.00  0.00     0.198 A 
ATOM     74  F   UNL A   1      47.571  31.961  27.537  1.00  0.00    -0.203 F 
ATOM     75  F   UNL A   1      43.421  35.346  26.686  1.00  0.00    -0.200 F 
ATOM     76  C   UNL A   1      45.674  34.754  26.355  1.00  0.00     0.200 A 
ATOM     77  F   UNL A   1      47.900  34.062  26.004  1.00  0.00    -0.200 F 
ATOM     78  F   UNL A   1      45.820  35.731  25.450  1.00  0.00    -0.200 F 
ENDBRANCH  54  68
BRANCH  55  79
ATOM     79  C   UNL A   1      37.063  31.848  30.598  1.00  0.00     0.064 A 
ATOM     80  C   UNL A   1      36.075  31.978  31.576  1.00  0.00     0.173 A 
ATOM     81  C   UNL A   1      36.804  32.468  29.352  1.00  0.00     0.173 A 
ATOM     82  F   UNL A   1      36.265  31.450  32.794  1.00  0.00    -0.203 F 
ATOM     83  C   UNL A   1      34.899  32.693  31.332  1.00  0.00     0.198 A 
ATOM     84  C   UNL A   1      35.626  33.167  29.104  1.00  0.00     0.198 A 
ATOM     85  F   UNL A   1      37.721  32.471  28.372  1.00  0.00    -0.203 F 
ATOM     86  F   UNL A   1      33.995  32.838  32.310  1.00  0.00    -0.200 F 
ATOM     87  C   UNL A   1      34.677  33.291  30.099  1.00  0.00     0.200 A 
ATOM     88  F   UNL A   1      35.439  33.760  27.916  1.00  0.00    -0.200 F 
ATOM     89  F   UNL A   1      33.570  34.013  29.884  1.00  0.00    -0.200 F 
ENDBRANCH  55  79
BRANCH  67  90
ATOM     90  C   UNL A   1      42.258  30.088  33.732  1.00  0.00     0.064 A 
ATOM     91  C   UNL A   1      41.800  28.776  33.523  1.00  0.00     0.173 A 
ATOM     92  C   UNL A   1      42.562  30.455  35.050  1.00  0.00     0.173 A 
ATOM     93  F   UNL A   1      41.603  28.308  32.285  1.00  0.00    -0.203 F 
ATOM     94  C   UNL A   1      41.602  27.894  34.584  1.00  0.00     0.198 A 
ATOM     95  C   UNL A   1      42.397  29.562  36.106  1.00  0.00     0.198 A 
ATOM     96  F   UNL A   1      43.072  31.669  35.306  1.00  0.00    -0.203 F 
ATOM     97  F   UNL A   1      41.151  26.652  34.353  1.00  0.00    -0.200 F 
ATOM     98  C   UNL A   1      41.905  28.287  35.876  1.00  0.00     0.200 A 
ATOM     99  F   UNL A   1      42.745  29.929  37.347  1.00  0.00    -0.200 F 
ATOM    100  F   UNL A   1      41.751  27.429  36.895  1.00  0.00    -0.200 F 
ENDBRANCH  67  90
ENDBRANCH  41  42
ENDBRANCH  33  36
ENDBRANCH  31  32
ENDBRANCH  30  31
ENDBRANCH  29  30
ENDBRANCH   1  29
TORSDOF 16
ENDMDL
MODEL 3
REMARK VINA RESULT:     -10.8      4.586      9.928
REMARK SMILES COc1cc(OC)cc(-c2cc3nc(C)c(CCC(=O)NCCCCNC(=O)c4ccc(-c5c6nc(c(-c7c(F)c(F)c(F)c(F)c7F)c7ccc([nH]7)c(-c7c(F)c(F)c(F)c(F)c7F)c7nc(c(-c8c(F)c(F)c(F)c(F)c8F)c8ccc5[nH]8)C=C7)C=C6)cc4)c(C)n3n2)c1
REMARK SMILES IDX 22 1 21 2 19 3 20 4 18 6 17 7 16 8 10 9 11 10 95 11 12 12
REMARK SMILES IDX 94 13 13 14 92 15 14 16 93 17 15 18 9 19 3 20 4 21 96 22
REMARK SMILES IDX 5 23 8 24 2 25 1 26 6 27 7 28 23 29 24 30 25 31 26 32 27 33
REMARK SMILES IDX 28 35 29 36 30 37 91 38 31 39 90 40 32 41 33 42 34 43 84 44
REMARK SMILES IDX 35 45 89 46 83 47 85 48 36 49 88 50 82 51 81 52 37 54 69 55
REMARK SMILES IDX 49 56 68 57 50 58 53 59 67 60 86 61 51 62 52 63 66 65 87 66
REMARK SMILES IDX 54 67 38 68 39 69 47 70 40 71 41 72 45 73 48 74 42 75 43 76
REMARK SMILES IDX 46 77 44 78 70 79 71 80 79 81 72 82 73 83 77 84 80 85 74 86
REMARK SMILES IDX 75 87 78 88 76 89 55 90 56 91 64 92 57 93 58 94 62 95 65 96
REMARK SMILES IDX 59 97 60 98 63 99 61 100
REMARK H PARENT 21 5 26 34 85 53 53 64
REMARK Flexibility Score: inf
ROOT
ATOM      1  C   UNL A   1      42.973  19.787  25.744  1.00  0.00     0.116 C 
ENDROOT
BRANCH   1   2
ATOM      2  N   UNL A   1      42.035  19.280  26.725  1.00  0.00    -0.356 N 
ATOM      3  C   UNL A   1      41.200  20.033  27.515  1.00  0.00     0.220 C 
ATOM      4  O   UNL A   1      40.723  19.515  28.524  1.00  0.00    -0.275 OA
ATOM      5  H   UNL A   1      41.990  18.303  26.834  1.00  0.00     0.163 HD
BRANCH   3   6
ATOM      6  C   UNL A   1      40.868  21.481  27.127  1.00  0.00     0.105 C 
BRANCH   6   7
ATOM      7  C   UNL A   1      40.138  21.664  25.763  1.00  0.00     0.049 C 
BRANCH   7   8
ATOM      8  C   UNL A   1      38.615  21.847  25.825  1.00  0.00    -0.005 A 
ATOM      9  C   UNL A   1      34.686  24.026  25.282  1.00  0.00     0.095 A 
ATOM     10  C   UNL A   1      34.671  22.666  24.883  1.00  0.00     0.080 A 
ATOM     11  N   UNL A   1      35.827  24.310  25.941  1.00  0.00    -0.166 NA
ATOM     12  C   UNL A   1      35.889  22.139  25.241  1.00  0.00     0.156 A 
ATOM     13  N   UNL A   1      36.583  23.153  25.900  1.00  0.00    -0.219 N 
ATOM     14  N   UNL A   1      36.439  20.918  25.002  1.00  0.00    -0.234 NA
ATOM     15  C   UNL A   1      37.955  22.965  26.251  1.00  0.00     0.046 A 
ATOM     16  C   UNL A   1      37.705  20.764  25.268  1.00  0.00     0.045 A 
ATOM     17  C   UNL A   1      38.643  24.124  26.923  1.00  0.00     0.067 C 
ATOM     18  C   UNL A   1      38.243  19.361  25.060  1.00  0.00     0.067 C 
BRANCH   9  19
ATOM     19  C   UNL A   1      33.622  25.002  24.973  1.00  0.00     0.009 A 
ATOM     20  C   UNL A   1      32.054  26.735  25.721  1.00  0.00     0.123 A 
ATOM     21  C   UNL A   1      31.930  27.210  24.430  1.00  0.00     0.092 A 
ATOM     22  C   UNL A   1      32.828  25.596  25.971  1.00  0.00     0.057 A 
ATOM     23  C   UNL A   1      32.603  26.550  23.407  1.00  0.00     0.123 A 
ATOM     24  C   UNL A   1      33.487  25.492  23.676  1.00  0.00     0.057 A 
BRANCH  20  25
ATOM     25  O   UNL A   1      31.350  27.323  26.737  1.00  0.00    -0.497 OA
ATOM     26  C   UNL A   1      31.781  28.675  26.961  1.00  0.00     0.278 C 
ENDBRANCH  20  25
BRANCH  23  27
ATOM     27  O   UNL A   1      32.362  27.023  22.146  1.00  0.00    -0.497 OA
ATOM     28  C   UNL A   1      32.040  25.978  21.234  1.00  0.00     0.278 C 
ENDBRANCH  23  27
ENDBRANCH   9  19
ENDBRANCH   7   8
ENDBRANCH   6   7
ENDBRANCH   3   6
ENDBRANCH   1   2
BRANCH   1  29
ATOM     29  C   UNL A   1      43.864  18.641  25.315  1.00  0.00     0.023 C 
BRANCH  29  30
ATOM     30  C   UNL A   1      45.368  18.847  25.339  1.00  0.00     0.023 C 
BRANCH  30  31
ATOM     31  C   UNL A   1      45.738  20.285  25.133  1.00  0.00     0.116 C 
BRANCH  31  32
ATOM     32  N   UNL A   1      45.353  20.764  23.801  1.00  0.00    -0.352 N 
ATOM     33  C   UNL A   1      44.704  21.934  23.477  1.00  0.00     0.251 C 
ATOM     34  H   UNL A   1      45.587  20.176  23.046  1.00  0.00     0.163 HD
ATOM     35  O   UNL A   1      44.239  22.200  22.396  1.00  0.00    -0.269 OA
BRANCH  33  36
ATOM     36  C   UNL A   1      44.657  22.858  24.594  1.00  0.00     0.039 A 
ATOM     37  C   UNL A   1      45.830  23.509  24.970  1.00  0.00     0.014 A 
ATOM     38  C   UNL A   1      43.392  23.385  24.806  1.00  0.00     0.014 A 
ATOM     39  C   UNL A   1      45.742  24.680  25.677  1.00  0.00     0.010 A 
ATOM     40  C   UNL A   1      43.337  24.669  25.271  1.00  0.00     0.010 A 
ATOM     41  C   UNL A   1      44.478  25.237  25.849  1.00  0.00    -0.014 A 
BRANCH  41  42
ATOM     42  C   UNL A   1      44.331  26.362  26.747  1.00  0.00     0.031 A 
ATOM     43  C   UNL A   1      45.329  27.461  26.650  1.00  0.00     0.074 A 
ATOM     44  C   UNL A   1      43.321  26.325  27.639  1.00  0.00     0.049 A 
ATOM     45  N   UNL A   1      46.129  27.854  27.589  1.00  0.00    -0.248 NA
ATOM     46  C   UNL A   1      45.584  28.102  25.347  1.00  0.00     0.031 C 
ATOM     47  C   UNL A   1      42.234  25.340  27.778  1.00  0.00     0.029 A 
ATOM     48  N   UNL A   1      42.983  27.263  28.554  1.00  0.00    -0.354 N 
ATOM     49  C   UNL A   1      46.862  28.910  27.062  1.00  0.00     0.074 A 
ATOM     50  C   UNL A   1      46.586  28.932  25.648  1.00  0.00     0.031 C 
ATOM     51  C   UNL A   1      41.210  25.888  28.452  1.00  0.00     0.029 A 
ATOM     52  C   UNL A   1      41.672  27.143  28.990  1.00  0.00     0.049 A 
ATOM     53  H   UNL A   1      43.602  27.956  28.877  1.00  0.00     0.167 HD
ATOM     54  C   UNL A   1      47.467  29.820  27.874  1.00  0.00     0.037 A 
ATOM     55  C   UNL A   1      40.996  28.066  29.699  1.00  0.00     0.037 A 
ATOM     56  C   UNL A   1      47.683  29.289  29.194  1.00  0.00     0.049 A 
ATOM     57  C   UNL A   1      42.017  28.875  30.413  1.00  0.00     0.074 A 
ATOM     58  C   UNL A   1      48.414  28.229  29.694  1.00  0.00     0.029 A 
ATOM     59  N   UNL A   1      46.812  29.642  30.195  1.00  0.00    -0.354 N 
ATOM     60  N   UNL A   1      42.786  28.374  31.347  1.00  0.00    -0.248 NA
ATOM     61  C   UNL A   1      42.536  30.066  29.757  1.00  0.00     0.031 C 
ATOM     62  C   UNL A   1      47.620  27.696  30.752  1.00  0.00     0.029 A 
ATOM     63  C   UNL A   1      46.483  28.496  30.874  1.00  0.00     0.049 A 
ATOM     64  H   UNL A   1      46.485  30.550  30.391  1.00  0.00     0.167 HD
ATOM     65  C   UNL A   1      44.040  28.924  31.115  1.00  0.00     0.074 A 
ATOM     66  C   UNL A   1      43.803  30.025  30.185  1.00  0.00     0.031 C 
ATOM     67  C   UNL A   1      45.182  28.254  31.458  1.00  0.00     0.037 A 
BRANCH  54  68
ATOM     68  C   UNL A   1      47.524  31.294  27.569  1.00  0.00     0.064 A 
ATOM     69  C   UNL A   1      46.329  32.021  27.401  1.00  0.00     0.173 A 
ATOM     70  C   UNL A   1      48.699  31.945  27.135  1.00  0.00     0.173 A 
ATOM     71  F   UNL A   1      45.150  31.488  27.754  1.00  0.00    -0.203 F 
ATOM     72  C   UNL A   1      46.311  33.274  26.782  1.00  0.00     0.198 A 
ATOM     73  C   UNL A   1      48.683  33.215  26.564  1.00  0.00     0.198 A 
ATOM     74  F   UNL A   1      49.892  31.336  27.138  1.00  0.00    -0.203 F 
ATOM     75  F   UNL A   1      45.140  33.877  26.533  1.00  0.00    -0.200 F 
ATOM     76  C   UNL A   1      47.487  33.866  26.358  1.00  0.00     0.200 A 
ATOM     77  F   UNL A   1      49.832  33.760  26.140  1.00  0.00    -0.200 F 
ATOM     78  F   UNL A   1      47.466  35.037  25.708  1.00  0.00    -0.200 F 
ENDBRANCH  54  68
BRANCH  55  79
ATOM     79  C   UNL A   1      39.587  28.435  29.458  1.00  0.00     0.064 A 
ATOM     80  C   UNL A   1      38.665  28.459  30.506  1.00  0.00     0.173 A 
ATOM     81  C   UNL A   1      39.152  28.966  28.220  1.00  0.00     0.173 A 
ATOM     82  F   UNL A   1      39.018  28.008  31.718  1.00  0.00    -0.203 F 
ATOM     83  C   UNL A   1      37.385  28.993  30.336  1.00  0.00     0.198 A 
ATOM     84  C   UNL A   1      37.871  29.483  28.048  1.00  0.00     0.198 A 
ATOM     85  F   UNL A   1      39.985  29.063  27.173  1.00  0.00    -0.203 F 
ATOM     86  F   UNL A   1      36.543  29.045  31.377  1.00  0.00    -0.200 F 
ATOM     87  C   UNL A   1      36.990  29.509  29.110  1.00  0.00     0.200 A 
ATOM     88  F   UNL A   1      37.515  30.001  26.862  1.00  0.00    -0.200 F 
ATOM     89  F   UNL A   1      35.779  30.060  28.963  1.00  0.00    -0.200 F 
ENDBRANCH  55  79
BRANCH  67  90
ATOM     90  C   UNL A   1      45.047  27.015  32.303  1.00  0.00     0.064 A 
ATOM     91  C   UNL A   1      44.838  25.730  31.773  1.00  0.00     0.173 A 
ATOM     92  C   UNL A   1      45.298  27.106  33.678  1.00  0.00     0.173 A 
ATOM     93  F   UNL A   1      44.712  25.544  30.454  1.00  0.00    -0.203 F 
ATOM     94  C   UNL A   1      44.825  24.599  32.588  1.00  0.00     0.198 A 
ATOM     95  C   UNL A   1      45.319  25.971  34.486  1.00  0.00     0.198 A 
ATOM     96  F   UNL A   1      45.577  28.296  34.231  1.00  0.00    -0.203 F 
ATOM     97  F   UNL A   1      44.610  23.387  32.055  1.00  0.00    -0.200 F 
ATOM     98  C   UNL A   1      45.069  24.720  33.945  1.00  0.00     0.200 A 
ATOM     99  F   UNL A   1      45.612  26.088  35.789  1.00  0.00    -0.200 F 
ATOM    100  F   UNL A   1      45.094  23.630  34.725  1.00  0.00    -0.200 F 
ENDBRANCH  67  90
ENDBRANCH  41  42
ENDBRANCH  33  36
ENDBRANCH  31  32
ENDBRANCH  30  31
ENDBRANCH  29  30
ENDBRANCH   1  29
TORSDOF 16
ENDMDL
