MODEL 1
REMARK VINA RESULT:     -11.3      0.000      0.000
REMARK SMILES C[C@H](CC[NH2+][C@@H]1CCOC2(CCC2)C1)CCC(=O)NCCCCNC(=O)c1ccc(-c2c3nc(c(-c4c(F)c(F)c(F)c(F)c4F)c4ccc([nH]4)c(-c4c(F)c(F)c(F)c(F)c4F)c4nc(c(-c5c(F)c(F)c(F)c(F)c5F)c5ccc2[nH]5)C=C4)C=C3)cc1
REMARK SMILES IDX 17 1 18 2 19 3 16 5 15 6 2 7 1 8 3 9 4 10 5 11 6 14 7 15
REMARK SMILES IDX 14 16 8 17 10 18 9 19 11 20 13 21 12 22 20 23 21 24 22 25
REMARK SMILES IDX 23 26 24 27 25 28 26 30 27 31 28 32 89 33 29 34 88 35 30 36
REMARK SMILES IDX 31 37 32 38 82 39 33 40 87 41 81 42 83 43 34 44 86 45 80 46
REMARK SMILES IDX 79 47 35 49 67 50 47 51 66 52 48 53 51 54 65 55 84 56 49 57
REMARK SMILES IDX 50 58 64 60 85 61 52 62 36 63 37 64 45 65 38 66 39 67 43 68
REMARK SMILES IDX 46 69 40 70 41 71 44 72 42 73 68 74 69 75 77 76 70 77 71 78
REMARK SMILES IDX 75 79 78 80 72 81 73 82 76 83 74 84 53 85 54 86 62 87 55 88
REMARK SMILES IDX 56 89 60 90 63 91 57 92 58 93 61 94 59 95
REMARK H PARENT 19 4 5 12 5 13 24 29 83 48 51 59
REMARK Flexibility Score: inf
ROOT
ATOM      1  C   UNL A   1      38.766  23.786  26.765  1.00  0.00     0.220 C 
ATOM      2  O   UNL A   1      38.635  24.941  27.174  1.00  0.00    -0.275 OA
ATOM      3  N   UNL A   1      39.809  23.052  27.239  1.00  0.00    -0.356 N 
ATOM      4  H   UNL A   1      40.352  23.497  27.928  1.00  0.00     0.163 HD
ENDROOT
BRANCH   1   5
ATOM      5  C   UNL A   1      37.796  23.199  25.752  1.00  0.00     0.100 C 
BRANCH   5   6
ATOM      6  C   UNL A   1      36.376  23.749  25.927  1.00  0.00     0.013 C 
BRANCH   6   7
ATOM      7  C   UNL A   1      35.222  22.784  25.534  1.00  0.00    -0.008 C 
ATOM      8  C   UNL A   1      34.080  23.616  24.946  1.00  0.00     0.008 C 
BRANCH   7   9
ATOM      9  C   UNL A   1      34.825  21.846  26.722  1.00  0.00     0.064 C 
BRANCH   9  10
ATOM     10  C   UNL A   1      33.442  21.120  26.826  1.00  0.00     0.261 C 
BRANCH  10  11
ATOM     11  N   UNL A   1      33.348  19.902  26.059  1.00  0.00    -0.344 N 
ATOM     12  H   UNL A   1      32.364  19.636  26.079  1.00  0.00     0.346 HD
ATOM     13  H   UNL A   1      34.052  19.325  26.520  1.00  0.00     0.346 HD
BRANCH  11  14
ATOM     14  C   UNL A   1      33.764  19.791  24.656  1.00  0.00     0.187 C 
ATOM     15  C   UNL A   1      32.759  19.797  23.478  1.00  0.00     0.093 C 
ATOM     16  C   UNL A   1      34.633  18.518  24.615  1.00  0.00     0.100 C 
ATOM     17  C   UNL A   1      32.126  18.462  23.087  1.00  0.00     0.167 C 
ATOM     18  C   UNL A   1      33.698  17.326  24.507  1.00  0.00     0.074 C 
ATOM     19  O   UNL A   1      33.051  17.388  23.215  1.00  0.00    -0.375 OA
ATOM     20  C   UNL A   1      34.276  15.933  24.891  1.00  0.00     0.036 C 
ATOM     21  C   UNL A   1      32.734  17.123  25.717  1.00  0.00     0.036 C 
ATOM     22  C   UNL A   1      32.891  15.646  25.487  1.00  0.00     0.006 C 
ENDBRANCH  11  14
ENDBRANCH  10  11
ENDBRANCH   9  10
ENDBRANCH   7   9
ENDBRANCH   6   7
ENDBRANCH   5   6
ENDBRANCH   1   5
BRANCH   3  23
ATOM     23  C   UNL A   1      40.242  21.716  26.884  1.00  0.00     0.116 C 
BRANCH  23  24
ATOM     24  C   UNL A   1      41.684  21.475  27.326  1.00  0.00     0.023 C 
BRANCH  24  25
ATOM     25  C   UNL A   1      42.262  20.069  27.127  1.00  0.00     0.023 C 
BRANCH  25  26
ATOM     26  C   UNL A   1      42.339  19.456  25.725  1.00  0.00     0.116 C 
BRANCH  26  27
ATOM     27  N   UNL A   1      43.610  18.831  25.370  1.00  0.00    -0.352 N 
ATOM     28  C   UNL A   1      44.718  19.387  24.762  1.00  0.00     0.251 C 
ATOM     29  H   UNL A   1      43.688  17.876  25.595  1.00  0.00     0.163 HD
ATOM     30  O   UNL A   1      45.623  18.728  24.270  1.00  0.00    -0.269 OA
BRANCH  28  31
ATOM     31  C   UNL A   1      44.869  20.834  24.832  1.00  0.00     0.039 A 
ATOM     32  C   UNL A   1      44.417  21.682  23.819  1.00  0.00     0.014 A 
ATOM     33  C   UNL A   1      45.510  21.313  25.973  1.00  0.00     0.014 A 
ATOM     34  C   UNL A   1      44.544  23.055  24.003  1.00  0.00     0.010 A 
ATOM     35  C   UNL A   1      45.527  22.662  26.203  1.00  0.00     0.010 A 
ATOM     36  C   UNL A   1      45.066  23.539  25.212  1.00  0.00    -0.014 A 
BRANCH  36  37
ATOM     37  C   UNL A   1      45.194  24.967  25.528  1.00  0.00     0.031 A 
ATOM     38  C   UNL A   1      46.554  25.587  25.421  1.00  0.00     0.074 A 
ATOM     39  C   UNL A   1      44.159  25.585  26.121  1.00  0.00     0.049 A 
ATOM     40  N   UNL A   1      46.998  26.701  25.933  1.00  0.00    -0.248 NA
ATOM     41  C   UNL A   1      47.579  24.791  24.720  1.00  0.00     0.031 C 
ATOM     42  C   UNL A   1      42.836  24.996  26.349  1.00  0.00     0.029 A 
ATOM     43  N   UNL A   1      44.073  26.827  26.682  1.00  0.00    -0.354 N 
ATOM     44  C   UNL A   1      48.361  26.709  25.666  1.00  0.00     0.074 A 
ATOM     45  C   UNL A   1      48.681  25.463  25.009  1.00  0.00     0.031 C 
ATOM     46  C   UNL A   1      42.064  25.888  26.989  1.00  0.00     0.029 A 
ATOM     47  C   UNL A   1      42.850  27.087  27.245  1.00  0.00     0.049 A 
ATOM     48  H   UNL A   1      44.817  27.472  26.681  1.00  0.00     0.167 HD
ATOM     49  C   UNL A   1      49.252  27.692  25.931  1.00  0.00     0.037 A 
ATOM     50  C   UNL A   1      42.430  28.184  27.899  1.00  0.00     0.037 A 
ATOM     51  C   UNL A   1      48.871  28.941  26.532  1.00  0.00     0.049 A 
ATOM     52  C   UNL A   1      43.408  29.311  28.073  1.00  0.00     0.074 A 
ATOM     53  C   UNL A   1      49.641  30.063  26.767  1.00  0.00     0.029 A 
ATOM     54  N   UNL A   1      47.585  29.231  26.974  1.00  0.00    -0.354 N 
ATOM     55  N   UNL A   1      44.681  29.354  27.757  1.00  0.00    -0.248 NA
ATOM     56  C   UNL A   1      42.893  30.543  28.679  1.00  0.00     0.031 C 
ATOM     57  C   UNL A   1      48.823  31.027  27.369  1.00  0.00     0.029 A 
ATOM     58  C   UNL A   1      47.536  30.517  27.478  1.00  0.00     0.049 A 
ATOM     59  H   UNL A   1      46.822  28.610  26.935  1.00  0.00     0.167 HD
ATOM     60  C   UNL A   1      45.119  30.622  28.103  1.00  0.00     0.074 A 
ATOM     61  C   UNL A   1      43.966  31.322  28.639  1.00  0.00     0.031 C 
ATOM     62  C   UNL A   1      46.357  31.165  27.995  1.00  0.00     0.037 A 
BRANCH  49  63
ATOM     63  C   UNL A   1      50.686  27.450  25.553  1.00  0.00     0.064 A 
ATOM     64  C   UNL A   1      51.158  27.699  24.254  1.00  0.00     0.173 A 
ATOM     65  C   UNL A   1      51.598  26.943  26.492  1.00  0.00     0.173 A 
ATOM     66  F   UNL A   1      50.326  28.168  23.311  1.00  0.00    -0.203 F 
ATOM     67  C   UNL A   1      52.472  27.407  23.897  1.00  0.00     0.198 A 
ATOM     68  C   UNL A   1      52.921  26.685  26.140  1.00  0.00     0.198 A 
ATOM     69  F   UNL A   1      51.204  26.686  27.747  1.00  0.00    -0.203 F 
ATOM     70  F   UNL A   1      52.875  27.586  22.631  1.00  0.00    -0.200 F 
ATOM     71  C   UNL A   1      53.354  26.906  24.840  1.00  0.00     0.200 A 
ATOM     72  F   UNL A   1      53.777  26.209  27.056  1.00  0.00    -0.200 F 
ATOM     73  F   UNL A   1      54.618  26.621  24.495  1.00  0.00    -0.200 F 
ENDBRANCH  49  63
BRANCH  50  74
ATOM     74  C   UNL A   1      41.017  28.280  28.340  1.00  0.00     0.064 A 
ATOM     75  C   UNL A   1      40.645  27.831  29.614  1.00  0.00     0.173 A 
ATOM     76  C   UNL A   1      40.028  28.872  27.542  1.00  0.00     0.173 A 
ATOM     77  F   UNL A   1      41.557  27.255  30.412  1.00  0.00    -0.203 F 
ATOM     78  C   UNL A   1      39.334  27.954  30.069  1.00  0.00     0.198 A 
ATOM     79  C   UNL A   1      38.721  29.016  28.007  1.00  0.00     0.198 A 
ATOM     80  F   UNL A   1      40.337  29.339  26.323  1.00  0.00    -0.203 F 
ATOM     81  F   UNL A   1      39.003  27.493  31.282  1.00  0.00    -0.200 F 
ATOM     82  C   UNL A   1      38.375  28.553  29.268  1.00  0.00     0.200 A 
ATOM     83  F   UNL A   1      37.801  29.614  27.238  1.00  0.00    -0.200 F 
ATOM     84  F   UNL A   1      37.117  28.685  29.711  1.00  0.00    -0.200 F 
ENDBRANCH  50  74
BRANCH  62  85
ATOM     85  C   UNL A   1      46.505  32.585  28.443  1.00  0.00     0.064 A 
ATOM     86  C   UNL A   1      46.874  32.898  29.758  1.00  0.00     0.173 A 
ATOM     87  C   UNL A   1      46.323  33.636  27.533  1.00  0.00     0.173 A 
ATOM     88  F   UNL A   1      47.043  31.922  30.663  1.00  0.00    -0.203 F 
ATOM     89  C   UNL A   1      47.034  34.221  30.154  1.00  0.00     0.198 A 
ATOM     90  C   UNL A   1      46.511  34.957  27.927  1.00  0.00     0.198 A 
ATOM     91  F   UNL A   1      45.977  33.380  26.263  1.00  0.00    -0.203 F 
ATOM     92  F   UNL A   1      47.345  34.504  31.427  1.00  0.00    -0.200 F 
ATOM     93  C   UNL A   1      46.860  35.248  29.237  1.00  0.00     0.200 A 
ATOM     94  F   UNL A   1      46.354  35.947  27.037  1.00  0.00    -0.200 F 
ATOM     95  F   UNL A   1      47.023  36.522  29.618  1.00  0.00    -0.200 F 
ENDBRANCH  62  85
ENDBRANCH  36  37
ENDBRANCH  28  31
ENDBRANCH  26  27
ENDBRANCH  25  26
ENDBRANCH  24  25
ENDBRANCH  23  24
ENDBRANCH   3  23
TORSDOF 17
ENDMDL
MODEL 2
REMARK VINA RESULT:     -11.1      7.673     13.146
REMARK SMILES C[C@H](CC[NH2+][C@@H]1CCOC2(CCC2)C1)CCC(=O)NCCCCNC(=O)c1ccc(-c2c3nc(c(-c4c(F)c(F)c(F)c(F)c4F)c4ccc([nH]4)c(-c4c(F)c(F)c(F)c(F)c4F)c4nc(c(-c5c(F)c(F)c(F)c(F)c5F)c5ccc2[nH]5)C=C4)C=C3)cc1
REMARK SMILES IDX 17 1 18 2 19 3 16 5 15 6 2 7 1 8 3 9 4 10 5 11 6 14 7 15
REMARK SMILES IDX 14 16 8 17 10 18 9 19 11 20 13 21 12 22 20 23 21 24 22 25
REMARK SMILES IDX 23 26 24 27 25 28 26 30 27 31 28 32 89 33 29 34 88 35 30 36
REMARK SMILES IDX 31 37 32 38 82 39 33 40 87 41 81 42 83 43 34 44 86 45 80 46
REMARK SMILES IDX 79 47 35 49 67 50 47 51 66 52 48 53 51 54 65 55 84 56 49 57
REMARK SMILES IDX 50 58 64 60 85 61 52 62 36 63 37 64 45 65 38 66 39 67 43 68
REMARK SMILES IDX 46 69 40 70 41 71 44 72 42 73 68 74 69 75 77 76 70 77 71 78
REMARK SMILES IDX 75 79 78 80 72 81 73 82 76 83 74 84 53 85 54 86 62 87 55 88
REMARK SMILES IDX 56 89 60 90 63 91 57 92 58 93 61 94 59 95
REMARK H PARENT 19 4 5 12 5 13 24 29 83 48 51 59
REMARK Flexibility Score: inf
ROOT
ATOM      1  C   UNL A   1      35.521  30.149  27.624  1.00  0.00     0.220 C 
ATOM      2  O   UNL A   1      36.661  29.682  27.616  1.00  0.00    -0.275 OA
ATOM      3  N   UNL A   1      35.381  31.497  27.750  1.00  0.00    -0.356 N 
ATOM      4  H   UNL A   1      36.225  32.003  27.768  1.00  0.00     0.163 HD
ENDROOT
BRANCH   1   5
ATOM      5  C   UNL A   1      34.304  29.246  27.506  1.00  0.00     0.100 C 
BRANCH   5   6
ATOM      6  C   UNL A   1      34.210  28.580  26.129  1.00  0.00     0.013 C 
BRANCH   6   7
ATOM      7  C   UNL A   1      33.719  27.105  26.121  1.00  0.00    -0.008 C 
ATOM      8  C   UNL A   1      34.049  26.497  24.756  1.00  0.00     0.008 C 
BRANCH   7   9
ATOM      9  C   UNL A   1      32.222  26.993  26.561  1.00  0.00     0.064 C 
BRANCH   9  10
ATOM     10  C   UNL A   1      31.300  25.783  26.191  1.00  0.00     0.261 C 
BRANCH  10  11
ATOM     11  N   UNL A   1      30.112  26.143  25.456  1.00  0.00    -0.344 N 
ATOM     12  H   UNL A   1      30.089  27.163  25.446  1.00  0.00     0.346 HD
ATOM     13  H   UNL A   1      29.400  25.613  25.960  1.00  0.00     0.346 HD
BRANCH  11  14
ATOM     14  C   UNL A   1      29.853  25.724  24.074  1.00  0.00     0.187 C 
ATOM     15  C   UNL A   1      30.977  25.533  23.028  1.00  0.00     0.093 C 
ATOM     16  C   UNL A   1      28.804  26.732  23.559  1.00  0.00     0.100 C 
ATOM     17  C   UNL A   1      31.433  26.770  22.252  1.00  0.00     0.167 C 
ATOM     18  C   UNL A   1      29.546  27.981  23.117  1.00  0.00     0.074 C 
ATOM     19  O   UNL A   1      30.342  27.635  21.961  1.00  0.00    -0.375 OA
ATOM     20  C   UNL A   1      28.714  29.289  22.981  1.00  0.00     0.036 C 
ATOM     21  C   UNL A   1      30.316  28.734  24.245  1.00  0.00     0.036 C 
ATOM     22  C   UNL A   1      29.956  30.005  23.528  1.00  0.00     0.006 C 
ENDBRANCH  11  14
ENDBRANCH  10  11
ENDBRANCH   9  10
ENDBRANCH   7   9
ENDBRANCH   6   7
ENDBRANCH   5   6
ENDBRANCH   1   5
BRANCH   3  23
ATOM     23  C   UNL A   1      34.182  32.300  27.862  1.00  0.00     0.116 C 
BRANCH  23  24
ATOM     24  C   UNL A   1      34.288  33.280  29.028  1.00  0.00     0.023 C 
BRANCH  24  25
ATOM     25  C   UNL A   1      33.240  34.397  29.116  1.00  0.00     0.023 C 
BRANCH  25  26
ATOM     26  C   UNL A   1      33.671  35.839  29.403  1.00  0.00     0.116 C 
BRANCH  26  27
ATOM     27  N   UNL A   1      32.946  36.520  30.473  1.00  0.00    -0.352 N 
ATOM     28  C   UNL A   1      32.775  36.145  31.790  1.00  0.00     0.251 C 
ATOM     29  H   UNL A   1      32.518  37.369  30.217  1.00  0.00     0.163 HD
ATOM     30  O   UNL A   1      31.938  36.640  32.533  1.00  0.00    -0.269 OA
BRANCH  28  31
ATOM     31  C   UNL A   1      33.732  35.201  32.351  1.00  0.00     0.039 A 
ATOM     32  C   UNL A   1      33.376  33.901  32.710  1.00  0.00     0.014 A 
ATOM     33  C   UNL A   1      35.026  35.691  32.518  1.00  0.00     0.014 A 
ATOM     34  C   UNL A   1      34.372  33.048  33.175  1.00  0.00     0.010 A 
ATOM     35  C   UNL A   1      36.023  34.820  32.864  1.00  0.00     0.010 A 
ATOM     36  C   UNL A   1      35.699  33.502  33.214  1.00  0.00    -0.014 A 
BRANCH  36  37
ATOM     37  C   UNL A   1      36.831  32.668  33.638  1.00  0.00     0.031 A 
ATOM     38  C   UNL A   1      37.495  33.001  34.940  1.00  0.00     0.074 A 
ATOM     39  C   UNL A   1      37.365  31.818  32.747  1.00  0.00     0.049 A 
ATOM     40  N   UNL A   1      38.671  32.652  35.382  1.00  0.00    -0.248 NA
ATOM     41  C   UNL A   1      36.769  33.936  35.821  1.00  0.00     0.031 C 
ATOM     42  C   UNL A   1      36.821  31.529  31.416  1.00  0.00     0.029 A 
ATOM     43  N   UNL A   1      38.511  31.077  32.808  1.00  0.00    -0.354 N 
ATOM     44  C   UNL A   1      38.847  33.368  36.559  1.00  0.00     0.074 A 
ATOM     45  C   UNL A   1      37.691  34.217  36.727  1.00  0.00     0.031 C 
ATOM     46  C   UNL A   1      37.628  30.655  30.794  1.00  0.00     0.029 A 
ATOM     47  C   UNL A   1      38.757  30.359  31.666  1.00  0.00     0.049 A 
ATOM     48  H   UNL A   1      39.102  31.060  33.596  1.00  0.00     0.167 HD
ATOM     49  C   UNL A   1      39.881  33.292  37.428  1.00  0.00     0.037 A 
ATOM     50  C   UNL A   1      39.794  29.555  31.372  1.00  0.00     0.037 A 
ATOM     51  C   UNL A   1      40.980  32.383  37.248  1.00  0.00     0.049 A 
ATOM     52  C   UNL A   1      40.869  29.395  32.408  1.00  0.00     0.074 A 
ATOM     53  C   UNL A   1      42.041  32.124  38.091  1.00  0.00     0.029 A 
ATOM     54  N   UNL A   1      41.135  31.563  36.135  1.00  0.00    -0.354 N 
ATOM     55  N   UNL A   1      41.005  30.014  33.557  1.00  0.00    -0.248 NA
ATOM     56  C   UNL A   1      41.926  28.421  32.117  1.00  0.00     0.031 C 
ATOM     57  C   UNL A   1      42.851  31.159  37.480  1.00  0.00     0.029 A 
ATOM     58  C   UNL A   1      42.274  30.792  36.271  1.00  0.00     0.049 A 
ATOM     59  H   UNL A   1      40.524  31.537  35.364  1.00  0.00     0.167 HD
ATOM     60  C   UNL A   1      42.148  29.492  34.141  1.00  0.00     0.074 A 
ATOM     61  C   UNL A   1      42.657  28.491  33.221  1.00  0.00     0.031 C 
ATOM     62  C   UNL A   1      42.731  29.806  35.324  1.00  0.00     0.037 A 
BRANCH  49  63
ATOM     63  C   UNL A   1      39.842  34.189  38.633  1.00  0.00     0.064 A 
ATOM     64  C   UNL A   1      39.261  33.775  39.843  1.00  0.00     0.173 A 
ATOM     65  C   UNL A   1      40.372  35.487  38.576  1.00  0.00     0.173 A 
ATOM     66  F   UNL A   1      38.724  32.550  39.950  1.00  0.00    -0.203 F 
ATOM     67  C   UNL A   1      39.171  34.639  40.931  1.00  0.00     0.198 A 
ATOM     68  C   UNL A   1      40.311  36.337  39.679  1.00  0.00     0.198 A 
ATOM     69  F   UNL A   1      40.939  35.938  37.447  1.00  0.00    -0.203 F 
ATOM     70  F   UNL A   1      38.546  34.242  42.048  1.00  0.00    -0.200 F 
ATOM     71  C   UNL A   1      39.700  35.917  40.851  1.00  0.00     0.200 A 
ATOM     72  F   UNL A   1      40.832  37.570  39.603  1.00  0.00    -0.200 F 
ATOM     73  F   UNL A   1      39.609  36.749  41.897  1.00  0.00    -0.200 F 
ENDBRANCH  49  63
BRANCH  50  74
ATOM     74  C   UNL A   1      39.797  28.797  30.097  1.00  0.00     0.064 A 
ATOM     75  C   UNL A   1      40.379  29.352  28.950  1.00  0.00     0.173 A 
ATOM     76  C   UNL A   1      39.287  27.495  30.004  1.00  0.00     0.173 A 
ATOM     77  F   UNL A   1      40.878  30.598  28.989  1.00  0.00    -0.203 F 
ATOM     78  C   UNL A   1      40.438  28.641  27.753  1.00  0.00     0.198 A 
ATOM     79  C   UNL A   1      39.366  26.775  28.813  1.00  0.00     0.198 A 
ATOM     80  F   UNL A   1      38.740  26.909  31.080  1.00  0.00    -0.203 F 
ATOM     81  F   UNL A   1      40.978  29.207  26.666  1.00  0.00    -0.200 F 
ATOM     82  C   UNL A   1      39.937  27.350  27.687  1.00  0.00     0.200 A 
ATOM     83  F   UNL A   1      38.900  25.519  28.759  1.00  0.00    -0.200 F 
ATOM     84  F   UNL A   1      40.006  26.661  26.541  1.00  0.00    -0.200 F 
ENDBRANCH  50  74
BRANCH  62  85
ATOM     85  C   UNL A   1      43.963  29.037  35.687  1.00  0.00     0.064 A 
ATOM     86  C   UNL A   1      45.237  29.489  35.319  1.00  0.00     0.173 A 
ATOM     87  C   UNL A   1      43.866  27.866  36.451  1.00  0.00     0.173 A 
ATOM     88  F   UNL A   1      45.372  30.598  34.575  1.00  0.00    -0.203 F 
ATOM     89  C   UNL A   1      46.375  28.779  35.685  1.00  0.00     0.198 A 
ATOM     90  C   UNL A   1      45.008  27.174  36.837  1.00  0.00     0.198 A 
ATOM     91  F   UNL A   1      42.666  27.402  36.830  1.00  0.00    -0.203 F 
ATOM     92  F   UNL A   1      47.583  29.204  35.287  1.00  0.00    -0.200 F 
ATOM     93  C   UNL A   1      46.260  27.628  36.449  1.00  0.00     0.200 A 
ATOM     94  F   UNL A   1      44.897  26.068  37.586  1.00  0.00    -0.200 F 
ATOM     95  F   UNL A   1      47.358  26.949  36.809  1.00  0.00    -0.200 F 
ENDBRANCH  62  85
ENDBRANCH  36  37
ENDBRANCH  28  31
ENDBRANCH  26  27
ENDBRANCH  25  26
ENDBRANCH  24  25
ENDBRANCH  23  24
ENDBRANCH   3  23
TORSDOF 17
ENDMDL
MODEL 3
REMARK VINA RESULT:     -11.1      6.683     11.151
REMARK SMILES C[C@H](CC[NH2+][C@@H]1CCOC2(CCC2)C1)CCC(=O)NCCCCNC(=O)c1ccc(-c2c3nc(c(-c4c(F)c(F)c(F)c(F)c4F)c4ccc([nH]4)c(-c4c(F)c(F)c(F)c(F)c4F)c4nc(c(-c5c(F)c(F)c(F)c(F)c5F)c5ccc2[nH]5)C=C4)C=C3)cc1
REMARK SMILES IDX 17 1 18 2 19 3 16 5 15 6 2 7 1 8 3 9 4 10 5 11 6 14 7 15
REMARK SMILES IDX 14 16 8 17 10 18 9 19 11 20 13 21 12 22 20 23 21 24 22 25
REMARK SMILES IDX 23 26 24 27 25 28 26 30 27 31 28 32 89 33 29 34 88 35 30 36
REMARK SMILES IDX 31 37 32 38 82 39 33 40 87 41 81 42 83 43 34 44 86 45 80 46
REMARK SMILES IDX 79 47 35 49 67 50 47 51 66 52 48 53 51 54 65 55 84 56 49 57
REMARK SMILES IDX 50 58 64 60 85 61 52 62 36 63 37 64 45 65 38 66 39 67 43 68
REMARK SMILES IDX 46 69 40 70 41 71 44 72 42 73 68 74 69 75 77 76 70 77 71 78
REMARK SMILES IDX 75 79 78 80 72 81 73 82 76 83 74 84 53 85 54 86 62 87 55 88
REMARK SMILES IDX 56 89 60 90 63 91 57 92 58 93 61 94 59 95
REMARK H PARENT 19 4 5 12 5 13 24 29 83 48 51 59
REMARK Flexibility Score: inf
ROOT
ATOM      1  C   UNL A   1      31.979  28.485  27.266  1.00  0.00     0.220 C 
ATOM      2  O   UNL A   1      31.121  27.931  27.956  1.00  0.00    -0.275 OA
ATOM      3  N   UNL A   1      33.242  28.577  27.766  1.00  0.00    -0.356 N 
ATOM      4  H   UNL A   1      33.380  28.133  28.633  1.00  0.00     0.163 HD
ENDROOT
BRANCH   1   5
ATOM      5  C   UNL A   1      31.636  29.057  25.900  1.00  0.00     0.100 C 
BRANCH   5   6
ATOM      6  C   UNL A   1      31.385  27.959  24.861  1.00  0.00     0.013 C 
BRANCH   6   7
ATOM      7  C   UNL A   1      31.614  28.364  23.378  1.00  0.00    -0.008 C 
ATOM      8  C   UNL A   1      30.466  27.794  22.542  1.00  0.00     0.008 C 
BRANCH   7   9
ATOM      9  C   UNL A   1      33.052  27.982  22.890  1.00  0.00     0.064 C 
BRANCH   9  10
ATOM     10  C   UNL A   1      33.359  26.736  21.995  1.00  0.00     0.261 C 
BRANCH  10  11
ATOM     11  N   UNL A   1      33.136  25.467  22.645  1.00  0.00    -0.344 N 
ATOM     12  H   UNL A   1      32.854  24.822  21.906  1.00  0.00     0.346 HD
ATOM     13  H   UNL A   1      32.479  25.734  23.379  1.00  0.00     0.346 HD
BRANCH  11  14
ATOM     14  C   UNL A   1      34.160  24.760  23.423  1.00  0.00     0.187 C 
ATOM     15  C   UNL A   1      34.428  23.242  23.277  1.00  0.00     0.093 C 
ATOM     16  C   UNL A   1      33.835  25.111  24.889  1.00  0.00     0.100 C 
ATOM     17  C   UNL A   1      33.566  22.293  24.110  1.00  0.00     0.167 C 
ATOM     18  C   UNL A   1      32.734  24.174  25.353  1.00  0.00     0.074 C 
ATOM     19  O   UNL A   1      33.281  22.836  25.393  1.00  0.00    -0.375 OA
ATOM     20  C   UNL A   1      31.927  24.597  26.615  1.00  0.00     0.036 C 
ATOM     21  C   UNL A   1      31.379  24.309  24.592  1.00  0.00     0.036 C 
ATOM     22  C   UNL A   1      30.708  23.997  25.900  1.00  0.00     0.006 C 
ENDBRANCH  11  14
ENDBRANCH  10  11
ENDBRANCH   9  10
ENDBRANCH   7   9
ENDBRANCH   6   7
ENDBRANCH   5   6
ENDBRANCH   1   5
BRANCH   3  23
ATOM     23  C   UNL A   1      34.412  29.229  27.216  1.00  0.00     0.116 C 
BRANCH  23  24
ATOM     24  C   UNL A   1      34.713  30.528  27.959  1.00  0.00     0.023 C 
BRANCH  24  25
ATOM     25  C   UNL A   1      34.223  31.837  27.328  1.00  0.00     0.023 C 
BRANCH  25  26
ATOM     26  C   UNL A   1      32.828  32.379  27.659  1.00  0.00     0.116 C 
BRANCH  26  27
ATOM     27  N   UNL A   1      32.716  33.832  27.763  1.00  0.00    -0.352 N 
ATOM     28  C   UNL A   1      33.203  34.679  28.737  1.00  0.00     0.251 C 
ATOM     29  H   UNL A   1      32.220  34.269  27.032  1.00  0.00     0.163 HD
ATOM     30  O   UNL A   1      32.833  35.838  28.874  1.00  0.00    -0.269 OA
BRANCH  28  31
ATOM     31  C   UNL A   1      34.308  34.199  29.555  1.00  0.00     0.039 A 
ATOM     32  C   UNL A   1      34.109  33.425  30.699  1.00  0.00     0.014 A 
ATOM     33  C   UNL A   1      35.579  34.580  29.126  1.00  0.00     0.014 A 
ATOM     34  C   UNL A   1      35.227  32.955  31.381  1.00  0.00     0.010 A 
ATOM     35  C   UNL A   1      36.674  34.022  29.727  1.00  0.00     0.010 A 
ATOM     36  C   UNL A   1      36.506  33.226  30.868  1.00  0.00    -0.014 A 
BRANCH  36  37
ATOM     37  C   UNL A   1      37.747  32.735  31.480  1.00  0.00     0.031 A 
ATOM     38  C   UNL A   1      38.475  31.623  30.787  1.00  0.00     0.074 A 
ATOM     39  C   UNL A   1      38.040  33.125  32.731  1.00  0.00     0.049 A 
ATOM     40  N   UNL A   1      39.380  30.809  31.253  1.00  0.00    -0.248 NA
ATOM     41  C   UNL A   1      38.050  31.329  29.404  1.00  0.00     0.031 C 
ATOM     42  C   UNL A   1      37.303  34.132  33.501  1.00  0.00     0.029 A 
ATOM     43  N   UNL A   1      39.006  32.687  33.591  1.00  0.00    -0.354 N 
ATOM     44  C   UNL A   1      39.589  29.876  30.246  1.00  0.00     0.074 A 
ATOM     45  C   UNL A   1      38.671  30.184  29.173  1.00  0.00     0.031 C 
ATOM     46  C   UNL A   1      37.859  34.246  34.717  1.00  0.00     0.029 A 
ATOM     47  C   UNL A   1      38.959  33.296  34.819  1.00  0.00     0.049 A 
ATOM     48  H   UNL A   1      39.671  32.002  33.352  1.00  0.00     0.167 HD
ATOM     49  C   UNL A   1      40.492  28.869  30.222  1.00  0.00     0.037 A 
ATOM     50  C   UNL A   1      39.730  33.091  35.901  1.00  0.00     0.037 A 
ATOM     51  C   UNL A   1      41.427  28.643  31.290  1.00  0.00     0.049 A 
ATOM     52  C   UNL A   1      40.806  32.048  35.804  1.00  0.00     0.074 A 
ATOM     53  C   UNL A   1      42.461  27.730  31.361  1.00  0.00     0.029 A 
ATOM     54  N   UNL A   1      41.443  29.369  32.476  1.00  0.00    -0.354 N 
ATOM     55  N   UNL A   1      41.057  31.210  34.826  1.00  0.00    -0.248 NA
ATOM     56  C   UNL A   1      41.711  31.927  36.951  1.00  0.00     0.031 C 
ATOM     57  C   UNL A   1      43.093  27.892  32.600  1.00  0.00     0.029 A 
ATOM     58  C   UNL A   1      42.473  28.929  33.286  1.00  0.00     0.049 A 
ATOM     59  H   UNL A   1      40.813  30.090  32.705  1.00  0.00     0.167 HD
ATOM     60  C   UNL A   1      42.163  30.476  35.224  1.00  0.00     0.074 A 
ATOM     61  C   UNL A   1      42.542  30.983  36.530  1.00  0.00     0.031 C 
ATOM     62  C   UNL A   1      42.809  29.474  34.578  1.00  0.00     0.037 A 
BRANCH  49  63
ATOM     63  C   UNL A   1      40.510  27.981  29.011  1.00  0.00     0.064 A 
ATOM     64  C   UNL A   1      41.273  28.298  27.875  1.00  0.00     0.173 A 
ATOM     65  C   UNL A   1      39.740  26.808  28.971  1.00  0.00     0.173 A 
ATOM     66  F   UNL A   1      42.016  29.416  27.851  1.00  0.00    -0.203 F 
ATOM     67  C   UNL A   1      41.230  27.503  26.733  1.00  0.00     0.198 A 
ATOM     68  C   UNL A   1      39.727  25.996  27.839  1.00  0.00     0.198 A 
ATOM     69  F   UNL A   1      38.991  26.454  30.026  1.00  0.00    -0.203 F 
ATOM     70  F   UNL A   1      41.911  27.869  25.638  1.00  0.00    -0.200 F 
ATOM     71  C   UNL A   1      40.461  26.350  26.716  1.00  0.00     0.200 A 
ATOM     72  F   UNL A   1      38.990  24.876  27.827  1.00  0.00    -0.200 F 
ATOM     73  F   UNL A   1      40.417  25.588  25.615  1.00  0.00    -0.200 F 
ENDBRANCH  49  63
BRANCH  50  74
ATOM     74  C   UNL A   1      39.555  33.947  37.100  1.00  0.00     0.064 A 
ATOM     75  C   UNL A   1      40.108  35.234  37.132  1.00  0.00     0.173 A 
ATOM     76  C   UNL A   1      38.792  33.537  38.202  1.00  0.00     0.173 A 
ATOM     77  F   UNL A   1      40.850  35.670  36.102  1.00  0.00    -0.203 F 
ATOM     78  C   UNL A   1      39.917  36.075  38.227  1.00  0.00     0.198 A 
ATOM     79  C   UNL A   1      38.582  34.387  39.287  1.00  0.00     0.198 A 
ATOM     80  F   UNL A   1      38.222  32.322  38.210  1.00  0.00    -0.203 F 
ATOM     81  F   UNL A   1      40.478  37.291  38.241  1.00  0.00    -0.200 F 
ATOM     82  C   UNL A   1      39.149  35.652  39.301  1.00  0.00     0.200 A 
ATOM     83  F   UNL A   1      37.820  33.984  40.314  1.00  0.00    -0.200 F 
ATOM     84  F   UNL A   1      38.953  36.466  40.347  1.00  0.00    -0.200 F 
ENDBRANCH  50  74
BRANCH  62  85
ATOM     85  C   UNL A   1      43.999  28.890  35.272  1.00  0.00     0.064 A 
ATOM     86  C   UNL A   1      43.864  27.834  36.182  1.00  0.00     0.173 A 
ATOM     87  C   UNL A   1      45.287  29.361  34.984  1.00  0.00     0.173 A 
ATOM     88  F   UNL A   1      42.647  27.364  36.497  1.00  0.00    -0.203 F 
ATOM     89  C   UNL A   1      44.981  27.283  36.800  1.00  0.00     0.198 A 
ATOM     90  C   UNL A   1      46.403  28.789  35.584  1.00  0.00     0.198 A 
ATOM     91  F   UNL A   1      45.462  30.366  34.113  1.00  0.00    -0.203 F 
ATOM     92  F   UNL A   1      44.829  26.301  37.701  1.00  0.00    -0.200 F 
ATOM     93  C   UNL A   1      46.249  27.755  36.496  1.00  0.00     0.200 A 
ATOM     94  F   UNL A   1      47.629  29.239  35.280  1.00  0.00    -0.200 F 
ATOM     95  F   UNL A   1      47.325  27.218  37.085  1.00  0.00    -0.200 F 
ENDBRANCH  62  85
ENDBRANCH  36  37
ENDBRANCH  28  31
ENDBRANCH  26  27
ENDBRANCH  25  26
ENDBRANCH  24  25
ENDBRANCH  23  24
ENDBRANCH   3  23
TORSDOF 17
ENDMDL
