MODEL 1
REMARK VINA RESULT:     -11.0      0.000      0.000
REMARK SMILES COC(=O)C[C@H](NC(=O)N(C)C[C@@H]1CCC[N@H+]1C)C(=O)NCCCCNC(=O)c1ccc(-c2c3nc(c(-c4c(F)c(F)c(F)c(F)c4F)c4ccc([nH]4)c(-c4c(F)c(F)c(F)c(F)c4F)c4nc(c(-c5c(F)c(F)c(F)c(F)c5F)c5ccc2[nH]5)C=C4)C=C3)cc1
REMARK SMILES IDX 22 1 21 2 19 3 20 4 6 6 5 7 3 8 4 9 2 10 1 11 7 12 8 13 9 15
REMARK SMILES IDX 10 16 11 17 12 18 13 19 14 20 17 21 15 22 16 23 18 24 23 26
REMARK SMILES IDX 24 27 25 28 26 29 27 30 28 32 29 33 30 34 91 35 31 36 90 37
REMARK SMILES IDX 32 38 33 39 34 40 84 41 35 42 89 43 83 44 85 45 36 46 88 47
REMARK SMILES IDX 82 48 81 49 37 51 69 52 49 53 68 54 50 55 53 56 67 57 86 58
REMARK SMILES IDX 51 59 52 60 66 62 87 63 54 64 38 65 39 66 47 67 40 68 41 69
REMARK SMILES IDX 45 70 48 71 42 72 43 73 46 74 44 75 70 76 71 77 79 78 72 79
REMARK SMILES IDX 73 80 77 81 80 82 74 83 75 84 78 85 76 86 55 87 56 88 64 89
REMARK SMILES IDX 57 90 58 91 62 92 65 93 59 94 60 95 63 96 61 97
REMARK H PARENT 21 5 7 14 17 25 26 31 85 50 53 61
REMARK Flexibility Score: inf
ROOT
ATOM      1  C   UNL A   1      32.110  29.188  27.368  1.00  0.00     0.116 C 
ENDROOT
BRANCH   1   2
ATOM      2  N   UNL A   1      33.010  28.090  27.092  1.00  0.00    -0.354 N 
ATOM      3  C   UNL A   1      32.855  27.082  26.152  1.00  0.00     0.243 C 
ATOM      4  O   UNL A   1      33.867  26.415  25.904  1.00  0.00    -0.273 OA
ATOM      5  H   UNL A   1      33.831  28.054  27.636  1.00  0.00     0.163 HD
BRANCH   3   6
ATOM      6  C   UNL A   1      31.474  26.682  25.473  1.00  0.00     0.184 C 
BRANCH   6   7
ATOM      7  C   UNL A   1      30.539  25.712  26.200  1.00  0.00     0.157 C 
BRANCH   7   8
ATOM      8  C   UNL A   1      30.847  24.244  26.121  1.00  0.00     0.308 C 
ATOM      9  O   UNL A   1      30.821  23.602  25.086  1.00  0.00    -0.252 OA
BRANCH   8  10
ATOM     10  O   UNL A   1      31.341  23.817  27.312  1.00  0.00    -0.469 OA
ATOM     11  C   UNL A   1      32.527  23.025  27.233  1.00  0.00     0.282 C 
ENDBRANCH   8  10
ENDBRANCH   7   8
ENDBRANCH   6   7
BRANCH   6  12
ATOM     12  N   UNL A   1      31.486  26.350  24.046  1.00  0.00    -0.326 N 
ATOM     13  C   UNL A   1      31.680  26.977  22.875  1.00  0.00     0.318 C 
ATOM     14  H   UNL A   1      31.298  25.394  23.907  1.00  0.00     0.166 HD
ATOM     15  O   UNL A   1      31.505  26.244  21.897  1.00  0.00    -0.249 OA
BRANCH  13  16
ATOM     16  N   UNL A   1      31.876  28.326  22.754  1.00  0.00    -0.322 N 
ATOM     17  C   UNL A   1      33.078  29.108  23.012  1.00  0.00     0.149 C 
BRANCH  16  18
ATOM     18  C   UNL A   1      30.729  29.110  22.266  1.00  0.00     0.185 C 
BRANCH  18  19
ATOM     19  C   UNL A   1      29.553  29.288  23.246  1.00  0.00     0.203 C 
ATOM     20  C   UNL A   1      28.510  28.168  23.125  1.00  0.00     0.073 C 
ATOM     21  N   UNL A   1      28.812  30.544  23.060  1.00  0.00    -0.333 N 
ATOM     22  C   UNL A   1      27.176  28.879  22.979  1.00  0.00     0.068 C 
ATOM     23  C   UNL A   1      27.441  30.286  23.483  1.00  0.00     0.262 C 
ATOM     24  C   UNL A   1      29.413  31.680  23.737  1.00  0.00     0.333 C 
ATOM     25  H   UNL A   1      28.838  30.822  22.079  1.00  0.00     0.348 HD
ENDBRANCH  18  19
ENDBRANCH  16  18
ENDBRANCH  13  16
ENDBRANCH   6  12
ENDBRANCH   3   6
ENDBRANCH   1   2
BRANCH   1  26
ATOM     26  C   UNL A   1      31.796  30.284  26.357  1.00  0.00     0.023 C 
BRANCH  26  27
ATOM     27  C   UNL A   1      31.389  31.676  26.852  1.00  0.00     0.023 C 
BRANCH  27  28
ATOM     28  C   UNL A   1      32.244  32.891  26.486  1.00  0.00     0.116 C 
BRANCH  28  29
ATOM     29  N   UNL A   1      32.401  33.908  27.522  1.00  0.00    -0.352 N 
ATOM     30  C   UNL A   1      33.471  34.214  28.340  1.00  0.00     0.251 C 
ATOM     31  H   UNL A   1      31.606  34.472  27.662  1.00  0.00     0.163 HD
ATOM     32  O   UNL A   1      33.438  35.213  29.054  1.00  0.00    -0.269 OA
BRANCH  30  33
ATOM     33  C   UNL A   1      34.608  33.275  28.452  1.00  0.00     0.039 A 
ATOM     34  C   UNL A   1      35.901  33.809  28.436  1.00  0.00     0.014 A 
ATOM     35  C   UNL A   1      34.414  31.922  28.718  1.00  0.00     0.014 A 
ATOM     36  C   UNL A   1      36.974  33.032  28.874  1.00  0.00     0.010 A 
ATOM     37  C   UNL A   1      35.466  31.177  29.245  1.00  0.00     0.010 A 
ATOM     38  C   UNL A   1      36.744  31.743  29.380  1.00  0.00    -0.014 A 
BRANCH  38  39
ATOM     39  C   UNL A   1      37.790  31.016  30.146  1.00  0.00     0.031 A 
ATOM     40  C   UNL A   1      38.069  31.374  31.576  1.00  0.00     0.074 A 
ATOM     41  C   UNL A   1      38.567  30.114  29.509  1.00  0.00     0.049 A 
ATOM     42  N   UNL A   1      39.028  30.953  32.362  1.00  0.00    -0.248 NA
ATOM     43  C   UNL A   1      37.171  32.359  32.200  1.00  0.00     0.031 C 
ATOM     44  C   UNL A   1      38.433  29.721  28.103  1.00  0.00     0.029 A 
ATOM     45  N   UNL A   1      39.645  29.381  29.948  1.00  0.00    -0.354 N 
ATOM     46  C   UNL A   1      38.862  31.636  33.559  1.00  0.00     0.074 A 
ATOM     47  C   UNL A   1      37.735  32.526  33.387  1.00  0.00     0.031 C 
ATOM     48  C   UNL A   1      39.378  28.818  27.801  1.00  0.00     0.029 A 
ATOM     49  C   UNL A   1      40.224  28.604  28.971  1.00  0.00     0.049 A 
ATOM     50  H   UNL A   1      39.972  29.408  30.877  1.00  0.00     0.167 HD
ATOM     51  C   UNL A   1      39.580  31.517  34.698  1.00  0.00     0.037 A 
ATOM     52  C   UNL A   1      41.327  27.832  29.002  1.00  0.00     0.037 A 
ATOM     53  C   UNL A   1      40.678  30.603  34.872  1.00  0.00     0.049 A 
ATOM     54  C   UNL A   1      42.112  27.732  30.286  1.00  0.00     0.074 A 
ATOM     55  C   UNL A   1      41.401  30.337  36.022  1.00  0.00     0.029 A 
ATOM     56  N   UNL A   1      41.219  29.815  33.868  1.00  0.00    -0.354 N 
ATOM     57  N   UNL A   1      41.881  28.307  31.441  1.00  0.00    -0.248 NA
ATOM     58  C   UNL A   1      43.309  26.881  30.269  1.00  0.00     0.031 C 
ATOM     59  C   UNL A   1      42.423  29.441  35.697  1.00  0.00     0.029 A 
ATOM     60  C   UNL A   1      42.298  29.099  34.361  1.00  0.00     0.049 A 
ATOM     61  H   UNL A   1      40.887  29.771  32.942  1.00  0.00     0.167 HD
ATOM     62  C   UNL A   1      42.888  27.870  32.292  1.00  0.00     0.074 A 
ATOM     63  C   UNL A   1      43.718  26.963  31.528  1.00  0.00     0.031 C 
ATOM     64  C   UNL A   1      43.110  28.196  33.588  1.00  0.00     0.037 A 
BRANCH  51  65
ATOM     65  C   UNL A   1      39.217  32.397  35.859  1.00  0.00     0.064 A 
ATOM     66  C   UNL A   1      38.341  31.968  36.865  1.00  0.00     0.173 A 
ATOM     67  C   UNL A   1      39.822  33.654  36.006  1.00  0.00     0.173 A 
ATOM     68  F   UNL A   1      37.728  30.779  36.767  1.00  0.00    -0.203 F 
ATOM     69  C   UNL A   1      38.073  32.771  37.971  1.00  0.00     0.198 A 
ATOM     70  C   UNL A   1      39.576  34.442  37.127  1.00  0.00     0.198 A 
ATOM     71  F   UNL A   1      40.672  34.109  35.073  1.00  0.00    -0.203 F 
ATOM     72  F   UNL A   1      37.207  32.355  38.905  1.00  0.00    -0.200 F 
ATOM     73  C   UNL A   1      38.700  34.002  38.106  1.00  0.00     0.200 A 
ATOM     74  F   UNL A   1      40.193  35.624  37.262  1.00  0.00    -0.200 F 
ATOM     75  F   UNL A   1      38.457  34.764  39.181  1.00  0.00    -0.200 F 
ENDBRANCH  51  65
BRANCH  52  76
ATOM     76  C   UNL A   1      41.783  27.112  27.780  1.00  0.00     0.064 A 
ATOM     77  C   UNL A   1      41.329  25.817  27.489  1.00  0.00     0.173 A 
ATOM     78  C   UNL A   1      42.719  27.682  26.903  1.00  0.00     0.173 A 
ATOM     79  F   UNL A   1      40.451  25.216  28.307  1.00  0.00    -0.203 F 
ATOM     80  C   UNL A   1      41.820  25.108  26.393  1.00  0.00     0.198 A 
ATOM     81  C   UNL A   1      43.181  26.986  25.788  1.00  0.00     0.198 A 
ATOM     82  F   UNL A   1      43.186  28.919  27.131  1.00  0.00    -0.203 F 
ATOM     83  F   UNL A   1      41.419  23.848  26.179  1.00  0.00    -0.200 F 
ATOM     84  C   UNL A   1      42.742  25.696  25.541  1.00  0.00     0.200 A 
ATOM     85  F   UNL A   1      44.061  27.565  24.959  1.00  0.00    -0.200 F 
ATOM     86  F   UNL A   1      43.219  25.012  24.491  1.00  0.00    -0.200 F 
ENDBRANCH  52  76
BRANCH  64  87
ATOM     87  C   UNL A   1      44.282  27.556  34.272  1.00  0.00     0.064 A 
ATOM     88  C   UNL A   1      44.178  26.298  34.882  1.00  0.00     0.173 A 
ATOM     89  C   UNL A   1      45.539  28.181  34.264  1.00  0.00     0.173 A 
ATOM     90  F   UNL A   1      42.995  25.667  34.931  1.00  0.00    -0.203 F 
ATOM     91  C   UNL A   1      45.286  25.695  35.473  1.00  0.00     0.198 A 
ATOM     92  C   UNL A   1      46.651  27.561  34.826  1.00  0.00     0.198 A 
ATOM     93  F   UNL A   1      45.694  29.383  33.688  1.00  0.00    -0.203 F 
ATOM     94  F   UNL A   1      45.154  24.511  36.087  1.00  0.00    -0.200 F 
ATOM     95  C   UNL A   1      46.523  26.322  35.435  1.00  0.00     0.200 A 
ATOM     96  F   UNL A   1      47.848  28.161  34.772  1.00  0.00    -0.200 F 
ATOM     97  F   UNL A   1      47.591  25.733  35.989  1.00  0.00    -0.200 F 
ENDBRANCH  64  87
ENDBRANCH  38  39
ENDBRANCH  30  33
ENDBRANCH  28  29
ENDBRANCH  27  28
ENDBRANCH  26  27
ENDBRANCH   1  26
TORSDOF 18
ENDMDL
MODEL 2
REMARK VINA RESULT:     -10.9      1.977      8.289
REMARK SMILES COC(=O)C[C@H](NC(=O)N(C)C[C@@H]1CCC[N@H+]1C)C(=O)NCCCCNC(=O)c1ccc(-c2c3nc(c(-c4c(F)c(F)c(F)c(F)c4F)c4ccc([nH]4)c(-c4c(F)c(F)c(F)c(F)c4F)c4nc(c(-c5c(F)c(F)c(F)c(F)c5F)c5ccc2[nH]5)C=C4)C=C3)cc1
REMARK SMILES IDX 22 1 21 2 19 3 20 4 6 6 5 7 3 8 4 9 2 10 1 11 7 12 8 13 9 15
REMARK SMILES IDX 10 16 11 17 12 18 13 19 14 20 17 21 15 22 16 23 18 24 23 26
REMARK SMILES IDX 24 27 25 28 26 29 27 30 28 32 29 33 30 34 91 35 31 36 90 37
REMARK SMILES IDX 32 38 33 39 34 40 84 41 35 42 89 43 83 44 85 45 36 46 88 47
REMARK SMILES IDX 82 48 81 49 37 51 69 52 49 53 68 54 50 55 53 56 67 57 86 58
REMARK SMILES IDX 51 59 52 60 66 62 87 63 54 64 38 65 39 66 47 67 40 68 41 69
REMARK SMILES IDX 45 70 48 71 42 72 43 73 46 74 44 75 70 76 71 77 79 78 72 79
REMARK SMILES IDX 73 80 77 81 80 82 74 83 75 84 78 85 76 86 55 87 56 88 64 89
REMARK SMILES IDX 57 90 58 91 62 92 65 93 59 94 60 95 63 96 61 97
REMARK H PARENT 21 5 7 14 17 25 26 31 85 50 53 61
REMARK Flexibility Score: inf
ROOT
ATOM      1  C   UNL A   1      31.614  26.786  26.211  1.00  0.00     0.116 C 
ENDROOT
BRANCH   1   2
ATOM      2  N   UNL A   1      31.116  25.611  26.891  1.00  0.00    -0.354 N 
ATOM      3  C   UNL A   1      31.316  24.282  26.545  1.00  0.00     0.243 C 
ATOM      4  O   UNL A   1      31.030  23.451  27.415  1.00  0.00    -0.273 OA
ATOM      5  H   UNL A   1      30.569  25.773  27.694  1.00  0.00     0.163 HD
BRANCH   3   6
ATOM      6  C   UNL A   1      31.778  23.781  25.110  1.00  0.00     0.184 C 
BRANCH   6   7
ATOM      7  C   UNL A   1      30.771  23.789  23.956  1.00  0.00     0.157 C 
BRANCH   7   8
ATOM      8  C   UNL A   1      30.383  25.116  23.369  1.00  0.00     0.308 C 
ATOM      9  O   UNL A   1      29.396  25.744  23.708  1.00  0.00    -0.252 OA
BRANCH   8  10
ATOM     10  O   UNL A   1      31.388  25.576  22.579  1.00  0.00    -0.469 OA
ATOM     11  C   UNL A   1      31.456  26.995  22.439  1.00  0.00     0.282 C 
ENDBRANCH   8  10
ENDBRANCH   7   8
ENDBRANCH   6   7
BRANCH   6  12
ATOM     12  N   UNL A   1      32.570  22.550  25.039  1.00  0.00    -0.326 N 
ATOM     13  C   UNL A   1      33.610  22.069  24.340  1.00  0.00     0.318 C 
ATOM     14  H   UNL A   1      32.247  21.887  25.690  1.00  0.00     0.166 HD
ATOM     15  O   UNL A   1      33.876  20.894  24.612  1.00  0.00    -0.249 OA
BRANCH  13  16
ATOM     16  N   UNL A   1      34.210  22.736  23.307  1.00  0.00    -0.322 N 
ATOM     17  C   UNL A   1      33.645  23.154  22.031  1.00  0.00     0.149 C 
BRANCH  16  18
ATOM     18  C   UNL A   1      35.617  23.122  23.509  1.00  0.00     0.185 C 
BRANCH  18  19
ATOM     19  C   UNL A   1      36.221  22.813  24.893  1.00  0.00     0.203 C 
ATOM     20  C   UNL A   1      36.453  24.077  25.731  1.00  0.00     0.073 C 
ATOM     21  N   UNL A   1      37.522  22.130  24.831  1.00  0.00    -0.333 N 
ATOM     22  C   UNL A   1      37.893  23.983  26.203  1.00  0.00     0.068 C 
ATOM     23  C   UNL A   1      38.254  22.519  26.031  1.00  0.00     0.262 C 
ATOM     24  C   UNL A   1      37.417  20.690  24.669  1.00  0.00     0.333 C 
ATOM     25  H   UNL A   1      38.027  22.418  23.993  1.00  0.00     0.348 HD
ENDBRANCH  18  19
ENDBRANCH  16  18
ENDBRANCH  13  16
ENDBRANCH   6  12
ENDBRANCH   3   6
ENDBRANCH   1   2
BRANCH   1  26
ATOM     26  C   UNL A   1      32.489  27.834  26.888  1.00  0.00     0.023 C 
BRANCH  26  27
ATOM     27  C   UNL A   1      31.910  29.220  27.193  1.00  0.00     0.023 C 
BRANCH  27  28
ATOM     28  C   UNL A   1      32.384  30.433  26.389  1.00  0.00     0.116 C 
BRANCH  28  29
ATOM     29  N   UNL A   1      32.294  31.728  27.058  1.00  0.00    -0.352 N 
ATOM     30  C   UNL A   1      33.274  32.559  27.562  1.00  0.00     0.251 C 
ATOM     31  H   UNL A   1      31.375  32.066  27.168  1.00  0.00     0.163 HD
ATOM     32  O   UNL A   1      32.986  33.684  27.964  1.00  0.00    -0.269 OA
BRANCH  30  33
ATOM     33  C   UNL A   1      34.654  32.055  27.737  1.00  0.00     0.039 A 
ATOM     34  C   UNL A   1      35.661  32.988  28.007  1.00  0.00     0.014 A 
ATOM     35  C   UNL A   1      34.932  30.691  27.784  1.00  0.00     0.014 A 
ATOM     36  C   UNL A   1      36.888  32.552  28.510  1.00  0.00     0.010 A 
ATOM     37  C   UNL A   1      36.118  30.262  28.375  1.00  0.00     0.010 A 
ATOM     38  C   UNL A   1      37.083  31.192  28.795  1.00  0.00    -0.014 A 
BRANCH  38  39
ATOM     39  C   UNL A   1      38.231  30.733  29.621  1.00  0.00     0.031 A 
ATOM     40  C   UNL A   1      39.195  29.717  29.082  1.00  0.00     0.074 A 
ATOM     41  C   UNL A   1      38.330  31.148  30.902  1.00  0.00     0.049 A 
ATOM     42  N   UNL A   1      40.169  29.095  29.695  1.00  0.00    -0.248 NA
ATOM     43  C   UNL A   1      39.024  29.324  27.674  1.00  0.00     0.031 C 
ATOM     44  C   UNL A   1      37.422  32.091  31.561  1.00  0.00     0.029 A 
ATOM     45  N   UNL A   1      39.223  30.813  31.893  1.00  0.00    -0.354 N 
ATOM     46  C   UNL A   1      40.709  28.224  28.759  1.00  0.00     0.074 A 
ATOM     47  C   UNL A   1      39.933  28.369  27.547  1.00  0.00     0.031 C 
ATOM     48  C   UNL A   1      37.807  32.264  32.835  1.00  0.00     0.029 A 
ATOM     49  C   UNL A   1      38.956  31.406  33.105  1.00  0.00     0.049 A 
ATOM     50  H   UNL A   1      39.985  30.205  31.748  1.00  0.00     0.167 HD
ATOM     51  C   UNL A   1      41.765  27.391  28.900  1.00  0.00     0.037 A 
ATOM     52  C   UNL A   1      39.547  31.254  34.306  1.00  0.00     0.037 A 
ATOM     53  C   UNL A   1      42.554  27.278  30.098  1.00  0.00     0.049 A 
ATOM     54  C   UNL A   1      40.714  30.308  34.431  1.00  0.00     0.074 A 
ATOM     55  C   UNL A   1      43.705  26.538  30.303  1.00  0.00     0.029 A 
ATOM     56  N   UNL A   1      42.267  27.914  31.297  1.00  0.00    -0.354 N 
ATOM     57  N   UNL A   1      41.278  29.568  33.508  1.00  0.00    -0.248 NA
ATOM     58  C   UNL A   1      41.323  30.173  35.761  1.00  0.00     0.031 C 
ATOM     59  C   UNL A   1      44.076  26.671  31.643  1.00  0.00     0.029 A 
ATOM     60  C   UNL A   1      43.193  27.543  32.259  1.00  0.00     0.049 A 
ATOM     61  H   UNL A   1      41.518  28.535  31.443  1.00  0.00     0.167 HD
ATOM     62  C   UNL A   1      42.319  28.899  34.139  1.00  0.00     0.074 A 
ATOM     63  C   UNL A   1      42.325  29.339  35.518  1.00  0.00     0.031 C 
ATOM     64  C   UNL A   1      43.188  27.996  33.625  1.00  0.00     0.037 A 
BRANCH  51  65
ATOM     65  C   UNL A   1      42.140  26.521  27.736  1.00  0.00     0.064 A 
ATOM     66  C   UNL A   1      43.178  26.866  26.859  1.00  0.00     0.173 A 
ATOM     67  C   UNL A   1      41.505  25.284  27.548  1.00  0.00     0.173 A 
ATOM     68  F   UNL A   1      43.810  28.042  26.989  1.00  0.00    -0.203 F 
ATOM     69  C   UNL A   1      43.559  26.011  25.828  1.00  0.00     0.198 A 
ATOM     70  C   UNL A   1      41.908  24.418  26.536  1.00  0.00     0.198 A 
ATOM     71  F   UNL A   1      40.509  24.904  28.363  1.00  0.00    -0.203 F 
ATOM     72  F   UNL A   1      44.532  26.375  24.982  1.00  0.00    -0.200 F 
ATOM     73  C   UNL A   1      42.931  24.783  25.675  1.00  0.00     0.200 A 
ATOM     74  F   UNL A   1      41.310  23.226  26.398  1.00  0.00    -0.200 F 
ATOM     75  F   UNL A   1      43.313  23.951  24.695  1.00  0.00    -0.200 F 
ENDBRANCH  51  65
BRANCH  52  76
ATOM     76  C   UNL A   1      39.038  31.987  35.500  1.00  0.00     0.064 A 
ATOM     77  C   UNL A   1      39.374  33.331  35.724  1.00  0.00     0.173 A 
ATOM     78  C   UNL A   1      38.247  31.347  36.466  1.00  0.00     0.173 A 
ATOM     79  F   UNL A   1      40.147  33.983  34.844  1.00  0.00    -0.203 F 
ATOM     80  C   UNL A   1      38.969  33.992  36.884  1.00  0.00     0.198 A 
ATOM     81  C   UNL A   1      37.813  32.021  37.607  1.00  0.00     0.198 A 
ATOM     82  F   UNL A   1      37.893  30.063  36.303  1.00  0.00    -0.203 F 
ATOM     83  F   UNL A   1      39.362  35.254  37.103  1.00  0.00    -0.200 F 
ATOM     84  C   UNL A   1      38.186  33.337  37.821  1.00  0.00     0.200 A 
ATOM     85  F   UNL A   1      37.043  31.387  38.502  1.00  0.00    -0.200 F 
ATOM     86  F   UNL A   1      37.803  33.971  38.938  1.00  0.00    -0.200 F 
ENDBRANCH  52  76
BRANCH  64  87
ATOM     87  C   UNL A   1      44.232  27.436  34.547  1.00  0.00     0.064 A 
ATOM     88  C   UNL A   1      45.457  28.088  34.750  1.00  0.00     0.173 A 
ATOM     89  C   UNL A   1      43.979  26.267  35.282  1.00  0.00     0.173 A 
ATOM     90  F   UNL A   1      45.753  29.200  34.059  1.00  0.00    -0.203 F 
ATOM     91  C   UNL A   1      46.397  27.583  35.643  1.00  0.00     0.198 A 
ATOM     92  C   UNL A   1      44.907  25.784  36.199  1.00  0.00     0.198 A 
ATOM     93  F   UNL A   1      42.821  25.609  35.130  1.00  0.00    -0.203 F 
ATOM     94  F   UNL A   1      47.578  28.199  35.791  1.00  0.00    -0.200 F 
ATOM     95  C   UNL A   1      46.118  26.437  36.374  1.00  0.00     0.200 A 
ATOM     96  F   UNL A   1      44.628  24.687  36.917  1.00  0.00    -0.200 F 
ATOM     97  F   UNL A   1      47.017  25.962  37.247  1.00  0.00    -0.200 F 
ENDBRANCH  64  87
ENDBRANCH  38  39
ENDBRANCH  30  33
ENDBRANCH  28  29
ENDBRANCH  27  28
ENDBRANCH  26  27
ENDBRANCH   1  26
TORSDOF 18
ENDMDL
MODEL 3
REMARK VINA RESULT:     -10.8      1.077      7.526
REMARK SMILES COC(=O)C[C@H](NC(=O)N(C)C[C@@H]1CCC[N@H+]1C)C(=O)NCCCCNC(=O)c1ccc(-c2c3nc(c(-c4c(F)c(F)c(F)c(F)c4F)c4ccc([nH]4)c(-c4c(F)c(F)c(F)c(F)c4F)c4nc(c(-c5c(F)c(F)c(F)c(F)c5F)c5ccc2[nH]5)C=C4)C=C3)cc1
REMARK SMILES IDX 22 1 21 2 19 3 20 4 6 6 5 7 3 8 4 9 2 10 1 11 7 12 8 13 9 15
REMARK SMILES IDX 10 16 11 17 12 18 13 19 14 20 17 21 15 22 16 23 18 24 23 26
REMARK SMILES IDX 24 27 25 28 26 29 27 30 28 32 29 33 30 34 91 35 31 36 90 37
REMARK SMILES IDX 32 38 33 39 34 40 84 41 35 42 89 43 83 44 85 45 36 46 88 47
REMARK SMILES IDX 82 48 81 49 37 51 69 52 49 53 68 54 50 55 53 56 67 57 86 58
REMARK SMILES IDX 51 59 52 60 66 62 87 63 54 64 38 65 39 66 47 67 40 68 41 69
REMARK SMILES IDX 45 70 48 71 42 72 43 73 46 74 44 75 70 76 71 77 79 78 72 79
REMARK SMILES IDX 73 80 77 81 80 82 74 83 75 84 78 85 76 86 55 87 56 88 64 89
REMARK SMILES IDX 57 90 58 91 62 92 65 93 59 94 60 95 63 96 61 97
REMARK H PARENT 21 5 7 14 17 25 26 31 85 50 53 61
REMARK Flexibility Score: inf
ROOT
ATOM      1  C   UNL A   1      32.061  27.884  27.410  1.00  0.00     0.116 C 
ENDROOT
BRANCH   1   2
ATOM      2  N   UNL A   1      31.028  27.042  26.847  1.00  0.00    -0.354 N 
ATOM      3  C   UNL A   1      31.190  25.869  26.123  1.00  0.00     0.243 C 
ATOM      4  O   UNL A   1      30.173  25.180  25.979  1.00  0.00    -0.273 OA
ATOM      5  H   UNL A   1      30.099  27.336  26.994  1.00  0.00     0.163 HD
BRANCH   3   6
ATOM      6  C   UNL A   1      32.539  25.427  25.408  1.00  0.00     0.184 C 
BRANCH   6   7
ATOM      7  C   UNL A   1      33.484  24.461  26.128  1.00  0.00     0.157 C 
BRANCH   7   8
ATOM      8  C   UNL A   1      33.438  23.011  25.741  1.00  0.00     0.308 C 
ATOM      9  O   UNL A   1      32.452  22.307  25.869  1.00  0.00    -0.252 OA
BRANCH   8  10
ATOM     10  O   UNL A   1      34.567  22.686  25.059  1.00  0.00    -0.469 OA
ATOM     11  C   UNL A   1      35.434  21.762  25.717  1.00  0.00     0.282 C 
ENDBRANCH   8  10
ENDBRANCH   7   8
ENDBRANCH   6   7
BRANCH   6  12
ATOM     12  N   UNL A   1      33.335  26.467  24.749  1.00  0.00    -0.326 N 
ATOM     13  C   UNL A   1      33.182  27.377  23.775  1.00  0.00     0.318 C 
ATOM     14  H   UNL A   1      34.241  26.509  25.131  1.00  0.00     0.166 HD
ATOM     15  O   UNL A   1      34.217  28.002  23.526  1.00  0.00    -0.249 OA
BRANCH  13  16
ATOM     16  N   UNL A   1      32.054  27.491  23.008  1.00  0.00    -0.322 N 
ATOM     17  C   UNL A   1      31.558  26.603  21.965  1.00  0.00     0.149 C 
BRANCH  16  18
ATOM     18  C   UNL A   1      31.193  28.654  23.282  1.00  0.00     0.185 C 
BRANCH  18  19
ATOM     19  C   UNL A   1      29.857  28.714  22.516  1.00  0.00     0.203 C 
ATOM     20  C   UNL A   1      29.633  30.067  21.827  1.00  0.00     0.073 C 
ATOM     21  N   UNL A   1      28.678  28.498  23.366  1.00  0.00    -0.333 N 
ATOM     22  C   UNL A   1      28.245  30.508  22.257  1.00  0.00     0.068 C 
ATOM     23  C   UNL A   1      27.580  29.235  22.751  1.00  0.00     0.262 C 
ATOM     24  C   UNL A   1      28.368  27.096  23.588  1.00  0.00     0.333 C 
ATOM     25  H   UNL A   1      28.859  28.844  24.308  1.00  0.00     0.348 HD
ENDBRANCH  18  19
ENDBRANCH  16  18
ENDBRANCH  13  16
ENDBRANCH   6  12
ENDBRANCH   3   6
ENDBRANCH   1   2
BRANCH   1  26
ATOM     26  C   UNL A   1      32.504  29.197  26.777  1.00  0.00     0.023 C 
BRANCH  26  27
ATOM     27  C   UNL A   1      31.598  30.429  26.878  1.00  0.00     0.023 C 
BRANCH  27  28
ATOM     28  C   UNL A   1      32.075  31.769  26.315  1.00  0.00     0.116 C 
BRANCH  28  29
ATOM     29  N   UNL A   1      32.101  32.891  27.249  1.00  0.00    -0.352 N 
ATOM     30  C   UNL A   1      33.135  33.440  27.981  1.00  0.00     0.251 C 
ATOM     31  H   UNL A   1      31.230  33.332  27.379  1.00  0.00     0.163 HD
ATOM     32  O   UNL A   1      32.966  34.484  28.605  1.00  0.00    -0.269 OA
BRANCH  30  33
ATOM     33  C   UNL A   1      34.414  32.710  28.116  1.00  0.00     0.039 A 
ATOM     34  C   UNL A   1      35.600  33.446  28.027  1.00  0.00     0.014 A 
ATOM     35  C   UNL A   1      34.452  31.363  28.472  1.00  0.00     0.014 A 
ATOM     36  C   UNL A   1      36.796  32.886  28.479  1.00  0.00     0.010 A 
ATOM     37  C   UNL A   1      35.623  30.838  29.012  1.00  0.00     0.010 A 
ATOM     38  C   UNL A   1      36.792  31.613  29.072  1.00  0.00    -0.014 A 
BRANCH  38  39
ATOM     39  C   UNL A   1      37.960  31.120  29.849  1.00  0.00     0.031 A 
ATOM     40  C   UNL A   1      38.881  30.092  29.261  1.00  0.00     0.074 A 
ATOM     41  C   UNL A   1      38.113  31.515  31.131  1.00  0.00     0.049 A 
ATOM     42  N   UNL A   1      39.864  29.441  29.830  1.00  0.00    -0.248 NA
ATOM     43  C   UNL A   1      38.651  29.723  27.856  1.00  0.00     0.031 C 
ATOM     44  C   UNL A   1      37.250  32.467  31.835  1.00  0.00     0.029 A 
ATOM     45  N   UNL A   1      39.035  31.147  32.084  1.00  0.00    -0.354 N 
ATOM     46  C   UNL A   1      40.351  28.573  28.863  1.00  0.00     0.074 A 
ATOM     47  C   UNL A   1      39.535  28.751  27.683  1.00  0.00     0.031 C 
ATOM     48  C   UNL A   1      37.684  32.614  33.096  1.00  0.00     0.029 A 
ATOM     49  C   UNL A   1      38.824  31.729  33.313  1.00  0.00     0.049 A 
ATOM     50  H   UNL A   1      39.778  30.526  31.903  1.00  0.00     0.167 HD
ATOM     51  C   UNL A   1      41.394  27.717  28.955  1.00  0.00     0.037 A 
ATOM     52  C   UNL A   1      39.455  31.548  34.490  1.00  0.00     0.037 A 
ATOM     53  C   UNL A   1      42.223  27.571  30.122  1.00  0.00     0.049 A 
ATOM     54  C   UNL A   1      40.605  30.576  34.558  1.00  0.00     0.074 A 
ATOM     55  C   UNL A   1      43.365  26.805  30.274  1.00  0.00     0.029 A 
ATOM     56  N   UNL A   1      41.994  28.196  31.338  1.00  0.00    -0.354 N 
ATOM     57  N   UNL A   1      41.120  29.838  33.606  1.00  0.00    -0.248 NA
ATOM     58  C   UNL A   1      41.260  30.411  35.864  1.00  0.00     0.031 C 
ATOM     59  C   UNL A   1      43.787  26.911  31.602  1.00  0.00     0.029 A 
ATOM     60  C   UNL A   1      42.946  27.793  32.261  1.00  0.00     0.049 A 
ATOM     61  H   UNL A   1      41.263  28.830  31.520  1.00  0.00     0.167 HD
ATOM     62  C   UNL A   1      42.169  29.140  34.190  1.00  0.00     0.074 A 
ATOM     63  C   UNL A   1      42.234  29.560  35.573  1.00  0.00     0.031 C 
ATOM     64  C   UNL A   1      43.000  28.226  33.633  1.00  0.00     0.037 A 
BRANCH  51  65
ATOM     65  C   UNL A   1      41.708  26.855  27.767  1.00  0.00     0.064 A 
ATOM     66  C   UNL A   1      42.587  27.278  26.760  1.00  0.00     0.173 A 
ATOM     67  C   UNL A   1      41.186  25.556  27.680  1.00  0.00     0.173 A 
ATOM     68  F   UNL A   1      43.107  28.514  26.790  1.00  0.00    -0.203 F 
ATOM     69  C   UNL A   1      42.923  26.436  25.702  1.00  0.00     0.198 A 
ATOM     70  C   UNL A   1      41.546  24.706  26.639  1.00  0.00     0.198 A 
ATOM     71  F   UNL A   1      40.343  25.102  28.621  1.00  0.00    -0.203 F 
ATOM     72  F   UNL A   1      43.740  26.871  24.734  1.00  0.00    -0.200 F 
ATOM     73  C   UNL A   1      42.410  25.147  25.649  1.00  0.00     0.200 A 
ATOM     74  F   UNL A   1      41.061  23.457  26.597  1.00  0.00    -0.200 F 
ATOM     75  F   UNL A   1      42.751  24.330  24.642  1.00  0.00    -0.200 F 
ENDBRANCH  51  65
BRANCH  52  76
ATOM     76  C   UNL A   1      39.005  32.274  35.711  1.00  0.00     0.064 A 
ATOM     77  C   UNL A   1      39.411  33.594  35.961  1.00  0.00     0.173 A 
ATOM     78  C   UNL A   1      38.201  31.649  36.676  1.00  0.00     0.173 A 
ATOM     79  F   UNL A   1      40.199  34.230  35.082  1.00  0.00    -0.203 F 
ATOM     80  C   UNL A   1      39.061  34.244  37.144  1.00  0.00     0.198 A 
ATOM     81  C   UNL A   1      37.822  32.314  37.841  1.00  0.00     0.198 A 
ATOM     82  F   UNL A   1      37.781  30.389  36.488  1.00  0.00    -0.203 F 
ATOM     83  F   UNL A   1      39.520  35.479  37.386  1.00  0.00    -0.200 F 
ATOM     84  C   UNL A   1      38.264  33.605  38.081  1.00  0.00     0.200 A 
ATOM     85  F   UNL A   1      37.038  31.697  38.736  1.00  0.00    -0.200 F 
ATOM     86  F   UNL A   1      37.933  34.229  39.220  1.00  0.00    -0.200 F 
ENDBRANCH  52  76
BRANCH  64  87
ATOM     87  C   UNL A   1      44.064  27.633  34.508  1.00  0.00     0.064 A 
ATOM     88  C   UNL A   1      45.287  28.286  34.721  1.00  0.00     0.173 A 
ATOM     89  C   UNL A   1      43.835  26.427  35.190  1.00  0.00     0.173 A 
ATOM     90  F   UNL A   1      45.561  29.432  34.080  1.00  0.00    -0.203 F 
ATOM     91  C   UNL A   1      46.247  27.746  35.573  1.00  0.00     0.198 A 
ATOM     92  C   UNL A   1      44.783  25.908  36.066  1.00  0.00     0.198 A 
ATOM     93  F   UNL A   1      42.680  25.766  35.025  1.00  0.00    -0.203 F 
ATOM     94  F   UNL A   1      47.425  28.366  35.730  1.00  0.00    -0.200 F 
ATOM     95  C   UNL A   1      45.991  26.564  36.252  1.00  0.00     0.200 A 
ATOM     96  F   UNL A   1      44.526  24.775  36.734  1.00  0.00    -0.200 F 
ATOM     97  F   UNL A   1      46.909  26.056  37.085  1.00  0.00    -0.200 F 
ENDBRANCH  64  87
ENDBRANCH  38  39
ENDBRANCH  30  33
ENDBRANCH  28  29
ENDBRANCH  27  28
ENDBRANCH  26  27
ENDBRANCH   1  26
TORSDOF 18
ENDMDL
