MODEL 1
REMARK VINA RESULT:     -14.3      0.000      0.000
REMARK SMILES Cc1cc2nc(NC(=O)[C@H]3[C@@H](C(=O)NCCCCNC(=O)c4ccc(-c5c6nc(c(-c7c(F)c(F)c(F)c(F)c7F)c7ccc([nH]7)c(-c7c(F)c(F)c(F)c(F)c7F)c7nc(c(-c8c(F)c(F)c(F)c(F)c8F)c8ccc5[nH]8)C=C7)C=C6)cc4)[C@@H]4C=C[C@H]3C4)sc2cc1C
REMARK SMILES IDX 16 1 15 2 14 3 12 4 13 5 11 7 10 8 88 9 85 10 87 11 89 12
REMARK SMILES IDX 86 13 8 14 7 15 9 17 6 18 1 19 2 20 3 21 93 22 4 23 92 24
REMARK SMILES IDX 94 25 5 26 91 27 90 28 17 29 18 30 19 31 20 32 21 34 22 35
REMARK SMILES IDX 23 36 84 37 24 38 83 39 25 40 26 41 27 42 77 43 28 44 82 45
REMARK SMILES IDX 76 46 78 47 29 48 81 49 75 50 74 51 30 53 62 54 42 55 61 56
REMARK SMILES IDX 43 57 46 58 60 59 79 60 44 61 45 62 59 64 80 65 47 66 31 67
REMARK SMILES IDX 32 68 40 69 33 70 34 71 38 72 41 73 35 74 36 75 39 76 37 77
REMARK SMILES IDX 63 78 64 79 72 80 65 81 66 82 70 83 73 84 67 85 68 86 71 87
REMARK SMILES IDX 69 88 48 89 49 90 57 91 50 92 51 93 55 94 58 95 52 96 53 97
REMARK SMILES IDX 56 98 54 99
REMARK H PARENT 14 6 7 16 19 33 78 52 46 63
REMARK Flexibility Score: inf
ROOT
ATOM      1  C   UNL A   1      37.693  21.176  24.838  1.00  0.00     0.023 C 
ENDROOT
BRANCH   1   2
ATOM      2  C   UNL A   1      36.838  22.357  25.303  1.00  0.00     0.116 C 
BRANCH   2   3
ATOM      3  N   UNL A   1      35.980  22.104  26.454  1.00  0.00    -0.356 N 
ATOM      4  C   UNL A   1      34.662  21.707  26.491  1.00  0.00     0.224 C 
ATOM      5  O   UNL A   1      34.129  21.444  27.556  1.00  0.00    -0.275 OA
ATOM      6  H   UNL A   1      36.404  22.237  27.332  1.00  0.00     0.163 HD
BRANCH   4   7
ATOM      7  C   UNL A   1      33.926  21.626  25.170  1.00  0.00     0.098 C 
ATOM      8  C   UNL A   1      33.346  22.975  24.580  1.00  0.00     0.099 C 
ATOM      9  C   UNL A   1      32.014  22.450  24.009  1.00  0.00     0.025 C 
ATOM     10  C   UNL A   1      32.680  20.683  25.194  1.00  0.00     0.025 C 
ATOM     11  C   UNL A   1      32.216  21.287  23.042  1.00  0.00    -0.027 C 
ATOM     12  C   UNL A   1      31.500  21.654  25.211  1.00  0.00     0.017 C 
ATOM     13  C   UNL A   1      32.536  20.206  23.766  1.00  0.00    -0.027 C 
BRANCH   8  14
ATOM     14  C   UNL A   1      33.433  24.174  25.588  1.00  0.00     0.230 C 
ATOM     15  N   UNL A   1      33.056  25.461  25.471  1.00  0.00    -0.302 N 
ATOM     16  H   UNL A   1      33.414  26.064  26.163  1.00  0.00     0.172 HD
ATOM     17  O   UNL A   1      33.989  23.995  26.686  1.00  0.00    -0.274 OA
BRANCH  15  18
ATOM     18  C   UNL A   1      32.265  26.055  24.556  1.00  0.00     0.190 A 
ATOM     19  C   UNL A   1      27.204  28.706  23.104  1.00  0.00     0.044 C 
ATOM     20  C   UNL A   1      28.679  28.429  23.044  1.00  0.00    -0.046 A 
ATOM     21  C   UNL A   1      29.113  27.244  23.642  1.00  0.00     0.033 A 
ATOM     22  C   UNL A   1      29.621  29.263  22.415  1.00  0.00    -0.047 A 
ATOM     23  C   UNL A   1      30.480  26.964  23.734  1.00  0.00     0.084 A 
ATOM     24  C   UNL A   1      31.006  28.983  22.504  1.00  0.00     0.025 A 
ATOM     25  C   UNL A   1      29.230  30.481  21.626  1.00  0.00     0.044 C 
ATOM     26  N   UNL A   1      30.997  25.888  24.388  1.00  0.00    -0.220 NA
ATOM     27  C   UNL A   1      31.415  27.845  23.203  1.00  0.00     0.057 A 
ATOM     28  S   UNL A   1      32.995  27.268  23.610  1.00  0.00    -0.097 S 
ENDBRANCH  15  18
ENDBRANCH   8  14
ENDBRANCH   4   7
ENDBRANCH   2   3
ENDBRANCH   1   2
BRANCH   1  29
ATOM     29  C   UNL A   1      38.875  20.817  25.752  1.00  0.00     0.023 C 
BRANCH  29  30
ATOM     30  C   UNL A   1      39.535  22.030  26.401  1.00  0.00     0.116 C 
BRANCH  30  31
ATOM     31  N   UNL A   1      40.943  22.120  26.070  1.00  0.00    -0.352 N 
ATOM     32  C   UNL A   1      41.911  23.073  26.172  1.00  0.00     0.251 C 
ATOM     33  H   UNL A   1      41.284  21.284  25.674  1.00  0.00     0.163 HD
ATOM     34  O   UNL A   1      43.001  22.779  25.672  1.00  0.00    -0.269 OA
BRANCH  32  35
ATOM     35  C   UNL A   1      41.766  24.404  26.822  1.00  0.00     0.039 A 
ATOM     36  C   UNL A   1      42.321  24.793  28.040  1.00  0.00     0.014 A 
ATOM     37  C   UNL A   1      40.970  25.336  26.125  1.00  0.00     0.014 A 
ATOM     38  C   UNL A   1      42.066  26.067  28.552  1.00  0.00     0.010 A 
ATOM     39  C   UNL A   1      40.724  26.611  26.626  1.00  0.00     0.010 A 
ATOM     40  C   UNL A   1      41.253  26.975  27.858  1.00  0.00    -0.014 A 
BRANCH  40  41
ATOM     41  C   UNL A   1      41.079  28.317  28.423  1.00  0.00     0.031 A 
ATOM     42  C   UNL A   1      42.165  29.285  28.094  1.00  0.00     0.074 A 
ATOM     43  C   UNL A   1      40.012  28.740  29.132  1.00  0.00     0.049 A 
ATOM     44  N   UNL A   1      43.006  29.838  28.908  1.00  0.00    -0.248 NA
ATOM     45  C   UNL A   1      42.403  29.607  26.680  1.00  0.00     0.031 C 
ATOM     46  C   UNL A   1      38.729  28.069  29.347  1.00  0.00     0.029 A 
ATOM     47  N   UNL A   1      39.845  29.935  29.778  1.00  0.00    -0.354 N 
ATOM     48  C   UNL A   1      43.798  30.686  28.138  1.00  0.00     0.074 A 
ATOM     49  C   UNL A   1      43.449  30.432  26.763  1.00  0.00     0.031 C 
ATOM     50  C   UNL A   1      37.852  28.939  29.899  1.00  0.00     0.029 A 
ATOM     51  C   UNL A   1      38.551  30.171  30.221  1.00  0.00     0.049 A 
ATOM     52  H   UNL A   1      40.582  30.573  29.916  1.00  0.00     0.167 HD
ATOM     53  C   UNL A   1      44.567  31.655  28.707  1.00  0.00     0.037 A 
ATOM     54  C   UNL A   1      38.086  31.306  30.795  1.00  0.00     0.037 A 
ATOM     55  C   UNL A   1      44.768  31.413  30.110  1.00  0.00     0.049 A 
ATOM     56  C   UNL A   1      39.245  32.021  31.375  1.00  0.00     0.074 A 
ATOM     57  C   UNL A   1      45.409  30.445  30.857  1.00  0.00     0.029 A 
ATOM     58  N   UNL A   1      43.977  32.103  30.988  1.00  0.00    -0.354 N 
ATOM     59  N   UNL A   1      39.928  31.599  32.400  1.00  0.00    -0.248 NA
ATOM     60  C   UNL A   1      39.876  33.070  30.590  1.00  0.00     0.031 C 
ATOM     61  C   UNL A   1      44.634  30.318  32.047  1.00  0.00     0.029 A 
ATOM     62  C   UNL A   1      43.587  31.237  31.973  1.00  0.00     0.049 A 
ATOM     63  H   UNL A   1      43.731  33.054  30.922  1.00  0.00     0.167 HD
ATOM     64  C   UNL A   1      41.227  32.003  32.141  1.00  0.00     0.074 A 
ATOM     65  C   UNL A   1      41.108  33.015  31.097  1.00  0.00     0.031 C 
ATOM     66  C   UNL A   1      42.286  31.278  32.600  1.00  0.00     0.037 A 
BRANCH  53  67
ATOM     67  C   UNL A   1      44.856  33.003  28.090  1.00  0.00     0.064 A 
ATOM     68  C   UNL A   1      46.180  33.330  27.726  1.00  0.00     0.173 A 
ATOM     69  C   UNL A   1      43.955  34.087  28.141  1.00  0.00     0.173 A 
ATOM     70  F   UNL A   1      47.126  32.382  27.665  1.00  0.00    -0.203 F 
ATOM     71  C   UNL A   1      46.583  34.650  27.508  1.00  0.00     0.198 A 
ATOM     72  C   UNL A   1      44.350  35.397  27.875  1.00  0.00     0.198 A 
ATOM     73  F   UNL A   1      42.692  33.940  28.560  1.00  0.00    -0.203 F 
ATOM     74  F   UNL A   1      47.876  34.924  27.289  1.00  0.00    -0.200 F 
ATOM     75  C   UNL A   1      45.669  35.685  27.590  1.00  0.00     0.200 A 
ATOM     76  F   UNL A   1      43.455  36.389  27.980  1.00  0.00    -0.200 F 
ATOM     77  F   UNL A   1      46.065  36.956  27.447  1.00  0.00    -0.200 F 
ENDBRANCH  53  67
BRANCH  54  78
ATOM     78  C   UNL A   1      36.767  31.963  30.627  1.00  0.00     0.064 A 
ATOM     79  C   UNL A   1      35.868  32.066  31.704  1.00  0.00     0.173 A 
ATOM     80  C   UNL A   1      36.500  32.775  29.509  1.00  0.00     0.173 A 
ATOM     81  F   UNL A   1      36.069  31.355  32.823  1.00  0.00    -0.203 F 
ATOM     82  C   UNL A   1      34.796  32.964  31.682  1.00  0.00     0.198 A 
ATOM     83  C   UNL A   1      35.426  33.667  29.486  1.00  0.00     0.198 A 
ATOM     84  F   UNL A   1      37.334  32.796  28.460  1.00  0.00    -0.203 F 
ATOM     85  F   UNL A   1      34.008  33.092  32.759  1.00  0.00    -0.200 F 
ATOM     86  C   UNL A   1      34.586  33.776  30.580  1.00  0.00     0.200 A 
ATOM     87  F   UNL A   1      35.255  34.472  28.429  1.00  0.00    -0.200 F 
ATOM     88  F   UNL A   1      33.607  34.691  30.587  1.00  0.00    -0.200 F 
ENDBRANCH  54  78
BRANCH  66  89
ATOM     89  C   UNL A   1      42.024  30.264  33.678  1.00  0.00     0.064 A 
ATOM     90  C   UNL A   1      41.619  28.940  33.437  1.00  0.00     0.173 A 
ATOM     91  C   UNL A   1      42.333  30.616  35.000  1.00  0.00     0.173 A 
ATOM     92  F   UNL A   1      41.392  28.501  32.192  1.00  0.00    -0.203 F 
ATOM     93  C   UNL A   1      41.500  28.022  34.480  1.00  0.00     0.198 A 
ATOM     94  C   UNL A   1      42.250  29.687  36.033  1.00  0.00     0.198 A 
ATOM     95  F   UNL A   1      42.770  31.853  35.281  1.00  0.00    -0.203 F 
ATOM     96  F   UNL A   1      41.105  26.765  34.229  1.00  0.00    -0.200 F 
ATOM     97  C   UNL A   1      41.825  28.394  35.774  1.00  0.00     0.200 A 
ATOM     98  F   UNL A   1      42.612  30.038  37.274  1.00  0.00    -0.200 F 
ATOM     99  F   UNL A   1      41.759  27.498  36.770  1.00  0.00    -0.200 F 
ENDBRANCH  66  89
ENDBRANCH  40  41
ENDBRANCH  32  35
ENDBRANCH  30  31
ENDBRANCH  29  30
ENDBRANCH   1  29
TORSDOF 13
ENDMDL
MODEL 2
REMARK VINA RESULT:     -14.3      3.323      9.160
REMARK SMILES Cc1cc2nc(NC(=O)[C@H]3[C@@H](C(=O)NCCCCNC(=O)c4ccc(-c5c6nc(c(-c7c(F)c(F)c(F)c(F)c7F)c7ccc([nH]7)c(-c7c(F)c(F)c(F)c(F)c7F)c7nc(c(-c8c(F)c(F)c(F)c(F)c8F)c8ccc5[nH]8)C=C7)C=C6)cc4)[C@@H]4C=C[C@H]3C4)sc2cc1C
REMARK SMILES IDX 16 1 15 2 14 3 12 4 13 5 11 7 10 8 88 9 85 10 87 11 89 12
REMARK SMILES IDX 86 13 8 14 7 15 9 17 6 18 1 19 2 20 3 21 93 22 4 23 92 24
REMARK SMILES IDX 94 25 5 26 91 27 90 28 17 29 18 30 19 31 20 32 21 34 22 35
REMARK SMILES IDX 23 36 84 37 24 38 83 39 25 40 26 41 27 42 77 43 28 44 82 45
REMARK SMILES IDX 76 46 78 47 29 48 81 49 75 50 74 51 30 53 62 54 42 55 61 56
REMARK SMILES IDX 43 57 46 58 60 59 79 60 44 61 45 62 59 64 80 65 47 66 31 67
REMARK SMILES IDX 32 68 40 69 33 70 34 71 38 72 41 73 35 74 36 75 39 76 37 77
REMARK SMILES IDX 63 78 64 79 72 80 65 81 66 82 70 83 73 84 67 85 68 86 71 87
REMARK SMILES IDX 69 88 48 89 49 90 57 91 50 92 51 93 55 94 58 95 52 96 53 97
REMARK SMILES IDX 56 98 54 99
REMARK H PARENT 14 6 7 16 19 33 78 52 46 63
REMARK Flexibility Score: inf
ROOT
ATOM      1  C   UNL A   1      33.005  31.265  27.314  1.00  0.00     0.023 C 
ENDROOT
BRANCH   1   2
ATOM      2  C   UNL A   1      32.599  30.265  26.228  1.00  0.00     0.116 C 
BRANCH   2   3
ATOM      3  N   UNL A   1      33.478  29.115  26.065  1.00  0.00    -0.356 N 
ATOM      4  C   UNL A   1      33.347  28.023  25.236  1.00  0.00     0.224 C 
ATOM      5  O   UNL A   1      34.242  27.198  25.159  1.00  0.00    -0.275 OA
ATOM      6  H   UNL A   1      34.284  29.117  26.631  1.00  0.00     0.163 HD
BRANCH   4   7
ATOM      7  C   UNL A   1      32.058  27.904  24.450  1.00  0.00     0.098 C 
ATOM      8  C   UNL A   1      30.811  27.276  25.194  1.00  0.00     0.099 C 
ATOM      9  C   UNL A   1      30.214  26.450  24.039  1.00  0.00     0.025 C 
ATOM     10  C   UNL A   1      32.180  27.030  23.160  1.00  0.00     0.025 C 
ATOM     11  C   UNL A   1      29.941  27.298  22.800  1.00  0.00    -0.027 C 
ATOM     12  C   UNL A   1      31.472  25.730  23.543  1.00  0.00     0.017 C 
ATOM     13  C   UNL A   1      31.121  27.576  22.229  1.00  0.00    -0.027 C 
BRANCH   8  14
ATOM     14  C   UNL A   1      31.177  26.658  26.590  1.00  0.00     0.230 C 
ATOM     15  N   UNL A   1      31.566  25.416  26.936  1.00  0.00    -0.302 N 
ATOM     16  H   UNL A   1      31.525  25.222  27.901  1.00  0.00     0.172 HD
ATOM     17  O   UNL A   1      31.051  27.361  27.607  1.00  0.00    -0.274 OA
BRANCH  15  18
ATOM     18  C   UNL A   1      32.003  24.398  26.170  1.00  0.00     0.190 A 
ATOM     19  C   UNL A   1      36.068  20.326  24.888  1.00  0.00     0.044 C 
ATOM     20  C   UNL A   1      34.686  20.904  24.998  1.00  0.00    -0.046 A 
ATOM     21  C   UNL A   1      34.603  22.284  25.196  1.00  0.00     0.033 A 
ATOM     22  C   UNL A   1      33.498  20.156  24.890  1.00  0.00    -0.047 A 
ATOM     23  C   UNL A   1      33.363  22.888  25.425  1.00  0.00     0.084 A 
ATOM     24  C   UNL A   1      32.241  20.763  25.118  1.00  0.00     0.025 A 
ATOM     25  C   UNL A   1      33.487  18.695  24.535  1.00  0.00     0.044 C 
ATOM     26  N   UNL A   1      33.199  24.204  25.729  1.00  0.00    -0.220 NA
ATOM     27  C   UNL A   1      32.200  22.126  25.422  1.00  0.00     0.057 A 
ATOM     28  S   UNL A   1      30.881  23.152  25.870  1.00  0.00    -0.097 S 
ENDBRANCH  15  18
ENDBRANCH   8  14
ENDBRANCH   4   7
ENDBRANCH   2   3
ENDBRANCH   1   2
BRANCH   1  29
ATOM     29  C   UNL A   1      34.510  31.335  27.616  1.00  0.00     0.023 C 
BRANCH  29  30
ATOM     30  C   UNL A   1      34.948  32.660  28.231  1.00  0.00     0.116 C 
BRANCH  30  31
ATOM     31  N   UNL A   1      34.803  32.660  29.673  1.00  0.00    -0.352 N 
ATOM     32  C   UNL A   1      35.459  32.088  30.721  1.00  0.00     0.251 C 
ATOM     33  H   UNL A   1      34.040  33.211  29.967  1.00  0.00     0.163 HD
ATOM     34  O   UNL A   1      34.945  32.264  31.829  1.00  0.00    -0.269 OA
BRANCH  32  35
ATOM     35  C   UNL A   1      36.714  31.292  30.640  1.00  0.00     0.039 A 
ATOM     36  C   UNL A   1      38.013  31.793  30.675  1.00  0.00     0.014 A 
ATOM     37  C   UNL A   1      36.540  29.900  30.497  1.00  0.00     0.014 A 
ATOM     38  C   UNL A   1      39.103  30.928  30.547  1.00  0.00     0.010 A 
ATOM     39  C   UNL A   1      37.624  29.033  30.381  1.00  0.00     0.010 A 
ATOM     40  C   UNL A   1      38.913  29.549  30.381  1.00  0.00    -0.014 A 
BRANCH  40  41
ATOM     41  C   UNL A   1      40.102  28.692  30.317  1.00  0.00     0.031 A 
ATOM     42  C   UNL A   1      40.819  28.510  31.612  1.00  0.00     0.074 A 
ATOM     43  C   UNL A   1      40.534  28.026  29.225  1.00  0.00     0.049 A 
ATOM     44  N   UNL A   1      42.011  28.908  31.919  1.00  0.00    -0.248 NA
ATOM     45  C   UNL A   1      40.090  27.890  32.728  1.00  0.00     0.031 C 
ATOM     46  C   UNL A   1      39.859  27.837  27.939  1.00  0.00     0.029 A 
ATOM     47  N   UNL A   1      41.690  27.310  29.073  1.00  0.00    -0.354 N 
ATOM     48  C   UNL A   1      42.247  28.476  33.222  1.00  0.00     0.074 A 
ATOM     49  C   UNL A   1      40.998  27.941  33.704  1.00  0.00     0.031 C 
ATOM     50  C   UNL A   1      40.520  26.903  27.217  1.00  0.00     0.029 A 
ATOM     51  C   UNL A   1      41.743  26.547  27.915  1.00  0.00     0.049 A 
ATOM     52  H   UNL A   1      42.422  27.334  29.731  1.00  0.00     0.167 HD
ATOM     53  C   UNL A   1      43.503  28.441  33.746  1.00  0.00     0.037 A 
ATOM     54  C   UNL A   1      42.716  25.671  27.566  1.00  0.00     0.037 A 
ATOM     55  C   UNL A   1      44.413  29.257  32.988  1.00  0.00     0.049 A 
ATOM     56  C   UNL A   1      43.944  26.053  28.298  1.00  0.00     0.074 A 
ATOM     57  C   UNL A   1      44.541  30.607  32.731  1.00  0.00     0.029 A 
ATOM     58  N   UNL A   1      45.220  28.624  32.081  1.00  0.00    -0.354 N 
ATOM     59  N   UNL A   1      44.626  27.139  28.071  1.00  0.00    -0.248 NA
ATOM     60  C   UNL A   1      44.243  25.376  29.549  1.00  0.00     0.031 C 
ATOM     61  C   UNL A   1      45.062  30.688  31.407  1.00  0.00     0.029 A 
ATOM     62  C   UNL A   1      45.254  29.386  30.944  1.00  0.00     0.049 A 
ATOM     63  H   UNL A   1      45.691  27.771  32.221  1.00  0.00     0.167 HD
ATOM     64  C   UNL A   1      45.106  27.513  29.315  1.00  0.00     0.074 A 
ATOM     65  C   UNL A   1      44.960  26.327  30.149  1.00  0.00     0.031 C 
ATOM     66  C   UNL A   1      45.313  28.827  29.613  1.00  0.00     0.037 A 
BRANCH  53  67
ATOM     67  C   UNL A   1      44.001  27.412  34.731  1.00  0.00     0.064 A 
ATOM     68  C   UNL A   1      43.979  26.046  34.377  1.00  0.00     0.173 A 
ATOM     69  C   UNL A   1      44.191  27.680  36.103  1.00  0.00     0.173 A 
ATOM     70  F   UNL A   1      43.784  25.671  33.104  1.00  0.00    -0.203 F 
ATOM     71  C   UNL A   1      44.062  25.031  35.335  1.00  0.00     0.198 A 
ATOM     72  C   UNL A   1      44.323  26.665  37.049  1.00  0.00     0.198 A 
ATOM     73  F   UNL A   1      44.143  28.924  36.595  1.00  0.00    -0.203 F 
ATOM     74  F   UNL A   1      43.909  23.752  34.966  1.00  0.00    -0.200 F 
ATOM     75  C   UNL A   1      44.226  25.342  36.672  1.00  0.00     0.200 A 
ATOM     76  F   UNL A   1      44.461  26.986  38.344  1.00  0.00    -0.200 F 
ATOM     77  F   UNL A   1      44.240  24.375  37.599  1.00  0.00    -0.200 F 
ENDBRANCH  53  67
BRANCH  54  78
ATOM     78  C   UNL A   1      42.590  24.363  26.879  1.00  0.00     0.064 A 
ATOM     79  C   UNL A   1      43.112  24.172  25.586  1.00  0.00     0.173 A 
ATOM     80  C   UNL A   1      42.247  23.201  27.593  1.00  0.00     0.173 A 
ATOM     81  F   UNL A   1      43.500  25.224  24.851  1.00  0.00    -0.203 F 
ATOM     82  C   UNL A   1      43.323  22.893  25.062  1.00  0.00     0.198 A 
ATOM     83  C   UNL A   1      42.452  21.924  27.066  1.00  0.00     0.198 A 
ATOM     84  F   UNL A   1      41.803  23.276  28.856  1.00  0.00    -0.203 F 
ATOM     85  F   UNL A   1      43.897  22.749  23.859  1.00  0.00    -0.200 F 
ATOM     86  C   UNL A   1      43.008  21.770  25.809  1.00  0.00     0.200 A 
ATOM     87  F   UNL A   1      42.177  20.846  27.813  1.00  0.00    -0.200 F 
ATOM     88  F   UNL A   1      43.281  20.544  25.340  1.00  0.00    -0.200 F 
ENDBRANCH  54  78
BRANCH  66  89
ATOM     89  C   UNL A   1      45.361  29.805  28.473  1.00  0.00     0.064 A 
ATOM     90  C   UNL A   1      44.229  30.414  27.905  1.00  0.00     0.173 A 
ATOM     91  C   UNL A   1      46.619  30.243  28.036  1.00  0.00     0.173 A 
ATOM     92  F   UNL A   1      42.995  30.115  28.332  1.00  0.00    -0.203 F 
ATOM     93  C   UNL A   1      44.356  31.394  26.922  1.00  0.00     0.198 A 
ATOM     94  C   UNL A   1      46.744  31.248  27.082  1.00  0.00     0.198 A 
ATOM     95  F   UNL A   1      47.735  29.730  28.578  1.00  0.00    -0.203 F 
ATOM     96  F   UNL A   1      43.263  31.958  26.387  1.00  0.00    -0.200 F 
ATOM     97  C   UNL A   1      45.613  31.818  26.519  1.00  0.00     0.200 A 
ATOM     98  F   UNL A   1      47.960  31.688  26.732  1.00  0.00    -0.200 F 
ATOM     99  F   UNL A   1      45.736  32.795  25.610  1.00  0.00    -0.200 F 
ENDBRANCH  66  89
ENDBRANCH  40  41
ENDBRANCH  32  35
ENDBRANCH  30  31
ENDBRANCH  29  30
ENDBRANCH   1  29
TORSDOF 13
ENDMDL
MODEL 3
REMARK VINA RESULT:     -14.2      3.399      8.561
REMARK SMILES Cc1cc2nc(NC(=O)[C@H]3[C@@H](C(=O)NCCCCNC(=O)c4ccc(-c5c6nc(c(-c7c(F)c(F)c(F)c(F)c7F)c7ccc([nH]7)c(-c7c(F)c(F)c(F)c(F)c7F)c7nc(c(-c8c(F)c(F)c(F)c(F)c8F)c8ccc5[nH]8)C=C7)C=C6)cc4)[C@@H]4C=C[C@H]3C4)sc2cc1C
REMARK SMILES IDX 16 1 15 2 14 3 12 4 13 5 11 7 10 8 88 9 85 10 87 11 89 12
REMARK SMILES IDX 86 13 8 14 7 15 9 17 6 18 1 19 2 20 3 21 93 22 4 23 92 24
REMARK SMILES IDX 94 25 5 26 91 27 90 28 17 29 18 30 19 31 20 32 21 34 22 35
REMARK SMILES IDX 23 36 84 37 24 38 83 39 25 40 26 41 27 42 77 43 28 44 82 45
REMARK SMILES IDX 76 46 78 47 29 48 81 49 75 50 74 51 30 53 62 54 42 55 61 56
REMARK SMILES IDX 43 57 46 58 60 59 79 60 44 61 45 62 59 64 80 65 47 66 31 67
REMARK SMILES IDX 32 68 40 69 33 70 34 71 38 72 41 73 35 74 36 75 39 76 37 77
REMARK SMILES IDX 63 78 64 79 72 80 65 81 66 82 70 83 73 84 67 85 68 86 71 87
REMARK SMILES IDX 69 88 48 89 49 90 57 91 50 92 51 93 55 94 58 95 52 96 53 97
REMARK SMILES IDX 56 98 54 99
REMARK H PARENT 14 6 7 16 19 33 78 52 46 63
REMARK Flexibility Score: inf
ROOT
ATOM      1  C   UNL A   1      34.556  29.121  27.283  1.00  0.00     0.023 C 
ENDROOT
BRANCH   1   2
ATOM      2  C   UNL A   1      34.000  28.156  26.233  1.00  0.00     0.116 C 
BRANCH   2   3
ATOM      3  N   UNL A   1      32.915  27.291  26.678  1.00  0.00    -0.356 N 
ATOM      4  C   UNL A   1      32.550  26.042  26.226  1.00  0.00     0.224 C 
ATOM      5  O   UNL A   1      31.668  25.418  26.792  1.00  0.00    -0.275 OA
ATOM      6  H   UNL A   1      32.361  27.653  27.407  1.00  0.00     0.163 HD
BRANCH   4   7
ATOM      7  C   UNL A   1      33.281  25.505  25.014  1.00  0.00     0.098 C 
ATOM      8  C   UNL A   1      32.406  25.105  23.758  1.00  0.00     0.099 C 
ATOM      9  C   UNL A   1      33.165  23.840  23.312  1.00  0.00     0.025 C 
ATOM     10  C   UNL A   1      34.112  24.211  25.296  1.00  0.00     0.025 C 
ATOM     11  C   UNL A   1      34.649  24.106  23.080  1.00  0.00    -0.027 C 
ATOM     12  C   UNL A   1      33.277  23.105  24.650  1.00  0.00     0.017 C 
ATOM     13  C   UNL A   1      35.230  24.248  24.278  1.00  0.00    -0.027 C 
BRANCH   8  14
ATOM     14  C   UNL A   1      30.864  25.119  24.055  1.00  0.00     0.230 C 
ATOM     15  N   UNL A   1      29.977  26.131  24.087  1.00  0.00    -0.302 N 
ATOM     16  H   UNL A   1      29.114  25.913  24.510  1.00  0.00     0.172 HD
ATOM     17  O   UNL A   1      30.308  24.057  24.383  1.00  0.00    -0.274 OA
BRANCH  15  18
ATOM     18  C   UNL A   1      30.082  27.395  23.632  1.00  0.00     0.190 A 
ATOM     19  C   UNL A   1      27.925  31.930  20.546  1.00  0.00     0.044 C 
ATOM     20  C   UNL A   1      28.680  31.255  21.655  1.00  0.00    -0.046 A 
ATOM     21  C   UNL A   1      28.978  29.903  21.472  1.00  0.00     0.033 A 
ATOM     22  C   UNL A   1      29.115  31.898  22.829  1.00  0.00    -0.047 A 
ATOM     23  C   UNL A   1      29.575  29.170  22.502  1.00  0.00     0.084 A 
ATOM     24  C   UNL A   1      29.722  31.161  23.873  1.00  0.00     0.025 A 
ATOM     25  C   UNL A   1      28.966  33.378  23.048  1.00  0.00     0.044 C 
ATOM     26  N   UNL A   1      29.806  27.829  22.450  1.00  0.00    -0.220 NA
ATOM     27  C   UNL A   1      29.907  29.787  23.702  1.00  0.00     0.057 A 
ATOM     28  S   UNL A   1      30.492  28.575  24.790  1.00  0.00    -0.097 S 
ENDBRANCH  15  18
ENDBRANCH   8  14
ENDBRANCH   4   7
ENDBRANCH   2   3
ENDBRANCH   1   2
BRANCH   1  29
ATOM     29  C   UNL A   1      33.629  30.285  27.664  1.00  0.00     0.023 C 
BRANCH  29  30
ATOM     30  C   UNL A   1      34.343  31.630  27.757  1.00  0.00     0.116 C 
BRANCH  30  31
ATOM     31  N   UNL A   1      34.437  32.098  29.125  1.00  0.00    -0.352 N 
ATOM     32  C   UNL A   1      35.298  31.910  30.164  1.00  0.00     0.251 C 
ATOM     33  H   UNL A   1      33.695  32.701  29.361  1.00  0.00     0.163 HD
ATOM     34  O   UNL A   1      34.962  32.429  31.233  1.00  0.00    -0.269 OA
BRANCH  32  35
ATOM     35  C   UNL A   1      36.578  31.152  30.117  1.00  0.00     0.039 A 
ATOM     36  C   UNL A   1      37.845  31.685  29.893  1.00  0.00     0.014 A 
ATOM     37  C   UNL A   1      36.465  29.758  30.302  1.00  0.00     0.014 A 
ATOM     38  C   UNL A   1      38.960  30.845  29.832  1.00  0.00     0.010 A 
ATOM     39  C   UNL A   1      37.575  28.919  30.255  1.00  0.00     0.010 A 
ATOM     40  C   UNL A   1      38.828  29.459  29.995  1.00  0.00    -0.014 A 
BRANCH  40  41
ATOM     41  C   UNL A   1      40.047  28.644  29.984  1.00  0.00     0.031 A 
ATOM     42  C   UNL A   1      40.711  28.484  31.310  1.00  0.00     0.074 A 
ATOM     43  C   UNL A   1      40.550  27.995  28.913  1.00  0.00     0.049 A 
ATOM     44  N   UNL A   1      41.874  28.922  31.671  1.00  0.00    -0.248 NA
ATOM     45  C   UNL A   1      39.955  27.837  32.392  1.00  0.00     0.031 C 
ATOM     46  C   UNL A   1      39.941  27.786  27.598  1.00  0.00     0.029 A 
ATOM     47  N   UNL A   1      41.736  27.319  28.813  1.00  0.00    -0.354 N 
ATOM     48  C   UNL A   1      42.065  28.495  32.982  1.00  0.00     0.074 A 
ATOM     49  C   UNL A   1      40.816  27.917  33.408  1.00  0.00     0.031 C 
ATOM     50  C   UNL A   1      40.666  26.876  26.905  1.00  0.00     0.029 A 
ATOM     51  C   UNL A   1      41.867  26.561  27.658  1.00  0.00     0.049 A 
ATOM     52  H   UNL A   1      42.436  27.367  29.503  1.00  0.00     0.167 HD
ATOM     53  C   UNL A   1      43.298  28.503  33.563  1.00  0.00     0.037 A 
ATOM     54  C   UNL A   1      42.884  25.720  27.352  1.00  0.00     0.037 A 
ATOM     55  C   UNL A   1      44.211  29.351  32.846  1.00  0.00     0.049 A 
ATOM     56  C   UNL A   1      44.065  26.142  28.139  1.00  0.00     0.074 A 
ATOM     57  C   UNL A   1      44.304  30.705  32.597  1.00  0.00     0.029 A 
ATOM     58  N   UNL A   1      45.080  28.748  31.977  1.00  0.00    -0.354 N 
ATOM     59  N   UNL A   1      44.718  27.252  27.943  1.00  0.00    -0.248 NA
ATOM     60  C   UNL A   1      44.331  25.473  29.402  1.00  0.00     0.031 C 
ATOM     61  C   UNL A   1      44.881  30.807  31.297  1.00  0.00     0.029 A 
ATOM     62  C   UNL A   1      45.139  29.513  30.843  1.00  0.00     0.049 A 
ATOM     63  H   UNL A   1      45.573  27.912  32.138  1.00  0.00     0.167 HD
ATOM     64  C   UNL A   1      45.129  27.640  29.208  1.00  0.00     0.074 A 
ATOM     65  C   UNL A   1      44.987  26.448  30.034  1.00  0.00     0.031 C 
ATOM     66  C   UNL A   1      45.277  28.960  29.516  1.00  0.00     0.037 A 
BRANCH  53  67
ATOM     67  C   UNL A   1      43.785  27.489  34.569  1.00  0.00     0.064 A 
ATOM     68  C   UNL A   1      43.850  26.127  34.205  1.00  0.00     0.173 A 
ATOM     69  C   UNL A   1      43.882  27.754  35.951  1.00  0.00     0.173 A 
ATOM     70  F   UNL A   1      43.749  25.756  32.920  1.00  0.00    -0.203 F 
ATOM     71  C   UNL A   1      43.926  25.109  35.160  1.00  0.00     0.198 A 
ATOM     72  C   UNL A   1      44.007  26.737  36.897  1.00  0.00     0.198 A 
ATOM     73  F   UNL A   1      43.744  28.990  36.447  1.00  0.00    -0.203 F 
ATOM     74  F   UNL A   1      43.857  23.827  34.774  1.00  0.00    -0.200 F 
ATOM     75  C   UNL A   1      43.996  25.414  36.506  1.00  0.00     0.200 A 
ATOM     76  F   UNL A   1      44.052  27.052  38.199  1.00  0.00    -0.200 F 
ATOM     77  F   UNL A   1      44.002  24.441  37.426  1.00  0.00    -0.200 F 
ENDBRANCH  53  67
BRANCH  54  78
ATOM     78  C   UNL A   1      42.835  24.410  26.659  1.00  0.00     0.064 A 
ATOM     79  C   UNL A   1      43.455  24.228  25.410  1.00  0.00     0.173 A 
ATOM     80  C   UNL A   1      42.461  23.241  27.347  1.00  0.00     0.173 A 
ATOM     81  F   UNL A   1      43.878  25.287  24.705  1.00  0.00    -0.203 F 
ATOM     82  C   UNL A   1      43.730  22.953  24.905  1.00  0.00     0.198 A 
ATOM     83  C   UNL A   1      42.729  21.969  26.840  1.00  0.00     0.198 A 
ATOM     84  F   UNL A   1      41.922  23.309  28.573  1.00  0.00    -0.203 F 
ATOM     85  F   UNL A   1      44.395  22.820  23.749  1.00  0.00    -0.200 F 
ATOM     86  C   UNL A   1      43.380  21.825  25.628  1.00  0.00     0.200 A 
ATOM     87  F   UNL A   1      42.419  20.886  27.565  1.00  0.00    -0.200 F 
ATOM     88  F   UNL A   1      43.710  20.604  25.183  1.00  0.00    -0.200 F 
ENDBRANCH  54  78
BRANCH  66  89
ATOM     89  C   UNL A   1      45.343  29.940  28.379  1.00  0.00     0.064 A 
ATOM     90  C   UNL A   1      44.218  30.527  27.775  1.00  0.00     0.173 A 
ATOM     91  C   UNL A   1      46.605  30.405  27.985  1.00  0.00     0.173 A 
ATOM     92  F   UNL A   1      42.977  30.202  28.160  1.00  0.00    -0.203 F 
ATOM     93  C   UNL A   1      44.357  31.512  26.798  1.00  0.00     0.198 A 
ATOM     94  C   UNL A   1      46.740  31.415  27.038  1.00  0.00     0.198 A 
ATOM     95  F   UNL A   1      47.713  29.915  28.563  1.00  0.00    -0.203 F 
ATOM     96  F   UNL A   1      43.270  32.054  26.228  1.00  0.00    -0.200 F 
ATOM     97  C   UNL A   1      45.617  31.962  26.438  1.00  0.00     0.200 A 
ATOM     98  F   UNL A   1      47.958  31.880  26.728  1.00  0.00    -0.200 F 
ATOM     99  F   UNL A   1      45.750  32.944  25.535  1.00  0.00    -0.200 F 
ENDBRANCH  66  89
ENDBRANCH  40  41
ENDBRANCH  32  35
ENDBRANCH  30  31
ENDBRANCH  29  30
ENDBRANCH   1  29
TORSDOF 13
ENDMDL
