MODEL 1
REMARK VINA RESULT:     -13.9      0.000      0.000
REMARK SMILES C[C@@H]1[C@H](C(=O)NCCCCNC(=O)c2ccc(-c3c4nc(c(-c5c(F)c(F)c(F)c(F)c5F)c5ccc([nH]5)c(-c5c(F)c(F)c(F)c(F)c5F)c5nc(c(-c6c(F)c(F)c(F)c(F)c6F)c6ccc3[nH]6)C=C5)C=C4)cc2)CC[N@H+]1Cc1cnn(-c2ccccc2)c1
REMARK SMILES IDX 8 1 7 2 6 3 4 4 5 5 3 7 1 8 2 9 79 10 77 11 78 12 80 14
REMARK SMILES IDX 81 15 82 16 91 17 83 18 84 19 85 20 86 21 90 22 87 23 89 24
REMARK SMILES IDX 88 25 9 26 10 27 11 28 12 29 13 31 14 32 15 33 76 34 16 35
REMARK SMILES IDX 75 36 17 37 18 38 19 39 69 40 20 41 74 42 68 43 70 44 21 45
REMARK SMILES IDX 73 46 67 47 66 48 22 50 54 51 34 52 53 53 35 54 38 55 52 56
REMARK SMILES IDX 71 57 36 58 37 59 51 61 72 62 39 63 23 64 24 65 32 66 25 67
REMARK SMILES IDX 26 68 30 69 33 70 27 71 28 72 31 73 29 74 55 75 56 76 64 77
REMARK SMILES IDX 57 78 58 79 62 80 65 81 59 82 60 83 63 84 61 85 40 86 41 87
REMARK SMILES IDX 49 88 42 89 43 90 47 91 50 92 44 93 45 94 48 95 46 96
REMARK H PARENT 6 6 79 13 11 30 70 49 38 60
REMARK Flexibility Score: inf
ROOT
ATOM      1  C   UNL A   1      32.143  30.091  26.740  1.00  0.00     0.023 C 
ENDROOT
BRANCH   1   2
ATOM      2  C   UNL A   1      33.570  29.792  26.289  1.00  0.00     0.116 C 
BRANCH   2   3
ATOM      3  N   UNL A   1      33.589  29.108  25.015  1.00  0.00    -0.356 N 
ATOM      4  C   UNL A   1      33.620  27.782  24.727  1.00  0.00     0.229 C 
ATOM      5  O   UNL A   1      33.721  27.479  23.533  1.00  0.00    -0.275 OA
ATOM      6  H   UNL A   1      33.575  29.701  24.229  1.00  0.00     0.163 HD
BRANCH   4   7
ATOM      7  C   UNL A   1      33.519  26.682  25.777  1.00  0.00     0.142 C 
ATOM      8  C   UNL A   1      30.894  26.732  25.551  1.00  0.00     0.076 C 
ATOM      9  C   UNL A   1      32.135  26.144  26.201  1.00  0.00     0.193 C 
ATOM     10  N   UNL A   1      32.305  24.709  26.056  1.00  0.00    -0.328 N 
ATOM     11  C   UNL A   1      34.394  25.447  25.507  1.00  0.00     0.081 C 
ATOM     12  C   UNL A   1      33.680  24.320  26.235  1.00  0.00     0.263 C 
ATOM     13  H   UNL A   1      31.654  24.440  25.318  1.00  0.00     0.348 HD
BRANCH  10  14
ATOM     14  C   UNL A   1      31.253  23.741  25.909  1.00  0.00     0.302 C 
BRANCH  14  15
ATOM     15  C   UNL A   1      31.701  22.672  24.963  1.00  0.00     0.045 A 
ATOM     16  C   UNL A   1      31.678  22.698  23.553  1.00  0.00     0.145 A 
ATOM     17  C   UNL A   1      32.241  21.431  25.247  1.00  0.00     0.124 A 
ATOM     18  N   UNL A   1      32.173  21.592  22.999  1.00  0.00    -0.176 NA
ATOM     19  N   UNL A   1      32.499  20.797  24.048  1.00  0.00    -0.240 N 
BRANCH  19  20
ATOM     20  C   UNL A   1      32.966  19.472  23.841  1.00  0.00     0.065 A 
ATOM     21  C   UNL A   1      34.071  19.013  24.569  1.00  0.00     0.028 A 
ATOM     22  C   UNL A   1      32.374  18.637  22.882  1.00  0.00     0.028 A 
ATOM     23  C   UNL A   1      34.569  17.728  24.351  1.00  0.00     0.002 A 
ATOM     24  C   UNL A   1      32.911  17.370  22.633  1.00  0.00     0.002 A 
ATOM     25  C   UNL A   1      34.000  16.913  23.373  1.00  0.00     0.000 A 
ENDBRANCH  19  20
ENDBRANCH  14  15
ENDBRANCH  10  14
ENDBRANCH   4   7
ENDBRANCH   2   3
ENDBRANCH   1   2
BRANCH   1  26
ATOM     26  C   UNL A   1      31.731  31.549  26.768  1.00  0.00     0.023 C 
BRANCH  26  27
ATOM     27  C   UNL A   1      32.841  32.525  27.104  1.00  0.00     0.116 C 
BRANCH  27  28
ATOM     28  N   UNL A   1      32.389  33.813  27.618  1.00  0.00    -0.352 N 
ATOM     29  C   UNL A   1      33.034  34.638  28.512  1.00  0.00     0.251 C 
ATOM     30  H   UNL A   1      31.519  34.130  27.285  1.00  0.00     0.163 HD
ATOM     31  O   UNL A   1      32.640  35.760  28.783  1.00  0.00    -0.269 OA
BRANCH  29  32
ATOM     32  C   UNL A   1      34.254  34.136  29.152  1.00  0.00     0.039 A 
ATOM     33  C   UNL A   1      35.502  34.600  28.727  1.00  0.00     0.014 A 
ATOM     34  C   UNL A   1      34.132  33.246  30.218  1.00  0.00     0.014 A 
ATOM     35  C   UNL A   1      36.646  34.184  29.404  1.00  0.00     0.010 A 
ATOM     36  C   UNL A   1      35.256  32.919  30.951  1.00  0.00     0.010 A 
ATOM     37  C   UNL A   1      36.523  33.351  30.526  1.00  0.00    -0.014 A 
BRANCH  37  38
ATOM     38  C   UNL A   1      37.698  32.782  31.222  1.00  0.00     0.031 A 
ATOM     39  C   UNL A   1      38.425  31.651  30.552  1.00  0.00     0.074 A 
ATOM     40  C   UNL A   1      38.024  33.185  32.461  1.00  0.00     0.049 A 
ATOM     41  N   UNL A   1      39.310  30.824  31.040  1.00  0.00    -0.248 NA
ATOM     42  C   UNL A   1      38.053  31.378  29.152  1.00  0.00     0.031 C 
ATOM     43  C   UNL A   1      37.369  34.258  33.209  1.00  0.00     0.029 A 
ATOM     44  N   UNL A   1      38.979  32.710  33.323  1.00  0.00    -0.354 N 
ATOM     45  C   UNL A   1      39.560  29.908  30.026  1.00  0.00     0.074 A 
ATOM     46  C   UNL A   1      38.691  30.243  28.921  1.00  0.00     0.031 C 
ATOM     47  C   UNL A   1      37.947  34.364  34.418  1.00  0.00     0.029 A 
ATOM     48  C   UNL A   1      38.977  33.338  34.543  1.00  0.00     0.049 A 
ATOM     49  H   UNL A   1      39.606  31.988  33.088  1.00  0.00     0.167 HD
ATOM     50  C   UNL A   1      40.454  28.892  30.013  1.00  0.00     0.037 A 
ATOM     51  C   UNL A   1      39.717  33.090  35.640  1.00  0.00     0.037 A 
ATOM     52  C   UNL A   1      41.344  28.610  31.105  1.00  0.00     0.049 A 
ATOM     53  C   UNL A   1      40.723  31.969  35.595  1.00  0.00     0.074 A 
ATOM     54  C   UNL A   1      42.333  27.649  31.190  1.00  0.00     0.029 A 
ATOM     55  N   UNL A   1      41.356  29.308  32.306  1.00  0.00    -0.354 N 
ATOM     56  N   UNL A   1      40.982  31.126  34.624  1.00  0.00    -0.248 NA
ATOM     57  C   UNL A   1      41.545  31.770  36.796  1.00  0.00     0.031 C 
ATOM     58  C   UNL A   1      42.919  27.740  32.456  1.00  0.00     0.029 A 
ATOM     59  C   UNL A   1      42.332  28.794  33.141  1.00  0.00     0.049 A 
ATOM     60  H   UNL A   1      40.759  30.059  32.529  1.00  0.00     0.167 HD
ATOM     61  C   UNL A   1      42.017  30.323  35.080  1.00  0.00     0.074 A 
ATOM     62  C   UNL A   1      42.345  30.786  36.413  1.00  0.00     0.031 C 
ATOM     63  C   UNL A   1      42.645  29.294  34.455  1.00  0.00     0.037 A 
BRANCH  50  64
ATOM     64  C   UNL A   1      40.502  28.028  28.787  1.00  0.00     0.064 A 
ATOM     65  C   UNL A   1      39.790  26.819  28.703  1.00  0.00     0.173 A 
ATOM     66  C   UNL A   1      41.274  28.408  27.678  1.00  0.00     0.173 A 
ATOM     67  F   UNL A   1      39.051  26.398  29.741  1.00  0.00    -0.203 F 
ATOM     68  C   UNL A   1      39.883  26.008  27.576  1.00  0.00     0.198 A 
ATOM     69  C   UNL A   1      41.333  27.611  26.537  1.00  0.00     0.198 A 
ATOM     70  F   UNL A   1      41.974  29.551  27.701  1.00  0.00    -0.203 F 
ATOM     71  F   UNL A   1      39.248  24.827  27.550  1.00  0.00    -0.200 F 
ATOM     72  C   UNL A   1      40.647  26.408  26.491  1.00  0.00     0.200 A 
ATOM     73  F   UNL A   1      42.063  28.005  25.485  1.00  0.00    -0.200 F 
ATOM     74  F   UNL A   1      40.731  25.626  25.405  1.00  0.00    -0.200 F 
ENDBRANCH  50  64
BRANCH  51  75
ATOM     75  C   UNL A   1      39.560  33.937  36.851  1.00  0.00     0.064 A 
ATOM     76  C   UNL A   1      38.791  33.493  37.937  1.00  0.00     0.173 A 
ATOM     77  C   UNL A   1      40.173  35.193  36.959  1.00  0.00     0.173 A 
ATOM     78  F   UNL A   1      38.170  32.306  37.876  1.00  0.00    -0.203 F 
ATOM     79  C   UNL A   1      38.625  34.282  39.074  1.00  0.00     0.198 A 
ATOM     80  C   UNL A   1      40.030  35.969  38.108  1.00  0.00     0.198 A 
ATOM     81  F   UNL A   1      40.926  35.661  35.952  1.00  0.00    -0.203 F 
ATOM     82  F   UNL A   1      37.850  33.849  40.079  1.00  0.00    -0.200 F 
ATOM     83  C   UNL A   1      39.251  35.516  39.162  1.00  0.00     0.200 A 
ATOM     84  F   UNL A   1      40.649  37.154  38.196  1.00  0.00    -0.200 F 
ATOM     85  F   UNL A   1      39.097  36.270  40.258  1.00  0.00    -0.200 F 
ENDBRANCH  51  75
BRANCH  63  86
ATOM     86  C   UNL A   1      43.785  28.645  35.183  1.00  0.00     0.064 A 
ATOM     87  C   UNL A   1      45.112  29.063  35.003  1.00  0.00     0.173 A 
ATOM     88  C   UNL A   1      43.536  27.622  36.110  1.00  0.00     0.173 A 
ATOM     89  F   UNL A   1      45.401  30.028  34.117  1.00  0.00    -0.203 F 
ATOM     90  C   UNL A   1      46.151  28.458  35.703  1.00  0.00     0.198 A 
ATOM     91  C   UNL A   1      44.574  27.043  36.834  1.00  0.00     0.198 A 
ATOM     92  F   UNL A   1      42.283  27.194  36.327  1.00  0.00    -0.203 F 
ATOM     93  F   UNL A   1      47.416  28.837  35.478  1.00  0.00    -0.200 F 
ATOM     94  C   UNL A   1      45.881  27.456  36.624  1.00  0.00     0.200 A 
ATOM     95  F   UNL A   1      44.310  26.086  37.734  1.00  0.00    -0.200 F 
ATOM     96  F   UNL A   1      46.883  26.881  37.304  1.00  0.00    -0.200 F 
ENDBRANCH  63  86
ENDBRANCH  37  38
ENDBRANCH  29  32
ENDBRANCH  27  28
ENDBRANCH  26  27
ENDBRANCH   1  26
TORSDOF 14
ENDMDL
MODEL 2
REMARK VINA RESULT:     -13.8      0.135      1.581
REMARK SMILES C[C@@H]1[C@H](C(=O)NCCCCNC(=O)c2ccc(-c3c4nc(c(-c5c(F)c(F)c(F)c(F)c5F)c5ccc([nH]5)c(-c5c(F)c(F)c(F)c(F)c5F)c5nc(c(-c6c(F)c(F)c(F)c(F)c6F)c6ccc3[nH]6)C=C5)C=C4)cc2)CC[N@H+]1Cc1cnn(-c2ccccc2)c1
REMARK SMILES IDX 8 1 7 2 6 3 4 4 5 5 3 7 1 8 2 9 79 10 77 11 78 12 80 14
REMARK SMILES IDX 81 15 82 16 91 17 83 18 84 19 85 20 86 21 90 22 87 23 89 24
REMARK SMILES IDX 88 25 9 26 10 27 11 28 12 29 13 31 14 32 15 33 76 34 16 35
REMARK SMILES IDX 75 36 17 37 18 38 19 39 69 40 20 41 74 42 68 43 70 44 21 45
REMARK SMILES IDX 73 46 67 47 66 48 22 50 54 51 34 52 53 53 35 54 38 55 52 56
REMARK SMILES IDX 71 57 36 58 37 59 51 61 72 62 39 63 23 64 24 65 32 66 25 67
REMARK SMILES IDX 26 68 30 69 33 70 27 71 28 72 31 73 29 74 55 75 56 76 64 77
REMARK SMILES IDX 57 78 58 79 62 80 65 81 59 82 60 83 63 84 61 85 40 86 41 87
REMARK SMILES IDX 49 88 42 89 43 90 47 91 50 92 44 93 45 94 48 95 46 96
REMARK H PARENT 6 6 79 13 11 30 70 49 38 60
REMARK Flexibility Score: inf
ROOT
ATOM      1  C   UNL A   1      31.988  30.159  26.385  1.00  0.00     0.023 C 
ENDROOT
BRANCH   1   2
ATOM      2  C   UNL A   1      33.432  29.789  26.056  1.00  0.00     0.116 C 
BRANCH   2   3
ATOM      3  N   UNL A   1      33.515  29.023  24.833  1.00  0.00    -0.356 N 
ATOM      4  C   UNL A   1      33.505  27.681  24.632  1.00  0.00     0.229 C 
ATOM      5  O   UNL A   1      33.682  27.296  23.471  1.00  0.00    -0.275 OA
ATOM      6  H   UNL A   1      33.589  29.562  24.013  1.00  0.00     0.163 HD
BRANCH   4   7
ATOM      7  C   UNL A   1      33.272  26.657  25.738  1.00  0.00     0.142 C 
ATOM      8  C   UNL A   1      30.708  26.609  25.129  1.00  0.00     0.076 C 
ATOM      9  C   UNL A   1      31.852  26.109  25.995  1.00  0.00     0.193 C 
ATOM     10  N   UNL A   1      32.069  24.674  25.988  1.00  0.00    -0.328 N 
ATOM     11  C   UNL A   1      34.202  25.434  25.693  1.00  0.00     0.081 C 
ATOM     12  C   UNL A   1      33.411  24.341  26.394  1.00  0.00     0.263 C 
ATOM     13  H   UNL A   1      31.540  24.331  25.185  1.00  0.00     0.348 HD
BRANCH  10  14
ATOM     14  C   UNL A   1      31.071  23.665  25.764  1.00  0.00     0.302 C 
BRANCH  14  15
ATOM     15  C   UNL A   1      31.629  22.615  24.856  1.00  0.00     0.045 A 
ATOM     16  C   UNL A   1      31.803  22.682  23.457  1.00  0.00     0.145 A 
ATOM     17  C   UNL A   1      32.106  21.357  25.173  1.00  0.00     0.124 A 
ATOM     18  N   UNL A   1      32.354  21.583  22.943  1.00  0.00    -0.176 NA
ATOM     19  N   UNL A   1      32.518  20.753  24.003  1.00  0.00    -0.240 N 
BRANCH  19  20
ATOM     20  C   UNL A   1      32.990  19.425  23.820  1.00  0.00     0.065 A 
ATOM     21  C   UNL A   1      34.107  18.989  24.546  1.00  0.00     0.028 A 
ATOM     22  C   UNL A   1      32.391  18.565  22.889  1.00  0.00     0.028 A 
ATOM     23  C   UNL A   1      34.609  17.702  24.352  1.00  0.00     0.002 A 
ATOM     24  C   UNL A   1      32.931  17.295  22.664  1.00  0.00     0.002 A 
ATOM     25  C   UNL A   1      34.032  16.861  23.401  1.00  0.00     0.000 A 
ENDBRANCH  19  20
ENDBRANCH  14  15
ENDBRANCH  10  14
ENDBRANCH   4   7
ENDBRANCH   2   3
ENDBRANCH   1   2
BRANCH   1  26
ATOM     26  C   UNL A   1      31.685  31.635  26.548  1.00  0.00     0.023 C 
BRANCH  26  27
ATOM     27  C   UNL A   1      32.779  32.448  27.211  1.00  0.00     0.116 C 
BRANCH  27  28
ATOM     28  N   UNL A   1      32.370  33.772  27.663  1.00  0.00    -0.352 N 
ATOM     29  C   UNL A   1      33.051  34.626  28.500  1.00  0.00     0.251 C 
ATOM     30  H   UNL A   1      31.501  34.094  27.329  1.00  0.00     0.163 HD
ATOM     31  O   UNL A   1      32.691  35.771  28.717  1.00  0.00    -0.269 OA
BRANCH  29  32
ATOM     32  C   UNL A   1      34.270  34.127  29.144  1.00  0.00     0.039 A 
ATOM     33  C   UNL A   1      35.519  34.585  28.715  1.00  0.00     0.014 A 
ATOM     34  C   UNL A   1      34.146  33.248  30.218  1.00  0.00     0.014 A 
ATOM     35  C   UNL A   1      36.662  34.173  29.396  1.00  0.00     0.010 A 
ATOM     36  C   UNL A   1      35.269  32.925  30.955  1.00  0.00     0.010 A 
ATOM     37  C   UNL A   1      36.538  33.350  30.526  1.00  0.00    -0.014 A 
BRANCH  37  38
ATOM     38  C   UNL A   1      37.711  32.786  31.227  1.00  0.00     0.031 A 
ATOM     39  C   UNL A   1      38.437  31.647  30.567  1.00  0.00     0.074 A 
ATOM     40  C   UNL A   1      38.038  33.199  32.463  1.00  0.00     0.049 A 
ATOM     41  N   UNL A   1      39.319  30.823  31.063  1.00  0.00    -0.248 NA
ATOM     42  C   UNL A   1      38.065  31.363  29.169  1.00  0.00     0.031 C 
ATOM     43  C   UNL A   1      37.384  34.279  33.202  1.00  0.00     0.029 A 
ATOM     44  N   UNL A   1      38.992  32.729  33.329  1.00  0.00    -0.354 N 
ATOM     45  C   UNL A   1      39.568  29.898  30.057  1.00  0.00     0.074 A 
ATOM     46  C   UNL A   1      38.700  30.225  28.948  1.00  0.00     0.031 C 
ATOM     47  C   UNL A   1      37.962  34.395  34.409  1.00  0.00     0.029 A 
ATOM     48  C   UNL A   1      38.991  33.367  34.544  1.00  0.00     0.049 A 
ATOM     49  H   UNL A   1      39.617  32.004  33.101  1.00  0.00     0.167 HD
ATOM     50  C   UNL A   1      40.460  28.880  30.052  1.00  0.00     0.037 A 
ATOM     51  C   UNL A   1      39.730  33.128  35.643  1.00  0.00     0.037 A 
ATOM     52  C   UNL A   1      41.350  28.606  31.147  1.00  0.00     0.049 A 
ATOM     53  C   UNL A   1      40.733  32.005  35.608  1.00  0.00     0.074 A 
ATOM     54  C   UNL A   1      42.337  27.644  31.240  1.00  0.00     0.029 A 
ATOM     55  N   UNL A   1      41.363  29.315  32.342  1.00  0.00    -0.354 N 
ATOM     56  N   UNL A   1      40.991  31.152  34.644  1.00  0.00    -0.248 NA
ATOM     57  C   UNL A   1      41.554  31.815  36.811  1.00  0.00     0.031 C 
ATOM     58  C   UNL A   1      42.923  27.745  32.506  1.00  0.00     0.029 A 
ATOM     59  C   UNL A   1      42.337  28.805  33.182  1.00  0.00     0.049 A 
ATOM     60  H   UNL A   1      40.767  30.068  32.559  1.00  0.00     0.167 HD
ATOM     61  C   UNL A   1      42.025  30.351  35.108  1.00  0.00     0.074 A 
ATOM     62  C   UNL A   1      42.353  30.826  36.437  1.00  0.00     0.031 C 
ATOM     63  C   UNL A   1      42.651  29.316  34.492  1.00  0.00     0.037 A 
BRANCH  50  64
ATOM     64  C   UNL A   1      40.508  28.005  28.833  1.00  0.00     0.064 A 
ATOM     65  C   UNL A   1      41.275  28.347  27.706  1.00  0.00     0.173 A 
ATOM     66  C   UNL A   1      39.775  26.810  28.786  1.00  0.00     0.173 A 
ATOM     67  F   UNL A   1      41.980  29.488  27.690  1.00  0.00    -0.203 F 
ATOM     68  C   UNL A   1      41.272  27.547  26.567  1.00  0.00     0.198 A 
ATOM     69  C   UNL A   1      39.806  25.993  27.658  1.00  0.00     0.198 A 
ATOM     70  F   UNL A   1      39.026  26.433  29.833  1.00  0.00    -0.203 F 
ATOM     71  F   UNL A   1      41.957  27.930  25.480  1.00  0.00    -0.200 F 
ATOM     72  C   UNL A   1      40.544  26.367  26.547  1.00  0.00     0.200 A 
ATOM     73  F   UNL A   1      39.111  24.847  27.645  1.00  0.00    -0.200 F 
ATOM     74  F   UNL A   1      40.546  25.596  25.450  1.00  0.00    -0.200 F 
ENDBRANCH  50  64
BRANCH  51  75
ATOM     75  C   UNL A   1      39.573  33.985  36.847  1.00  0.00     0.064 A 
ATOM     76  C   UNL A   1      38.781  33.564  37.925  1.00  0.00     0.173 A 
ATOM     77  C   UNL A   1      40.210  35.229  36.955  1.00  0.00     0.173 A 
ATOM     78  F   UNL A   1      38.138  32.389  37.863  1.00  0.00    -0.203 F 
ATOM     79  C   UNL A   1      38.616  34.362  39.055  1.00  0.00     0.198 A 
ATOM     80  C   UNL A   1      40.068  36.015  38.097  1.00  0.00     0.198 A 
ATOM     81  F   UNL A   1      40.985  35.675  35.956  1.00  0.00    -0.203 F 
ATOM     82  F   UNL A   1      37.820  33.952  40.052  1.00  0.00    -0.200 F 
ATOM     83  C   UNL A   1      39.266  35.585  39.143  1.00  0.00     0.200 A 
ATOM     84  F   UNL A   1      40.709  37.188  38.186  1.00  0.00    -0.200 F 
ATOM     85  F   UNL A   1      39.112  36.349  40.233  1.00  0.00    -0.200 F 
ENDBRANCH  51  75
BRANCH  63  86
ATOM     86  C   UNL A   1      43.790  28.671  35.225  1.00  0.00     0.064 A 
ATOM     87  C   UNL A   1      43.585  27.625  36.136  1.00  0.00     0.173 A 
ATOM     88  C   UNL A   1      45.109  29.078  34.973  1.00  0.00     0.173 A 
ATOM     89  F   UNL A   1      42.341  27.210  36.420  1.00  0.00    -0.203 F 
ATOM     90  C   UNL A   1      44.659  27.029  36.791  1.00  0.00     0.198 A 
ATOM     91  C   UNL A   1      46.183  28.458  35.604  1.00  0.00     0.198 A 
ATOM     92  F   UNL A   1      45.357  30.067  34.102  1.00  0.00    -0.203 F 
ATOM     93  F   UNL A   1      44.438  26.066  37.695  1.00  0.00    -0.200 F 
ATOM     94  C   UNL A   1      45.957  27.440  36.518  1.00  0.00     0.200 A 
ATOM     95  F   UNL A   1      47.435  28.844  35.328  1.00  0.00    -0.200 F 
ATOM     96  F   UNL A   1      46.990  26.858  37.143  1.00  0.00    -0.200 F 
ENDBRANCH  63  86
ENDBRANCH  37  38
ENDBRANCH  29  32
ENDBRANCH  27  28
ENDBRANCH  26  27
ENDBRANCH   1  26
TORSDOF 14
ENDMDL
MODEL 3
REMARK VINA RESULT:     -13.7      5.752     11.347
REMARK SMILES C[C@@H]1[C@H](C(=O)NCCCCNC(=O)c2ccc(-c3c4nc(c(-c5c(F)c(F)c(F)c(F)c5F)c5ccc([nH]5)c(-c5c(F)c(F)c(F)c(F)c5F)c5nc(c(-c6c(F)c(F)c(F)c(F)c6F)c6ccc3[nH]6)C=C5)C=C4)cc2)CC[N@H+]1Cc1cnn(-c2ccccc2)c1
REMARK SMILES IDX 8 1 7 2 6 3 4 4 5 5 3 7 1 8 2 9 79 10 77 11 78 12 80 14
REMARK SMILES IDX 81 15 82 16 91 17 83 18 84 19 85 20 86 21 90 22 87 23 89 24
REMARK SMILES IDX 88 25 9 26 10 27 11 28 12 29 13 31 14 32 15 33 76 34 16 35
REMARK SMILES IDX 75 36 17 37 18 38 19 39 69 40 20 41 74 42 68 43 70 44 21 45
REMARK SMILES IDX 73 46 67 47 66 48 22 50 54 51 34 52 53 53 35 54 38 55 52 56
REMARK SMILES IDX 71 57 36 58 37 59 51 61 72 62 39 63 23 64 24 65 32 66 25 67
REMARK SMILES IDX 26 68 30 69 33 70 27 71 28 72 31 73 29 74 55 75 56 76 64 77
REMARK SMILES IDX 57 78 58 79 62 80 65 81 59 82 60 83 63 84 61 85 40 86 41 87
REMARK SMILES IDX 49 88 42 89 43 90 47 91 50 92 44 93 45 94 48 95 46 96
REMARK H PARENT 6 6 79 13 11 30 70 49 38 60
REMARK Flexibility Score: inf
ROOT
ATOM      1  C   UNL A   1      37.249  21.434  24.600  1.00  0.00     0.023 C 
ENDROOT
BRANCH   1   2
ATOM      2  C   UNL A   1      36.626  22.227  25.745  1.00  0.00     0.116 C 
BRANCH   2   3
ATOM      3  N   UNL A   1      35.544  21.496  26.367  1.00  0.00    -0.356 N 
ATOM      4  C   UNL A   1      34.273  21.876  26.652  1.00  0.00     0.229 C 
ATOM      5  O   UNL A   1      33.581  21.063  27.275  1.00  0.00    -0.275 OA
ATOM      6  H   UNL A   1      35.766  20.572  26.623  1.00  0.00     0.163 HD
BRANCH   4   7
ATOM      7  C   UNL A   1      33.671  23.213  26.234  1.00  0.00     0.142 C 
ATOM      8  C   UNL A   1      33.439  22.316  23.767  1.00  0.00     0.076 C 
ATOM      9  C   UNL A   1      33.245  23.443  24.768  1.00  0.00     0.193 C 
ATOM     10  N   UNL A   1      31.886  23.931  24.915  1.00  0.00    -0.328 N 
ATOM     11  C   UNL A   1      32.497  23.693  27.102  1.00  0.00     0.081 C 
ATOM     12  C   UNL A   1      31.699  24.599  26.178  1.00  0.00     0.263 C 
ATOM     13  H   UNL A   1      31.301  23.220  24.474  1.00  0.00     0.348 HD
BRANCH  10  14
ATOM     14  C   UNL A   1      30.865  23.916  23.904  1.00  0.00     0.302 C 
BRANCH  14  15
ATOM     15  C   UNL A   1      30.670  25.305  23.383  1.00  0.00     0.045 A 
ATOM     16  C   UNL A   1      31.369  25.945  22.338  1.00  0.00     0.145 A 
ATOM     17  C   UNL A   1      29.766  26.268  23.794  1.00  0.00     0.124 A 
ATOM     18  N   UNL A   1      30.937  27.182  22.097  1.00  0.00    -0.176 NA
ATOM     19  N   UNL A   1      29.961  27.391  23.016  1.00  0.00    -0.240 N 
BRANCH  19  20
ATOM     20  C   UNL A   1      29.332  28.659  23.135  1.00  0.00     0.065 A 
ATOM     21  C   UNL A   1      30.046  29.728  23.693  1.00  0.00     0.028 A 
ATOM     22  C   UNL A   1      27.996  28.844  22.753  1.00  0.00     0.028 A 
ATOM     23  C   UNL A   1      29.432  30.972  23.853  1.00  0.00     0.002 A 
ATOM     24  C   UNL A   1      27.374  30.078  22.964  1.00  0.00     0.002 A 
ATOM     25  C   UNL A   1      28.093  31.142  23.505  1.00  0.00     0.000 A 
ENDBRANCH  19  20
ENDBRANCH  14  15
ENDBRANCH  10  14
ENDBRANCH   4   7
ENDBRANCH   2   3
ENDBRANCH   1   2
BRANCH   1  26
ATOM     26  C   UNL A   1      37.951  20.144  24.971  1.00  0.00     0.023 C 
BRANCH  26  27
ATOM     27  C   UNL A   1      39.158  20.304  25.874  1.00  0.00     0.116 C 
BRANCH  27  28
ATOM     28  N   UNL A   1      40.182  19.279  25.715  1.00  0.00    -0.352 N 
ATOM     29  C   UNL A   1      41.521  19.369  26.022  1.00  0.00     0.251 C 
ATOM     30  H   UNL A   1      39.879  18.418  25.344  1.00  0.00     0.163 HD
ATOM     31  O   UNL A   1      42.278  18.413  25.978  1.00  0.00    -0.269 OA
BRANCH  29  32
ATOM     32  C   UNL A   1      42.045  20.677  26.428  1.00  0.00     0.039 A 
ATOM     33  C   UNL A   1      42.289  20.937  27.779  1.00  0.00     0.014 A 
ATOM     34  C   UNL A   1      42.346  21.612  25.440  1.00  0.00     0.014 A 
ATOM     35  C   UNL A   1      42.871  22.150  28.141  1.00  0.00     0.010 A 
ATOM     36  C   UNL A   1      43.019  22.767  25.790  1.00  0.00     0.010 A 
ATOM     37  C   UNL A   1      43.249  23.063  27.144  1.00  0.00    -0.014 A 
BRANCH  37  38
ATOM     38  C   UNL A   1      43.768  24.411  27.461  1.00  0.00     0.031 A 
ATOM     39  C   UNL A   1      42.792  25.431  27.975  1.00  0.00     0.074 A 
ATOM     40  C   UNL A   1      45.040  24.740  27.184  1.00  0.00     0.049 A 
ATOM     41  N   UNL A   1      42.922  26.725  28.091  1.00  0.00    -0.248 NA
ATOM     42  C   UNL A   1      41.459  24.923  28.352  1.00  0.00     0.031 C 
ATOM     43  C   UNL A   1      46.061  23.833  26.662  1.00  0.00     0.029 A 
ATOM     44  N   UNL A   1      45.681  25.949  27.277  1.00  0.00    -0.354 N 
ATOM     45  C   UNL A   1      41.678  27.187  28.504  1.00  0.00     0.074 A 
ATOM     46  C   UNL A   1      40.792  26.046  28.558  1.00  0.00     0.031 C 
ATOM     47  C   UNL A   1      47.205  24.516  26.487  1.00  0.00     0.029 A 
ATOM     48  C   UNL A   1      46.981  25.915  26.840  1.00  0.00     0.049 A 
ATOM     49  H   UNL A   1      45.250  26.763  27.624  1.00  0.00     0.167 HD
ATOM     50  C   UNL A   1      41.317  28.449  28.831  1.00  0.00     0.037 A 
ATOM     51  C   UNL A   1      47.876  26.913  26.723  1.00  0.00     0.037 A 
ATOM     52  C   UNL A   1      42.230  29.559  28.819  1.00  0.00     0.049 A 
ATOM     53  C   UNL A   1      47.460  28.307  27.114  1.00  0.00     0.074 A 
ATOM     54  C   UNL A   1      42.001  30.872  29.185  1.00  0.00     0.029 A 
ATOM     55  N   UNL A   1      43.560  29.475  28.428  1.00  0.00    -0.354 N 
ATOM     56  N   UNL A   1      46.294  28.736  27.536  1.00  0.00    -0.248 NA
ATOM     57  C   UNL A   1      48.486  29.354  27.021  1.00  0.00     0.031 C 
ATOM     58  C   UNL A   1      43.183  31.591  28.980  1.00  0.00     0.029 A 
ATOM     59  C   UNL A   1      44.163  30.716  28.537  1.00  0.00     0.049 A 
ATOM     60  H   UNL A   1      44.007  28.654  28.118  1.00  0.00     0.167 HD
ATOM     61  C   UNL A   1      46.455  30.091  27.793  1.00  0.00     0.074 A 
ATOM     62  C   UNL A   1      47.835  30.409  27.487  1.00  0.00     0.031 C 
ATOM     63  C   UNL A   1      45.546  30.993  28.243  1.00  0.00     0.037 A 
BRANCH  50  64
ATOM     64  C   UNL A   1      39.887  28.682  29.223  1.00  0.00     0.064 A 
ATOM     65  C   UNL A   1      38.929  29.134  28.299  1.00  0.00     0.173 A 
ATOM     66  C   UNL A   1      39.465  28.454  30.541  1.00  0.00     0.173 A 
ATOM     67  F   UNL A   1      39.282  29.385  27.029  1.00  0.00    -0.203 F 
ATOM     68  C   UNL A   1      37.618  29.387  28.690  1.00  0.00     0.198 A 
ATOM     69  C   UNL A   1      38.141  28.672  30.919  1.00  0.00     0.198 A 
ATOM     70  F   UNL A   1      40.334  28.021  31.466  1.00  0.00    -0.203 F 
ATOM     71  F   UNL A   1      36.742  29.884  27.805  1.00  0.00    -0.200 F 
ATOM     72  C   UNL A   1      37.223  29.149  29.997  1.00  0.00     0.200 A 
ATOM     73  F   UNL A   1      37.759  28.430  32.180  1.00  0.00    -0.200 F 
ATOM     74  F   UNL A   1      35.959  29.390  30.371  1.00  0.00    -0.200 F 
ENDBRANCH  50  64
BRANCH  51  75
ATOM     75  C   UNL A   1      49.256  26.625  26.249  1.00  0.00     0.064 A 
ATOM     76  C   UNL A   1      49.609  26.837  24.909  1.00  0.00     0.173 A 
ATOM     77  C   UNL A   1      50.247  26.143  27.115  1.00  0.00     0.173 A 
ATOM     78  F   UNL A   1      48.692  27.281  24.037  1.00  0.00    -0.203 F 
ATOM     79  C   UNL A   1      50.895  26.560  24.449  1.00  0.00     0.198 A 
ATOM     80  C   UNL A   1      51.541  25.892  26.661  1.00  0.00     0.198 A 
ATOM     81  F   UNL A   1      49.964  25.930  28.409  1.00  0.00    -0.203 F 
ATOM     82  F   UNL A   1      51.192  26.733  23.153  1.00  0.00    -0.200 F 
ATOM     83  C   UNL A   1      51.862  26.094  25.327  1.00  0.00     0.200 A 
ATOM     84  F   UNL A   1      52.477  25.458  27.514  1.00  0.00    -0.200 F 
ATOM     85  F   UNL A   1      53.100  25.835  24.885  1.00  0.00    -0.200 F 
ENDBRANCH  51  75
BRANCH  63  86
ATOM     86  C   UNL A   1      46.033  32.391  28.488  1.00  0.00     0.064 A 
ATOM     87  C   UNL A   1      45.970  33.380  27.497  1.00  0.00     0.173 A 
ATOM     88  C   UNL A   1      46.525  32.753  29.751  1.00  0.00     0.173 A 
ATOM     89  F   UNL A   1      45.520  33.079  26.269  1.00  0.00    -0.203 F 
ATOM     90  C   UNL A   1      46.410  34.675  27.753  1.00  0.00     0.198 A 
ATOM     91  C   UNL A   1      46.933  34.057  30.014  1.00  0.00     0.198 A 
ATOM     92  F   UNL A   1      46.595  31.845  30.736  1.00  0.00    -0.203 F 
ATOM     93  F   UNL A   1      46.389  35.593  26.777  1.00  0.00    -0.200 F 
ATOM     94  C   UNL A   1      46.883  35.015  29.013  1.00  0.00     0.200 A 
ATOM     95  F   UNL A   1      47.373  34.387  31.236  1.00  0.00    -0.200 F 
ATOM     96  F   UNL A   1      47.298  36.265  29.260  1.00  0.00    -0.200 F 
ENDBRANCH  63  86
ENDBRANCH  37  38
ENDBRANCH  29  32
ENDBRANCH  27  28
ENDBRANCH  26  27
ENDBRANCH   1  26
TORSDOF 14
ENDMDL
