MODEL 1
REMARK VINA RESULT:     -11.7      0.000      0.000
REMARK SMILES CCCOc1ccccc1O[C@@H]1CC[C@@]([NH3+])(C(=O)NCCCCNC(=O)c2ccc(-c3c4nc(c(-c5c(F)c(F)c(F)c(F)c5F)c5ccc([nH]5)c(-c5c(F)c(F)c(F)c(F)c5F)c5nc(c(-c6c(F)c(F)c(F)c(F)c6F)c6ccc3[nH]6)C=C5)C=C4)cc2)C1
REMARK SMILES IDX 20 1 19 2 17 3 18 4 15 6 12 7 13 8 90 9 14 10 11 11 10 12
REMARK SMILES IDX 5 13 6 14 7 15 9 16 8 17 4 18 3 19 2 20 1 21 16 22 21 26
REMARK SMILES IDX 22 27 23 28 24 29 25 30 26 32 27 33 28 34 89 35 29 36 88 37
REMARK SMILES IDX 30 38 31 39 32 40 82 41 33 42 87 43 81 44 83 45 34 46 86 47
REMARK SMILES IDX 80 48 79 49 35 51 67 52 47 53 66 54 48 55 51 56 65 57 84 58
REMARK SMILES IDX 49 59 50 60 64 62 85 63 52 64 36 65 37 66 45 67 38 68 39 69
REMARK SMILES IDX 43 70 46 71 40 72 41 73 44 74 42 75 68 76 69 77 77 78 70 79
REMARK SMILES IDX 71 80 75 81 78 82 72 83 73 84 76 85 74 86 53 87 54 88 62 89
REMARK SMILES IDX 55 90 56 91 60 92 63 93 57 94 58 95 61 96 59 97
REMARK H PARENT 19 5 16 23 16 24 16 25 24 31 83 50 51 61
REMARK Flexibility Score: inf
ROOT
ATOM      1  C   UNL A   1      35.519  20.727  24.838  1.00  0.00     0.116 C 
ENDROOT
BRANCH   1   2
ATOM      2  N   UNL A   1      34.890  20.811  26.133  1.00  0.00    -0.351 N 
ATOM      3  C   UNL A   1      34.135  21.807  26.658  1.00  0.00     0.281 C 
ATOM      4  O   UNL A   1      33.901  21.719  27.868  1.00  0.00    -0.268 OA
ATOM      5  H   UNL A   1      35.030  20.032  26.720  1.00  0.00     0.163 HD
BRANCH   3   6
ATOM      6  C   UNL A   1      33.498  22.902  25.748  1.00  0.00     0.177 C 
ATOM      7  C   UNL A   1      32.654  25.132  26.447  1.00  0.00     0.180 C 
ATOM      8  C   UNL A   1      33.806  25.365  25.485  1.00  0.00     0.052 C 
ATOM      9  C   UNL A   1      32.412  23.632  26.548  1.00  0.00     0.124 C 
ATOM     10  C   UNL A   1      34.437  24.001  25.229  1.00  0.00     0.083 C 
BRANCH   7  11
ATOM     11  O   UNL A   1      31.482  25.947  26.332  1.00  0.00    -0.486 OA
BRANCH  11  12
ATOM     12  C   UNL A   1      31.570  27.284  26.065  1.00  0.00     0.161 A 
ATOM     13  C   UNL A   1      31.091  27.925  24.922  1.00  0.00     0.161 A 
ATOM     14  C   UNL A   1      31.278  29.299  24.728  1.00  0.00     0.050 A 
ATOM     15  C   UNL A   1      31.763  30.081  25.770  1.00  0.00     0.004 A 
ATOM     16  C   UNL A   1      32.012  28.086  27.120  1.00  0.00     0.050 A 
ATOM     17  C   UNL A   1      32.082  29.479  26.984  1.00  0.00     0.004 A 
BRANCH  13  18
ATOM     18  O   UNL A   1      30.303  27.263  24.025  1.00  0.00    -0.490 OA
BRANCH  18  19
ATOM     19  C   UNL A   1      30.790  27.470  22.676  1.00  0.00     0.229 C 
BRANCH  19  20
ATOM     20  C   UNL A   1      31.783  26.400  22.184  1.00  0.00     0.038 C 
ATOM     21  C   UNL A   1      31.505  24.997  22.697  1.00  0.00     0.007 C 
ENDBRANCH  19  20
ENDBRANCH  18  19
ENDBRANCH  13  18
ENDBRANCH  11  12
ENDBRANCH   7  11
BRANCH   6  22
ATOM     22  N   UNL A   1      32.898  22.196  24.582  1.00  0.00    -0.345 N 
ATOM     23  H   UNL A   1      33.293  21.258  24.512  1.00  0.00     0.345 HD
ATOM     24  H   UNL A   1      33.099  22.715  23.728  1.00  0.00     0.345 HD
ATOM     25  H   UNL A   1      31.887  22.130  24.709  1.00  0.00     0.345 HD
ENDBRANCH   6  22
ENDBRANCH   3   6
ENDBRANCH   1   2
BRANCH   1  26
ATOM     26  C   UNL A   1      36.972  21.197  24.936  1.00  0.00     0.023 C 
BRANCH  26  27
ATOM     27  C   UNL A   1      37.985  20.055  25.019  1.00  0.00     0.023 C 
BRANCH  27  28
ATOM     28  C   UNL A   1      39.256  20.412  25.770  1.00  0.00     0.116 C 
BRANCH  28  29
ATOM     29  N   UNL A   1      40.145  19.270  25.916  1.00  0.00    -0.352 N 
ATOM     30  C   UNL A   1      41.504  19.264  26.117  1.00  0.00     0.251 C 
ATOM     31  H   UNL A   1      39.716  18.385  25.862  1.00  0.00     0.163 HD
ATOM     32  O   UNL A   1      42.150  18.238  26.052  1.00  0.00    -0.269 OA
BRANCH  30  33
ATOM     33  C   UNL A   1      42.156  20.558  26.385  1.00  0.00     0.039 A 
ATOM     34  C   UNL A   1      42.534  21.353  25.306  1.00  0.00     0.014 A 
ATOM     35  C   UNL A   1      42.299  21.004  27.701  1.00  0.00     0.014 A 
ATOM     36  C   UNL A   1      43.013  22.638  25.550  1.00  0.00     0.010 A 
ATOM     37  C   UNL A   1      42.684  22.315  27.935  1.00  0.00     0.010 A 
ATOM     38  C   UNL A   1      43.057  23.139  26.863  1.00  0.00    -0.014 A 
BRANCH  38  39
ATOM     39  C   UNL A   1      43.517  24.519  27.136  1.00  0.00     0.031 A 
ATOM     40  C   UNL A   1      42.547  25.531  27.673  1.00  0.00     0.074 A 
ATOM     41  C   UNL A   1      44.786  24.867  26.852  1.00  0.00     0.049 A 
ATOM     42  N   UNL A   1      42.736  26.798  27.939  1.00  0.00    -0.248 NA
ATOM     43  C   UNL A   1      41.170  25.067  27.913  1.00  0.00     0.031 C 
ATOM     44  C   UNL A   1      45.798  23.980  26.275  1.00  0.00     0.029 A 
ATOM     45  N   UNL A   1      45.440  26.062  27.006  1.00  0.00    -0.354 N 
ATOM     46  C   UNL A   1      41.505  27.278  28.365  1.00  0.00     0.074 A 
ATOM     47  C   UNL A   1      40.561  26.190  28.256  1.00  0.00     0.031 C 
ATOM     48  C   UNL A   1      46.954  24.653  26.154  1.00  0.00     0.029 A 
ATOM     49  C   UNL A   1      46.754  26.026  26.606  1.00  0.00     0.049 A 
ATOM     50  H   UNL A   1      45.009  26.870  27.367  1.00  0.00     0.167 HD
ATOM     51  C   UNL A   1      41.199  28.510  28.835  1.00  0.00     0.037 A 
ATOM     52  C   UNL A   1      47.686  26.997  26.605  1.00  0.00     0.037 A 
ATOM     53  C   UNL A   1      42.152  29.579  28.961  1.00  0.00     0.049 A 
ATOM     54  C   UNL A   1      47.316  28.361  27.121  1.00  0.00     0.074 A 
ATOM     55  C   UNL A   1      41.964  30.845  29.484  1.00  0.00     0.029 A 
ATOM     56  N   UNL A   1      43.477  29.505  28.554  1.00  0.00    -0.354 N 
ATOM     57  N   UNL A   1      46.171  28.784  27.598  1.00  0.00    -0.248 NA
ATOM     58  C   UNL A   1      48.373  29.382  27.104  1.00  0.00     0.031 C 
ATOM     59  C   UNL A   1      43.159  31.558  29.342  1.00  0.00     0.029 A 
ATOM     60  C   UNL A   1      44.110  30.715  28.786  1.00  0.00     0.049 A 
ATOM     61  H   UNL A   1      43.903  28.711  28.159  1.00  0.00     0.167 HD
ATOM     62  C   UNL A   1      46.373  30.108  27.961  1.00  0.00     0.074 A 
ATOM     63  C   UNL A   1      47.759  30.412  27.667  1.00  0.00     0.031 C 
ATOM     64  C   UNL A   1      45.493  30.995  28.488  1.00  0.00     0.037 A 
BRANCH  51  65
ATOM     65  C   UNL A   1      39.778  28.760  29.247  1.00  0.00     0.064 A 
ATOM     66  C   UNL A   1      38.822  29.251  28.343  1.00  0.00     0.173 A 
ATOM     67  C   UNL A   1      39.357  28.485  30.557  1.00  0.00     0.173 A 
ATOM     68  F   UNL A   1      39.174  29.545  27.082  1.00  0.00    -0.203 F 
ATOM     69  C   UNL A   1      37.511  29.490  28.743  1.00  0.00     0.198 A 
ATOM     70  C   UNL A   1      38.035  28.693  30.945  1.00  0.00     0.198 A 
ATOM     71  F   UNL A   1      40.226  28.012  31.462  1.00  0.00    -0.203 F 
ATOM     72  F   UNL A   1      36.632  30.015  27.877  1.00  0.00    -0.200 F 
ATOM     73  C   UNL A   1      37.117  29.204  30.041  1.00  0.00     0.200 A 
ATOM     74  F   UNL A   1      37.653  28.403  32.196  1.00  0.00    -0.200 F 
ATOM     75  F   UNL A   1      35.852  29.428  30.423  1.00  0.00    -0.200 F 
ENDBRANCH  51  65
BRANCH  52  76
ATOM     76  C   UNL A   1      49.063  26.706  26.123  1.00  0.00     0.064 A 
ATOM     77  C   UNL A   1      49.440  26.991  24.804  1.00  0.00     0.173 A 
ATOM     78  C   UNL A   1      50.026  26.132  26.967  1.00  0.00     0.173 A 
ATOM     79  F   UNL A   1      48.550  27.524  23.953  1.00  0.00    -0.203 F 
ATOM     80  C   UNL A   1      50.720  26.693  24.340  1.00  0.00     0.198 A 
ATOM     81  C   UNL A   1      51.314  25.863  26.510  1.00  0.00     0.198 A 
ATOM     82  F   UNL A   1      49.719  25.844  28.240  1.00  0.00    -0.203 F 
ATOM     83  F   UNL A   1      51.038  26.933  23.060  1.00  0.00    -0.200 F 
ATOM     84  C   UNL A   1      51.657  26.135  25.194  1.00  0.00     0.200 A 
ATOM     85  F   UNL A   1      52.222  25.338  27.344  1.00  0.00    -0.200 F 
ATOM     86  F   UNL A   1      52.889  25.853  24.749  1.00  0.00    -0.200 F 
ENDBRANCH  52  76
BRANCH  64  87
ATOM     87  C   UNL A   1      46.008  32.369  28.807  1.00  0.00     0.064 A 
ATOM     88  C   UNL A   1      46.602  32.664  30.042  1.00  0.00     0.173 A 
ATOM     89  C   UNL A   1      45.947  33.390  27.845  1.00  0.00     0.173 A 
ATOM     90  F   UNL A   1      46.673  31.727  30.999  1.00  0.00    -0.203 F 
ATOM     91  C   UNL A   1      47.090  33.939  30.314  1.00  0.00     0.198 A 
ATOM     92  C   UNL A   1      46.467  34.653  28.108  1.00  0.00     0.198 A 
ATOM     93  F   UNL A   1      45.396  33.156  26.644  1.00  0.00    -0.203 F 
ATOM     94  F   UNL A   1      47.607  34.214  31.520  1.00  0.00    -0.200 F 
ATOM     95  C   UNL A   1      47.030  34.929  29.345  1.00  0.00     0.200 A 
ATOM     96  F   UNL A   1      46.423  35.604  27.164  1.00  0.00    -0.200 F 
ATOM     97  F   UNL A   1      47.510  36.153  29.605  1.00  0.00    -0.200 F 
ENDBRANCH  64  87
ENDBRANCH  38  39
ENDBRANCH  30  33
ENDBRANCH  28  29
ENDBRANCH  27  28
ENDBRANCH  26  27
ENDBRANCH   1  26
TORSDOF 17
ENDMDL
MODEL 2
REMARK VINA RESULT:     -11.6      5.427      9.918
REMARK SMILES CCCOc1ccccc1O[C@@H]1CC[C@@]([NH3+])(C(=O)NCCCCNC(=O)c2ccc(-c3c4nc(c(-c5c(F)c(F)c(F)c(F)c5F)c5ccc([nH]5)c(-c5c(F)c(F)c(F)c(F)c5F)c5nc(c(-c6c(F)c(F)c(F)c(F)c6F)c6ccc3[nH]6)C=C5)C=C4)cc2)C1
REMARK SMILES IDX 20 1 19 2 17 3 18 4 15 6 12 7 13 8 90 9 14 10 11 11 10 12
REMARK SMILES IDX 5 13 6 14 7 15 9 16 8 17 4 18 3 19 2 20 1 21 16 22 21 26
REMARK SMILES IDX 22 27 23 28 24 29 25 30 26 32 27 33 28 34 89 35 29 36 88 37
REMARK SMILES IDX 30 38 31 39 32 40 82 41 33 42 87 43 81 44 83 45 34 46 86 47
REMARK SMILES IDX 80 48 79 49 35 51 67 52 47 53 66 54 48 55 51 56 65 57 84 58
REMARK SMILES IDX 49 59 50 60 64 62 85 63 52 64 36 65 37 66 45 67 38 68 39 69
REMARK SMILES IDX 43 70 46 71 40 72 41 73 44 74 42 75 68 76 69 77 77 78 70 79
REMARK SMILES IDX 71 80 75 81 78 82 72 83 73 84 76 85 74 86 53 87 54 88 62 89
REMARK SMILES IDX 55 90 56 91 60 92 63 93 57 94 58 95 61 96 59 97
REMARK H PARENT 19 5 16 23 16 24 16 25 24 31 83 50 51 61
REMARK Flexibility Score: inf
ROOT
ATOM      1  C   UNL A   1      32.513  29.941  27.134  1.00  0.00     0.116 C 
ENDROOT
BRANCH   1   2
ATOM      2  N   UNL A   1      31.787  28.710  27.328  1.00  0.00    -0.351 N 
ATOM      3  C   UNL A   1      31.870  27.545  26.638  1.00  0.00     0.281 C 
ATOM      4  O   UNL A   1      30.981  26.720  26.873  1.00  0.00    -0.268 OA
ATOM      5  H   UNL A   1      31.137  28.717  28.068  1.00  0.00     0.163 HD
BRANCH   3   6
ATOM      6  C   UNL A   1      33.094  27.237  25.721  1.00  0.00     0.177 C 
ATOM      7  C   UNL A   1      33.208  25.577  23.875  1.00  0.00     0.180 C 
ATOM      8  C   UNL A   1      33.420  26.951  23.264  1.00  0.00     0.052 C 
ATOM      9  C   UNL A   1      33.087  25.740  25.385  1.00  0.00     0.124 C 
ATOM     10  C   UNL A   1      33.146  27.964  24.369  1.00  0.00     0.083 C 
BRANCH   7  11
ATOM     11  O   UNL A   1      34.022  24.488  23.428  1.00  0.00    -0.486 OA
BRANCH  11  12
ATOM     12  C   UNL A   1      33.581  23.196  23.499  1.00  0.00     0.161 A 
ATOM     13  C   UNL A   1      33.908  22.271  24.491  1.00  0.00     0.161 A 
ATOM     14  C   UNL A   1      33.436  20.954  24.441  1.00  0.00     0.050 A 
ATOM     15  C   UNL A   1      32.466  20.608  23.507  1.00  0.00     0.004 A 
ATOM     16  C   UNL A   1      32.573  22.849  22.597  1.00  0.00     0.050 A 
ATOM     17  C   UNL A   1      31.998  21.571  22.618  1.00  0.00     0.004 A 
BRANCH  13  18
ATOM     18  O   UNL A   1      34.580  22.658  25.616  1.00  0.00    -0.490 OA
BRANCH  18  19
ATOM     19  C   UNL A   1      35.451  21.595  26.073  1.00  0.00     0.229 C 
BRANCH  19  20
ATOM     20  C   UNL A   1      36.944  21.816  25.766  1.00  0.00     0.038 C 
ATOM     21  C   UNL A   1      37.282  23.201  25.238  1.00  0.00     0.007 C 
ENDBRANCH  19  20
ENDBRANCH  18  19
ENDBRANCH  13  18
ENDBRANCH  11  12
ENDBRANCH   7  11
BRANCH   6  22
ATOM     22  N   UNL A   1      34.313  27.588  26.501  1.00  0.00    -0.345 N 
ATOM     23  H   UNL A   1      34.425  28.601  26.520  1.00  0.00     0.345 HD
ATOM     24  H   UNL A   1      35.131  27.163  26.064  1.00  0.00     0.345 HD
ATOM     25  H   UNL A   1      34.219  27.238  27.455  1.00  0.00     0.345 HD
ENDBRANCH   6  22
ENDBRANCH   3   6
ENDBRANCH   1   2
BRANCH   1  26
ATOM     26  C   UNL A   1      31.752  30.844  26.163  1.00  0.00     0.023 C 
BRANCH  26  27
ATOM     27  C   UNL A   1      31.456  32.237  26.719  1.00  0.00     0.023 C 
BRANCH  27  28
ATOM     28  C   UNL A   1      32.632  32.878  27.435  1.00  0.00     0.116 C 
BRANCH  28  29
ATOM     29  N   UNL A   1      32.393  34.282  27.730  1.00  0.00    -0.352 N 
ATOM     30  C   UNL A   1      33.007  35.075  28.669  1.00  0.00     0.251 C 
ATOM     31  H   UNL A   1      31.700  34.722  27.187  1.00  0.00     0.163 HD
ATOM     32  O   UNL A   1      32.595  36.187  28.929  1.00  0.00    -0.269 OA
BRANCH  30  33
ATOM     33  C   UNL A   1      34.171  34.512  29.377  1.00  0.00     0.039 A 
ATOM     34  C   UNL A   1      33.959  33.811  30.563  1.00  0.00     0.014 A 
ATOM     35  C   UNL A   1      35.443  34.606  28.807  1.00  0.00     0.014 A 
ATOM     36  C   UNL A   1      35.031  33.151  31.157  1.00  0.00     0.010 A 
ATOM     37  C   UNL A   1      36.485  33.869  29.348  1.00  0.00     0.010 A 
ATOM     38  C   UNL A   1      36.292  33.146  30.534  1.00  0.00    -0.014 A 
BRANCH  38  39
ATOM     39  C   UNL A   1      37.430  32.408  31.126  1.00  0.00     0.031 A 
ATOM     40  C   UNL A   1      37.922  32.778  32.495  1.00  0.00     0.074 A 
ATOM     41  C   UNL A   1      38.045  31.448  30.412  1.00  0.00     0.049 A 
ATOM     42  N   UNL A   1      38.927  32.287  33.174  1.00  0.00    -0.248 NA
ATOM     43  C   UNL A   1      37.212  33.869  33.183  1.00  0.00     0.031 C 
ATOM     44  C   UNL A   1      37.687  31.044  29.050  1.00  0.00     0.029 A 
ATOM     45  N   UNL A   1      39.106  30.639  30.729  1.00  0.00    -0.354 N 
ATOM     46  C   UNL A   1      38.972  33.015  34.356  1.00  0.00     0.074 A 
ATOM     47  C   UNL A   1      37.943  34.026  34.274  1.00  0.00     0.031 C 
ATOM     48  C   UNL A   1      38.493  30.042  28.663  1.00  0.00     0.029 A 
ATOM     49  C   UNL A   1      39.447  29.761  29.730  1.00  0.00     0.049 A 
ATOM     50  H   UNL A   1      39.579  30.684  31.592  1.00  0.00     0.167 HD
ATOM     51  C   UNL A   1      39.780  32.833  35.425  1.00  0.00     0.037 A 
ATOM     52  C   UNL A   1      40.425  28.837  29.684  1.00  0.00     0.037 A 
ATOM     53  C   UNL A   1      40.787  31.809  35.505  1.00  0.00     0.049 A 
ATOM     54  C   UNL A   1      41.319  28.664  30.883  1.00  0.00     0.074 A 
ATOM     55  C   UNL A   1      41.617  31.496  36.566  1.00  0.00     0.029 A 
ATOM     56  N   UNL A   1      41.100  30.931  34.476  1.00  0.00    -0.354 N 
ATOM     57  N   UNL A   1      41.301  29.302  32.028  1.00  0.00    -0.248 NA
ATOM     58  C   UNL A   1      42.364  27.637  30.784  1.00  0.00     0.031 C 
ATOM     59  C   UNL A   1      42.473  30.467  36.160  1.00  0.00     0.029 A 
ATOM     60  C   UNL A   1      42.134  30.097  34.868  1.00  0.00     0.049 A 
ATOM     61  H   UNL A   1      40.654  30.906  33.600  1.00  0.00     0.167 HD
ATOM     62  C   UNL A   1      42.312  28.739  32.795  1.00  0.00     0.074 A 
ATOM     63  C   UNL A   1      42.910  27.693  31.990  1.00  0.00     0.031 C 
ATOM     64  C   UNL A   1      42.713  29.059  34.051  1.00  0.00     0.037 A 
BRANCH  51  65
ATOM     65  C   UNL A   1      39.604  33.762  36.591  1.00  0.00     0.064 A 
ATOM     66  C   UNL A   1      40.213  35.027  36.626  1.00  0.00     0.173 A 
ATOM     67  C   UNL A   1      38.799  33.394  37.680  1.00  0.00     0.173 A 
ATOM     68  F   UNL A   1      41.005  35.423  35.618  1.00  0.00    -0.203 F 
ATOM     69  C   UNL A   1      40.051  35.872  37.720  1.00  0.00     0.198 A 
ATOM     70  C   UNL A   1      38.611  34.257  38.757  1.00  0.00     0.198 A 
ATOM     71  F   UNL A   1      38.192  32.199  37.699  1.00  0.00    -0.203 F 
ATOM     72  F   UNL A   1      40.690  37.050  37.756  1.00  0.00    -0.200 F 
ATOM     73  C   UNL A   1      39.244  35.490  38.781  1.00  0.00     0.200 A 
ATOM     74  F   UNL A   1      37.821  33.891  39.776  1.00  0.00    -0.200 F 
ATOM     75  F   UNL A   1      39.083  36.308  39.830  1.00  0.00    -0.200 F 
ENDBRANCH  51  65
BRANCH  52  76
ATOM     76  C   UNL A   1      40.592  27.988  28.474  1.00  0.00     0.064 A 
ATOM     77  C   UNL A   1      41.362  28.426  27.388  1.00  0.00     0.173 A 
ATOM     78  C   UNL A   1      39.982  26.729  28.375  1.00  0.00     0.173 A 
ATOM     79  F   UNL A   1      41.952  29.630  27.427  1.00  0.00    -0.203 F 
ATOM     80  C   UNL A   1      41.498  27.647  26.241  1.00  0.00     0.198 A 
ATOM     81  C   UNL A   1      40.143  25.938  27.240  1.00  0.00     0.198 A 
ATOM     82  F   UNL A   1      39.238  26.260  29.388  1.00  0.00    -0.203 F 
ATOM     83  F   UNL A   1      42.201  28.112  25.199  1.00  0.00    -0.200 F 
ATOM     84  C   UNL A   1      40.893  26.402  26.169  1.00  0.00     0.200 A 
ATOM     85  F   UNL A   1      39.570  24.729  27.181  1.00  0.00    -0.200 F 
ATOM     86  F   UNL A   1      41.027  25.652  25.067  1.00  0.00    -0.200 F 
ENDBRANCH  52  76
BRANCH  64  87
ATOM     87  C   UNL A   1      43.832  28.251  34.642  1.00  0.00     0.064 A 
ATOM     88  C   UNL A   1      45.166  28.673  34.562  1.00  0.00     0.173 A 
ATOM     89  C   UNL A   1      43.558  27.062  35.335  1.00  0.00     0.173 A 
ATOM     90  F   UNL A   1      45.482  29.797  33.899  1.00  0.00    -0.203 F 
ATOM     91  C   UNL A   1      46.190  27.920  35.131  1.00  0.00     0.198 A 
ATOM     92  C   UNL A   1      44.580  26.330  35.932  1.00  0.00     0.198 A 
ATOM     93  F   UNL A   1      42.297  26.618  35.446  1.00  0.00    -0.203 F 
ATOM     94  F   UNL A   1      47.464  28.316  34.999  1.00  0.00    -0.200 F 
ATOM     95  C   UNL A   1      45.895  26.755  35.822  1.00  0.00     0.200 A 
ATOM     96  F   UNL A   1      44.291  25.212  36.613  1.00  0.00    -0.200 F 
ATOM     97  F   UNL A   1      46.881  26.036  36.378  1.00  0.00    -0.200 F 
ENDBRANCH  64  87
ENDBRANCH  38  39
ENDBRANCH  30  33
ENDBRANCH  28  29
ENDBRANCH  27  28
ENDBRANCH  26  27
ENDBRANCH   1  26
TORSDOF 17
ENDMDL
MODEL 3
REMARK VINA RESULT:     -11.4      0.720      2.219
REMARK SMILES CCCOc1ccccc1O[C@@H]1CC[C@@]([NH3+])(C(=O)NCCCCNC(=O)c2ccc(-c3c4nc(c(-c5c(F)c(F)c(F)c(F)c5F)c5ccc([nH]5)c(-c5c(F)c(F)c(F)c(F)c5F)c5nc(c(-c6c(F)c(F)c(F)c(F)c6F)c6ccc3[nH]6)C=C5)C=C4)cc2)C1
REMARK SMILES IDX 20 1 19 2 17 3 18 4 15 6 12 7 13 8 90 9 14 10 11 11 10 12
REMARK SMILES IDX 5 13 6 14 7 15 9 16 8 17 4 18 3 19 2 20 1 21 16 22 21 26
REMARK SMILES IDX 22 27 23 28 24 29 25 30 26 32 27 33 28 34 89 35 29 36 88 37
REMARK SMILES IDX 30 38 31 39 32 40 82 41 33 42 87 43 81 44 83 45 34 46 86 47
REMARK SMILES IDX 80 48 79 49 35 51 67 52 47 53 66 54 48 55 51 56 65 57 84 58
REMARK SMILES IDX 49 59 50 60 64 62 85 63 52 64 36 65 37 66 45 67 38 68 39 69
REMARK SMILES IDX 43 70 46 71 40 72 41 73 44 74 42 75 68 76 69 77 77 78 70 79
REMARK SMILES IDX 71 80 75 81 78 82 72 83 73 84 76 85 74 86 53 87 54 88 62 89
REMARK SMILES IDX 55 90 56 91 60 92 63 93 57 94 58 95 61 96 59 97
REMARK H PARENT 19 5 16 23 16 24 16 25 24 31 83 50 51 61
REMARK Flexibility Score: inf
ROOT
ATOM      1  C   UNL A   1      36.688  22.166  25.468  1.00  0.00     0.116 C 
ENDROOT
BRANCH   1   2
ATOM      2  N   UNL A   1      35.753  21.457  26.307  1.00  0.00    -0.351 N 
ATOM      3  C   UNL A   1      34.439  21.708  26.531  1.00  0.00     0.281 C 
ATOM      4  O   UNL A   1      33.926  21.078  27.461  1.00  0.00    -0.268 OA
ATOM      5  H   UNL A   1      36.123  20.679  26.785  1.00  0.00     0.163 HD
BRANCH   3   6
ATOM      6  C   UNL A   1      33.619  22.628  25.575  1.00  0.00     0.177 C 
ATOM      7  C   UNL A   1      34.371  24.749  24.521  1.00  0.00     0.180 C 
ATOM      8  C   UNL A   1      34.085  23.763  23.401  1.00  0.00     0.052 C 
ATOM      9  C   UNL A   1      34.013  24.086  25.844  1.00  0.00     0.124 C 
ATOM     10  C   UNL A   1      33.824  22.417  24.067  1.00  0.00     0.083 C 
BRANCH   7  11
ATOM     11  O   UNL A   1      33.948  26.109  24.369  1.00  0.00    -0.486 OA
BRANCH  11  12
ATOM     12  C   UNL A   1      32.656  26.419  24.049  1.00  0.00     0.161 A 
ATOM     13  C   UNL A   1      31.586  26.498  24.941  1.00  0.00     0.161 A 
ATOM     14  C   UNL A   1      30.289  26.780  24.497  1.00  0.00     0.050 A 
ATOM     15  C   UNL A   1      30.086  27.188  23.184  1.00  0.00     0.004 A 
ATOM     16  C   UNL A   1      32.447  26.875  22.746  1.00  0.00     0.050 A 
ATOM     17  C   UNL A   1      31.175  27.284  22.322  1.00  0.00     0.004 A 
BRANCH  13  18
ATOM     18  O   UNL A   1      31.793  26.445  26.290  1.00  0.00    -0.490 OA
BRANCH  18  19
ATOM     19  C   UNL A   1      31.431  27.705  26.906  1.00  0.00     0.229 C 
BRANCH  19  20
ATOM     20  C   UNL A   1      32.377  28.875  26.572  1.00  0.00     0.038 C 
ATOM     21  C   UNL A   1      33.734  28.803  27.253  1.00  0.00     0.007 C 
ENDBRANCH  19  20
ENDBRANCH  18  19
ENDBRANCH  13  18
ENDBRANCH  11  12
ENDBRANCH   7  11
BRANCH   6  22
ATOM     22  N   UNL A   1      32.182  22.410  25.898  1.00  0.00    -0.345 N 
ATOM     23  H   UNL A   1      31.857  21.555  25.446  1.00  0.00     0.345 HD
ATOM     24  H   UNL A   1      31.633  23.202  25.563  1.00  0.00     0.345 HD
ATOM     25  H   UNL A   1      32.070  22.323  26.909  1.00  0.00     0.345 HD
ENDBRANCH   6  22
ENDBRANCH   3   6
ENDBRANCH   1   2
BRANCH   1  26
ATOM     26  C   UNL A   1      37.392  21.183  24.530  1.00  0.00     0.023 C 
BRANCH  26  27
ATOM     27  C   UNL A   1      38.024  19.990  25.248  1.00  0.00     0.023 C 
BRANCH  27  28
ATOM     28  C   UNL A   1      39.310  20.325  25.984  1.00  0.00     0.116 C 
BRANCH  28  29
ATOM     29  N   UNL A   1      40.226  19.196  26.025  1.00  0.00    -0.352 N 
ATOM     30  C   UNL A   1      41.597  19.209  26.120  1.00  0.00     0.251 C 
ATOM     31  H   UNL A   1      39.809  18.305  25.979  1.00  0.00     0.163 HD
ATOM     32  O   UNL A   1      42.253  18.198  25.973  1.00  0.00    -0.269 OA
BRANCH  30  33
ATOM     33  C   UNL A   1      42.247  20.507  26.374  1.00  0.00     0.039 A 
ATOM     34  C   UNL A   1      42.729  21.238  25.290  1.00  0.00     0.014 A 
ATOM     35  C   UNL A   1      42.285  21.022  27.672  1.00  0.00     0.014 A 
ATOM     36  C   UNL A   1      43.208  22.528  25.507  1.00  0.00     0.010 A 
ATOM     37  C   UNL A   1      42.673  22.338  27.869  1.00  0.00     0.010 A 
ATOM     38  C   UNL A   1      43.150  23.098  26.791  1.00  0.00    -0.014 A 
BRANCH  38  39
ATOM     39  C   UNL A   1      43.609  24.485  27.029  1.00  0.00     0.031 A 
ATOM     40  C   UNL A   1      42.635  25.513  27.525  1.00  0.00     0.074 A 
ATOM     41  C   UNL A   1      44.882  24.822  26.751  1.00  0.00     0.049 A 
ATOM     42  N   UNL A   1      42.823  26.788  27.756  1.00  0.00    -0.248 NA
ATOM     43  C   UNL A   1      41.254  25.060  27.761  1.00  0.00     0.031 C 
ATOM     44  C   UNL A   1      45.900  23.917  26.213  1.00  0.00     0.029 A 
ATOM     45  N   UNL A   1      45.537  26.020  26.878  1.00  0.00    -0.354 N 
ATOM     46  C   UNL A   1      41.587  27.282  28.153  1.00  0.00     0.074 A 
ATOM     47  C   UNL A   1      40.642  26.193  28.063  1.00  0.00     0.031 C 
ATOM     48  C   UNL A   1      47.058  24.584  26.087  1.00  0.00     0.029 A 
ATOM     49  C   UNL A   1      46.855  25.970  26.497  1.00  0.00     0.049 A 
ATOM     50  H   UNL A   1      45.103  26.839  27.211  1.00  0.00     0.167 HD
ATOM     51  C   UNL A   1      41.279  28.527  28.583  1.00  0.00     0.037 A 
ATOM     52  C   UNL A   1      47.790  26.939  26.478  1.00  0.00     0.037 A 
ATOM     53  C   UNL A   1      42.232  29.598  28.690  1.00  0.00     0.049 A 
ATOM     54  C   UNL A   1      47.416  28.318  26.950  1.00  0.00     0.074 A 
ATOM     55  C   UNL A   1      42.040  30.879  29.173  1.00  0.00     0.029 A 
ATOM     56  N   UNL A   1      43.562  29.510  28.301  1.00  0.00    -0.354 N 
ATOM     57  N   UNL A   1      46.266  28.757  27.400  1.00  0.00    -0.248 NA
ATOM     58  C   UNL A   1      48.475  29.336  26.917  1.00  0.00     0.031 C 
ATOM     59  C   UNL A   1      43.239  31.585  29.025  1.00  0.00     0.029 A 
ATOM     60  C   UNL A   1      44.195  30.725  28.506  1.00  0.00     0.049 A 
ATOM     61  H   UNL A   1      43.991  28.704  27.935  1.00  0.00     0.167 HD
ATOM     62  C   UNL A   1      46.466  30.091  27.728  1.00  0.00     0.074 A 
ATOM     63  C   UNL A   1      47.857  30.384  27.442  1.00  0.00     0.031 C 
ATOM     64  C   UNL A   1      45.582  30.994  28.217  1.00  0.00     0.037 A 
BRANCH  51  65
ATOM     65  C   UNL A   1      39.852  28.792  28.970  1.00  0.00     0.064 A 
ATOM     66  C   UNL A   1      38.916  29.285  28.047  1.00  0.00     0.173 A 
ATOM     67  C   UNL A   1      39.408  28.528  30.275  1.00  0.00     0.173 A 
ATOM     68  F   UNL A   1      39.292  29.568  26.790  1.00  0.00    -0.203 F 
ATOM     69  C   UNL A   1      37.601  29.538  28.424  1.00  0.00     0.198 A 
ATOM     70  C   UNL A   1      38.082  28.749  30.639  1.00  0.00     0.198 A 
ATOM     71  F   UNL A   1      40.258  28.054  31.196  1.00  0.00    -0.203 F 
ATOM     72  F   UNL A   1      36.741  30.065  27.540  1.00  0.00    -0.200 F 
ATOM     73  C   UNL A   1      37.183  29.262  29.717  1.00  0.00     0.200 A 
ATOM     74  F   UNL A   1      37.676  28.471  31.885  1.00  0.00    -0.200 F 
ATOM     75  F   UNL A   1      35.913  29.499  30.076  1.00  0.00    -0.200 F 
ENDBRANCH  51  65
BRANCH  52  76
ATOM     76  C   UNL A   1      49.172  26.631  26.023  1.00  0.00     0.064 A 
ATOM     77  C   UNL A   1      50.113  26.077  26.901  1.00  0.00     0.173 A 
ATOM     78  C   UNL A   1      49.581  26.890  24.706  1.00  0.00     0.173 A 
ATOM     79  F   UNL A   1      49.775  25.828  28.175  1.00  0.00    -0.203 F 
ATOM     80  C   UNL A   1      51.417  25.814  26.487  1.00  0.00     0.198 A 
ATOM     81  C   UNL A   1      50.877  26.598  24.285  1.00  0.00     0.198 A 
ATOM     82  F   UNL A   1      48.719  27.414  23.824  1.00  0.00    -0.203 F 
ATOM     83  F   UNL A   1      52.310  25.329  27.361  1.00  0.00    -0.200 F 
ATOM     84  C   UNL A   1      51.797  26.069  25.178  1.00  0.00     0.200 A 
ATOM     85  F   UNL A   1      51.235  26.832  23.016  1.00  0.00    -0.200 F 
ATOM     86  F   UNL A   1      53.050  25.813  24.780  1.00  0.00    -0.200 F 
ENDBRANCH  52  76
BRANCH  64  87
ATOM     87  C   UNL A   1      46.096  32.375  28.502  1.00  0.00     0.064 A 
ATOM     88  C   UNL A   1      46.037  33.396  27.543  1.00  0.00     0.173 A 
ATOM     89  C   UNL A   1      46.614  32.692  29.768  1.00  0.00     0.173 A 
ATOM     90  F   UNL A   1      45.562  33.141  26.314  1.00  0.00    -0.203 F 
ATOM     91  C   UNL A   1      46.503  34.675  27.831  1.00  0.00     0.198 A 
ATOM     92  C   UNL A   1      47.047  33.980  30.063  1.00  0.00     0.198 A 
ATOM     93  F   UNL A   1      46.686  31.753  30.724  1.00  0.00    -0.203 F 
ATOM     94  F   UNL A   1      46.484  35.622  26.882  1.00  0.00    -0.200 F 
ATOM     95  C   UNL A   1      47.000  34.969  29.092  1.00  0.00     0.200 A 
ATOM     96  F   UNL A   1      47.512  34.266  31.287  1.00  0.00    -0.200 F 
ATOM     97  F   UNL A   1      47.438  36.205  29.369  1.00  0.00    -0.200 F 
ENDBRANCH  64  87
ENDBRANCH  38  39
ENDBRANCH  30  33
ENDBRANCH  28  29
ENDBRANCH  27  28
ENDBRANCH  26  27
ENDBRANCH   1  26
TORSDOF 17
ENDMDL
