MODEL 1
REMARK VINA RESULT:     -12.2      0.000      0.000
REMARK SMILES C[C@H](C(=O)NCCCCNC(=O)c1ccc(-c2c3nc(c(-c4c(F)c(F)c(F)c(F)c4F)c4ccc([nH]4)c(-c4c(F)c(F)c(F)c(F)c4F)c4nc(c(-c5c(F)c(F)c(F)c(F)c5F)c5ccc2[nH]5)C=C4)C=C3)cc1)[C@@H](C)Nc1cc(F)cc(F)c1F
REMARK SMILES IDX 7 1 6 2 5 3 3 4 4 5 2 7 1 8 76 9 77 10 78 11 79 13 80 14
REMARK SMILES IDX 86 15 81 16 84 17 87 18 82 19 83 20 85 21 8 22 9 23 10 24
REMARK SMILES IDX 11 25 12 27 13 28 14 29 75 30 15 31 74 32 16 33 17 34 18 35
REMARK SMILES IDX 68 36 19 37 73 38 67 39 69 40 20 41 72 42 66 43 65 44 21 46
REMARK SMILES IDX 53 47 33 48 52 49 34 50 37 51 51 52 70 53 35 54 36 55 50 57
REMARK SMILES IDX 71 58 38 59 22 60 23 61 31 62 24 63 25 64 29 65 32 66 26 67
REMARK SMILES IDX 27 68 30 69 28 70 54 71 55 72 63 73 56 74 57 75 61 76 64 77
REMARK SMILES IDX 58 78 59 79 62 80 60 81 39 82 40 83 48 84 41 85 42 86 46 87
REMARK SMILES IDX 49 88 43 89 44 90 47 91 45 92
REMARK H PARENT 5 6 78 12 10 26 69 45 37 56
REMARK Flexibility Score: inf
ROOT
ATOM      1  C   UNL A   1      32.174  30.096  26.169  1.00  0.00     0.023 C 
ENDROOT
BRANCH   1   2
ATOM      2  C   UNL A   1      32.267  29.047  27.274  1.00  0.00     0.116 C 
BRANCH   2   3
ATOM      3  N   UNL A   1      31.349  27.936  27.115  1.00  0.00    -0.356 N 
ATOM      4  C   UNL A   1      31.379  26.806  26.363  1.00  0.00     0.224 C 
ATOM      5  O   UNL A   1      30.459  26.002  26.545  1.00  0.00    -0.275 OA
ATOM      6  H   UNL A   1      30.536  28.017  27.666  1.00  0.00     0.163 HD
BRANCH   4   7
ATOM      7  C   UNL A   1      32.439  26.509  25.309  1.00  0.00     0.097 C 
ATOM      8  C   UNL A   1      32.713  25.006  25.243  1.00  0.00     0.020 C 
BRANCH   7   9
ATOM      9  C   UNL A   1      32.179  27.145  23.928  1.00  0.00     0.088 C 
ATOM     10  C   UNL A   1      33.203  26.717  22.878  1.00  0.00     0.031 C 
BRANCH   9  11
ATOM     11  N   UNL A   1      30.842  26.767  23.461  1.00  0.00    -0.379 N 
ATOM     12  H   UNL A   1      30.647  25.811  23.321  1.00  0.00     0.160 HD
BRANCH  11  13
ATOM     13  C   UNL A   1      29.835  27.689  23.206  1.00  0.00     0.077 A 
ATOM     14  C   UNL A   1      30.159  28.837  22.469  1.00  0.00     0.068 A 
ATOM     15  C   UNL A   1      28.485  27.517  23.565  1.00  0.00     0.182 A 
ATOM     16  C   UNL A   1      29.175  29.757  22.103  1.00  0.00     0.128 A 
ATOM     17  C   UNL A   1      27.515  28.451  23.201  1.00  0.00     0.163 A 
ATOM     18  F   UNL A   1      28.102  26.455  24.293  1.00  0.00    -0.201 F 
ATOM     19  F   UNL A   1      29.517  30.828  21.377  1.00  0.00    -0.207 F 
ATOM     20  C   UNL A   1      27.849  29.575  22.463  1.00  0.00     0.081 A 
ATOM     21  F   UNL A   1      26.237  28.261  23.559  1.00  0.00    -0.204 F 
ENDBRANCH  11  13
ENDBRANCH   9  11
ENDBRANCH   7   9
ENDBRANCH   4   7
ENDBRANCH   2   3
ENDBRANCH   1   2
BRANCH   1  22
ATOM     22  C   UNL A   1      31.759  31.493  26.621  1.00  0.00     0.023 C 
BRANCH  22  23
ATOM     23  C   UNL A   1      32.849  32.322  27.289  1.00  0.00     0.116 C 
BRANCH  23  24
ATOM     24  N   UNL A   1      32.454  33.700  27.546  1.00  0.00    -0.352 N 
ATOM     25  C   UNL A   1      32.994  34.609  28.426  1.00  0.00     0.251 C 
ATOM     26  H   UNL A   1      31.693  34.026  27.014  1.00  0.00     0.163 HD
ATOM     27  O   UNL A   1      32.464  35.704  28.591  1.00  0.00    -0.269 OA
BRANCH  25  28
ATOM     28  C   UNL A   1      34.198  34.251  29.207  1.00  0.00     0.039 A 
ATOM     29  C   UNL A   1      34.047  33.503  30.379  1.00  0.00     0.014 A 
ATOM     30  C   UNL A   1      35.471  34.617  28.767  1.00  0.00     0.014 A 
ATOM     31  C   UNL A   1      35.178  33.040  31.057  1.00  0.00     0.010 A 
ATOM     32  C   UNL A   1      36.594  34.097  29.401  1.00  0.00     0.010 A 
ATOM     33  C   UNL A   1      36.459  33.291  30.544  1.00  0.00    -0.014 A 
BRANCH  33  34
ATOM     34  C   UNL A   1      37.681  32.710  31.157  1.00  0.00     0.031 A 
ATOM     35  C   UNL A   1      38.385  31.567  30.485  1.00  0.00     0.074 A 
ATOM     36  C   UNL A   1      38.076  33.120  32.377  1.00  0.00     0.049 A 
ATOM     37  N   UNL A   1      39.344  30.802  30.938  1.00  0.00    -0.248 NA
ATOM     38  C   UNL A   1      37.922  31.218  29.134  1.00  0.00     0.031 C 
ATOM     39  C   UNL A   1      37.447  34.187  33.157  1.00  0.00     0.029 A 
ATOM     40  N   UNL A   1      39.081  32.660  33.193  1.00  0.00    -0.354 N 
ATOM     41  C   UNL A   1      39.573  29.859  29.946  1.00  0.00     0.074 A 
ATOM     42  C   UNL A   1      38.630  30.128  28.881  1.00  0.00     0.031 C 
ATOM     43  C   UNL A   1      38.072  34.295  34.339  1.00  0.00     0.029 A 
ATOM     44  C   UNL A   1      39.117  33.278  34.420  1.00  0.00     0.049 A 
ATOM     45  H   UNL A   1      39.714  31.956  32.925  1.00  0.00     0.167 HD
ATOM     46  C   UNL A   1      40.494  28.866  29.921  1.00  0.00     0.037 A 
ATOM     47  C   UNL A   1      39.884  33.034  35.500  1.00  0.00     0.037 A 
ATOM     48  C   UNL A   1      41.454  28.626  30.966  1.00  0.00     0.049 A 
ATOM     49  C   UNL A   1      40.913  31.939  35.445  1.00  0.00     0.074 A 
ATOM     50  C   UNL A   1      42.486  27.704  30.995  1.00  0.00     0.029 A 
ATOM     51  N   UNL A   1      41.495  29.310  32.173  1.00  0.00    -0.354 N 
ATOM     52  N   UNL A   1      41.171  31.098  34.474  1.00  0.00    -0.248 NA
ATOM     53  C   UNL A   1      41.760  31.762  36.633  1.00  0.00     0.031 C 
ATOM     54  C   UNL A   1      43.124  27.799  32.237  1.00  0.00     0.029 A 
ATOM     55  C   UNL A   1      42.519  28.814  32.963  1.00  0.00     0.049 A 
ATOM     56  H   UNL A   1      40.888  30.040  32.429  1.00  0.00     0.167 HD
ATOM     57  C   UNL A   1      42.221  30.308  34.920  1.00  0.00     0.074 A 
ATOM     58  C   UNL A   1      42.559  30.774  36.249  1.00  0.00     0.031 C 
ATOM     59  C   UNL A   1      42.849  29.291  34.282  1.00  0.00     0.037 A 
BRANCH  46  60
ATOM     60  C   UNL A   1      40.498  27.957  28.727  1.00  0.00     0.064 A 
ATOM     61  C   UNL A   1      39.771  26.757  28.710  1.00  0.00     0.173 A 
ATOM     62  C   UNL A   1      41.228  28.298  27.579  1.00  0.00     0.173 A 
ATOM     63  F   UNL A   1      39.065  26.380  29.786  1.00  0.00    -0.203 F 
ATOM     64  C   UNL A   1      39.807  25.914  27.602  1.00  0.00     0.198 A 
ATOM     65  C   UNL A   1      41.237  27.468  26.461  1.00  0.00     0.198 A 
ATOM     66  F   UNL A   1      41.935  29.439  27.540  1.00  0.00    -0.203 F 
ATOM     67  F   UNL A   1      39.153  24.745  27.631  1.00  0.00    -0.200 F 
ATOM     68  C   UNL A   1      40.535  26.273  26.478  1.00  0.00     0.200 A 
ATOM     69  F   UNL A   1      41.931  27.821  25.371  1.00  0.00    -0.200 F 
ATOM     70  F   UNL A   1      40.569  25.460  25.412  1.00  0.00    -0.200 F 
ENDBRANCH  46  60
BRANCH  47  71
ATOM     71  C   UNL A   1      39.701  33.855  36.724  1.00  0.00     0.064 A 
ATOM     72  C   UNL A   1      40.326  35.101  36.855  1.00  0.00     0.173 A 
ATOM     73  C   UNL A   1      38.871  33.426  37.771  1.00  0.00     0.173 A 
ATOM     74  F   UNL A   1      41.144  35.544  35.889  1.00  0.00    -0.203 F 
ATOM     75  C   UNL A   1      40.134  35.887  37.990  1.00  0.00     0.198 A 
ATOM     76  C   UNL A   1      38.661  34.222  38.894  1.00  0.00     0.198 A 
ATOM     77  F   UNL A   1      38.246  32.242  37.690  1.00  0.00    -0.203 F 
ATOM     78  F   UNL A   1      40.765  37.063  38.103  1.00  0.00    -0.200 F 
ATOM     79  C   UNL A   1      39.296  35.450  39.005  1.00  0.00     0.200 A 
ATOM     80  F   UNL A   1      37.838  33.804  39.866  1.00  0.00    -0.200 F 
ATOM     81  F   UNL A   1      39.100  36.212  40.090  1.00  0.00    -0.200 F 
ENDBRANCH  47  71
BRANCH  59  82
ATOM     82  C   UNL A   1      43.991  28.627  34.993  1.00  0.00     0.064 A 
ATOM     83  C   UNL A   1      43.804  27.468  35.759  1.00  0.00     0.173 A 
ATOM     84  C   UNL A   1      45.298  29.117  34.845  1.00  0.00     0.173 A 
ATOM     85  F   UNL A   1      42.573  26.971  35.942  1.00  0.00    -0.203 F 
ATOM     86  C   UNL A   1      44.886  26.829  36.362  1.00  0.00     0.198 A 
ATOM     87  C   UNL A   1      46.378  28.461  35.427  1.00  0.00     0.198 A 
ATOM     88  F   UNL A   1      45.528  30.220  34.118  1.00  0.00    -0.203 F 
ATOM     89  F   UNL A   1      44.683  25.739  37.114  1.00  0.00    -0.200 F 
ATOM     90  C   UNL A   1      46.172  27.319  36.186  1.00  0.00     0.200 A 
ATOM     91  F   UNL A   1      47.621  28.930  35.248  1.00  0.00    -0.200 F 
ATOM     92  F   UNL A   1      47.211  26.693  36.753  1.00  0.00    -0.200 F 
ENDBRANCH  59  82
ENDBRANCH  33  34
ENDBRANCH  25  28
ENDBRANCH  23  24
ENDBRANCH  22  23
ENDBRANCH   1  22
TORSDOF 14
ENDMDL
MODEL 2
REMARK VINA RESULT:     -12.0      6.184     11.299
REMARK SMILES C[C@H](C(=O)NCCCCNC(=O)c1ccc(-c2c3nc(c(-c4c(F)c(F)c(F)c(F)c4F)c4ccc([nH]4)c(-c4c(F)c(F)c(F)c(F)c4F)c4nc(c(-c5c(F)c(F)c(F)c(F)c5F)c5ccc2[nH]5)C=C4)C=C3)cc1)[C@@H](C)Nc1cc(F)cc(F)c1F
REMARK SMILES IDX 7 1 6 2 5 3 3 4 4 5 2 7 1 8 76 9 77 10 78 11 79 13 80 14
REMARK SMILES IDX 86 15 81 16 84 17 87 18 82 19 83 20 85 21 8 22 9 23 10 24
REMARK SMILES IDX 11 25 12 27 13 28 14 29 75 30 15 31 74 32 16 33 17 34 18 35
REMARK SMILES IDX 68 36 19 37 73 38 67 39 69 40 20 41 72 42 66 43 65 44 21 46
REMARK SMILES IDX 53 47 33 48 52 49 34 50 37 51 51 52 70 53 35 54 36 55 50 57
REMARK SMILES IDX 71 58 38 59 22 60 23 61 31 62 24 63 25 64 29 65 32 66 26 67
REMARK SMILES IDX 27 68 30 69 28 70 54 71 55 72 63 73 56 74 57 75 61 76 64 77
REMARK SMILES IDX 58 78 59 79 62 80 60 81 39 82 40 83 48 84 41 85 42 86 46 87
REMARK SMILES IDX 49 88 43 89 44 90 47 91 45 92
REMARK H PARENT 5 6 78 12 10 26 69 45 37 56
REMARK Flexibility Score: inf
ROOT
ATOM      1  C   UNL A   1      36.737  21.384  24.986  1.00  0.00     0.023 C 
ENDROOT
BRANCH   1   2
ATOM      2  C   UNL A   1      36.978  22.615  24.117  1.00  0.00     0.116 C 
BRANCH   2   3
ATOM      3  N   UNL A   1      35.847  22.985  23.287  1.00  0.00    -0.356 N 
ATOM      4  C   UNL A   1      34.694  23.657  23.533  1.00  0.00     0.224 C 
ATOM      5  O   UNL A   1      33.977  23.893  22.556  1.00  0.00    -0.275 OA
ATOM      6  H   UNL A   1      35.933  22.688  22.352  1.00  0.00     0.163 HD
BRANCH   4   7
ATOM      7  C   UNL A   1      34.237  24.088  24.922  1.00  0.00     0.097 C 
ATOM      8  C   UNL A   1      33.983  25.597  24.951  1.00  0.00     0.020 C 
BRANCH   7   9
ATOM      9  C   UNL A   1      33.077  23.260  25.511  1.00  0.00     0.088 C 
ATOM     10  C   UNL A   1      32.065  24.117  26.270  1.00  0.00     0.031 C 
BRANCH   9  11
ATOM     11  N   UNL A   1      32.379  22.560  24.428  1.00  0.00    -0.379 N 
ATOM     12  H   UNL A   1      31.825  23.088  23.809  1.00  0.00     0.160 HD
BRANCH  11  13
ATOM     13  C   UNL A   1      32.462  21.187  24.232  1.00  0.00     0.077 A 
ATOM     14  C   UNL A   1      32.615  20.364  25.357  1.00  0.00     0.068 A 
ATOM     15  C   UNL A   1      32.321  20.549  22.985  1.00  0.00     0.182 A 
ATOM     16  C   UNL A   1      32.615  18.974  25.236  1.00  0.00     0.128 A 
ATOM     17  C   UNL A   1      32.333  19.158  22.878  1.00  0.00     0.163 A 
ATOM     18  F   UNL A   1      32.195  21.270  21.859  1.00  0.00    -0.201 F 
ATOM     19  F   UNL A   1      32.737  18.220  26.335  1.00  0.00    -0.207 F 
ATOM     20  C   UNL A   1      32.475  18.359  24.002  1.00  0.00     0.081 A 
ATOM     21  F   UNL A   1      32.199  18.580  21.677  1.00  0.00    -0.204 F 
ENDBRANCH  11  13
ENDBRANCH   9  11
ENDBRANCH   7   9
ENDBRANCH   4   7
ENDBRANCH   2   3
ENDBRANCH   1   2
BRANCH   1  22
ATOM     22  C   UNL A   1      37.805  20.298  24.901  1.00  0.00     0.023 C 
BRANCH  22  23
ATOM     23  C   UNL A   1      39.055  20.536  25.740  1.00  0.00     0.116 C 
BRANCH  23  24
ATOM     24  N   UNL A   1      39.936  19.378  25.807  1.00  0.00    -0.352 N 
ATOM     25  C   UNL A   1      41.285  19.327  26.068  1.00  0.00     0.251 C 
ATOM     26  H   UNL A   1      39.503  18.509  25.644  1.00  0.00     0.163 HD
ATOM     27  O   UNL A   1      41.895  18.265  25.980  1.00  0.00    -0.269 OA
BRANCH  25  28
ATOM     28  C   UNL A   1      42.015  20.565  26.417  1.00  0.00     0.039 A 
ATOM     29  C   UNL A   1      42.382  21.445  25.395  1.00  0.00     0.014 A 
ATOM     30  C   UNL A   1      42.301  20.875  27.748  1.00  0.00     0.014 A 
ATOM     31  C   UNL A   1      42.950  22.682  25.715  1.00  0.00     0.010 A 
ATOM     32  C   UNL A   1      42.800  22.133  28.069  1.00  0.00     0.010 A 
ATOM     33  C   UNL A   1      43.116  23.055  27.057  1.00  0.00    -0.014 A 
BRANCH  33  34
ATOM     34  C   UNL A   1      43.592  24.407  27.446  1.00  0.00     0.031 A 
ATOM     35  C   UNL A   1      42.612  25.434  27.933  1.00  0.00     0.074 A 
ATOM     36  C   UNL A   1      44.878  24.749  27.235  1.00  0.00     0.049 A 
ATOM     37  N   UNL A   1      42.788  26.714  28.142  1.00  0.00    -0.248 NA
ATOM     38  C   UNL A   1      41.243  24.964  28.185  1.00  0.00     0.031 C 
ATOM     39  C   UNL A   1      45.917  23.857  26.719  1.00  0.00     0.029 A 
ATOM     40  N   UNL A   1      45.520  25.952  27.392  1.00  0.00    -0.354 N 
ATOM     41  C   UNL A   1      41.545  27.208  28.513  1.00  0.00     0.074 A 
ATOM     42  C   UNL A   1      40.618  26.097  28.469  1.00  0.00     0.031 C 
ATOM     43  C   UNL A   1      47.063  24.544  26.594  1.00  0.00     0.029 A 
ATOM     44  C   UNL A   1      46.830  25.933  26.979  1.00  0.00     0.049 A 
ATOM     45  H   UNL A   1      45.084  26.752  27.766  1.00  0.00     0.167 HD
ATOM     46  C   UNL A   1      41.210  28.471  28.870  1.00  0.00     0.037 A 
ATOM     47  C   UNL A   1      47.735  26.928  26.890  1.00  0.00     0.037 A 
ATOM     48  C   UNL A   1      42.143  29.564  28.949  1.00  0.00     0.049 A 
ATOM     49  C   UNL A   1      47.348  28.319  27.309  1.00  0.00     0.074 A 
ATOM     50  C   UNL A   1      41.921  30.859  29.386  1.00  0.00     0.029 A 
ATOM     51  N   UNL A   1      43.477  29.492  28.574  1.00  0.00    -0.354 N 
ATOM     52  N   UNL A   1      46.188  28.761  27.727  1.00  0.00    -0.248 NA
ATOM     53  C   UNL A   1      48.396  29.347  27.247  1.00  0.00     0.031 C 
ATOM     54  C   UNL A   1      43.109  31.581  29.234  1.00  0.00     0.029 A 
ATOM     55  C   UNL A   1      44.084  30.725  28.747  1.00  0.00     0.049 A 
ATOM     56  H   UNL A   1      43.926  28.684  28.236  1.00  0.00     0.167 HD
ATOM     57  C   UNL A   1      46.368  30.110  28.001  1.00  0.00     0.074 A 
ATOM     58  C   UNL A   1      47.753  30.414  27.706  1.00  0.00     0.031 C 
ATOM     59  C   UNL A   1      45.466  31.012  28.457  1.00  0.00     0.037 A 
BRANCH  46  60
ATOM     60  C   UNL A   1      39.769  28.739  29.191  1.00  0.00     0.064 A 
ATOM     61  C   UNL A   1      39.254  28.562  30.484  1.00  0.00     0.173 A 
ATOM     62  C   UNL A   1      38.894  29.195  28.194  1.00  0.00     0.173 A 
ATOM     63  F   UNL A   1      40.047  28.118  31.471  1.00  0.00    -0.203 F 
ATOM     64  C   UNL A   1      37.908  28.793  30.757  1.00  0.00     0.198 A 
ATOM     65  C   UNL A   1      37.556  29.454  28.477  1.00  0.00     0.198 A 
ATOM     66  F   UNL A   1      39.337  29.389  26.942  1.00  0.00    -0.203 F 
ATOM     67  F   UNL A   1      37.427  28.559  31.985  1.00  0.00    -0.200 F 
ATOM     68  C   UNL A   1      37.063  29.243  29.755  1.00  0.00     0.200 A 
ATOM     69  F   UNL A   1      36.742  29.901  27.511  1.00  0.00    -0.200 F 
ATOM     70  F   UNL A   1      35.767  29.464  30.020  1.00  0.00    -0.200 F 
ENDBRANCH  46  60
BRANCH  47  71
ATOM     71  C   UNL A   1      49.098  26.629  26.385  1.00  0.00     0.064 A 
ATOM     72  C   UNL A   1      49.431  26.844  25.041  1.00  0.00     0.173 A 
ATOM     73  C   UNL A   1      50.104  26.155  27.241  1.00  0.00     0.173 A 
ATOM     74  F   UNL A   1      48.498  27.277  24.182  1.00  0.00    -0.203 F 
ATOM     75  C   UNL A   1      50.718  26.591  24.570  1.00  0.00     0.198 A 
ATOM     76  C   UNL A   1      51.396  25.925  26.774  1.00  0.00     0.198 A 
ATOM     77  F   UNL A   1      49.836  25.939  28.537  1.00  0.00    -0.203 F 
ATOM     78  F   UNL A   1      51.004  26.779  23.274  1.00  0.00    -0.200 F 
ATOM     79  C   UNL A   1      51.701  26.140  25.438  1.00  0.00     0.200 A 
ATOM     80  F   UNL A   1      52.348  25.504  27.618  1.00  0.00    -0.200 F 
ATOM     81  F   UNL A   1      52.942  25.910  24.987  1.00  0.00    -0.200 F 
ENDBRANCH  47  71
BRANCH  59  82
ATOM     82  C   UNL A   1      45.948  32.412  28.702  1.00  0.00     0.064 A 
ATOM     83  C   UNL A   1      45.889  33.394  27.704  1.00  0.00     0.173 A 
ATOM     84  C   UNL A   1      46.408  32.790  29.974  1.00  0.00     0.173 A 
ATOM     85  F   UNL A   1      45.473  33.078  26.469  1.00  0.00    -0.203 F 
ATOM     86  C   UNL A   1      46.284  34.704  27.967  1.00  0.00     0.198 A 
ATOM     87  C   UNL A   1      46.776  34.105  30.239  1.00  0.00     0.198 A 
ATOM     88  F   UNL A   1      46.478  31.886  30.963  1.00  0.00    -0.203 F 
ATOM     89  F   UNL A   1      46.247  35.622  26.992  1.00  0.00    -0.200 F 
ATOM     90  C   UNL A   1      46.716  35.060  29.237  1.00  0.00     0.200 A 
ATOM     91  F   UNL A   1      47.183  34.450  31.469  1.00  0.00    -0.200 F 
ATOM     92  F   UNL A   1      47.079  36.324  29.491  1.00  0.00    -0.200 F 
ENDBRANCH  59  82
ENDBRANCH  33  34
ENDBRANCH  25  28
ENDBRANCH  23  24
ENDBRANCH  22  23
ENDBRANCH   1  22
TORSDOF 14
ENDMDL
MODEL 3
REMARK VINA RESULT:     -11.9      4.587     10.644
REMARK SMILES C[C@H](C(=O)NCCCCNC(=O)c1ccc(-c2c3nc(c(-c4c(F)c(F)c(F)c(F)c4F)c4ccc([nH]4)c(-c4c(F)c(F)c(F)c(F)c4F)c4nc(c(-c5c(F)c(F)c(F)c(F)c5F)c5ccc2[nH]5)C=C4)C=C3)cc1)[C@@H](C)Nc1cc(F)cc(F)c1F
REMARK SMILES IDX 7 1 6 2 5 3 3 4 4 5 2 7 1 8 76 9 77 10 78 11 79 13 80 14
REMARK SMILES IDX 86 15 81 16 84 17 87 18 82 19 83 20 85 21 8 22 9 23 10 24
REMARK SMILES IDX 11 25 12 27 13 28 14 29 75 30 15 31 74 32 16 33 17 34 18 35
REMARK SMILES IDX 68 36 19 37 73 38 67 39 69 40 20 41 72 42 66 43 65 44 21 46
REMARK SMILES IDX 53 47 33 48 52 49 34 50 37 51 51 52 70 53 35 54 36 55 50 57
REMARK SMILES IDX 71 58 38 59 22 60 23 61 31 62 24 63 25 64 29 65 32 66 26 67
REMARK SMILES IDX 27 68 30 69 28 70 54 71 55 72 63 73 56 74 57 75 61 76 64 77
REMARK SMILES IDX 58 78 59 79 62 80 60 81 39 82 40 83 48 84 41 85 42 86 46 87
REMARK SMILES IDX 49 88 43 89 44 90 47 91 45 92
REMARK H PARENT 5 6 78 12 10 26 69 45 37 56
REMARK Flexibility Score: inf
ROOT
ATOM      1  C   UNL A   1      34.757  32.581  30.974  1.00  0.00     0.023 C 
ENDROOT
BRANCH   1   2
ATOM      2  C   UNL A   1      36.149  32.409  31.574  1.00  0.00     0.116 C 
BRANCH   2   3
ATOM      3  N   UNL A   1      36.169  32.382  33.025  1.00  0.00    -0.356 N 
ATOM      4  C   UNL A   1      37.082  32.772  33.949  1.00  0.00     0.224 C 
ATOM      5  O   UNL A   1      36.732  32.701  35.131  1.00  0.00    -0.275 OA
ATOM      6  H   UNL A   1      35.350  32.004  33.421  1.00  0.00     0.163 HD
BRANCH   4   7
ATOM      7  C   UNL A   1      38.492  33.243  33.611  1.00  0.00     0.097 C 
ATOM      8  C   UNL A   1      38.588  34.764  33.740  1.00  0.00     0.020 C 
BRANCH   7   9
ATOM      9  C   UNL A   1      39.622  32.494  34.346  1.00  0.00     0.088 C 
ATOM     10  C   UNL A   1      40.002  33.151  35.672  1.00  0.00     0.031 C 
BRANCH   9  11
ATOM     11  N   UNL A   1      39.200  31.114  34.611  1.00  0.00    -0.379 N 
ATOM     12  H   UNL A   1      38.563  30.952  35.344  1.00  0.00     0.160 HD
BRANCH  11  13
ATOM     13  C   UNL A   1      39.654  30.025  33.878  1.00  0.00     0.077 A 
ATOM     14  C   UNL A   1      41.025  29.731  33.908  1.00  0.00     0.068 A 
ATOM     15  C   UNL A   1      38.824  29.139  33.168  1.00  0.00     0.182 A 
ATOM     16  C   UNL A   1      41.532  28.600  33.266  1.00  0.00     0.128 A 
ATOM     17  C   UNL A   1      39.346  28.018  32.522  1.00  0.00     0.163 A 
ATOM     18  F   UNL A   1      37.504  29.367  33.073  1.00  0.00    -0.201 F 
ATOM     19  F   UNL A   1      42.842  28.338  33.338  1.00  0.00    -0.207 F 
ATOM     20  C   UNL A   1      40.702  27.736  32.570  1.00  0.00     0.081 A 
ATOM     21  F   UNL A   1      38.530  27.193  31.851  1.00  0.00    -0.204 F 
ENDBRANCH  11  13
ENDBRANCH   9  11
ENDBRANCH   7   9
ENDBRANCH   4   7
ENDBRANCH   2   3
ENDBRANCH   1   2
BRANCH   1  22
ATOM     22  C   UNL A   1      34.645  33.608  29.851  1.00  0.00     0.023 C 
BRANCH  22  23
ATOM     23  C   UNL A   1      34.921  33.084  28.447  1.00  0.00     0.116 C 
BRANCH  23  24
ATOM     24  N   UNL A   1      34.002  32.034  28.031  1.00  0.00    -0.352 N 
ATOM     25  C   UNL A   1      34.246  30.695  27.832  1.00  0.00     0.251 C 
ATOM     26  H   UNL A   1      33.075  32.324  27.870  1.00  0.00     0.163 HD
ATOM     27  O   UNL A   1      33.370  29.966  27.374  1.00  0.00    -0.269 OA
BRANCH  25  28
ATOM     28  C   UNL A   1      35.582  30.137  28.133  1.00  0.00     0.039 A 
ATOM     29  C   UNL A   1      36.567  30.169  27.142  1.00  0.00     0.014 A 
ATOM     30  C   UNL A   1      35.873  29.622  29.397  1.00  0.00     0.014 A 
ATOM     31  C   UNL A   1      37.872  29.772  27.448  1.00  0.00     0.010 A 
ATOM     32  C   UNL A   1      37.185  29.296  29.721  1.00  0.00     0.010 A 
ATOM     33  C   UNL A   1      38.201  29.381  28.755  1.00  0.00    -0.014 A 
BRANCH  33  34
ATOM     34  C   UNL A   1      39.598  29.077  29.157  1.00  0.00     0.031 A 
ATOM     35  C   UNL A   1      40.421  30.123  29.853  1.00  0.00     0.074 A 
ATOM     36  C   UNL A   1      40.165  27.915  28.781  1.00  0.00     0.049 A 
ATOM     37  N   UNL A   1      41.702  30.129  30.118  1.00  0.00    -0.248 NA
ATOM     38  C   UNL A   1      39.711  31.339  30.274  1.00  0.00     0.031 C 
ATOM     39  C   UNL A   1      39.487  26.838  28.058  1.00  0.00     0.029 A 
ATOM     40  N   UNL A   1      41.454  27.462  28.921  1.00  0.00    -0.354 N 
ATOM     41  C   UNL A   1      41.959  31.362  30.703  1.00  0.00     0.074 A 
ATOM     42  C   UNL A   1      40.707  32.089  30.723  1.00  0.00     0.031 C 
ATOM     43  C   UNL A   1      40.366  25.854  27.810  1.00  0.00     0.029 A 
ATOM     44  C   UNL A   1      41.677  26.248  28.317  1.00  0.00     0.049 A 
ATOM     45  H   UNL A   1      42.151  27.959  29.408  1.00  0.00     0.167 HD
ATOM     46  C   UNL A   1      43.129  31.838  31.189  1.00  0.00     0.037 A 
ATOM     47  C   UNL A   1      42.816  25.545  28.162  1.00  0.00     0.037 A 
ATOM     48  C   UNL A   1      44.363  31.097  31.201  1.00  0.00     0.049 A 
ATOM     49  C   UNL A   1      44.101  26.084  28.725  1.00  0.00     0.074 A 
ATOM     50  C   UNL A   1      45.581  31.457  31.752  1.00  0.00     0.029 A 
ATOM     51  N   UNL A   1      44.537  29.845  30.628  1.00  0.00    -0.354 N 
ATOM     52  N   UNL A   1      44.320  27.220  29.340  1.00  0.00    -0.248 NA
ATOM     53  C   UNL A   1      45.297  25.242  28.577  1.00  0.00     0.031 C 
ATOM     54  C   UNL A   1      46.503  30.442  31.474  1.00  0.00     0.029 A 
ATOM     55  C   UNL A   1      45.848  29.429  30.791  1.00  0.00     0.049 A 
ATOM     56  H   UNL A   1      43.833  29.329  30.173  1.00  0.00     0.167 HD
ATOM     57  C   UNL A   1      45.667  27.223  29.673  1.00  0.00     0.074 A 
ATOM     58  C   UNL A   1      46.218  25.970  29.197  1.00  0.00     0.031 C 
ATOM     59  C   UNL A   1      46.381  28.176  30.318  1.00  0.00     0.037 A 
BRANCH  46  60
ATOM     60  C   UNL A   1      43.132  33.235  31.738  1.00  0.00     0.064 A 
ATOM     61  C   UNL A   1      43.284  34.356  30.907  1.00  0.00     0.173 A 
ATOM     62  C   UNL A   1      42.966  33.456  33.113  1.00  0.00     0.173 A 
ATOM     63  F   UNL A   1      43.457  34.198  29.586  1.00  0.00    -0.203 F 
ATOM     64  C   UNL A   1      43.309  35.643  31.438  1.00  0.00     0.198 A 
ATOM     65  C   UNL A   1      42.960  34.746  33.637  1.00  0.00     0.198 A 
ATOM     66  F   UNL A   1      42.809  32.420  33.951  1.00  0.00    -0.203 F 
ATOM     67  F   UNL A   1      43.515  36.693  30.632  1.00  0.00    -0.200 F 
ATOM     68  C   UNL A   1      43.142  35.837  32.800  1.00  0.00     0.200 A 
ATOM     69  F   UNL A   1      42.786  34.934  34.952  1.00  0.00    -0.200 F 
ATOM     70  F   UNL A   1      43.167  37.077  33.310  1.00  0.00    -0.200 F 
ENDBRANCH  46  60
BRANCH  47  71
ATOM     71  C   UNL A   1      42.778  24.248  27.440  1.00  0.00     0.064 A 
ATOM     72  C   UNL A   1      43.081  24.175  26.075  1.00  0.00     0.173 A 
ATOM     73  C   UNL A   1      42.471  23.053  28.108  1.00  0.00     0.173 A 
ATOM     74  F   UNL A   1      43.360  25.293  25.391  1.00  0.00    -0.203 F 
ATOM     75  C   UNL A   1      43.073  22.955  25.400  1.00  0.00     0.198 A 
ATOM     76  C   UNL A   1      42.487  21.831  27.439  1.00  0.00     0.198 A 
ATOM     77  F   UNL A   1      42.179  23.071  29.417  1.00  0.00    -0.203 F 
ATOM     78  F   UNL A   1      43.340  22.915  24.088  1.00  0.00    -0.200 F 
ATOM     79  C   UNL A   1      42.784  21.784  26.085  1.00  0.00     0.200 A 
ATOM     80  F   UNL A   1      42.222  20.699  28.106  1.00  0.00    -0.200 F 
ATOM     81  F   UNL A   1      42.790  20.609  25.439  1.00  0.00    -0.200 F 
ENDBRANCH  47  71
BRANCH  59  82
ATOM     82  C   UNL A   1      47.832  27.898  30.582  1.00  0.00     0.064 A 
ATOM     83  C   UNL A   1      48.256  27.276  31.764  1.00  0.00     0.173 A 
ATOM     84  C   UNL A   1      48.798  28.194  29.608  1.00  0.00     0.173 A 
ATOM     85  F   UNL A   1      47.372  26.988  32.731  1.00  0.00    -0.203 F 
ATOM     86  C   UNL A   1      49.599  26.969  31.967  1.00  0.00     0.198 A 
ATOM     87  C   UNL A   1      50.136  27.862  29.804  1.00  0.00     0.198 A 
ATOM     88  F   UNL A   1      48.440  28.785  28.458  1.00  0.00    -0.203 F 
ATOM     89  F   UNL A   1      49.989  26.401  33.116  1.00  0.00    -0.200 F 
ATOM     90  C   UNL A   1      50.535  27.252  30.983  1.00  0.00     0.200 A 
ATOM     91  F   UNL A   1      51.037  28.126  28.847  1.00  0.00    -0.200 F 
ATOM     92  F   UNL A   1      51.824  26.941  31.174  1.00  0.00    -0.200 F 
ENDBRANCH  59  82
ENDBRANCH  33  34
ENDBRANCH  25  28
ENDBRANCH  23  24
ENDBRANCH  22  23
ENDBRANCH   1  22
TORSDOF 14
ENDMDL
