MODEL 1
REMARK VINA RESULT:     -12.8      0.000      0.000
REMARK SMILES CC(=O)Nc1ccc2sc(C(=O)NCCCCNC(=O)c3ccc(-c4c5nc(c(-c6c(F)c(F)c(F)c(F)c6F)c6ccc([nH]6)c(-c6c(F)c(F)c(F)c(F)c6F)c6nc(c(-c7c(F)c(F)c(F)c(F)c7F)c7ccc4[nH]7)C=C6)C=C5)cc3)cc2c1
REMARK SMILES IDX 16 1 15 2 14 3 13 4 11 5 12 6 10 8 5 9 6 10 86 11 7 12 85 13
REMARK SMILES IDX 8 14 84 15 9 16 4 17 1 18 2 19 3 20 17 22 18 23 19 24 20 26
REMARK SMILES IDX 21 27 22 28 83 29 23 30 82 31 24 32 25 33 26 34 76 35 27 36
REMARK SMILES IDX 81 37 75 38 77 39 28 40 80 41 74 42 73 43 29 45 61 46 41 47
REMARK SMILES IDX 60 48 42 49 45 50 59 51 78 52 43 53 44 54 58 56 79 57 46 58
REMARK SMILES IDX 30 59 31 60 39 61 32 62 33 63 37 64 40 65 34 66 35 67 38 68
REMARK SMILES IDX 36 69 62 70 63 71 71 72 64 73 65 74 69 75 72 76 66 77 67 78
REMARK SMILES IDX 70 79 68 80 47 81 48 82 56 83 49 84 50 85 54 86 57 87 51 88
REMARK SMILES IDX 52 89 55 90 53 91
REMARK H PARENT 13 7 4 21 18 25 77 44 45 55
REMARK Flexibility Score: inf
ROOT
ATOM      1  C   UNL A   1      32.986  29.728  25.703  1.00  0.00     0.023 C 
ENDROOT
BRANCH   1   2
ATOM      2  C   UNL A   1      33.997  28.580  25.785  1.00  0.00     0.023 C 
BRANCH   2   3
ATOM      3  C   UNL A   1      33.369  27.234  26.145  1.00  0.00     0.116 C 
BRANCH   3   4
ATOM      4  N   UNL A   1      33.536  26.277  25.070  1.00  0.00    -0.351 N 
ATOM      5  C   UNL A   1      32.825  26.021  23.922  1.00  0.00     0.261 C 
ATOM      6  O   UNL A   1      33.303  25.128  23.214  1.00  0.00    -0.268 OA
ATOM      7  H   UNL A   1      34.320  25.691  25.186  1.00  0.00     0.163 HD
BRANCH   5   8
ATOM      8  C   UNL A   1      31.630  26.750  23.511  1.00  0.00     0.093 A 
ATOM      9  C   UNL A   1      28.619  30.116  21.962  1.00  0.00     0.041 A 
ATOM     10  C   UNL A   1      27.677  29.363  22.654  1.00  0.00     0.027 A 
ATOM     11  C   UNL A   1      29.939  29.656  21.861  1.00  0.00     0.035 A 
ATOM     12  C   UNL A   1      28.032  28.165  23.275  1.00  0.00     0.022 A 
ATOM     13  C   UNL A   1      30.341  28.479  22.539  1.00  0.00    -0.005 A 
ATOM     14  C   UNL A   1      29.369  27.743  23.210  1.00  0.00     0.035 A 
ATOM     15  C   UNL A   1      31.634  27.880  22.707  1.00  0.00     0.034 A 
ATOM     16  S   UNL A   1      30.026  26.310  23.870  1.00  0.00    -0.130 S 
BRANCH   9  17
ATOM     17  N   UNL A   1      28.293  31.310  21.300  1.00  0.00    -0.326 N 
ATOM     18  C   UNL A   1      28.782  32.925  23.125  1.00  0.00     0.114 C 
ATOM     19  C   UNL A   1      28.177  32.582  21.788  1.00  0.00     0.221 C 
ATOM     20  O   UNL A   1      27.651  33.451  21.090  1.00  0.00    -0.275 OA
ATOM     21  H   UNL A   1      28.123  31.217  20.335  1.00  0.00     0.169 HD
ENDBRANCH   9  17
ENDBRANCH   5   8
ENDBRANCH   3   4
ENDBRANCH   2   3
ENDBRANCH   1   2
BRANCH   1  22
ATOM     22  C   UNL A   1      32.605  30.346  27.045  1.00  0.00     0.116 C 
BRANCH  22  23
ATOM     23  N   UNL A   1      32.676  31.799  27.048  1.00  0.00    -0.352 N 
ATOM     24  C   UNL A   1      33.630  32.611  27.606  1.00  0.00     0.251 C 
ATOM     25  H   UNL A   1      31.939  32.262  26.588  1.00  0.00     0.163 HD
ATOM     26  O   UNL A   1      33.474  33.829  27.627  1.00  0.00    -0.269 OA
BRANCH  24  27
ATOM     27  C   UNL A   1      34.833  32.009  28.214  1.00  0.00     0.039 A 
ATOM     28  C   UNL A   1      36.002  32.769  28.282  1.00  0.00     0.014 A 
ATOM     29  C   UNL A   1      34.803  30.710  28.728  1.00  0.00     0.014 A 
ATOM     30  C   UNL A   1      37.129  32.240  28.910  1.00  0.00     0.010 A 
ATOM     31  C   UNL A   1      35.897  30.219  29.431  1.00  0.00     0.010 A 
ATOM     32  C   UNL A   1      37.078  30.971  29.514  1.00  0.00    -0.014 A 
BRANCH  32  33
ATOM     33  C   UNL A   1      38.262  30.420  30.216  1.00  0.00     0.031 A 
ATOM     34  C   UNL A   1      38.552  30.814  31.637  1.00  0.00     0.074 A 
ATOM     35  C   UNL A   1      39.098  29.594  29.560  1.00  0.00     0.049 A 
ATOM     36  N   UNL A   1      39.526  30.425  32.423  1.00  0.00    -0.248 NA
ATOM     37  C   UNL A   1      37.648  31.799  32.248  1.00  0.00     0.031 C 
ATOM     38  C   UNL A   1      38.964  29.196  28.158  1.00  0.00     0.029 A 
ATOM     39  N   UNL A   1      40.227  28.941  29.985  1.00  0.00    -0.354 N 
ATOM     40  C   UNL A   1      39.355  31.125  33.609  1.00  0.00     0.074 A 
ATOM     41  C   UNL A   1      38.231  32.014  33.417  1.00  0.00     0.031 C 
ATOM     42  C   UNL A   1      39.951  28.341  27.849  1.00  0.00     0.029 A 
ATOM     43  C   UNL A   1      40.802  28.154  29.019  1.00  0.00     0.049 A 
ATOM     44  H   UNL A   1      40.589  29.028  30.897  1.00  0.00     0.167 HD
ATOM     45  C   UNL A   1      40.054  31.016  34.765  1.00  0.00     0.037 A 
ATOM     46  C   UNL A   1      41.893  27.366  29.074  1.00  0.00     0.037 A 
ATOM     47  C   UNL A   1      41.164  30.118  34.952  1.00  0.00     0.049 A 
ATOM     48  C   UNL A   1      42.641  27.242  30.373  1.00  0.00     0.074 A 
ATOM     49  C   UNL A   1      41.899  29.880  36.101  1.00  0.00     0.029 A 
ATOM     50  N   UNL A   1      41.707  29.316  33.958  1.00  0.00    -0.354 N 
ATOM     51  N   UNL A   1      42.416  27.838  31.518  1.00  0.00    -0.248 NA
ATOM     52  C   UNL A   1      43.782  26.318  30.389  1.00  0.00     0.031 C 
ATOM     53  C   UNL A   1      42.924  28.981  35.785  1.00  0.00     0.029 A 
ATOM     54  C   UNL A   1      42.786  28.603  34.458  1.00  0.00     0.049 A 
ATOM     55  H   UNL A   1      41.375  29.262  33.033  1.00  0.00     0.167 HD
ATOM     56  C   UNL A   1      43.370  27.344  32.400  1.00  0.00     0.074 A 
ATOM     57  C   UNL A   1      44.160  26.382  31.657  1.00  0.00     0.031 C 
ATOM     58  C   UNL A   1      43.571  27.656  33.704  1.00  0.00     0.037 A 
BRANCH  45  59
ATOM     59  C   UNL A   1      39.638  31.903  35.907  1.00  0.00     0.064 A 
ATOM     60  C   UNL A   1      38.562  31.576  36.747  1.00  0.00     0.173 A 
ATOM     61  C   UNL A   1      40.325  33.100  36.163  1.00  0.00     0.173 A 
ATOM     62  F   UNL A   1      37.862  30.449  36.542  1.00  0.00    -0.203 F 
ATOM     63  C   UNL A   1      38.156  32.436  37.765  1.00  0.00     0.198 A 
ATOM     64  C   UNL A   1      39.941  33.938  37.208  1.00  0.00     0.198 A 
ATOM     65  F   UNL A   1      41.366  33.461  35.398  1.00  0.00    -0.203 F 
ATOM     66  F   UNL A   1      37.079  32.137  38.504  1.00  0.00    -0.200 F 
ATOM     67  C   UNL A   1      38.850  33.614  37.998  1.00  0.00     0.200 A 
ATOM     68  F   UNL A   1      40.622  35.070  37.440  1.00  0.00    -0.200 F 
ATOM     69  F   UNL A   1      38.458  34.441  38.976  1.00  0.00    -0.200 F 
ENDBRANCH  45  59
BRANCH  46  70
ATOM     70  C   UNL A   1      42.306  26.603  27.868  1.00  0.00     0.064 A 
ATOM     71  C   UNL A   1      43.262  27.117  26.979  1.00  0.00     0.173 A 
ATOM     72  C   UNL A   1      41.775  25.335  27.593  1.00  0.00     0.173 A 
ATOM     73  F   UNL A   1      43.787  28.333  27.190  1.00  0.00    -0.203 F 
ATOM     74  C   UNL A   1      43.657  26.397  25.853  1.00  0.00     0.198 A 
ATOM     75  C   UNL A   1      42.193  24.604  26.484  1.00  0.00     0.198 A 
ATOM     76  F   UNL A   1      40.865  24.795  28.417  1.00  0.00    -0.203 F 
ATOM     77  F   UNL A   1      44.543  26.929  24.999  1.00  0.00    -0.200 F 
ATOM     78  C   UNL A   1      43.129  25.139  25.610  1.00  0.00     0.200 A 
ATOM     79  F   UNL A   1      41.694  23.381  26.263  1.00  0.00    -0.200 F 
ATOM     80  F   UNL A   1      43.519  24.442  24.535  1.00  0.00    -0.200 F 
ENDBRANCH  46  70
BRANCH  58  81
ATOM     81  C   UNL A   1      44.672  26.924  34.421  1.00  0.00     0.064 A 
ATOM     82  C   UNL A   1      45.986  27.417  34.466  1.00  0.00     0.173 A 
ATOM     83  C   UNL A   1      44.406  25.712  35.078  1.00  0.00     0.173 A 
ATOM     84  F   UNL A   1      46.298  28.564  33.844  1.00  0.00    -0.203 F 
ATOM     85  C   UNL A   1      46.998  26.701  35.100  1.00  0.00     0.198 A 
ATOM     86  C   UNL A   1      45.413  25.019  35.744  1.00  0.00     0.198 A 
ATOM     87  F   UNL A   1      43.166  25.199  35.077  1.00  0.00    -0.203 F 
ATOM     88  F   UNL A   1      48.258  27.156  35.067  1.00  0.00    -0.200 F 
ATOM     89  C   UNL A   1      46.710  25.506  35.742  1.00  0.00     0.200 A 
ATOM     90  F   UNL A   1      45.128  23.874  36.379  1.00  0.00    -0.200 F 
ATOM     91  F   UNL A   1      47.687  24.819  36.350  1.00  0.00    -0.200 F 
ENDBRANCH  58  81
ENDBRANCH  32  33
ENDBRANCH  24  27
ENDBRANCH  22  23
ENDBRANCH   1  22
TORSDOF 12
ENDMDL
MODEL 2
REMARK VINA RESULT:     -12.7      0.539      2.062
REMARK SMILES CC(=O)Nc1ccc2sc(C(=O)NCCCCNC(=O)c3ccc(-c4c5nc(c(-c6c(F)c(F)c(F)c(F)c6F)c6ccc([nH]6)c(-c6c(F)c(F)c(F)c(F)c6F)c6nc(c(-c7c(F)c(F)c(F)c(F)c7F)c7ccc4[nH]7)C=C6)C=C5)cc3)cc2c1
REMARK SMILES IDX 16 1 15 2 14 3 13 4 11 5 12 6 10 8 5 9 6 10 86 11 7 12 85 13
REMARK SMILES IDX 8 14 84 15 9 16 4 17 1 18 2 19 3 20 17 22 18 23 19 24 20 26
REMARK SMILES IDX 21 27 22 28 83 29 23 30 82 31 24 32 25 33 26 34 76 35 27 36
REMARK SMILES IDX 81 37 75 38 77 39 28 40 80 41 74 42 73 43 29 45 61 46 41 47
REMARK SMILES IDX 60 48 42 49 45 50 59 51 78 52 43 53 44 54 58 56 79 57 46 58
REMARK SMILES IDX 30 59 31 60 39 61 32 62 33 63 37 64 40 65 34 66 35 67 38 68
REMARK SMILES IDX 36 69 62 70 63 71 71 72 64 73 65 74 69 75 72 76 66 77 67 78
REMARK SMILES IDX 70 79 68 80 47 81 48 82 56 83 49 84 50 85 54 86 57 87 51 88
REMARK SMILES IDX 52 89 55 90 53 91
REMARK H PARENT 13 7 4 21 18 25 77 44 45 55
REMARK Flexibility Score: inf
ROOT
ATOM      1  C   UNL A   1      31.987  28.737  26.476  1.00  0.00     0.023 C 
ENDROOT
BRANCH   1   2
ATOM      2  C   UNL A   1      32.585  27.504  27.160  1.00  0.00     0.023 C 
BRANCH   2   3
ATOM      3  C   UNL A   1      32.103  26.180  26.567  1.00  0.00     0.116 C 
BRANCH   3   4
ATOM      4  N   UNL A   1      32.785  25.888  25.322  1.00  0.00    -0.351 N 
ATOM      5  C   UNL A   1      32.499  26.166  24.007  1.00  0.00     0.261 C 
ATOM      6  O   UNL A   1      33.355  25.777  23.205  1.00  0.00    -0.268 OA
ATOM      7  H   UNL A   1      33.626  25.388  25.444  1.00  0.00     0.163 HD
BRANCH   5   8
ATOM      8  C   UNL A   1      31.322  26.899  23.555  1.00  0.00     0.093 A 
ATOM      9  C   UNL A   1      28.386  30.258  21.852  1.00  0.00     0.041 A 
ATOM     10  C   UNL A   1      27.423  29.543  22.555  1.00  0.00     0.027 A 
ATOM     11  C   UNL A   1      29.701  29.774  21.785  1.00  0.00     0.035 A 
ATOM     12  C   UNL A   1      27.750  28.362  23.221  1.00  0.00     0.022 A 
ATOM     13  C   UNL A   1      30.074  28.614  22.507  1.00  0.00    -0.005 A 
ATOM     14  C   UNL A   1      29.081  27.917  23.189  1.00  0.00     0.035 A 
ATOM     15  C   UNL A   1      31.354  28.001  22.713  1.00  0.00     0.034 A 
ATOM     16  S   UNL A   1      29.706  26.497  23.906  1.00  0.00    -0.130 S 
BRANCH   9  17
ATOM     17  N   UNL A   1      28.090  31.434  21.146  1.00  0.00    -0.326 N 
ATOM     18  C   UNL A   1      28.773  33.108  22.852  1.00  0.00     0.114 C 
ATOM     19  C   UNL A   1      28.072  32.734  21.571  1.00  0.00     0.221 C 
ATOM     20  O   UNL A   1      27.556  33.595  20.858  1.00  0.00    -0.275 OA
ATOM     21  H   UNL A   1      27.858  31.303  20.198  1.00  0.00     0.169 HD
ENDBRANCH   9  17
ENDBRANCH   5   8
ENDBRANCH   3   4
ENDBRANCH   2   3
ENDBRANCH   1   2
BRANCH   1  22
ATOM     22  C   UNL A   1      33.009  29.738  25.948  1.00  0.00     0.116 C 
BRANCH  22  23
ATOM     23  N   UNL A   1      32.721  31.111  26.333  1.00  0.00    -0.352 N 
ATOM     24  C   UNL A   1      33.383  31.907  27.232  1.00  0.00     0.251 C 
ATOM     25  H   UNL A   1      31.947  31.525  25.888  1.00  0.00     0.163 HD
ATOM     26  O   UNL A   1      32.933  33.009  27.536  1.00  0.00    -0.269 OA
BRANCH  24  27
ATOM     27  C   UNL A   1      34.625  31.417  27.862  1.00  0.00     0.039 A 
ATOM     28  C   UNL A   1      35.709  32.289  27.975  1.00  0.00     0.014 A 
ATOM     29  C   UNL A   1      34.713  30.112  28.353  1.00  0.00     0.014 A 
ATOM     30  C   UNL A   1      36.868  31.864  28.624  1.00  0.00     0.010 A 
ATOM     31  C   UNL A   1      35.834  29.720  29.076  1.00  0.00     0.010 A 
ATOM     32  C   UNL A   1      36.930  30.585  29.204  1.00  0.00    -0.014 A 
BRANCH  32  33
ATOM     33  C   UNL A   1      38.146  30.142  29.928  1.00  0.00     0.031 A 
ATOM     34  C   UNL A   1      38.404  30.610  31.333  1.00  0.00     0.074 A 
ATOM     35  C   UNL A   1      39.037  29.347  29.306  1.00  0.00     0.049 A 
ATOM     36  N   UNL A   1      39.399  30.317  32.134  1.00  0.00    -0.248 NA
ATOM     37  C   UNL A   1      37.435  31.556  31.904  1.00  0.00     0.031 C 
ATOM     38  C   UNL A   1      38.934  28.887  27.920  1.00  0.00     0.029 A 
ATOM     39  N   UNL A   1      40.206  28.788  29.758  1.00  0.00    -0.354 N 
ATOM     40  C   UNL A   1      39.179  31.051  33.291  1.00  0.00     0.074 A 
ATOM     41  C   UNL A   1      37.998  31.856  33.063  1.00  0.00     0.031 C 
ATOM     42  C   UNL A   1      39.976  28.087  27.646  1.00  0.00     0.029 A 
ATOM     43  C   UNL A   1      40.835  28.004  28.824  1.00  0.00     0.049 A 
ATOM     44  H   UNL A   1      40.558  28.935  30.665  1.00  0.00     0.167 HD
ATOM     45  C   UNL A   1      39.879  31.035  34.451  1.00  0.00     0.037 A 
ATOM     46  C   UNL A   1      41.975  27.293  28.910  1.00  0.00     0.037 A 
ATOM     47  C   UNL A   1      41.046  30.220  34.675  1.00  0.00     0.049 A 
ATOM     48  C   UNL A   1      42.725  27.270  30.214  1.00  0.00     0.074 A 
ATOM     49  C   UNL A   1      41.791  30.078  35.832  1.00  0.00     0.029 A 
ATOM     50  N   UNL A   1      41.644  29.418  33.714  1.00  0.00    -0.354 N 
ATOM     51  N   UNL A   1      42.458  27.895  31.335  1.00  0.00    -0.248 NA
ATOM     52  C   UNL A   1      43.925  26.425  30.267  1.00  0.00     0.031 C 
ATOM     53  C   UNL A   1      42.875  29.237  35.552  1.00  0.00     0.029 A 
ATOM     54  C   UNL A   1      42.766  28.798  34.242  1.00  0.00     0.049 A 
ATOM     55  H   UNL A   1      41.320  29.305  32.791  1.00  0.00     0.167 HD
ATOM     56  C   UNL A   1      43.439  27.500  32.236  1.00  0.00     0.074 A 
ATOM     57  C   UNL A   1      44.294  26.565  31.532  1.00  0.00     0.031 C 
ATOM     58  C   UNL A   1      43.615  27.876  33.527  1.00  0.00     0.037 A 
BRANCH  45  59
ATOM     59  C   UNL A   1      39.402  31.936  35.556  1.00  0.00     0.064 A 
ATOM     60  C   UNL A   1      39.863  33.256  35.690  1.00  0.00     0.173 A 
ATOM     61  C   UNL A   1      38.472  31.473  36.501  1.00  0.00     0.173 A 
ATOM     62  F   UNL A   1      40.761  33.749  34.823  1.00  0.00    -0.203 F 
ATOM     63  C   UNL A   1      39.452  34.059  36.752  1.00  0.00     0.198 A 
ATOM     64  C   UNL A   1      38.034  32.292  37.539  1.00  0.00     0.198 A 
ATOM     65  F   UNL A   1      37.991  30.224  36.420  1.00  0.00    -0.203 F 
ATOM     66  F   UNL A   1      39.966  35.288  36.899  1.00  0.00    -0.200 F 
ATOM     67  C   UNL A   1      38.534  33.577  37.672  1.00  0.00     0.200 A 
ATOM     68  F   UNL A   1      37.135  31.829  38.419  1.00  0.00    -0.200 F 
ATOM     69  F   UNL A   1      38.142  34.349  38.695  1.00  0.00    -0.200 F 
ENDBRANCH  45  59
BRANCH  46  70
ATOM     70  C   UNL A   1      42.442  26.512  27.736  1.00  0.00     0.064 A 
ATOM     71  C   UNL A   1      41.932  25.234  27.468  1.00  0.00     0.173 A 
ATOM     72  C   UNL A   1      43.389  27.036  26.845  1.00  0.00     0.173 A 
ATOM     73  F   UNL A   1      41.037  24.682  28.300  1.00  0.00    -0.203 F 
ATOM     74  C   UNL A   1      42.364  24.505  26.361  1.00  0.00     0.198 A 
ATOM     75  C   UNL A   1      43.797  26.319  25.723  1.00  0.00     0.198 A 
ATOM     76  F   UNL A   1      43.901  28.259  27.052  1.00  0.00    -0.203 F 
ATOM     77  F   UNL A   1      41.889  23.269  26.150  1.00  0.00    -0.200 F 
ATOM     78  C   UNL A   1      43.289  25.050  25.486  1.00  0.00     0.200 A 
ATOM     79  F   UNL A   1      44.678  26.859  24.869  1.00  0.00    -0.200 F 
ATOM     80  F   UNL A   1      43.693  24.355  24.415  1.00  0.00    -0.200 F 
ENDBRANCH  46  70
BRANCH  58  81
ATOM     81  C   UNL A   1      44.759  27.248  34.272  1.00  0.00     0.064 A 
ATOM     82  C   UNL A   1      44.617  26.037  34.968  1.00  0.00     0.173 A 
ATOM     83  C   UNL A   1      46.020  27.864  34.285  1.00  0.00     0.173 A 
ATOM     84  F   UNL A   1      43.430  25.411  34.999  1.00  0.00    -0.203 F 
ATOM     85  C   UNL A   1      45.679  25.493  35.686  1.00  0.00     0.198 A 
ATOM     86  C   UNL A   1      47.090  27.298  34.972  1.00  0.00     0.198 A 
ATOM     87  F   UNL A   1      46.217  29.017  33.628  1.00  0.00    -0.203 F 
ATOM     88  F   UNL A   1      45.499  24.375  36.402  1.00  0.00    -0.200 F 
ATOM     89  C   UNL A   1      46.915  26.121  35.684  1.00  0.00     0.200 A 
ATOM     90  F   UNL A   1      48.289  27.897  34.953  1.00  0.00    -0.200 F 
ATOM     91  F   UNL A   1      47.936  25.598  36.377  1.00  0.00    -0.200 F 
ENDBRANCH  58  81
ENDBRANCH  32  33
ENDBRANCH  24  27
ENDBRANCH  22  23
ENDBRANCH   1  22
TORSDOF 12
ENDMDL
MODEL 3
REMARK VINA RESULT:     -12.6      2.478      4.167
REMARK SMILES CC(=O)Nc1ccc2sc(C(=O)NCCCCNC(=O)c3ccc(-c4c5nc(c(-c6c(F)c(F)c(F)c(F)c6F)c6ccc([nH]6)c(-c6c(F)c(F)c(F)c(F)c6F)c6nc(c(-c7c(F)c(F)c(F)c(F)c7F)c7ccc4[nH]7)C=C6)C=C5)cc3)cc2c1
REMARK SMILES IDX 16 1 15 2 14 3 13 4 11 5 12 6 10 8 5 9 6 10 86 11 7 12 85 13
REMARK SMILES IDX 8 14 84 15 9 16 4 17 1 18 2 19 3 20 17 22 18 23 19 24 20 26
REMARK SMILES IDX 21 27 22 28 83 29 23 30 82 31 24 32 25 33 26 34 76 35 27 36
REMARK SMILES IDX 81 37 75 38 77 39 28 40 80 41 74 42 73 43 29 45 61 46 41 47
REMARK SMILES IDX 60 48 42 49 45 50 59 51 78 52 43 53 44 54 58 56 79 57 46 58
REMARK SMILES IDX 30 59 31 60 39 61 32 62 33 63 37 64 40 65 34 66 35 67 38 68
REMARK SMILES IDX 36 69 62 70 63 71 71 72 64 73 65 74 69 75 72 76 66 77 67 78
REMARK SMILES IDX 70 79 68 80 47 81 48 82 56 83 49 84 50 85 54 86 57 87 51 88
REMARK SMILES IDX 52 89 55 90 53 91
REMARK H PARENT 13 7 4 21 18 25 77 44 45 55
REMARK Flexibility Score: inf
ROOT
ATOM      1  C   UNL A   1      31.412  32.176  26.533  1.00  0.00     0.023 C 
ENDROOT
BRANCH   1   2
ATOM      2  C   UNL A   1      31.537  30.680  26.229  1.00  0.00     0.023 C 
BRANCH   2   3
ATOM      3  C   UNL A   1      32.925  30.110  26.516  1.00  0.00     0.116 C 
BRANCH   3   4
ATOM      4  N   UNL A   1      33.586  29.705  25.292  1.00  0.00    -0.351 N 
ATOM      5  C   UNL A   1      33.676  28.505  24.627  1.00  0.00     0.261 C 
ATOM      6  O   UNL A   1      34.313  28.554  23.569  1.00  0.00    -0.268 OA
ATOM      7  H   UNL A   1      34.068  30.438  24.845  1.00  0.00     0.163 HD
BRANCH   5   8
ATOM      8  C   UNL A   1      33.048  27.266  25.070  1.00  0.00     0.093 A 
ATOM      9  C   UNL A   1      32.092  22.673  25.962  1.00  0.00     0.041 A 
ATOM     10  C   UNL A   1      30.780  23.128  26.032  1.00  0.00     0.027 A 
ATOM     11  C   UNL A   1      33.138  23.590  25.788  1.00  0.00     0.035 A 
ATOM     12  C   UNL A   1      30.483  24.485  25.903  1.00  0.00     0.022 A 
ATOM     13  C   UNL A   1      32.858  24.965  25.587  1.00  0.00    -0.005 A 
ATOM     14  C   UNL A   1      31.535  25.386  25.677  1.00  0.00     0.035 A 
ATOM     15  C   UNL A   1      33.718  26.065  25.257  1.00  0.00     0.034 A 
ATOM     16  S   UNL A   1      31.416  27.083  25.513  1.00  0.00    -0.130 S 
BRANCH   9  17
ATOM     17  N   UNL A   1      32.432  21.321  26.115  1.00  0.00    -0.326 N 
ATOM     18  C   UNL A   1      32.408  20.628  23.728  1.00  0.00     0.114 C 
ATOM     19  C   UNL A   1      32.433  20.304  25.200  1.00  0.00     0.221 C 
ATOM     20  O   UNL A   1      32.537  19.140  25.590  1.00  0.00    -0.275 OA
ATOM     21  H   UNL A   1      32.715  21.064  27.022  1.00  0.00     0.169 HD
ENDBRANCH   9  17
ENDBRANCH   5   8
ENDBRANCH   3   4
ENDBRANCH   2   3
ENDBRANCH   1   2
BRANCH   1  22
ATOM     22  C   UNL A   1      32.616  32.792  27.238  1.00  0.00     0.116 C 
BRANCH  22  23
ATOM     23  N   UNL A   1      32.378  34.150  27.703  1.00  0.00    -0.352 N 
ATOM     24  C   UNL A   1      33.035  34.850  28.682  1.00  0.00     0.251 C 
ATOM     25  H   UNL A   1      31.646  34.631  27.253  1.00  0.00     0.163 HD
ATOM     26  O   UNL A   1      32.625  35.951  29.039  1.00  0.00    -0.269 OA
BRANCH  24  27
ATOM     27  C   UNL A   1      34.221  34.256  29.330  1.00  0.00     0.039 A 
ATOM     28  C   UNL A   1      34.033  33.379  30.399  1.00  0.00     0.014 A 
ATOM     29  C   UNL A   1      35.509  34.550  28.874  1.00  0.00     0.014 A 
ATOM     30  C   UNL A   1      35.139  32.759  30.982  1.00  0.00     0.010 A 
ATOM     31  C   UNL A   1      36.600  33.865  29.396  1.00  0.00     0.010 A 
ATOM     32  C   UNL A   1      36.429  32.977  30.467  1.00  0.00    -0.014 A 
BRANCH  32  33
ATOM     33  C   UNL A   1      37.603  32.291  31.058  1.00  0.00     0.031 A 
ATOM     34  C   UNL A   1      38.085  32.660  32.433  1.00  0.00     0.074 A 
ATOM     35  C   UNL A   1      38.260  31.360  30.340  1.00  0.00     0.049 A 
ATOM     36  N   UNL A   1      39.080  32.162  33.125  1.00  0.00    -0.248 NA
ATOM     37  C   UNL A   1      37.377  33.757  33.110  1.00  0.00     0.031 C 
ATOM     38  C   UNL A   1      37.933  30.967  28.968  1.00  0.00     0.029 A 
ATOM     39  N   UNL A   1      39.338  30.576  30.664  1.00  0.00    -0.354 N 
ATOM     40  C   UNL A   1      39.121  32.891  34.305  1.00  0.00     0.074 A 
ATOM     41  C   UNL A   1      38.100  33.911  34.207  1.00  0.00     0.031 C 
ATOM     42  C   UNL A   1      38.771  29.992  28.581  1.00  0.00     0.029 A 
ATOM     43  C   UNL A   1      39.710  29.714  29.663  1.00  0.00     0.049 A 
ATOM     44  H   UNL A   1      39.801  30.628  31.532  1.00  0.00     0.167 HD
ATOM     45  C   UNL A   1      39.917  32.709  35.387  1.00  0.00     0.037 A 
ATOM     46  C   UNL A   1      40.695  28.797  29.625  1.00  0.00     0.037 A 
ATOM     47  C   UNL A   1      40.922  31.681  35.481  1.00  0.00     0.049 A 
ATOM     48  C   UNL A   1      41.553  28.595  30.844  1.00  0.00     0.074 A 
ATOM     49  C   UNL A   1      41.738  31.367  36.554  1.00  0.00     0.029 A 
ATOM     50  N   UNL A   1      41.257  30.808  34.456  1.00  0.00    -0.354 N 
ATOM     51  N   UNL A   1      41.523  29.227  31.992  1.00  0.00    -0.248 NA
ATOM     52  C   UNL A   1      42.568  27.537  30.766  1.00  0.00     0.031 C 
ATOM     53  C   UNL A   1      42.607  30.344  36.157  1.00  0.00     0.029 A 
ATOM     54  C   UNL A   1      42.286  29.972  34.861  1.00  0.00     0.049 A 
ATOM     55  H   UNL A   1      40.827  30.785  33.570  1.00  0.00     0.167 HD
ATOM     56  C   UNL A   1      42.496  28.628  32.784  1.00  0.00     0.074 A 
ATOM     57  C   UNL A   1      43.081  27.568  31.987  1.00  0.00     0.031 C 
ATOM     58  C   UNL A   1      42.868  28.927  34.053  1.00  0.00     0.037 A 
BRANCH  45  59
ATOM     59  C   UNL A   1      39.734  33.652  36.543  1.00  0.00     0.064 A 
ATOM     60  C   UNL A   1      38.915  33.334  37.639  1.00  0.00     0.173 A 
ATOM     61  C   UNL A   1      40.383  34.897  36.555  1.00  0.00     0.173 A 
ATOM     62  F   UNL A   1      38.261  32.162  37.676  1.00  0.00    -0.203 F 
ATOM     63  C   UNL A   1      38.714  34.242  38.676  1.00  0.00     0.198 A 
ATOM     64  C   UNL A   1      40.210  35.786  37.613  1.00  0.00     0.198 A 
ATOM     65  F   UNL A   1      41.183  35.253  35.539  1.00  0.00    -0.203 F 
ATOM     66  F   UNL A   1      37.868  33.944  39.671  1.00  0.00    -0.200 F 
ATOM     67  C   UNL A   1      39.365  35.466  38.664  1.00  0.00     0.200 A 
ATOM     68  F   UNL A   1      40.853  36.963  37.607  1.00  0.00    -0.200 F 
ATOM     69  F   UNL A   1      39.169  36.340  39.660  1.00  0.00    -0.200 F 
ENDBRANCH  45  59
BRANCH  46  70
ATOM     70  C   UNL A   1      40.885  27.976  28.402  1.00  0.00     0.064 A 
ATOM     71  C   UNL A   1      40.248  26.736  28.257  1.00  0.00     0.173 A 
ATOM     72  C   UNL A   1      41.687  28.425  27.343  1.00  0.00     0.173 A 
ATOM     73  F   UNL A   1      39.484  26.256  29.249  1.00  0.00    -0.203 F 
ATOM     74  C   UNL A   1      40.418  25.969  27.106  1.00  0.00     0.198 A 
ATOM     75  C   UNL A   1      41.833  27.672  26.181  1.00  0.00     0.198 A 
ATOM     76  F   UNL A   1      42.312  29.609  27.428  1.00  0.00    -0.203 F 
ATOM     77  F   UNL A   1      39.829  24.769  27.010  1.00  0.00    -0.200 F 
ATOM     78  C   UNL A   1      41.204  26.440  26.066  1.00  0.00     0.200 A 
ATOM     79  F   UNL A   1      42.578  28.140  25.170  1.00  0.00    -0.200 F 
ATOM     80  F   UNL A   1      41.357  25.710  24.953  1.00  0.00    -0.200 F 
ENDBRANCH  46  70
BRANCH  58  81
ATOM     81  C   UNL A   1      43.939  28.071  34.671  1.00  0.00     0.064 A 
ATOM     82  C   UNL A   1      45.299  28.411  34.593  1.00  0.00     0.173 A 
ATOM     83  C   UNL A   1      43.598  26.896  35.358  1.00  0.00     0.173 A 
ATOM     84  F   UNL A   1      45.681  29.518  33.937  1.00  0.00    -0.203 F 
ATOM     85  C   UNL A   1      46.277  27.583  35.136  1.00  0.00     0.198 A 
ATOM     86  C   UNL A   1      44.576  26.090  35.934  1.00  0.00     0.198 A 
ATOM     87  F   UNL A   1      42.313  26.527  35.474  1.00  0.00    -0.203 F 
ATOM     88  F   UNL A   1      47.572  27.892  34.986  1.00  0.00    -0.200 F 
ATOM     89  C   UNL A   1      45.915  26.426  35.810  1.00  0.00     0.200 A 
ATOM     90  F   UNL A   1      44.222  24.982  36.601  1.00  0.00    -0.200 F 
ATOM     91  F   UNL A   1      46.858  25.630  36.331  1.00  0.00    -0.200 F 
ENDBRANCH  58  81
ENDBRANCH  32  33
ENDBRANCH  24  27
ENDBRANCH  22  23
ENDBRANCH   1  22
TORSDOF 12
ENDMDL
