MODEL 1
REMARK VINA RESULT:     -12.4      0.000      0.000
REMARK SMILES N#C/C(=C/c1cccc(OC2CCCC2)c1)C(=O)NCCCCNC(=O)c1ccc(-c2c3nc(c(-c4c(F)c(F)c(F)c(F)c4F)c4ccc([nH]4)c(-c4c(F)c(F)c(F)c(F)c4F)c4nc(c(-c5c(F)c(F)c(F)c(F)c5F)c5ccc2[nH]5)C=C4)C=C3)cc1
REMARK SMILES IDX 21 1 20 2 19 3 17 4 18 5 3 7 4 8 2 9 1 10 5 11 6 12 16 13
REMARK SMILES IDX 7 14 9 15 8 16 10 17 11 18 12 19 15 20 13 21 14 22 22 23
REMARK SMILES IDX 23 24 24 25 25 26 26 28 27 29 28 30 89 31 29 32 88 33 30 34
REMARK SMILES IDX 31 35 32 36 82 37 33 38 87 39 81 40 83 41 34 42 86 43 80 44
REMARK SMILES IDX 79 45 35 47 67 48 47 49 66 50 48 51 51 52 65 53 84 54 49 55
REMARK SMILES IDX 50 56 64 58 85 59 52 60 36 61 37 62 45 63 38 64 39 65 43 66
REMARK SMILES IDX 46 67 40 68 41 69 44 70 42 71 68 72 69 73 77 74 70 75 71 76
REMARK SMILES IDX 75 77 78 78 72 79 73 80 76 81 74 82 53 83 54 84 62 85 55 86
REMARK SMILES IDX 56 87 60 88 63 89 57 90 58 91 61 92 59 93
REMARK H PARENT 19 6 24 27 83 46 51 57
REMARK Flexibility Score: inf
ROOT
ATOM      1  C   UNL A   1      32.998  28.955  24.500  1.00  0.00     0.023 C 
ENDROOT
BRANCH   1   2
ATOM      2  C   UNL A   1      34.046  27.901  24.847  1.00  0.00     0.116 C 
BRANCH   2   3
ATOM      3  N   UNL A   1      33.609  26.823  25.713  1.00  0.00    -0.351 N 
ATOM      4  C   UNL A   1      33.298  25.518  25.428  1.00  0.00     0.261 C 
ATOM      5  O   UNL A   1      33.018  24.782  26.376  1.00  0.00    -0.268 OA
ATOM      6  H   UNL A   1      33.520  27.069  26.663  1.00  0.00     0.163 HD
BRANCH   4   7
ATOM      7  C   UNL A   1      33.230  24.973  24.037  1.00  0.00     0.117 C 
ATOM      8  C   UNL A   1      32.276  25.123  23.086  1.00  0.00     0.033 C 
BRANCH   7   9
ATOM      9  C   UNL A   1      34.463  24.264  23.501  1.00  0.00     0.105 C 
ATOM     10  N   UNL A   1      35.486  23.676  23.056  1.00  0.00    -0.192 NA
ENDBRANCH   7   9
BRANCH   8  11
ATOM     11  C   UNL A   1      31.062  25.936  23.106  1.00  0.00    -0.020 A 
ATOM     12  C   UNL A   1      29.966  25.574  23.895  1.00  0.00     0.008 A 
ATOM     13  C   UNL A   1      31.016  27.107  22.345  1.00  0.00     0.054 A 
ATOM     14  C   UNL A   1      28.874  26.435  23.989  1.00  0.00     0.004 A 
ATOM     15  C   UNL A   1      29.962  28.003  22.482  1.00  0.00     0.120 A 
ATOM     16  C   UNL A   1      28.883  27.651  23.299  1.00  0.00     0.046 A 
BRANCH  15  17
ATOM     17  O   UNL A   1      29.891  29.244  21.924  1.00  0.00    -0.490 OA
BRANCH  17  18
ATOM     18  C   UNL A   1      28.863  30.175  22.258  1.00  0.00     0.173 C 
ATOM     19  C   UNL A   1      29.137  31.151  23.407  1.00  0.00     0.045 C 
ATOM     20  C   UNL A   1      28.315  30.994  21.084  1.00  0.00     0.045 C 
ATOM     21  C   UNL A   1      28.196  32.312  23.126  1.00  0.00     0.004 C 
ATOM     22  C   UNL A   1      28.164  32.422  21.608  1.00  0.00     0.004 C 
ENDBRANCH  17  18
ENDBRANCH  15  17
ENDBRANCH   8  11
ENDBRANCH   4   7
ENDBRANCH   2   3
ENDBRANCH   1   2
BRANCH   1  23
ATOM     23  C   UNL A   1      31.843  29.132  25.491  1.00  0.00     0.023 C 
BRANCH  23  24
ATOM     24  C   UNL A   1      32.166  29.658  26.892  1.00  0.00     0.116 C 
BRANCH  24  25
ATOM     25  N   UNL A   1      32.151  31.106  27.031  1.00  0.00    -0.352 N 
ATOM     26  C   UNL A   1      33.159  31.983  27.367  1.00  0.00     0.251 C 
ATOM     27  H   UNL A   1      31.279  31.528  26.856  1.00  0.00     0.163 HD
ATOM     28  O   UNL A   1      32.931  33.191  27.391  1.00  0.00    -0.269 OA
BRANCH  26  29
ATOM     29  C   UNL A   1      34.498  31.490  27.777  1.00  0.00     0.039 A 
ATOM     30  C   UNL A   1      35.519  32.429  27.969  1.00  0.00     0.014 A 
ATOM     31  C   UNL A   1      34.755  30.137  28.002  1.00  0.00     0.014 A 
ATOM     32  C   UNL A   1      36.744  32.030  28.512  1.00  0.00     0.010 A 
ATOM     33  C   UNL A   1      35.954  29.747  28.605  1.00  0.00     0.010 A 
ATOM     34  C   UNL A   1      36.946  30.696  28.901  1.00  0.00    -0.014 A 
BRANCH  34  35
ATOM     35  C   UNL A   1      38.139  30.303  29.701  1.00  0.00     0.031 A 
ATOM     36  C   UNL A   1      39.143  29.321  29.168  1.00  0.00     0.074 A 
ATOM     37  C   UNL A   1      38.272  30.775  30.957  1.00  0.00     0.049 A 
ATOM     38  N   UNL A   1      40.195  28.812  29.761  1.00  0.00    -0.248 NA
ATOM     39  C   UNL A   1      38.927  28.832  27.801  1.00  0.00     0.031 C 
ATOM     40  C   UNL A   1      37.341  31.693  31.618  1.00  0.00     0.029 A 
ATOM     41  N   UNL A   1      39.234  30.540  31.910  1.00  0.00    -0.354 N 
ATOM     42  C   UNL A   1      40.758  27.933  28.845  1.00  0.00     0.074 A 
ATOM     43  C   UNL A   1      39.910  27.950  27.672  1.00  0.00     0.031 C 
ATOM     44  C   UNL A   1      37.785  31.956  32.856  1.00  0.00     0.029 A 
ATOM     45  C   UNL A   1      39.011  31.201  33.094  1.00  0.00     0.049 A 
ATOM     46  H   UNL A   1      40.009  29.953  31.758  1.00  0.00     0.167 HD
ATOM     47  C   UNL A   1      41.886  27.193  28.967  1.00  0.00     0.037 A 
ATOM     48  C   UNL A   1      39.708  31.196  34.246  1.00  0.00     0.037 A 
ATOM     49  C   UNL A   1      42.746  27.190  30.122  1.00  0.00     0.049 A 
ATOM     50  C   UNL A   1      40.959  30.370  34.350  1.00  0.00     0.074 A 
ATOM     51  C   UNL A   1      43.942  26.518  30.307  1.00  0.00     0.029 A 
ATOM     52  N   UNL A   1      42.499  27.893  31.292  1.00  0.00    -0.354 N 
ATOM     53  N   UNL A   1      41.515  29.594  33.452  1.00  0.00    -0.248 NA
ATOM     54  C   UNL A   1      41.683  30.420  35.629  1.00  0.00     0.031 C 
ATOM     55  C   UNL A   1      44.402  26.786  31.602  1.00  0.00     0.029 A 
ATOM     56  C   UNL A   1      43.512  27.656  32.209  1.00  0.00     0.049 A 
ATOM     57  H   UNL A   1      41.720  28.474  31.449  1.00  0.00     0.167 HD
ATOM     58  C   UNL A   1      42.662  29.087  34.045  1.00  0.00     0.074 A 
ATOM     59  C   UNL A   1      42.731  29.650  35.377  1.00  0.00     0.031 C 
ATOM     60  C   UNL A   1      43.575  28.228  33.530  1.00  0.00     0.037 A 
BRANCH  47  61
ATOM     61  C   UNL A   1      42.265  26.317  27.808  1.00  0.00     0.064 A 
ATOM     62  C   UNL A   1      41.679  25.056  27.623  1.00  0.00     0.173 A 
ATOM     63  C   UNL A   1      43.190  26.758  26.851  1.00  0.00     0.173 A 
ATOM     64  F   UNL A   1      40.795  24.584  28.515  1.00  0.00    -0.203 F 
ATOM     65  C   UNL A   1      42.027  24.256  26.537  1.00  0.00     0.198 A 
ATOM     66  C   UNL A   1      43.516  25.968  25.752  1.00  0.00     0.198 A 
ATOM     67  F   UNL A   1      43.773  27.960  26.978  1.00  0.00    -0.203 F 
ATOM     68  F   UNL A   1      41.487  23.037  26.403  1.00  0.00    -0.200 F 
ATOM     69  C   UNL A   1      42.941  24.716  25.599  1.00  0.00     0.200 A 
ATOM     70  F   UNL A   1      44.391  26.418  24.841  1.00  0.00    -0.200 F 
ATOM     71  F   UNL A   1      43.271  23.948  24.552  1.00  0.00    -0.200 F 
ENDBRANCH  47  61
BRANCH  48  72
ATOM     72  C   UNL A   1      39.251  32.022  35.392  1.00  0.00     0.064 A 
ATOM     73  C   UNL A   1      39.603  33.376  35.485  1.00  0.00     0.173 A 
ATOM     74  C   UNL A   1      38.458  31.480  36.414  1.00  0.00     0.173 A 
ATOM     75  F   UNL A   1      40.379  33.930  34.543  1.00  0.00    -0.203 F 
ATOM     76  C   UNL A   1      39.195  34.152  36.567  1.00  0.00     0.198 A 
ATOM     77  C   UNL A   1      38.029  32.264  37.483  1.00  0.00     0.198 A 
ATOM     78  F   UNL A   1      38.091  30.191  36.367  1.00  0.00    -0.203 F 
ATOM     79  F   UNL A   1      39.580  35.432  36.653  1.00  0.00    -0.200 F 
ATOM     80  C   UNL A   1      38.404  33.598  37.563  1.00  0.00     0.200 A 
ATOM     81  F   UNL A   1      37.255  31.728  38.436  1.00  0.00    -0.200 F 
ATOM     82  F   UNL A   1      38.008  34.345  38.601  1.00  0.00    -0.200 F 
ENDBRANCH  48  72
BRANCH  60  83
ATOM     83  C   UNL A   1      44.745  27.867  34.396  1.00  0.00     0.064 A 
ATOM     84  C   UNL A   1      44.724  26.735  35.223  1.00  0.00     0.173 A 
ATOM     85  C   UNL A   1      45.912  28.644  34.373  1.00  0.00     0.173 A 
ATOM     86  F   UNL A   1      43.624  25.971  35.293  1.00  0.00    -0.203 F 
ATOM     87  C   UNL A   1      45.824  26.405  36.010  1.00  0.00     0.198 A 
ATOM     88  C   UNL A   1      47.019  28.298  35.143  1.00  0.00     0.198 A 
ATOM     89  F   UNL A   1      45.982  29.736  33.596  1.00  0.00    -0.203 F 
ATOM     90  F   UNL A   1      45.768  25.340  36.824  1.00  0.00    -0.200 F 
ATOM     91  C   UNL A   1      46.972  27.182  35.965  1.00  0.00     0.200 A 
ATOM     92  F   UNL A   1      48.130  29.044  35.091  1.00  0.00    -0.200 F 
ATOM     93  F   UNL A   1      48.030  26.859  36.719  1.00  0.00    -0.200 F 
ENDBRANCH  60  83
ENDBRANCH  34  35
ENDBRANCH  26  29
ENDBRANCH  24  25
ENDBRANCH  23  24
ENDBRANCH   1  23
TORSDOF 15
ENDMDL
MODEL 2
REMARK VINA RESULT:     -12.2      0.376      7.387
REMARK SMILES N#C/C(=C/c1cccc(OC2CCCC2)c1)C(=O)NCCCCNC(=O)c1ccc(-c2c3nc(c(-c4c(F)c(F)c(F)c(F)c4F)c4ccc([nH]4)c(-c4c(F)c(F)c(F)c(F)c4F)c4nc(c(-c5c(F)c(F)c(F)c(F)c5F)c5ccc2[nH]5)C=C4)C=C3)cc1
REMARK SMILES IDX 21 1 20 2 19 3 17 4 18 5 3 7 4 8 2 9 1 10 5 11 6 12 16 13
REMARK SMILES IDX 7 14 9 15 8 16 10 17 11 18 12 19 15 20 13 21 14 22 22 23
REMARK SMILES IDX 23 24 24 25 25 26 26 28 27 29 28 30 89 31 29 32 88 33 30 34
REMARK SMILES IDX 31 35 32 36 82 37 33 38 87 39 81 40 83 41 34 42 86 43 80 44
REMARK SMILES IDX 79 45 35 47 67 48 47 49 66 50 48 51 51 52 65 53 84 54 49 55
REMARK SMILES IDX 50 56 64 58 85 59 52 60 36 61 37 62 45 63 38 64 39 65 43 66
REMARK SMILES IDX 46 67 40 68 41 69 44 70 42 71 68 72 69 73 77 74 70 75 71 76
REMARK SMILES IDX 75 77 78 78 72 79 73 80 76 81 74 82 53 83 54 84 62 85 55 86
REMARK SMILES IDX 56 87 60 88 63 89 57 90 58 91 61 92 59 93
REMARK H PARENT 19 6 24 27 83 46 51 57
REMARK Flexibility Score: inf
ROOT
ATOM      1  C   UNL A   1      33.060  29.089  24.617  1.00  0.00     0.023 C 
ENDROOT
BRANCH   1   2
ATOM      2  C   UNL A   1      34.045  28.017  25.074  1.00  0.00     0.116 C 
BRANCH   2   3
ATOM      3  N   UNL A   1      33.503  26.962  25.910  1.00  0.00    -0.351 N 
ATOM      4  C   UNL A   1      33.156  25.671  25.605  1.00  0.00     0.261 C 
ATOM      5  O   UNL A   1      32.780  24.952  26.533  1.00  0.00    -0.268 OA
ATOM      6  H   UNL A   1      33.360  27.216  26.850  1.00  0.00     0.163 HD
BRANCH   4   7
ATOM      7  C   UNL A   1      33.162  25.123  24.214  1.00  0.00     0.117 C 
ATOM      8  C   UNL A   1      32.247  25.249  23.222  1.00  0.00     0.033 C 
BRANCH   7   9
ATOM      9  C   UNL A   1      34.433  24.443  23.733  1.00  0.00     0.105 C 
ATOM     10  N   UNL A   1      35.488  23.878  23.334  1.00  0.00    -0.192 NA
ENDBRANCH   7   9
BRANCH   8  11
ATOM     11  C   UNL A   1      31.015  26.034  23.188  1.00  0.00    -0.020 A 
ATOM     12  C   UNL A   1      29.913  25.678  23.973  1.00  0.00     0.008 A 
ATOM     13  C   UNL A   1      30.955  27.172  22.380  1.00  0.00     0.054 A 
ATOM     14  C   UNL A   1      28.799  26.516  24.012  1.00  0.00     0.004 A 
ATOM     15  C   UNL A   1      29.879  28.047  22.462  1.00  0.00     0.120 A 
ATOM     16  C   UNL A   1      28.793  27.703  23.273  1.00  0.00     0.046 A 
BRANCH  15  17
ATOM     17  O   UNL A   1      29.789  29.263  21.853  1.00  0.00    -0.490 OA
BRANCH  17  18
ATOM     18  C   UNL A   1      28.805  30.229  22.215  1.00  0.00     0.173 C 
ATOM     19  C   UNL A   1      29.123  31.158  23.392  1.00  0.00     0.045 C 
ATOM     20  C   UNL A   1      28.294  31.106  21.066  1.00  0.00     0.045 C 
ATOM     21  C   UNL A   1      28.236  32.368  23.146  1.00  0.00     0.004 C 
ATOM     22  C   UNL A   1      28.208  32.523  21.631  1.00  0.00     0.004 C 
ENDBRANCH  17  18
ENDBRANCH  15  17
ENDBRANCH   8  11
ENDBRANCH   4   7
ENDBRANCH   2   3
ENDBRANCH   1   2
BRANCH   1  23
ATOM     23  C   UNL A   1      31.875  29.378  25.544  1.00  0.00     0.023 C 
BRANCH  23  24
ATOM     24  C   UNL A   1      32.170  29.867  26.964  1.00  0.00     0.116 C 
BRANCH  24  25
ATOM     25  N   UNL A   1      32.258  31.311  27.118  1.00  0.00    -0.352 N 
ATOM     26  C   UNL A   1      33.326  32.111  27.461  1.00  0.00     0.251 C 
ATOM     27  H   UNL A   1      31.417  31.795  26.951  1.00  0.00     0.163 HD
ATOM     28  O   UNL A   1      33.183  33.331  27.498  1.00  0.00    -0.269 OA
BRANCH  26  29
ATOM     29  C   UNL A   1      34.628  31.521  27.860  1.00  0.00     0.039 A 
ATOM     30  C   UNL A   1      35.712  32.384  28.063  1.00  0.00     0.014 A 
ATOM     31  C   UNL A   1      34.791  30.149  28.064  1.00  0.00     0.014 A 
ATOM     32  C   UNL A   1      36.907  31.892  28.597  1.00  0.00     0.010 A 
ATOM     33  C   UNL A   1      35.961  29.669  28.659  1.00  0.00     0.010 A 
ATOM     34  C   UNL A   1      37.017  30.542  28.966  1.00  0.00    -0.014 A 
BRANCH  34  35
ATOM     35  C   UNL A   1      38.181  30.056  29.756  1.00  0.00     0.031 A 
ATOM     36  C   UNL A   1      38.424  30.537  31.159  1.00  0.00     0.074 A 
ATOM     37  C   UNL A   1      39.076  29.235  29.170  1.00  0.00     0.049 A 
ATOM     38  N   UNL A   1      39.428  30.275  31.959  1.00  0.00    -0.248 NA
ATOM     39  C   UNL A   1      37.421  31.445  31.729  1.00  0.00     0.031 C 
ATOM     40  C   UNL A   1      38.990  28.734  27.797  1.00  0.00     0.029 A 
ATOM     41  N   UNL A   1      40.241  28.686  29.649  1.00  0.00    -0.354 N 
ATOM     42  C   UNL A   1      39.185  30.997  33.120  1.00  0.00     0.074 A 
ATOM     43  C   UNL A   1      37.958  31.736  32.906  1.00  0.00     0.031 C 
ATOM     44  C   UNL A   1      40.043  27.941  27.550  1.00  0.00     0.029 A 
ATOM     45  C   UNL A   1      40.899  27.901  28.731  1.00  0.00     0.049 A 
ATOM     46  H   UNL A   1      40.573  28.840  30.562  1.00  0.00     0.167 HD
ATOM     47  C   UNL A   1      39.910  31.027  34.265  1.00  0.00     0.037 A 
ATOM     48  C   UNL A   1      42.063  27.232  28.824  1.00  0.00     0.037 A 
ATOM     49  C   UNL A   1      41.117  30.276  34.492  1.00  0.00     0.049 A 
ATOM     50  C   UNL A   1      42.843  27.279  30.108  1.00  0.00     0.074 A 
ATOM     51  C   UNL A   1      41.883  30.199  35.643  1.00  0.00     0.029 A 
ATOM     52  N   UNL A   1      41.738  29.473  33.546  1.00  0.00    -0.354 N 
ATOM     53  N   UNL A   1      42.567  27.913  31.221  1.00  0.00    -0.248 NA
ATOM     54  C   UNL A   1      44.098  26.513  30.150  1.00  0.00     0.031 C 
ATOM     55  C   UNL A   1      42.986  29.376  35.383  1.00  0.00     0.029 A 
ATOM     56  C   UNL A   1      42.886  28.911  34.083  1.00  0.00     0.049 A 
ATOM     57  H   UNL A   1      41.411  29.324  32.630  1.00  0.00     0.167 HD
ATOM     58  C   UNL A   1      43.594  27.604  32.100  1.00  0.00     0.074 A 
ATOM     59  C   UNL A   1      44.497  26.716  31.398  1.00  0.00     0.031 C 
ATOM     60  C   UNL A   1      43.773  28.022  33.377  1.00  0.00     0.037 A 
BRANCH  47  61
ATOM     61  C   UNL A   1      39.411  31.906  35.374  1.00  0.00     0.064 A 
ATOM     62  C   UNL A   1      39.751  33.266  35.440  1.00  0.00     0.173 A 
ATOM     63  C   UNL A   1      38.551  31.396  36.358  1.00  0.00     0.173 A 
ATOM     64  F   UNL A   1      40.577  33.799  34.528  1.00  0.00    -0.203 F 
ATOM     65  C   UNL A   1      39.271  34.076  36.467  1.00  0.00     0.198 A 
ATOM     66  C   UNL A   1      38.052  32.214  37.367  1.00  0.00     0.198 A 
ATOM     67  F   UNL A   1      38.189  30.104  36.336  1.00  0.00    -0.203 F 
ATOM     68  F   UNL A   1      39.644  35.361  36.534  1.00  0.00    -0.200 F 
ATOM     69  C   UNL A   1      38.417  33.551  37.425  1.00  0.00     0.200 A 
ATOM     70  F   UNL A   1      37.218  31.709  38.288  1.00  0.00    -0.200 F 
ATOM     71  F   UNL A   1      37.953  34.332  38.410  1.00  0.00    -0.200 F 
ENDBRANCH  47  61
BRANCH  48  72
ATOM     72  C   UNL A   1      42.554  26.436  27.671  1.00  0.00     0.064 A 
ATOM     73  C   UNL A   1      42.107  25.123  27.464  1.00  0.00     0.173 A 
ATOM     74  C   UNL A   1      43.477  26.965  26.757  1.00  0.00     0.173 A 
ATOM     75  F   UNL A   1      41.242  24.568  28.326  1.00  0.00    -0.203 F 
ATOM     76  C   UNL A   1      42.578  24.364  26.396  1.00  0.00     0.198 A 
ATOM     77  C   UNL A   1      43.928  26.212  25.675  1.00  0.00     0.198 A 
ATOM     78  F   UNL A   1      43.931  28.217  26.910  1.00  0.00    -0.203 F 
ATOM     79  F   UNL A   1      42.165  23.098  26.244  1.00  0.00    -0.200 F 
ATOM     80  C   UNL A   1      43.484  24.909  25.499  1.00  0.00     0.200 A 
ATOM     81  F   UNL A   1      44.794  26.747  24.804  1.00  0.00    -0.200 F 
ATOM     82  F   UNL A   1      43.933  24.180  24.470  1.00  0.00    -0.200 F 
ENDBRANCH  48  72
BRANCH  60  83
ATOM     83  C   UNL A   1      44.974  27.501  34.109  1.00  0.00     0.064 A 
ATOM     84  C   UNL A   1      44.934  26.291  34.817  1.00  0.00     0.173 A 
ATOM     85  C   UNL A   1      46.187  28.204  34.074  1.00  0.00     0.173 A 
ATOM     86  F   UNL A   1      43.792  25.593  34.895  1.00  0.00    -0.203 F 
ATOM     87  C   UNL A   1      46.061  25.813  35.479  1.00  0.00     0.198 A 
ATOM     88  C   UNL A   1      47.319  27.711  34.717  1.00  0.00     0.198 A 
ATOM     89  F   UNL A   1      46.276  29.365  33.408  1.00  0.00    -0.203 F 
ATOM     90  F   UNL A   1      45.990  24.674  36.183  1.00  0.00    -0.200 F 
ATOM     91  C   UNL A   1      47.254  26.519  35.423  1.00  0.00     0.200 A 
ATOM     92  F   UNL A   1      48.473  28.389  34.655  1.00  0.00    -0.200 F 
ATOM     93  F   UNL A   1      48.339  26.055  36.057  1.00  0.00    -0.200 F 
ENDBRANCH  60  83
ENDBRANCH  34  35
ENDBRANCH  26  29
ENDBRANCH  24  25
ENDBRANCH  23  24
ENDBRANCH   1  23
TORSDOF 15
ENDMDL
MODEL 3
REMARK VINA RESULT:     -12.1      0.425      7.217
REMARK SMILES N#C/C(=C/c1cccc(OC2CCCC2)c1)C(=O)NCCCCNC(=O)c1ccc(-c2c3nc(c(-c4c(F)c(F)c(F)c(F)c4F)c4ccc([nH]4)c(-c4c(F)c(F)c(F)c(F)c4F)c4nc(c(-c5c(F)c(F)c(F)c(F)c5F)c5ccc2[nH]5)C=C4)C=C3)cc1
REMARK SMILES IDX 21 1 20 2 19 3 17 4 18 5 3 7 4 8 2 9 1 10 5 11 6 12 16 13
REMARK SMILES IDX 7 14 9 15 8 16 10 17 11 18 12 19 15 20 13 21 14 22 22 23
REMARK SMILES IDX 23 24 24 25 25 26 26 28 27 29 28 30 89 31 29 32 88 33 30 34
REMARK SMILES IDX 31 35 32 36 82 37 33 38 87 39 81 40 83 41 34 42 86 43 80 44
REMARK SMILES IDX 79 45 35 47 67 48 47 49 66 50 48 51 51 52 65 53 84 54 49 55
REMARK SMILES IDX 50 56 64 58 85 59 52 60 36 61 37 62 45 63 38 64 39 65 43 66
REMARK SMILES IDX 46 67 40 68 41 69 44 70 42 71 68 72 69 73 77 74 70 75 71 76
REMARK SMILES IDX 75 77 78 78 72 79 73 80 76 81 74 82 53 83 54 84 62 85 55 86
REMARK SMILES IDX 56 87 60 88 63 89 57 90 58 91 61 92 59 93
REMARK H PARENT 19 6 24 27 83 46 51 57
REMARK Flexibility Score: inf
ROOT
ATOM      1  C   UNL A   1      33.173  28.578  24.823  1.00  0.00     0.023 C 
ENDROOT
BRANCH   1   2
ATOM      2  C   UNL A   1      34.170  27.507  25.255  1.00  0.00     0.116 C 
BRANCH   2   3
ATOM      3  N   UNL A   1      33.619  26.363  25.955  1.00  0.00    -0.351 N 
ATOM      4  C   UNL A   1      33.266  25.120  25.496  1.00  0.00     0.261 C 
ATOM      5  O   UNL A   1      32.882  24.296  26.328  1.00  0.00    -0.268 OA
ATOM      6  H   UNL A   1      33.473  26.501  26.919  1.00  0.00     0.163 HD
BRANCH   4   7
ATOM      7  C   UNL A   1      33.274  24.744  24.049  1.00  0.00     0.117 C 
ATOM      8  C   UNL A   1      32.377  25.019  23.070  1.00  0.00     0.033 C 
BRANCH   7   9
ATOM      9  C   UNL A   1      34.530  24.087  23.502  1.00  0.00     0.105 C 
ATOM     10  N   UNL A   1      35.572  23.541  23.047  1.00  0.00    -0.192 NA
ENDBRANCH   7   9
BRANCH   8  11
ATOM     11  C   UNL A   1      31.170  25.841  23.119  1.00  0.00    -0.020 A 
ATOM     12  C   UNL A   1      30.077  25.469  23.909  1.00  0.00     0.008 A 
ATOM     13  C   UNL A   1      31.126  27.029  22.387  1.00  0.00     0.054 A 
ATOM     14  C   UNL A   1      28.992  26.336  24.032  1.00  0.00     0.004 A 
ATOM     15  C   UNL A   1      30.081  27.930  22.553  1.00  0.00     0.120 A 
ATOM     16  C   UNL A   1      29.005  27.568  23.370  1.00  0.00     0.046 A 
BRANCH  15  17
ATOM     17  O   UNL A   1      30.015  29.185  22.025  1.00  0.00    -0.490 OA
BRANCH  17  18
ATOM     18  C   UNL A   1      28.949  30.084  22.322  1.00  0.00     0.173 C 
ATOM     19  C   UNL A   1      29.172  31.099  23.448  1.00  0.00     0.045 C 
ATOM     20  C   UNL A   1      28.385  30.852  21.120  1.00  0.00     0.045 C 
ATOM     21  C   UNL A   1      28.192  32.216  23.126  1.00  0.00     0.004 C 
ATOM     22  C   UNL A   1      28.175  32.285  21.604  1.00  0.00     0.004 C 
ENDBRANCH  17  18
ENDBRANCH  15  17
ENDBRANCH   8  11
ENDBRANCH   4   7
ENDBRANCH   2   3
ENDBRANCH   1   2
BRANCH   1  23
ATOM     23  C   UNL A   1      31.965  28.806  25.737  1.00  0.00     0.023 C 
BRANCH  23  24
ATOM     24  C   UNL A   1      32.209  29.418  27.119  1.00  0.00     0.116 C 
BRANCH  24  25
ATOM     25  N   UNL A   1      32.255  30.871  27.157  1.00  0.00    -0.352 N 
ATOM     26  C   UNL A   1      33.305  31.727  27.405  1.00  0.00     0.251 C 
ATOM     27  H   UNL A   1      31.395  31.315  26.976  1.00  0.00     0.163 HD
ATOM     28  O   UNL A   1      33.125  32.942  27.350  1.00  0.00    -0.269 OA
BRANCH  26  29
ATOM     29  C   UNL A   1      34.635  31.209  27.813  1.00  0.00     0.039 A 
ATOM     30  C   UNL A   1      35.658  32.133  28.061  1.00  0.00     0.014 A 
ATOM     31  C   UNL A   1      34.883  29.846  27.981  1.00  0.00     0.014 A 
ATOM     32  C   UNL A   1      36.873  31.704  28.605  1.00  0.00     0.010 A 
ATOM     33  C   UNL A   1      36.071  29.424  28.585  1.00  0.00     0.010 A 
ATOM     34  C   UNL A   1      37.062  30.353  28.937  1.00  0.00    -0.014 A 
BRANCH  34  35
ATOM     35  C   UNL A   1      38.241  29.919  29.737  1.00  0.00     0.031 A 
ATOM     36  C   UNL A   1      38.473  30.441  31.126  1.00  0.00     0.074 A 
ATOM     37  C   UNL A   1      39.157  29.108  29.169  1.00  0.00     0.049 A 
ATOM     38  N   UNL A   1      39.485  30.228  31.930  1.00  0.00    -0.248 NA
ATOM     39  C   UNL A   1      37.447  31.336  31.676  1.00  0.00     0.031 C 
ATOM     40  C   UNL A   1      39.082  28.571  27.808  1.00  0.00     0.029 A 
ATOM     41  N   UNL A   1      40.337  28.603  29.657  1.00  0.00    -0.354 N 
ATOM     42  C   UNL A   1      39.225  30.971  33.073  1.00  0.00     0.074 A 
ATOM     43  C   UNL A   1      37.979  31.671  32.844  1.00  0.00     0.031 C 
ATOM     44  C   UNL A   1      40.156  27.801  27.578  1.00  0.00     0.029 A 
ATOM     45  C   UNL A   1      41.015  27.815  28.758  1.00  0.00     0.049 A 
ATOM     46  H   UNL A   1      40.667  28.789  30.566  1.00  0.00     0.167 HD
ATOM     47  C   UNL A   1      39.951  31.050  34.215  1.00  0.00     0.037 A 
ATOM     48  C   UNL A   1      42.197  27.180  28.865  1.00  0.00     0.037 A 
ATOM     49  C   UNL A   1      41.180  30.338  34.457  1.00  0.00     0.049 A 
ATOM     50  C   UNL A   1      42.979  27.281  30.145  1.00  0.00     0.074 A 
ATOM     51  C   UNL A   1      41.949  30.311  35.607  1.00  0.00     0.029 A 
ATOM     52  N   UNL A   1      41.820  29.530  33.530  1.00  0.00    -0.354 N 
ATOM     53  N   UNL A   1      42.687  27.935  31.242  1.00  0.00    -0.248 NA
ATOM     54  C   UNL A   1      44.254  26.551  30.203  1.00  0.00     0.031 C 
ATOM     55  C   UNL A   1      43.074  29.513  35.365  1.00  0.00     0.029 A 
ATOM     56  C   UNL A   1      42.985  29.013  34.077  1.00  0.00     0.049 A 
ATOM     57  H   UNL A   1      41.496  29.349  32.618  1.00  0.00     0.167 HD
ATOM     58  C   UNL A   1      43.724  27.676  32.126  1.00  0.00     0.074 A 
ATOM     59  C   UNL A   1      44.649  26.796  31.444  1.00  0.00     0.031 C 
ATOM     60  C   UNL A   1      43.894  28.131  33.392  1.00  0.00     0.037 A 
BRANCH  47  61
ATOM     61  C   UNL A   1      39.431  31.942  35.303  1.00  0.00     0.064 A 
ATOM     62  C   UNL A   1      38.561  31.459  36.292  1.00  0.00     0.173 A 
ATOM     63  C   UNL A   1      39.837  33.282  35.384  1.00  0.00     0.173 A 
ATOM     64  F   UNL A   1      38.136  30.187  36.254  1.00  0.00    -0.203 F 
ATOM     65  C   UNL A   1      38.095  32.292  37.306  1.00  0.00     0.198 A 
ATOM     66  C   UNL A   1      39.391  34.105  36.414  1.00  0.00     0.198 A 
ATOM     67  F   UNL A   1      40.674  33.792  34.467  1.00  0.00    -0.203 F 
ATOM     68  F   UNL A   1      37.231  31.820  38.215  1.00  0.00    -0.200 F 
ATOM     69  C   UNL A   1      38.515  33.613  37.369  1.00  0.00     0.200 A 
ATOM     70  F   UNL A   1      39.805  35.379  36.481  1.00  0.00    -0.200 F 
ATOM     71  F   UNL A   1      38.069  34.412  38.348  1.00  0.00    -0.200 F 
ENDBRANCH  47  61
BRANCH  48  72
ATOM     72  C   UNL A   1      42.708  26.369  27.730  1.00  0.00     0.064 A 
ATOM     73  C   UNL A   1      43.594  26.922  26.795  1.00  0.00     0.173 A 
ATOM     74  C   UNL A   1      42.322  25.032  27.555  1.00  0.00     0.173 A 
ATOM     75  F   UNL A   1      43.972  28.204  26.910  1.00  0.00    -0.203 F 
ATOM     76  C   UNL A   1      44.061  26.173  25.718  1.00  0.00     0.198 A 
ATOM     77  C   UNL A   1      42.810  24.277  26.491  1.00  0.00     0.198 A 
ATOM     78  F   UNL A   1      41.480  24.457  28.426  1.00  0.00    -0.203 F 
ATOM     79  F   UNL A   1      44.875  26.738  24.816  1.00  0.00    -0.200 F 
ATOM     80  C   UNL A   1      43.673  24.851  25.569  1.00  0.00     0.200 A 
ATOM     81  F   UNL A   1      42.442  22.996  26.358  1.00  0.00    -0.200 F 
ATOM     82  F   UNL A   1      44.126  24.129  24.535  1.00  0.00    -0.200 F 
ENDBRANCH  48  72
BRANCH  60  83
ATOM     83  C   UNL A   1      45.110  27.662  34.133  1.00  0.00     0.064 A 
ATOM     84  C   UNL A   1      45.100  26.477  34.884  1.00  0.00     0.173 A 
ATOM     85  C   UNL A   1      46.309  28.387  34.064  1.00  0.00     0.173 A 
ATOM     86  F   UNL A   1      43.974  25.758  34.995  1.00  0.00    -0.203 F 
ATOM     87  C   UNL A   1      46.242  26.047  35.554  1.00  0.00     0.198 A 
ATOM     88  C   UNL A   1      47.455  27.942  34.716  1.00  0.00     0.198 A 
ATOM     89  F   UNL A   1      46.369  29.526  33.356  1.00  0.00    -0.203 F 
ATOM     90  F   UNL A   1      46.200  24.933  36.299  1.00  0.00    -0.200 F 
ATOM     91  C   UNL A   1      47.420  26.775  35.465  1.00  0.00     0.200 A 
ATOM     92  F   UNL A   1      48.593  28.642  34.621  1.00  0.00    -0.200 F 
ATOM     93  F   UNL A   1      48.518  26.356  36.107  1.00  0.00    -0.200 F 
ENDBRANCH  60  83
ENDBRANCH  34  35
ENDBRANCH  26  29
ENDBRANCH  24  25
ENDBRANCH  23  24
ENDBRANCH   1  23
TORSDOF 15
ENDMDL
