MODEL 1
REMARK VINA RESULT:     -13.2      0.000      0.000
REMARK SMILES COc1cccc(-c2c(C(=O)NCCCCNC(=O)c3ccc(-c4c5nc(c(-c6c(F)c(F)c(F)c(F)c6F)c6ccc([nH]6)c(-c6c(F)c(F)c(F)c(F)c6F)c6nc(c(-c7c(F)c(F)c(F)c(F)c7F)c7ccc4[nH]7)C=C6)C=C5)cc3)nnn2Cc2ccc(OC(F)(F)F)cc2)c1
REMARK SMILES IDX 13 1 12 2 10 3 11 4 9 6 8 7 85 8 83 9 84 10 7 11 3 12 4 13
REMARK SMILES IDX 98 14 5 15 6 16 2 17 1 18 86 19 87 20 88 21 97 22 89 23
REMARK SMILES IDX 96 24 90 25 91 26 92 27 93 28 94 29 95 30 14 31 15 32 16 33
REMARK SMILES IDX 17 34 18 35 19 37 20 38 21 39 82 40 22 41 81 42 23 43 24 44
REMARK SMILES IDX 25 45 75 46 26 47 80 48 74 49 76 50 27 51 79 52 73 53 72 54
REMARK SMILES IDX 28 56 60 57 40 58 59 59 41 60 44 61 58 62 77 63 42 64 43 65
REMARK SMILES IDX 57 67 78 68 45 69 29 70 30 71 38 72 31 73 32 74 36 75 39 76
REMARK SMILES IDX 33 77 34 78 37 79 35 80 61 81 62 82 70 83 63 84 64 85 68 86
REMARK SMILES IDX 71 87 65 88 66 89 69 90 67 91 46 92 47 93 55 94 48 95 49 96
REMARK SMILES IDX 53 97 56 98 50 99 51 100 54 101 52 102
REMARK H PARENT 12 5 17 36 76 55 44 66
REMARK Flexibility Score: inf
ROOT
ATOM      1  C   UNL A   1      32.043  29.366  24.978  1.00  0.00     0.116 C 
ENDROOT
BRANCH   1   2
ATOM      2  N   UNL A   1      30.931  28.808  24.260  1.00  0.00    -0.351 N 
ATOM      3  C   UNL A   1      30.808  27.625  23.559  1.00  0.00     0.274 C 
ATOM      4  O   UNL A   1      29.663  27.410  23.143  1.00  0.00    -0.267 OA
ATOM      5  H   UNL A   1      30.119  29.365  24.270  1.00  0.00     0.163 HD
BRANCH   3   6
ATOM      6  C   UNL A   1      31.903  26.685  23.239  1.00  0.00     0.178 A 
ATOM      7  C   UNL A   1      32.474  25.535  23.809  1.00  0.00     0.102 A 
ATOM      8  N   UNL A   1      33.491  25.211  22.931  1.00  0.00    -0.239 N 
ATOM      9  N   UNL A   1      32.607  26.965  22.076  1.00  0.00    -0.124 NA
ATOM     10  N   UNL A   1      33.595  26.106  21.940  1.00  0.00    -0.066 NA
BRANCH   7  11
ATOM     11  C   UNL A   1      32.257  24.763  25.031  1.00  0.00     0.006 A 
ATOM     12  C   UNL A   1      30.989  23.013  26.163  1.00  0.00     0.119 A 
ATOM     13  C   UNL A   1      31.935  23.023  27.189  1.00  0.00     0.046 A 
ATOM     14  C   UNL A   1      31.156  23.878  25.085  1.00  0.00     0.056 A 
ATOM     15  C   UNL A   1      33.023  23.900  27.153  1.00  0.00     0.005 A 
ATOM     16  C   UNL A   1      33.179  24.783  26.082  1.00  0.00     0.011 A 
BRANCH  12  17
ATOM     17  O   UNL A   1      29.966  22.123  26.330  1.00  0.00    -0.497 OA
ATOM     18  C   UNL A   1      28.979  22.417  27.312  1.00  0.00     0.278 C 
ENDBRANCH  12  17
ENDBRANCH   7  11
BRANCH   8  19
ATOM     19  C   UNL A   1      34.477  24.140  23.017  1.00  0.00     0.182 C 
BRANCH  19  20
ATOM     20  C   UNL A   1      33.844  22.798  23.285  1.00  0.00    -0.026 A 
ATOM     21  C   UNL A   1      32.772  22.336  22.513  1.00  0.00     0.009 A 
ATOM     22  C   UNL A   1      34.317  21.997  24.333  1.00  0.00     0.009 A 
ATOM     23  C   UNL A   1      32.191  21.095  22.794  1.00  0.00     0.047 A 
ATOM     24  C   UNL A   1      33.744  20.754  24.600  1.00  0.00     0.047 A 
ATOM     25  C   UNL A   1      32.676  20.295  23.834  1.00  0.00     0.129 A 
BRANCH  25  26
ATOM     26  O   UNL A   1      32.021  19.107  23.996  1.00  0.00    -0.406 OA
BRANCH  26  27
ATOM     27  C   UNL A   1      32.621  17.954  23.429  1.00  0.00     0.573 C 
ATOM     28  F   UNL A   1      32.164  17.730  22.179  1.00  0.00    -0.132 F 
ATOM     29  F   UNL A   1      33.966  18.063  23.406  1.00  0.00    -0.132 F 
ATOM     30  F   UNL A   1      32.302  16.882  24.189  1.00  0.00    -0.132 F 
ENDBRANCH  26  27
ENDBRANCH  25  26
ENDBRANCH  19  20
ENDBRANCH   8  19
ENDBRANCH   3   6
ENDBRANCH   1   2
BRANCH   1  31
ATOM     31  C   UNL A   1      31.749  30.027  26.317  1.00  0.00     0.023 C 
BRANCH  31  32
ATOM     32  C   UNL A   1      31.614  31.547  26.322  1.00  0.00     0.023 C 
BRANCH  32  33
ATOM     33  C   UNL A   1      32.401  32.255  27.414  1.00  0.00     0.116 C 
BRANCH  33  34
ATOM     34  N   UNL A   1      32.176  33.706  27.505  1.00  0.00    -0.352 N 
ATOM     35  C   UNL A   1      32.809  34.590  28.371  1.00  0.00     0.251 C 
ATOM     36  H   UNL A   1      31.510  34.090  26.890  1.00  0.00     0.163 HD
ATOM     37  O   UNL A   1      32.359  35.702  28.626  1.00  0.00    -0.269 OA
BRANCH  35  38
ATOM     38  C   UNL A   1      34.095  34.160  28.937  1.00  0.00     0.039 A 
ATOM     39  C   UNL A   1      34.256  33.648  30.231  1.00  0.00     0.014 A 
ATOM     40  C   UNL A   1      35.143  34.173  28.032  1.00  0.00     0.014 A 
ATOM     41  C   UNL A   1      35.484  33.077  30.570  1.00  0.00     0.010 A 
ATOM     42  C   UNL A   1      36.214  33.373  28.272  1.00  0.00     0.010 A 
ATOM     43  C   UNL A   1      36.454  32.938  29.571  1.00  0.00    -0.014 A 
BRANCH  43  44
ATOM     44  C   UNL A   1      37.751  32.306  29.770  1.00  0.00     0.031 A 
ATOM     45  C   UNL A   1      37.879  30.921  29.241  1.00  0.00     0.074 A 
ATOM     46  C   UNL A   1      38.816  33.086  30.082  1.00  0.00     0.049 A 
ATOM     47  N   UNL A   1      38.225  29.852  29.879  1.00  0.00    -0.248 NA
ATOM     48  C   UNL A   1      37.478  30.671  27.843  1.00  0.00     0.031 C 
ATOM     49  C   UNL A   1      38.847  34.544  30.302  1.00  0.00     0.029 A 
ATOM     50  N   UNL A   1      40.134  32.767  30.113  1.00  0.00    -0.354 N 
ATOM     51  C   UNL A   1      38.277  28.835  28.927  1.00  0.00     0.074 A 
ATOM     52  C   UNL A   1      37.635  29.350  27.746  1.00  0.00     0.031 C 
ATOM     53  C   UNL A   1      40.112  35.001  30.184  1.00  0.00     0.029 A 
ATOM     54  C   UNL A   1      40.996  33.860  30.075  1.00  0.00     0.049 A 
ATOM     55  H   UNL A   1      40.456  31.838  30.159  1.00  0.00     0.167 HD
ATOM     56  C   UNL A   1      39.075  27.745  29.100  1.00  0.00     0.037 A 
ATOM     57  C   UNL A   1      42.342  33.817  29.920  1.00  0.00     0.037 A 
ATOM     58  C   UNL A   1      39.491  27.613  30.472  1.00  0.00     0.049 A 
ATOM     59  C   UNL A   1      42.765  32.434  30.265  1.00  0.00     0.074 A 
ATOM     60  C   UNL A   1      38.831  27.445  31.673  1.00  0.00     0.029 A 
ATOM     61  N   UNL A   1      40.752  28.046  30.806  1.00  0.00    -0.354 N 
ATOM     62  N   UNL A   1      42.648  31.928  31.464  1.00  0.00    -0.248 NA
ATOM     63  C   UNL A   1      42.831  31.469  29.179  1.00  0.00     0.031 C 
ATOM     64  C   UNL A   1      39.538  28.269  32.599  1.00  0.00     0.029 A 
ATOM     65  C   UNL A   1      40.628  28.825  31.930  1.00  0.00     0.049 A 
ATOM     66  H   UNL A   1      41.587  27.839  30.329  1.00  0.00     0.167 HD
ATOM     67  C   UNL A   1      42.209  30.627  31.258  1.00  0.00     0.074 A 
ATOM     68  C   UNL A   1      42.396  30.384  29.828  1.00  0.00     0.031 C 
ATOM     69  C   UNL A   1      41.456  29.979  32.196  1.00  0.00     0.037 A 
BRANCH  56  70
ATOM     70  C   UNL A   1      39.782  27.022  27.979  1.00  0.00     0.064 A 
ATOM     71  C   UNL A   1      39.763  25.612  27.949  1.00  0.00     0.173 A 
ATOM     72  C   UNL A   1      40.720  27.636  27.122  1.00  0.00     0.173 A 
ATOM     73  F   UNL A   1      38.925  24.925  28.740  1.00  0.00    -0.203 F 
ATOM     74  C   UNL A   1      40.667  24.879  27.175  1.00  0.00     0.198 A 
ATOM     75  C   UNL A   1      41.581  26.901  26.309  1.00  0.00     0.198 A 
ATOM     76  F   UNL A   1      40.923  28.958  27.118  1.00  0.00    -0.203 F 
ATOM     77  F   UNL A   1      40.697  23.543  27.275  1.00  0.00    -0.200 F 
ATOM     78  C   UNL A   1      41.580  25.524  26.361  1.00  0.00     0.200 A 
ATOM     79  F   UNL A   1      42.471  27.546  25.542  1.00  0.00    -0.200 F 
ATOM     80  F   UNL A   1      42.489  24.826  25.668  1.00  0.00    -0.200 F 
ENDBRANCH  56  70
BRANCH  57  81
ATOM     81  C   UNL A   1      43.194  34.760  29.155  1.00  0.00     0.064 A 
ATOM     82  C   UNL A   1      44.551  34.939  29.468  1.00  0.00     0.173 A 
ATOM     83  C   UNL A   1      42.759  35.303  27.928  1.00  0.00     0.173 A 
ATOM     84  F   UNL A   1      45.055  34.412  30.593  1.00  0.00    -0.203 F 
ATOM     85  C   UNL A   1      45.422  35.609  28.600  1.00  0.00     0.198 A 
ATOM     86  C   UNL A   1      43.629  35.974  27.066  1.00  0.00     0.198 A 
ATOM     87  F   UNL A   1      41.502  35.115  27.501  1.00  0.00    -0.203 F 
ATOM     88  F   UNL A   1      46.723  35.715  28.909  1.00  0.00    -0.200 F 
ATOM     89  C   UNL A   1      44.963  36.117  27.396  1.00  0.00     0.200 A 
ATOM     90  F   UNL A   1      43.177  36.426  25.887  1.00  0.00    -0.200 F 
ATOM     91  F   UNL A   1      45.809  36.706  26.540  1.00  0.00    -0.200 F 
ENDBRANCH  57  81
BRANCH  69  92
ATOM     92  C   UNL A   1      41.286  30.639  33.540  1.00  0.00     0.064 A 
ATOM     93  C   UNL A   1      40.213  31.488  33.867  1.00  0.00     0.173 A 
ATOM     94  C   UNL A   1      42.148  30.276  34.579  1.00  0.00     0.173 A 
ATOM     95  F   UNL A   1      39.281  31.800  32.964  1.00  0.00    -0.203 F 
ATOM     96  C   UNL A   1      40.039  31.983  35.159  1.00  0.00     0.198 A 
ATOM     97  C   UNL A   1      41.955  30.743  35.878  1.00  0.00     0.198 A 
ATOM     98  F   UNL A   1      43.153  29.418  34.346  1.00  0.00    -0.203 F 
ATOM     99  F   UNL A   1      39.008  32.796  35.436  1.00  0.00    -0.200 F 
ATOM    100  C   UNL A   1      40.908  31.604  36.166  1.00  0.00     0.200 A 
ATOM    101  F   UNL A   1      42.768  30.331  36.860  1.00  0.00    -0.200 F 
ATOM    102  F   UNL A   1      40.720  32.044  37.418  1.00  0.00    -0.200 F 
ENDBRANCH  69  92
ENDBRANCH  43  44
ENDBRANCH  35  38
ENDBRANCH  33  34
ENDBRANCH  32  33
ENDBRANCH  31  32
ENDBRANCH   1  31
TORSDOF 17
ENDMDL
MODEL 2
REMARK VINA RESULT:     -12.9      1.540      2.907
REMARK SMILES COc1cccc(-c2c(C(=O)NCCCCNC(=O)c3ccc(-c4c5nc(c(-c6c(F)c(F)c(F)c(F)c6F)c6ccc([nH]6)c(-c6c(F)c(F)c(F)c(F)c6F)c6nc(c(-c7c(F)c(F)c(F)c(F)c7F)c7ccc4[nH]7)C=C6)C=C5)cc3)nnn2Cc2ccc(OC(F)(F)F)cc2)c1
REMARK SMILES IDX 13 1 12 2 10 3 11 4 9 6 8 7 85 8 83 9 84 10 7 11 3 12 4 13
REMARK SMILES IDX 98 14 5 15 6 16 2 17 1 18 86 19 87 20 88 21 97 22 89 23
REMARK SMILES IDX 96 24 90 25 91 26 92 27 93 28 94 29 95 30 14 31 15 32 16 33
REMARK SMILES IDX 17 34 18 35 19 37 20 38 21 39 82 40 22 41 81 42 23 43 24 44
REMARK SMILES IDX 25 45 75 46 26 47 80 48 74 49 76 50 27 51 79 52 73 53 72 54
REMARK SMILES IDX 28 56 60 57 40 58 59 59 41 60 44 61 58 62 77 63 42 64 43 65
REMARK SMILES IDX 57 67 78 68 45 69 29 70 30 71 38 72 31 73 32 74 36 75 39 76
REMARK SMILES IDX 33 77 34 78 37 79 35 80 61 81 62 82 70 83 63 84 64 85 68 86
REMARK SMILES IDX 71 87 65 88 66 89 69 90 67 91 46 92 47 93 55 94 48 95 49 96
REMARK SMILES IDX 53 97 56 98 50 99 51 100 54 101 52 102
REMARK H PARENT 12 5 17 36 76 55 44 66
REMARK Flexibility Score: inf
ROOT
ATOM      1  C   UNL A   1      33.825  30.442  27.198  1.00  0.00     0.116 C 
ENDROOT
BRANCH   1   2
ATOM      2  N   UNL A   1      32.734  29.670  27.722  1.00  0.00    -0.351 N 
ATOM      3  C   UNL A   1      32.145  28.508  27.264  1.00  0.00     0.274 C 
ATOM      4  O   UNL A   1      31.282  28.054  28.025  1.00  0.00    -0.267 OA
ATOM      5  H   UNL A   1      32.339  30.031  28.548  1.00  0.00     0.163 HD
BRANCH   3   6
ATOM      6  C   UNL A   1      32.419  27.845  25.972  1.00  0.00     0.178 A 
ATOM      7  C   UNL A   1      31.753  27.656  24.749  1.00  0.00     0.102 A 
ATOM      8  N   UNL A   1      32.647  26.905  24.007  1.00  0.00    -0.239 N 
ATOM      9  N   UNL A   1      33.646  27.203  25.879  1.00  0.00    -0.124 NA
ATOM     10  N   UNL A   1      33.740  26.593  24.717  1.00  0.00    -0.066 NA
BRANCH   7  11
ATOM     11  C   UNL A   1      30.439  28.008  24.214  1.00  0.00     0.006 A 
ATOM     12  C   UNL A   1      29.097  29.578  22.917  1.00  0.00     0.119 A 
ATOM     13  C   UNL A   1      28.063  28.641  22.895  1.00  0.00     0.046 A 
ATOM     14  C   UNL A   1      30.283  29.257  23.571  1.00  0.00     0.056 A 
ATOM     15  C   UNL A   1      28.200  27.407  23.537  1.00  0.00     0.005 A 
ATOM     16  C   UNL A   1      29.382  27.092  24.211  1.00  0.00     0.011 A 
BRANCH  12  17
ATOM     17  O   UNL A   1      28.827  30.751  22.269  1.00  0.00    -0.497 OA
ATOM     18  C   UNL A   1      28.631  31.919  23.058  1.00  0.00     0.278 C 
ENDBRANCH  12  17
ENDBRANCH   7  11
BRANCH   8  19
ATOM     19  C   UNL A   1      32.495  26.349  22.668  1.00  0.00     0.182 C 
BRANCH  19  20
ATOM     20  C   UNL A   1      32.391  24.846  22.679  1.00  0.00    -0.026 A 
ATOM     21  C   UNL A   1      31.262  24.201  23.198  1.00  0.00     0.009 A 
ATOM     22  C   UNL A   1      33.443  24.066  22.180  1.00  0.00     0.009 A 
ATOM     23  C   UNL A   1      31.198  22.805  23.213  1.00  0.00     0.047 A 
ATOM     24  C   UNL A   1      33.369  22.674  22.183  1.00  0.00     0.047 A 
ATOM     25  C   UNL A   1      32.246  22.033  22.702  1.00  0.00     0.129 A 
BRANCH  25  26
ATOM     26  O   UNL A   1      32.052  20.683  22.775  1.00  0.00    -0.406 OA
BRANCH  26  27
ATOM     27  C   UNL A   1      32.623  20.005  23.882  1.00  0.00     0.573 C 
ATOM     28  F   UNL A   1      33.846  20.496  24.178  1.00  0.00    -0.132 F 
ATOM     29  F   UNL A   1      31.828  20.087  24.970  1.00  0.00    -0.132 F 
ATOM     30  F   UNL A   1      32.762  18.698  23.565  1.00  0.00    -0.132 F 
ENDBRANCH  26  27
ENDBRANCH  25  26
ENDBRANCH  19  20
ENDBRANCH   8  19
ENDBRANCH   3   6
ENDBRANCH   1   2
BRANCH   1  31
ATOM     31  C   UNL A   1      34.083  31.803  27.829  1.00  0.00     0.023 C 
BRANCH  31  32
ATOM     32  C   UNL A   1      32.961  32.832  27.735  1.00  0.00     0.023 C 
BRANCH  32  33
ATOM     33  C   UNL A   1      33.424  34.271  27.567  1.00  0.00     0.116 C 
BRANCH  33  34
ATOM     34  N   UNL A   1      32.914  35.213  28.574  1.00  0.00    -0.352 N 
ATOM     35  C   UNL A   1      33.214  35.219  29.931  1.00  0.00     0.251 C 
ATOM     36  H   UNL A   1      32.298  35.912  28.254  1.00  0.00     0.163 HD
ATOM     37  O   UNL A   1      32.524  35.806  30.758  1.00  0.00    -0.269 OA
BRANCH  35  38
ATOM     38  C   UNL A   1      34.447  34.534  30.342  1.00  0.00     0.039 A 
ATOM     39  C   UNL A   1      34.498  33.504  31.290  1.00  0.00     0.014 A 
ATOM     40  C   UNL A   1      35.566  34.897  29.611  1.00  0.00     0.014 A 
ATOM     41  C   UNL A   1      35.691  32.793  31.431  1.00  0.00     0.010 A 
ATOM     42  C   UNL A   1      36.609  34.029  29.553  1.00  0.00     0.010 A 
ATOM     43  C   UNL A   1      36.740  33.063  30.545  1.00  0.00    -0.014 A 
BRANCH  43  44
ATOM     44  C   UNL A   1      38.012  32.355  30.540  1.00  0.00     0.031 A 
ATOM     45  C   UNL A   1      38.025  31.061  29.805  1.00  0.00     0.074 A 
ATOM     46  C   UNL A   1      39.138  33.035  30.871  1.00  0.00     0.049 A 
ATOM     47  N   UNL A   1      38.361  29.895  30.249  1.00  0.00    -0.248 NA
ATOM     48  C   UNL A   1      37.504  31.040  28.425  1.00  0.00     0.031 C 
ATOM     49  C   UNL A   1      39.264  34.441  31.298  1.00  0.00     0.029 A 
ATOM     50  N   UNL A   1      40.436  32.660  30.744  1.00  0.00    -0.354 N 
ATOM     51  C   UNL A   1      38.285  29.031  29.158  1.00  0.00     0.074 A 
ATOM     52  C   UNL A   1      37.583  29.743  28.123  1.00  0.00     0.031 C 
ATOM     53  C   UNL A   1      40.539  34.857  31.143  1.00  0.00     0.029 A 
ATOM     54  C   UNL A   1      41.349  33.710  30.794  1.00  0.00     0.049 A 
ATOM     55  H   UNL A   1      40.710  31.722  30.627  1.00  0.00     0.167 HD
ATOM     56  C   UNL A   1      39.034  27.895  29.102  1.00  0.00     0.037 A 
ATOM     57  C   UNL A   1      42.676  33.634  30.522  1.00  0.00     0.037 A 
ATOM     58  C   UNL A   1      39.547  27.542  30.400  1.00  0.00     0.049 A 
ATOM     59  C   UNL A   1      43.049  32.199  30.625  1.00  0.00     0.074 A 
ATOM     60  C   UNL A   1      38.973  27.223  31.615  1.00  0.00     0.029 A 
ATOM     61  N   UNL A   1      40.851  27.868  30.686  1.00  0.00    -0.354 N 
ATOM     62  N   UNL A   1      42.998  31.524  31.742  1.00  0.00    -0.248 NA
ATOM     63  C   UNL A   1      42.980  31.406  29.407  1.00  0.00     0.031 C 
ATOM     64  C   UNL A   1      39.793  27.869  32.588  1.00  0.00     0.029 A 
ATOM     65  C   UNL A   1      40.857  28.473  31.918  1.00  0.00     0.049 A 
ATOM     66  H   UNL A   1      41.635  27.699  30.115  1.00  0.00     0.167 HD
ATOM     67  C   UNL A   1      42.475  30.289  31.386  1.00  0.00     0.074 A 
ATOM     68  C   UNL A   1      42.538  30.255  29.925  1.00  0.00     0.031 C 
ATOM     69  C   UNL A   1      41.763  29.539  32.279  1.00  0.00     0.037 A 
BRANCH  56  70
ATOM     70  C   UNL A   1      39.613  27.319  27.832  1.00  0.00     0.064 A 
ATOM     71  C   UNL A   1      39.581  25.924  27.631  1.00  0.00     0.173 A 
ATOM     72  C   UNL A   1      40.459  28.039  26.961  1.00  0.00     0.173 A 
ATOM     73  F   UNL A   1      38.826  25.140  28.416  1.00  0.00    -0.203 F 
ATOM     74  C   UNL A   1      40.392  25.297  26.682  1.00  0.00     0.198 A 
ATOM     75  C   UNL A   1      41.224  27.415  25.978  1.00  0.00     0.198 A 
ATOM     76  F   UNL A   1      40.671  29.353  27.099  1.00  0.00    -0.203 F 
ATOM     77  F   UNL A   1      40.423  23.959  26.613  1.00  0.00    -0.200 F 
ATOM     78  C   UNL A   1      41.218  26.042  25.860  1.00  0.00     0.200 A 
ATOM     79  F   UNL A   1      42.032  28.155  25.205  1.00  0.00    -0.200 F 
ATOM     80  F   UNL A   1      42.043  25.440  24.994  1.00  0.00    -0.200 F 
ENDBRANCH  56  70
BRANCH  57  81
ATOM     81  C   UNL A   1      43.515  34.645  29.833  1.00  0.00     0.064 A 
ATOM     82  C   UNL A   1      44.778  35.007  30.328  1.00  0.00     0.173 A 
ATOM     83  C   UNL A   1      43.209  35.079  28.527  1.00  0.00     0.173 A 
ATOM     84  F   UNL A   1      45.166  34.593  31.544  1.00  0.00    -0.203 F 
ATOM     85  C   UNL A   1      45.685  35.745  29.558  1.00  0.00     0.198 A 
ATOM     86  C   UNL A   1      44.113  35.819  27.761  1.00  0.00     0.198 A 
ATOM     87  F   UNL A   1      42.062  34.717  27.934  1.00  0.00    -0.203 F 
ATOM     88  F   UNL A   1      46.902  36.027  30.044  1.00  0.00    -0.200 F 
ATOM     89  C   UNL A   1      45.355  36.142  28.272  1.00  0.00     0.200 A 
ATOM     90  F   UNL A   1      43.793  36.162  26.505  1.00  0.00    -0.200 F 
ATOM     91  F   UNL A   1      46.245  36.798  27.514  1.00  0.00    -0.200 F 
ENDBRANCH  57  81
BRANCH  69  92
ATOM     92  C   UNL A   1      41.733  29.997  33.714  1.00  0.00     0.064 A 
ATOM     93  C   UNL A   1      42.766  29.754  34.638  1.00  0.00     0.173 A 
ATOM     94  C   UNL A   1      40.700  30.844  34.126  1.00  0.00     0.173 A 
ATOM     95  F   UNL A   1      43.844  29.045  34.295  1.00  0.00    -0.203 F 
ATOM     96  C   UNL A   1      42.743  30.297  35.922  1.00  0.00     0.198 A 
ATOM     97  C   UNL A   1      40.694  31.415  35.398  1.00  0.00     0.198 A 
ATOM     98  F   UNL A   1      39.718  31.167  33.270  1.00  0.00    -0.203 F 
ATOM     99  F   UNL A   1      43.742  30.040  36.780  1.00  0.00    -0.200 F 
ATOM    100  C   UNL A   1      41.708  31.132  36.299  1.00  0.00     0.200 A 
ATOM    101  F   UNL A   1      39.716  32.265  35.740  1.00  0.00    -0.200 F 
ATOM    102  F   UNL A   1      41.703  31.690  37.518  1.00  0.00    -0.200 F 
ENDBRANCH  69  92
ENDBRANCH  43  44
ENDBRANCH  35  38
ENDBRANCH  33  34
ENDBRANCH  32  33
ENDBRANCH  31  32
ENDBRANCH   1  31
TORSDOF 17
ENDMDL
MODEL 3
REMARK VINA RESULT:     -12.9      2.902      7.267
REMARK SMILES COc1cccc(-c2c(C(=O)NCCCCNC(=O)c3ccc(-c4c5nc(c(-c6c(F)c(F)c(F)c(F)c6F)c6ccc([nH]6)c(-c6c(F)c(F)c(F)c(F)c6F)c6nc(c(-c7c(F)c(F)c(F)c(F)c7F)c7ccc4[nH]7)C=C6)C=C5)cc3)nnn2Cc2ccc(OC(F)(F)F)cc2)c1
REMARK SMILES IDX 13 1 12 2 10 3 11 4 9 6 8 7 85 8 83 9 84 10 7 11 3 12 4 13
REMARK SMILES IDX 98 14 5 15 6 16 2 17 1 18 86 19 87 20 88 21 97 22 89 23
REMARK SMILES IDX 96 24 90 25 91 26 92 27 93 28 94 29 95 30 14 31 15 32 16 33
REMARK SMILES IDX 17 34 18 35 19 37 20 38 21 39 82 40 22 41 81 42 23 43 24 44
REMARK SMILES IDX 25 45 75 46 26 47 80 48 74 49 76 50 27 51 79 52 73 53 72 54
REMARK SMILES IDX 28 56 60 57 40 58 59 59 41 60 44 61 58 62 77 63 42 64 43 65
REMARK SMILES IDX 57 67 78 68 45 69 29 70 30 71 38 72 31 73 32 74 36 75 39 76
REMARK SMILES IDX 33 77 34 78 37 79 35 80 61 81 62 82 70 83 63 84 64 85 68 86
REMARK SMILES IDX 71 87 65 88 66 89 69 90 67 91 46 92 47 93 55 94 48 95 49 96
REMARK SMILES IDX 53 97 56 98 50 99 51 100 54 101 52 102
REMARK H PARENT 12 5 17 36 76 55 44 66
REMARK Flexibility Score: inf
ROOT
ATOM      1  C   UNL A   1      33.876  28.185  24.315  1.00  0.00     0.116 C 
ENDROOT
BRANCH   1   2
ATOM      2  N   UNL A   1      32.771  27.850  23.462  1.00  0.00    -0.351 N 
ATOM      3  C   UNL A   1      31.801  26.875  23.580  1.00  0.00     0.274 C 
ATOM      4  O   UNL A   1      30.930  26.932  22.703  1.00  0.00    -0.267 OA
ATOM      5  H   UNL A   1      32.693  28.410  22.656  1.00  0.00     0.163 HD
BRANCH   3   6
ATOM      6  C   UNL A   1      31.770  25.795  24.588  1.00  0.00     0.178 A 
ATOM      7  C   UNL A   1      32.650  24.815  25.076  1.00  0.00     0.102 A 
ATOM      8  N   UNL A   1      31.896  24.145  26.021  1.00  0.00    -0.239 N 
ATOM      9  N   UNL A   1      30.567  25.646  25.265  1.00  0.00    -0.124 NA
ATOM     10  N   UNL A   1      30.641  24.612  26.076  1.00  0.00    -0.066 NA
BRANCH   7  11
ATOM     11  C   UNL A   1      34.014  24.392  24.761  1.00  0.00     0.006 A 
ATOM     12  C   UNL A   1      36.268  23.936  25.575  1.00  0.00     0.119 A 
ATOM     13  C   UNL A   1      36.560  23.324  24.356  1.00  0.00     0.046 A 
ATOM     14  C   UNL A   1      34.994  24.462  25.777  1.00  0.00     0.056 A 
ATOM     15  C   UNL A   1      35.602  23.258  23.339  1.00  0.00     0.005 A 
ATOM     16  C   UNL A   1      34.332  23.804  23.533  1.00  0.00     0.011 A 
BRANCH  12  17
ATOM     17  O   UNL A   1      37.297  23.951  26.475  1.00  0.00    -0.497 OA
ATOM     18  C   UNL A   1      38.616  24.129  25.975  1.00  0.00     0.278 C 
ENDBRANCH  12  17
ENDBRANCH   7  11
BRANCH   8  19
ATOM     19  C   UNL A   1      32.250  22.985  26.830  1.00  0.00     0.182 C 
BRANCH  19  20
ATOM     20  C   UNL A   1      32.614  21.788  25.990  1.00  0.00    -0.026 A 
ATOM     21  C   UNL A   1      31.824  21.400  24.901  1.00  0.00     0.009 A 
ATOM     22  C   UNL A   1      33.751  21.031  26.302  1.00  0.00     0.009 A 
ATOM     23  C   UNL A   1      32.173  20.276  24.148  1.00  0.00     0.047 A 
ATOM     24  C   UNL A   1      34.104  19.918  25.539  1.00  0.00     0.047 A 
ATOM     25  C   UNL A   1      33.316  19.531  24.458  1.00  0.00     0.129 A 
BRANCH  25  26
ATOM     26  O   UNL A   1      33.542  18.461  23.640  1.00  0.00    -0.406 OA
BRANCH  26  27
ATOM     27  C   UNL A   1      34.303  17.388  24.171  1.00  0.00     0.573 C 
ATOM     28  F   UNL A   1      35.590  17.749  24.361  1.00  0.00    -0.132 F 
ATOM     29  F   UNL A   1      33.781  16.948  25.336  1.00  0.00    -0.132 F 
ATOM     30  F   UNL A   1      34.281  16.364  23.290  1.00  0.00    -0.132 F 
ENDBRANCH  26  27
ENDBRANCH  25  26
ENDBRANCH  19  20
ENDBRANCH   8  19
ENDBRANCH   3   6
ENDBRANCH   1   2
BRANCH   1  31
ATOM     31  C   UNL A   1      33.551  28.797  25.670  1.00  0.00     0.023 C 
BRANCH  31  32
ATOM     32  C   UNL A   1      34.722  29.351  26.476  1.00  0.00     0.023 C 
BRANCH  32  33
ATOM     33  C   UNL A   1      34.414  29.636  27.938  1.00  0.00     0.116 C 
BRANCH  33  34
ATOM     34  N   UNL A   1      34.405  31.059  28.309  1.00  0.00    -0.352 N 
ATOM     35  C   UNL A   1      35.194  31.669  29.277  1.00  0.00     0.251 C 
ATOM     36  H   UNL A   1      33.775  31.639  27.822  1.00  0.00     0.163 HD
ATOM     37  O   UNL A   1      34.920  32.762  29.761  1.00  0.00    -0.269 OA
BRANCH  35  38
ATOM     38  C   UNL A   1      36.428  30.971  29.665  1.00  0.00     0.039 A 
ATOM     39  C   UNL A   1      36.500  29.607  29.971  1.00  0.00     0.014 A 
ATOM     40  C   UNL A   1      37.570  31.751  29.575  1.00  0.00     0.014 A 
ATOM     41  C   UNL A   1      37.761  29.025  30.111  1.00  0.00     0.010 A 
ATOM     42  C   UNL A   1      38.768  31.128  29.431  1.00  0.00     0.010 A 
ATOM     43  C   UNL A   1      38.890  29.801  29.828  1.00  0.00    -0.014 A 
BRANCH  43  44
ATOM     44  C   UNL A   1      40.259  29.304  29.874  1.00  0.00     0.031 A 
ATOM     45  C   UNL A   1      40.839  29.141  31.235  1.00  0.00     0.074 A 
ATOM     46  C   UNL A   1      40.775  28.710  28.768  1.00  0.00     0.049 A 
ATOM     47  N   UNL A   1      41.925  29.659  31.705  1.00  0.00    -0.248 NA
ATOM     48  C   UNL A   1      40.063  28.386  32.236  1.00  0.00     0.031 C 
ATOM     49  C   UNL A   1      40.138  28.523  27.451  1.00  0.00     0.029 A 
ATOM     50  N   UNL A   1      41.923  28.001  28.631  1.00  0.00    -0.354 N 
ATOM     51  C   UNL A   1      42.075  29.139  32.990  1.00  0.00     0.074 A 
ATOM     52  C   UNL A   1      40.820  28.518  33.326  1.00  0.00     0.031 C 
ATOM     53  C   UNL A   1      40.781  27.557  26.762  1.00  0.00     0.029 A 
ATOM     54  C   UNL A   1      41.974  27.195  27.497  1.00  0.00     0.049 A 
ATOM     55  H   UNL A   1      42.660  28.052  29.281  1.00  0.00     0.167 HD
ATOM     56  C   UNL A   1      43.301  29.032  33.572  1.00  0.00     0.037 A 
ATOM     57  C   UNL A   1      42.919  26.265  27.215  1.00  0.00     0.037 A 
ATOM     58  C   UNL A   1      44.275  29.848  32.893  1.00  0.00     0.049 A 
ATOM     59  C   UNL A   1      44.097  26.585  28.063  1.00  0.00     0.074 A 
ATOM     60  C   UNL A   1      44.401  31.200  32.642  1.00  0.00     0.029 A 
ATOM     61  N   UNL A   1      45.124  29.231  32.006  1.00  0.00    -0.354 N 
ATOM     62  N   UNL A   1      44.797  27.680  27.934  1.00  0.00    -0.248 NA
ATOM     63  C   UNL A   1      44.171  25.942  29.366  1.00  0.00     0.031 C 
ATOM     64  C   UNL A   1      44.899  31.280  31.307  1.00  0.00     0.029 A 
ATOM     65  C   UNL A   1      45.121  29.979  30.855  1.00  0.00     0.049 A 
ATOM     66  H   UNL A   1      45.637  28.406  32.165  1.00  0.00     0.167 HD
ATOM     67  C   UNL A   1      45.057  28.091  29.233  1.00  0.00     0.074 A 
ATOM     68  C   UNL A   1      44.696  26.948  30.073  1.00  0.00     0.031 C 
ATOM     69  C   UNL A   1      45.248  29.410  29.533  1.00  0.00     0.037 A 
BRANCH  56  70
ATOM     70  C   UNL A   1      43.706  27.917  34.505  1.00  0.00     0.064 A 
ATOM     71  C   UNL A   1      43.606  26.581  34.065  1.00  0.00     0.173 A 
ATOM     72  C   UNL A   1      43.892  28.088  35.894  1.00  0.00     0.173 A 
ATOM     73  F   UNL A   1      43.406  26.304  32.768  1.00  0.00    -0.203 F 
ATOM     74  C   UNL A   1      43.616  25.508  34.960  1.00  0.00     0.198 A 
ATOM     75  C   UNL A   1      43.958  27.011  36.776  1.00  0.00     0.198 A 
ATOM     76  F   UNL A   1      43.902  29.296  36.468  1.00  0.00    -0.203 F 
ATOM     77  F   UNL A   1      43.389  24.265  34.512  1.00  0.00    -0.200 F 
ATOM     78  C   UNL A   1      43.785  25.724  36.316  1.00  0.00     0.200 A 
ATOM     79  F   UNL A   1      44.104  27.244  38.088  1.00  0.00    -0.200 F 
ATOM     80  F   UNL A   1      43.731  24.704  37.182  1.00  0.00    -0.200 F 
ENDBRANCH  56  70
BRANCH  57  81
ATOM     81  C   UNL A   1      42.723  24.949  26.560  1.00  0.00     0.064 A 
ATOM     82  C   UNL A   1      43.430  24.596  25.399  1.00  0.00     0.173 A 
ATOM     83  C   UNL A   1      42.036  23.905  27.213  1.00  0.00     0.173 A 
ATOM     84  F   UNL A   1      44.148  25.521  24.745  1.00  0.00    -0.203 F 
ATOM     85  C   UNL A   1      43.460  23.277  24.929  1.00  0.00     0.198 A 
ATOM     86  C   UNL A   1      42.064  22.591  26.741  1.00  0.00     0.198 A 
ATOM     87  F   UNL A   1      41.399  24.123  28.373  1.00  0.00    -0.203 F 
ATOM     88  F   UNL A   1      44.189  22.969  23.847  1.00  0.00    -0.200 F 
ATOM     89  C   UNL A   1      42.785  22.274  25.606  1.00  0.00     0.200 A 
ATOM     90  F   UNL A   1      41.438  21.625  27.429  1.00  0.00    -0.200 F 
ATOM     91  F   UNL A   1      42.862  21.003  25.189  1.00  0.00    -0.200 F 
ENDBRANCH  57  81
BRANCH  69  92
ATOM     92  C   UNL A   1      45.369  30.381  28.386  1.00  0.00     0.064 A 
ATOM     93  C   UNL A   1      44.286  31.105  27.855  1.00  0.00     0.173 A 
ATOM     94  C   UNL A   1      46.644  30.708  27.916  1.00  0.00     0.173 A 
ATOM     95  F   UNL A   1      43.048  30.936  28.322  1.00  0.00    -0.203 F 
ATOM     96  C   UNL A   1      44.469  32.076  26.871  1.00  0.00     0.198 A 
ATOM     97  C   UNL A   1      46.830  31.702  26.957  1.00  0.00     0.198 A 
ATOM     98  F   UNL A   1      47.724  30.098  28.430  1.00  0.00    -0.203 F 
ATOM     99  F   UNL A   1      43.413  32.745  26.381  1.00  0.00    -0.200 F 
ATOM    100  C   UNL A   1      45.743  32.378  26.426  1.00  0.00     0.200 A 
ATOM    101  F   UNL A   1      48.071  32.027  26.568  1.00  0.00    -0.200 F 
ATOM    102  F   UNL A   1      45.926  33.340  25.511  1.00  0.00    -0.200 F 
ENDBRANCH  69  92
ENDBRANCH  43  44
ENDBRANCH  35  38
ENDBRANCH  33  34
ENDBRANCH  32  33
ENDBRANCH  31  32
ENDBRANCH   1  31
TORSDOF 17
ENDMDL
