MODEL 1
REMARK VINA RESULT:     -12.3      0.000      0.000
REMARK SMILES O=C(CC[C@@H]1CCC[N@@H+](Cc2cccc(C3CC3)c2)C1)NCCCCNC(=O)c1ccc(-c2c3nc(c(-c4c(F)c(F)c(F)c(F)c4F)c4ccc([nH]4)c(-c4c(F)c(F)c(F)c(F)c4F)c4nc(c(-c5c(F)c(F)c(F)c(F)c5F)c5ccc2[nH]5)C=C4)C=C3)cc1
REMARK SMILES IDX 22 1 21 2 1 3 2 4 3 6 4 7 5 8 6 9 20 10 7 11 9 12 8 13 10 15
REMARK SMILES IDX 11 16 12 17 19 18 13 19 15 20 14 21 16 22 17 23 18 24 23 25
REMARK SMILES IDX 24 26 25 27 26 28 27 29 28 31 29 32 30 33 91 34 31 35 90 36
REMARK SMILES IDX 32 37 33 38 34 39 84 40 35 41 89 42 83 43 85 44 36 45 88 46
REMARK SMILES IDX 82 47 81 48 37 50 69 51 49 52 68 53 50 54 53 55 67 56 86 57
REMARK SMILES IDX 51 58 52 59 66 61 87 62 54 63 38 64 39 65 47 66 40 67 41 68
REMARK SMILES IDX 45 69 48 70 42 71 43 72 46 73 44 74 70 75 71 76 79 77 72 78
REMARK SMILES IDX 73 79 77 80 80 81 74 82 75 83 78 84 76 85 55 86 56 87 64 88
REMARK SMILES IDX 57 89 58 90 62 91 65 92 59 93 60 94 63 95 61 96
REMARK H PARENT 21 5 9 14 26 30 85 49 53 60
REMARK Flexibility Score: inf
ROOT
ATOM      1  C   UNL A   1      32.569  30.030  26.545  1.00  0.00     0.116 C 
ENDROOT
BRANCH   1   2
ATOM      2  N   UNL A   1      32.496  28.702  25.973  1.00  0.00    -0.356 N 
ATOM      3  O   UNL A   1      31.277  27.802  27.699  1.00  0.00    -0.275 OA
ATOM      4  C   UNL A   1      31.803  27.687  26.596  1.00  0.00     0.220 C 
ATOM      5  H   UNL A   1      32.951  28.520  25.118  1.00  0.00     0.163 HD
BRANCH   4   6
ATOM      6  C   UNL A   1      31.700  26.413  25.783  1.00  0.00     0.100 C 
BRANCH   6   7
ATOM      7  C   UNL A   1      32.801  25.411  26.153  1.00  0.00     0.019 C 
BRANCH   7   8
ATOM      8  C   UNL A   1      34.155  25.628  25.439  1.00  0.00     0.045 C 
ATOM      9  C   UNL A   1      33.958  26.102  23.989  1.00  0.00     0.015 C 
ATOM     10  C   UNL A   1      35.051  24.377  25.430  1.00  0.00     0.265 C 
ATOM     11  C   UNL A   1      33.487  24.972  23.075  1.00  0.00     0.062 C 
ATOM     12  N   UNL A   1      34.495  23.302  24.604  1.00  0.00    -0.331 N 
ATOM     13  C   UNL A   1      34.371  23.726  23.203  1.00  0.00     0.262 C 
ATOM     14  H   UNL A   1      33.555  23.119  24.957  1.00  0.00     0.348 HD
BRANCH  12  15
ATOM     15  C   UNL A   1      35.207  22.014  24.747  1.00  0.00     0.299 C 
BRANCH  15  16
ATOM     16  C   UNL A   1      34.340  20.774  24.836  1.00  0.00     0.006 A 
ATOM     17  C   UNL A   1      32.956  20.871  24.995  1.00  0.00     0.009 A 
ATOM     18  C   UNL A   1      34.912  19.497  24.703  1.00  0.00     0.013 A 
ATOM     19  C   UNL A   1      32.170  19.722  24.976  1.00  0.00     0.001 A 
ATOM     20  C   UNL A   1      34.144  18.326  24.587  1.00  0.00    -0.044 A 
ATOM     21  C   UNL A   1      32.757  18.472  24.754  1.00  0.00     0.004 A 
BRANCH  20  22
ATOM     22  C   UNL A   1      34.738  16.974  24.240  1.00  0.00     0.019 C 
ATOM     23  C   UNL A   1      35.256  16.049  25.320  1.00  0.00     0.009 C 
ATOM     24  C   UNL A   1      34.012  15.691  24.560  1.00  0.00     0.009 C 
ENDBRANCH  20  22
ENDBRANCH  15  16
ENDBRANCH  12  15
ENDBRANCH   7   8
ENDBRANCH   6   7
ENDBRANCH   4   6
ENDBRANCH   1   2
BRANCH   1  25
ATOM     25  C   UNL A   1      31.510  30.980  25.987  1.00  0.00     0.023 C 
BRANCH  25  26
ATOM     26  C   UNL A   1      31.325  32.287  26.765  1.00  0.00     0.023 C 
BRANCH  26  27
ATOM     27  C   UNL A   1      32.613  32.995  27.175  1.00  0.00     0.116 C 
BRANCH  27  28
ATOM     28  N   UNL A   1      32.388  34.355  27.635  1.00  0.00    -0.352 N 
ATOM     29  C   UNL A   1      32.993  35.059  28.646  1.00  0.00     0.251 C 
ATOM     30  H   UNL A   1      31.693  34.849  27.143  1.00  0.00     0.163 HD
ATOM     31  O   UNL A   1      32.538  36.157  28.978  1.00  0.00    -0.269 OA
BRANCH  29  32
ATOM     32  C   UNL A   1      34.164  34.514  29.369  1.00  0.00     0.039 A 
ATOM     33  C   UNL A   1      33.958  33.883  30.600  1.00  0.00     0.014 A 
ATOM     34  C   UNL A   1      35.462  34.644  28.868  1.00  0.00     0.014 A 
ATOM     35  C   UNL A   1      35.038  33.325  31.292  1.00  0.00     0.010 A 
ATOM     36  C   UNL A   1      36.528  34.027  29.522  1.00  0.00     0.010 A 
ATOM     37  C   UNL A   1      36.329  33.357  30.740  1.00  0.00    -0.014 A 
BRANCH  37  38
ATOM     38  C   UNL A   1      37.473  32.688  31.415  1.00  0.00     0.031 A 
ATOM     39  C   UNL A   1      38.178  31.531  30.760  1.00  0.00     0.074 A 
ATOM     40  C   UNL A   1      37.843  33.085  32.649  1.00  0.00     0.049 A 
ATOM     41  N   UNL A   1      39.149  30.783  31.223  1.00  0.00    -0.248 NA
ATOM     42  C   UNL A   1      37.714  31.150  29.418  1.00  0.00     0.031 C 
ATOM     43  C   UNL A   1      37.221  34.169  33.411  1.00  0.00     0.029 A 
ATOM     44  N   UNL A   1      38.828  32.617  33.483  1.00  0.00    -0.354 N 
ATOM     45  C   UNL A   1      39.397  29.834  30.239  1.00  0.00     0.074 A 
ATOM     46  C   UNL A   1      38.446  30.072  29.174  1.00  0.00     0.031 C 
ATOM     47  C   UNL A   1      37.855  34.299  34.587  1.00  0.00     0.029 A 
ATOM     48  C   UNL A   1      38.899  33.284  34.682  1.00  0.00     0.049 A 
ATOM     49  H   UNL A   1      39.427  31.873  33.245  1.00  0.00     0.167 HD
ATOM     50  C   UNL A   1      40.344  28.864  30.217  1.00  0.00     0.037 A 
ATOM     51  C   UNL A   1      39.708  33.094  35.742  1.00  0.00     0.037 A 
ATOM     52  C   UNL A   1      41.309  28.644  31.264  1.00  0.00     0.049 A 
ATOM     53  C   UNL A   1      40.744  32.003  35.696  1.00  0.00     0.074 A 
ATOM     54  C   UNL A   1      42.348  27.730  31.302  1.00  0.00     0.029 A 
ATOM     55  N   UNL A   1      41.352  29.346  32.460  1.00  0.00    -0.354 N 
ATOM     56  N   UNL A   1      41.012  31.154  34.733  1.00  0.00    -0.248 NA
ATOM     57  C   UNL A   1      41.593  31.845  36.885  1.00  0.00     0.031 C 
ATOM     58  C   UNL A   1      42.986  27.842  32.541  1.00  0.00     0.029 A 
ATOM     59  C   UNL A   1      42.381  28.864  33.254  1.00  0.00     0.049 A 
ATOM     60  H   UNL A   1      40.741  30.076  32.708  1.00  0.00     0.167 HD
ATOM     61  C   UNL A   1      42.076  30.386  35.185  1.00  0.00     0.074 A 
ATOM     62  C   UNL A   1      42.414  30.876  36.505  1.00  0.00     0.031 C 
ATOM     63  C   UNL A   1      42.715  29.365  34.563  1.00  0.00     0.037 A 
BRANCH  50  64
ATOM     64  C   UNL A   1      40.385  27.957  29.021  1.00  0.00     0.064 A 
ATOM     65  C   UNL A   1      39.632  26.774  28.966  1.00  0.00     0.173 A 
ATOM     66  C   UNL A   1      41.153  28.297  27.897  1.00  0.00     0.173 A 
ATOM     67  F   UNL A   1      38.887  26.399  30.016  1.00  0.00    -0.203 F 
ATOM     68  C   UNL A   1      39.670  25.952  27.842  1.00  0.00     0.198 A 
ATOM     69  C   UNL A   1      41.164  27.489  26.763  1.00  0.00     0.198 A 
ATOM     70  F   UNL A   1      41.886  29.421  27.893  1.00  0.00    -0.203 F 
ATOM     71  F   UNL A   1      38.980  24.803  27.831  1.00  0.00    -0.200 F 
ATOM     72  C   UNL A   1      40.429  26.313  26.740  1.00  0.00     0.200 A 
ATOM     73  F   UNL A   1      41.887  27.847  25.693  1.00  0.00    -0.200 F 
ATOM     74  F   UNL A   1      40.457  25.525  25.656  1.00  0.00    -0.200 F 
ENDBRANCH  50  64
BRANCH  51  75
ATOM     75  C   UNL A   1      39.588  33.972  36.935  1.00  0.00     0.064 A 
ATOM     76  C   UNL A   1      38.802  33.591  38.032  1.00  0.00     0.173 A 
ATOM     77  C   UNL A   1      40.243  35.211  37.001  1.00  0.00     0.173 A 
ATOM     78  F   UNL A   1      38.137  32.427  38.007  1.00  0.00    -0.203 F 
ATOM     79  C   UNL A   1      38.658  34.424  39.139  1.00  0.00     0.198 A 
ATOM     80  C   UNL A   1      40.123  36.030  38.121  1.00  0.00     0.198 A 
ATOM     81  F   UNL A   1      41.011  35.619  35.979  1.00  0.00    -0.203 F 
ATOM     82  F   UNL A   1      37.862  34.057  40.152  1.00  0.00    -0.200 F 
ATOM     83  C   UNL A   1      39.323  35.640  39.186  1.00  0.00     0.200 A 
ATOM     84  F   UNL A   1      40.779  37.197  38.168  1.00  0.00    -0.200 F 
ATOM     85  F   UNL A   1      39.188  36.440  40.252  1.00  0.00    -0.200 F 
ENDBRANCH  51  75
BRANCH  63  86
ATOM     86  C   UNL A   1      43.870  28.732  35.283  1.00  0.00     0.064 A 
ATOM     87  C   UNL A   1      45.186  29.189  35.111  1.00  0.00     0.173 A 
ATOM     88  C   UNL A   1      43.654  27.679  36.186  1.00  0.00     0.173 A 
ATOM     89  F   UNL A   1      45.448  30.182  34.249  1.00  0.00    -0.203 F 
ATOM     90  C   UNL A   1      46.244  28.598  35.798  1.00  0.00     0.198 A 
ATOM     91  C   UNL A   1      44.710  27.112  36.893  1.00  0.00     0.198 A 
ATOM     92  F   UNL A   1      42.415  27.209  36.391  1.00  0.00    -0.203 F 
ATOM     93  F   UNL A   1      47.498  29.018  35.581  1.00  0.00    -0.200 F 
ATOM     94  C   UNL A   1      46.005  27.566  36.692  1.00  0.00     0.200 A 
ATOM     95  F   UNL A   1      44.475  26.125  37.768  1.00  0.00    -0.200 F 
ATOM     96  F   UNL A   1      47.024  27.005  37.358  1.00  0.00    -0.200 F 
ENDBRANCH  63  86
ENDBRANCH  37  38
ENDBRANCH  29  32
ENDBRANCH  27  28
ENDBRANCH  26  27
ENDBRANCH  25  26
ENDBRANCH   1  25
TORSDOF 16
ENDMDL
MODEL 2
REMARK VINA RESULT:     -12.2      5.636     11.640
REMARK SMILES O=C(CC[C@@H]1CCC[N@@H+](Cc2cccc(C3CC3)c2)C1)NCCCCNC(=O)c1ccc(-c2c3nc(c(-c4c(F)c(F)c(F)c(F)c4F)c4ccc([nH]4)c(-c4c(F)c(F)c(F)c(F)c4F)c4nc(c(-c5c(F)c(F)c(F)c(F)c5F)c5ccc2[nH]5)C=C4)C=C3)cc1
REMARK SMILES IDX 22 1 21 2 1 3 2 4 3 6 4 7 5 8 6 9 20 10 7 11 9 12 8 13 10 15
REMARK SMILES IDX 11 16 12 17 19 18 13 19 15 20 14 21 16 22 17 23 18 24 23 25
REMARK SMILES IDX 24 26 25 27 26 28 27 29 28 31 29 32 30 33 91 34 31 35 90 36
REMARK SMILES IDX 32 37 33 38 34 39 84 40 35 41 89 42 83 43 85 44 36 45 88 46
REMARK SMILES IDX 82 47 81 48 37 50 69 51 49 52 68 53 50 54 53 55 67 56 86 57
REMARK SMILES IDX 51 58 52 59 66 61 87 62 54 63 38 64 39 65 47 66 40 67 41 68
REMARK SMILES IDX 45 69 48 70 42 71 43 72 46 73 44 74 70 75 71 76 79 77 72 78
REMARK SMILES IDX 73 79 77 80 80 81 74 82 75 83 78 84 76 85 55 86 56 87 64 88
REMARK SMILES IDX 57 89 58 90 62 91 65 92 59 93 60 94 63 95 61 96
REMARK H PARENT 21 5 9 14 26 30 85 49 53 60
REMARK Flexibility Score: inf
ROOT
ATOM      1  C   UNL A   1      36.453  21.641  25.742  1.00  0.00     0.116 C 
ENDROOT
BRANCH   1   2
ATOM      2  N   UNL A   1      35.272  22.426  25.448  1.00  0.00    -0.356 N 
ATOM      3  O   UNL A   1      36.301  24.460  25.730  1.00  0.00    -0.275 OA
ATOM      4  C   UNL A   1      35.309  23.803  25.427  1.00  0.00     0.220 C 
ATOM      5  H   UNL A   1      34.422  21.965  25.259  1.00  0.00     0.163 HD
BRANCH   4   6
ATOM      6  C   UNL A   1      34.026  24.454  24.952  1.00  0.00     0.100 C 
BRANCH   6   7
ATOM      7  C   UNL A   1      33.543  25.537  25.923  1.00  0.00     0.019 C 
BRANCH   7   8
ATOM      8  C   UNL A   1      34.021  26.972  25.599  1.00  0.00     0.045 C 
ATOM      9  C   UNL A   1      33.644  27.958  26.719  1.00  0.00     0.015 C 
ATOM     10  C   UNL A   1      33.477  27.513  24.265  1.00  0.00     0.265 C 
ATOM     11  C   UNL A   1      32.155  28.292  26.712  1.00  0.00     0.062 C 
ATOM     12  N   UNL A   1      32.029  27.728  24.302  1.00  0.00    -0.331 N 
ATOM     13  C   UNL A   1      31.670  28.722  25.323  1.00  0.00     0.262 C 
ATOM     14  H   UNL A   1      31.608  26.839  24.574  1.00  0.00     0.348 HD
BRANCH  12  15
ATOM     15  C   UNL A   1      31.439  28.032  22.980  1.00  0.00     0.299 C 
BRANCH  15  16
ATOM     16  C   UNL A   1      29.958  28.351  22.962  1.00  0.00     0.006 A 
ATOM     17  C   UNL A   1      29.017  27.431  23.433  1.00  0.00     0.009 A 
ATOM     18  C   UNL A   1      29.507  29.606  22.521  1.00  0.00     0.013 A 
ATOM     19  C   UNL A   1      27.672  27.783  23.498  1.00  0.00     0.001 A 
ATOM     20  C   UNL A   1      28.173  30.028  22.658  1.00  0.00    -0.044 A 
ATOM     21  C   UNL A   1      27.263  29.071  23.134  1.00  0.00     0.004 A 
BRANCH  20  22
ATOM     22  C   UNL A   1      27.719  31.448  22.375  1.00  0.00     0.019 C 
ATOM     23  C   UNL A   1      28.561  32.634  22.793  1.00  0.00     0.009 C 
ATOM     24  C   UNL A   1      28.407  32.301  21.338  1.00  0.00     0.009 C 
ENDBRANCH  20  22
ENDBRANCH  15  16
ENDBRANCH  12  15
ENDBRANCH   7   8
ENDBRANCH   6   7
ENDBRANCH   4   6
ENDBRANCH   1   2
BRANCH   1  25
ATOM     25  C   UNL A   1      36.496  20.319  24.977  1.00  0.00     0.023 C 
BRANCH  25  26
ATOM     26  C   UNL A   1      37.896  19.751  24.725  1.00  0.00     0.023 C 
BRANCH  26  27
ATOM     27  C   UNL A   1      38.960  20.152  25.744  1.00  0.00     0.116 C 
BRANCH  27  28
ATOM     28  N   UNL A   1      40.001  19.149  25.896  1.00  0.00    -0.352 N 
ATOM     29  C   UNL A   1      41.345  19.298  26.129  1.00  0.00     0.251 C 
ATOM     30  H   UNL A   1      39.694  18.217  25.820  1.00  0.00     0.163 HD
ATOM     31  O   UNL A   1      42.086  18.312  26.065  1.00  0.00    -0.269 OA
BRANCH  29  32
ATOM     32  C   UNL A   1      41.932  20.624  26.429  1.00  0.00     0.039 A 
ATOM     33  C   UNL A   1      42.244  21.476  25.364  1.00  0.00     0.014 A 
ATOM     34  C   UNL A   1      42.209  21.026  27.738  1.00  0.00     0.014 A 
ATOM     35  C   UNL A   1      42.765  22.749  25.613  1.00  0.00     0.010 A 
ATOM     36  C   UNL A   1      42.663  22.321  27.990  1.00  0.00     0.010 A 
ATOM     37  C   UNL A   1      42.943  23.199  26.931  1.00  0.00    -0.014 A 
BRANCH  37  38
ATOM     38  C   UNL A   1      43.407  24.582  27.217  1.00  0.00     0.031 A 
ATOM     39  C   UNL A   1      42.458  25.608  27.776  1.00  0.00     0.074 A 
ATOM     40  C   UNL A   1      44.674  24.935  26.920  1.00  0.00     0.049 A 
ATOM     41  N   UNL A   1      42.664  26.878  28.026  1.00  0.00    -0.248 NA
ATOM     42  C   UNL A   1      41.091  25.153  28.068  1.00  0.00     0.031 C 
ATOM     43  C   UNL A   1      45.684  24.049  26.342  1.00  0.00     0.029 A 
ATOM     44  N   UNL A   1      45.325  26.137  27.056  1.00  0.00    -0.354 N 
ATOM     45  C   UNL A   1      41.450  27.375  28.486  1.00  0.00     0.074 A 
ATOM     46  C   UNL A   1      40.502  26.281  28.438  1.00  0.00     0.031 C 
ATOM     47  C   UNL A   1      46.833  24.728  26.198  1.00  0.00     0.029 A 
ATOM     48  C   UNL A   1      46.631  26.107  26.632  1.00  0.00     0.049 A 
ATOM     49  H   UNL A   1      44.896  26.943  27.422  1.00  0.00     0.167 HD
ATOM     50  C   UNL A   1      41.157  28.622  28.926  1.00  0.00     0.037 A 
ATOM     51  C   UNL A   1      47.560  27.082  26.590  1.00  0.00     0.037 A 
ATOM     52  C   UNL A   1      42.107  29.703  29.001  1.00  0.00     0.049 A 
ATOM     53  C   UNL A   1      47.205  28.462  27.075  1.00  0.00     0.074 A 
ATOM     54  C   UNL A   1      41.921  30.983  29.495  1.00  0.00     0.029 A 
ATOM     55  N   UNL A   1      43.423  29.631  28.568  1.00  0.00    -0.354 N 
ATOM     56  N   UNL A   1      46.073  28.902  27.568  1.00  0.00    -0.248 NA
ATOM     57  C   UNL A   1      48.260  29.482  26.999  1.00  0.00     0.031 C 
ATOM     58  C   UNL A   1      43.107  31.701  29.312  1.00  0.00     0.029 A 
ATOM     59  C   UNL A   1      44.051  30.853  28.757  1.00  0.00     0.049 A 
ATOM     60  H   UNL A   1      43.848  28.831  28.183  1.00  0.00     0.167 HD
ATOM     61  C   UNL A   1      46.288  30.235  27.889  1.00  0.00     0.074 A 
ATOM     62  C   UNL A   1      47.663  30.531  27.547  1.00  0.00     0.031 C 
ATOM     63  C   UNL A   1      45.423  31.133  28.420  1.00  0.00     0.037 A 
BRANCH  50  64
ATOM     64  C   UNL A   1      39.746  28.895  29.360  1.00  0.00     0.064 A 
ATOM     65  C   UNL A   1      38.774  29.359  28.461  1.00  0.00     0.173 A 
ATOM     66  C   UNL A   1      39.349  28.646  30.683  1.00  0.00     0.173 A 
ATOM     67  F   UNL A   1      39.102  29.620  27.188  1.00  0.00    -0.203 F 
ATOM     68  C   UNL A   1      37.465  29.593  28.878  1.00  0.00     0.198 A 
ATOM     69  C   UNL A   1      38.033  28.851  31.089  1.00  0.00     0.198 A 
ATOM     70  F   UNL A   1      40.236  28.195  31.583  1.00  0.00    -0.203 F 
ATOM     71  F   UNL A   1      36.566  30.082  28.013  1.00  0.00    -0.200 F 
ATOM     72  C   UNL A   1      37.094  29.332  30.189  1.00  0.00     0.200 A 
ATOM     73  F   UNL A   1      37.673  28.584  32.352  1.00  0.00    -0.200 F 
ATOM     74  F   UNL A   1      35.833  29.548  30.585  1.00  0.00    -0.200 F 
ENDBRANCH  50  64
BRANCH  51  75
ATOM     75  C   UNL A   1      48.927  26.785  26.088  1.00  0.00     0.064 A 
ATOM     76  C   UNL A   1      49.913  26.279  26.946  1.00  0.00     0.173 A 
ATOM     77  C   UNL A   1      49.279  27.009  24.749  1.00  0.00     0.173 A 
ATOM     78  F   UNL A   1      49.631  26.069  28.240  1.00  0.00    -0.203 F 
ATOM     79  C   UNL A   1      51.206  26.029  26.490  1.00  0.00     0.198 A 
ATOM     80  C   UNL A   1      50.564  26.731  24.287  1.00  0.00     0.198 A 
ATOM     81  F   UNL A   1      48.370  27.488  23.887  1.00  0.00    -0.203 F 
ATOM     82  F   UNL A   1      52.142  25.592  27.343  1.00  0.00    -0.200 F 
ATOM     83  C   UNL A   1      51.529  26.250  25.160  1.00  0.00     0.200 A 
ATOM     84  F   UNL A   1      50.867  26.932  22.998  1.00  0.00    -0.200 F 
ATOM     85  F   UNL A   1      52.771  26.007  24.720  1.00  0.00    -0.200 F 
ENDBRANCH  51  75
BRANCH  63  86
ATOM     86  C   UNL A   1      45.945  32.513  28.701  1.00  0.00     0.064 A 
ATOM     87  C   UNL A   1      46.581  32.829  29.912  1.00  0.00     0.173 A 
ATOM     88  C   UNL A   1      45.844  33.522  27.730  1.00  0.00     0.173 A 
ATOM     89  F   UNL A   1      46.689  31.905  30.878  1.00  0.00    -0.203 F 
ATOM     90  C   UNL A   1      47.071  34.111  30.149  1.00  0.00     0.198 A 
ATOM     91  C   UNL A   1      46.364  34.793  27.960  1.00  0.00     0.198 A 
ATOM     92  F   UNL A   1      45.252  33.271  26.553  1.00  0.00    -0.203 F 
ATOM     93  F   UNL A   1      47.630  34.404  31.332  1.00  0.00    -0.200 F 
ATOM     94  C   UNL A   1      46.968  35.089  29.171  1.00  0.00     0.200 A 
ATOM     95  F   UNL A   1      46.276  35.732  27.008  1.00  0.00    -0.200 F 
ATOM     96  F   UNL A   1      47.449  36.319  29.399  1.00  0.00    -0.200 F 
ENDBRANCH  63  86
ENDBRANCH  37  38
ENDBRANCH  29  32
ENDBRANCH  27  28
ENDBRANCH  26  27
ENDBRANCH  25  26
ENDBRANCH   1  25
TORSDOF 16
ENDMDL
MODEL 3
REMARK VINA RESULT:     -12.2      6.556     11.026
REMARK SMILES O=C(CC[C@@H]1CCC[N@@H+](Cc2cccc(C3CC3)c2)C1)NCCCCNC(=O)c1ccc(-c2c3nc(c(-c4c(F)c(F)c(F)c(F)c4F)c4ccc([nH]4)c(-c4c(F)c(F)c(F)c(F)c4F)c4nc(c(-c5c(F)c(F)c(F)c(F)c5F)c5ccc2[nH]5)C=C4)C=C3)cc1
REMARK SMILES IDX 22 1 21 2 1 3 2 4 3 6 4 7 5 8 6 9 20 10 7 11 9 12 8 13 10 15
REMARK SMILES IDX 11 16 12 17 19 18 13 19 15 20 14 21 16 22 17 23 18 24 23 25
REMARK SMILES IDX 24 26 25 27 26 28 27 29 28 31 29 32 30 33 91 34 31 35 90 36
REMARK SMILES IDX 32 37 33 38 34 39 84 40 35 41 89 42 83 43 85 44 36 45 88 46
REMARK SMILES IDX 82 47 81 48 37 50 69 51 49 52 68 53 50 54 53 55 67 56 86 57
REMARK SMILES IDX 51 58 52 59 66 61 87 62 54 63 38 64 39 65 47 66 40 67 41 68
REMARK SMILES IDX 45 69 48 70 42 71 43 72 46 73 44 74 70 75 71 76 79 77 72 78
REMARK SMILES IDX 73 79 77 80 80 81 74 82 75 83 78 84 76 85 55 86 56 87 64 88
REMARK SMILES IDX 57 89 58 90 62 91 65 92 59 93 60 94 63 95 61 96
REMARK H PARENT 21 5 9 14 26 30 85 49 53 60
REMARK Flexibility Score: inf
ROOT
ATOM      1  C   UNL A   1      40.387  21.385  27.098  1.00  0.00     0.116 C 
ENDROOT
BRANCH   1   2
ATOM      2  N   UNL A   1      39.440  22.326  26.538  1.00  0.00    -0.356 N 
ATOM      3  O   UNL A   1      38.245  20.748  25.373  1.00  0.00    -0.275 OA
ATOM      4  C   UNL A   1      38.399  21.910  25.736  1.00  0.00     0.220 C 
ATOM      5  H   UNL A   1      39.541  23.286  26.735  1.00  0.00     0.163 HD
BRANCH   4   6
ATOM      6  C   UNL A   1      37.420  23.006  25.368  1.00  0.00     0.100 C 
BRANCH   6   7
ATOM      7  C   UNL A   1      36.295  22.485  24.466  1.00  0.00     0.019 C 
BRANCH   7   8
ATOM      8  C   UNL A   1      35.294  23.557  23.977  1.00  0.00     0.045 C 
ATOM      9  C   UNL A   1      35.009  24.603  25.070  1.00  0.00     0.015 C 
ATOM     10  C   UNL A   1      33.954  22.972  23.496  1.00  0.00     0.265 C 
ATOM     11  C   UNL A   1      34.108  24.049  26.172  1.00  0.00     0.062 C 
ATOM     12  N   UNL A   1      33.181  22.381  24.591  1.00  0.00    -0.331 N 
ATOM     13  C   UNL A   1      32.846  23.391  25.604  1.00  0.00     0.262 C 
ATOM     14  H   UNL A   1      33.785  21.688  25.033  1.00  0.00     0.348 HD
BRANCH  12  15
ATOM     15  C   UNL A   1      32.000  21.615  24.138  1.00  0.00     0.299 C 
BRANCH  15  16
ATOM     16  C   UNL A   1      32.245  20.171  23.748  1.00  0.00     0.006 A 
ATOM     17  C   UNL A   1      32.181  19.764  22.412  1.00  0.00     0.009 A 
ATOM     18  C   UNL A   1      32.598  19.222  24.722  1.00  0.00     0.013 A 
ATOM     19  C   UNL A   1      32.506  18.456  22.067  1.00  0.00     0.001 A 
ATOM     20  C   UNL A   1      33.021  17.921  24.400  1.00  0.00    -0.044 A 
ATOM     21  C   UNL A   1      32.940  17.556  23.047  1.00  0.00     0.004 A 
BRANCH  20  22
ATOM     22  C   UNL A   1      33.597  16.959  25.423  1.00  0.00     0.019 C 
ATOM     23  C   UNL A   1      33.098  15.534  25.520  1.00  0.00     0.009 C 
ATOM     24  C   UNL A   1      34.481  15.809  25.008  1.00  0.00     0.009 C 
ENDBRANCH  20  22
ENDBRANCH  15  16
ENDBRANCH  12  15
ENDBRANCH   7   8
ENDBRANCH   6   7
ENDBRANCH   4   6
ENDBRANCH   1   2
BRANCH   1  25
ATOM     25  C   UNL A   1      41.525  21.041  26.137  1.00  0.00     0.023 C 
BRANCH  25  26
ATOM     26  C   UNL A   1      41.664  19.556  25.788  1.00  0.00     0.023 C 
BRANCH  26  27
ATOM     27  C   UNL A   1      43.010  18.924  26.132  1.00  0.00     0.116 C 
BRANCH  27  28
ATOM     28  N   UNL A   1      43.810  18.625  24.957  1.00  0.00    -0.352 N 
ATOM     29  C   UNL A   1      44.607  19.445  24.198  1.00  0.00     0.251 C 
ATOM     30  H   UNL A   1      43.776  17.688  24.658  1.00  0.00     0.163 HD
ATOM     31  O   UNL A   1      45.078  19.023  23.138  1.00  0.00    -0.269 OA
BRANCH  29  32
ATOM     32  C   UNL A   1      44.891  20.839  24.610  1.00  0.00     0.039 A 
ATOM     33  C   UNL A   1      44.519  21.881  23.754  1.00  0.00     0.014 A 
ATOM     34  C   UNL A   1      45.547  21.130  25.809  1.00  0.00     0.014 A 
ATOM     35  C   UNL A   1      44.740  23.210  24.130  1.00  0.00     0.010 A 
ATOM     36  C   UNL A   1      45.703  22.456  26.216  1.00  0.00     0.010 A 
ATOM     37  C   UNL A   1      45.298  23.511  25.382  1.00  0.00    -0.014 A 
BRANCH  37  38
ATOM     38  C   UNL A   1      45.454  24.918  25.838  1.00  0.00     0.031 A 
ATOM     39  C   UNL A   1      46.798  25.594  25.788  1.00  0.00     0.074 A 
ATOM     40  C   UNL A   1      44.395  25.573  26.353  1.00  0.00     0.049 A 
ATOM     41  N   UNL A   1      47.140  26.789  26.202  1.00  0.00    -0.248 NA
ATOM     42  C   UNL A   1      47.908  24.815  25.221  1.00  0.00     0.031 C 
ATOM     43  C   UNL A   1      43.046  25.023  26.492  1.00  0.00     0.029 A 
ATOM     44  N   UNL A   1      44.288  26.844  26.863  1.00  0.00    -0.354 N 
ATOM     45  C   UNL A   1      48.505  26.896  25.963  1.00  0.00     0.074 A 
ATOM     46  C   UNL A   1      48.936  25.630  25.409  1.00  0.00     0.031 C 
ATOM     47  C   UNL A   1      42.243  25.957  27.025  1.00  0.00     0.029 A 
ATOM     48  C   UNL A   1      43.026  27.157  27.305  1.00  0.00     0.049 A 
ATOM     49  H   UNL A   1      45.045  27.472  26.909  1.00  0.00     0.167 HD
ATOM     50  C   UNL A   1      49.320  27.959  26.168  1.00  0.00     0.037 A 
ATOM     51  C   UNL A   1      42.553  28.280  27.878  1.00  0.00     0.037 A 
ATOM     52  C   UNL A   1      48.886  29.229  26.692  1.00  0.00     0.049 A 
ATOM     53  C   UNL A   1      43.483  29.443  28.105  1.00  0.00     0.074 A 
ATOM     54  C   UNL A   1      49.625  30.386  26.873  1.00  0.00     0.029 A 
ATOM     55  N   UNL A   1      47.597  29.509  27.122  1.00  0.00    -0.354 N 
ATOM     56  N   UNL A   1      44.756  29.555  27.814  1.00  0.00    -0.248 NA
ATOM     57  C   UNL A   1      42.907  30.637  28.738  1.00  0.00     0.031 C 
ATOM     58  C   UNL A   1      48.797  31.348  27.461  1.00  0.00     0.029 A 
ATOM     59  C   UNL A   1      47.528  30.810  27.594  1.00  0.00     0.049 A 
ATOM     60  H   UNL A   1      46.844  28.876  27.095  1.00  0.00     0.167 HD
ATOM     61  C   UNL A   1      45.125  30.836  28.198  1.00  0.00     0.074 A 
ATOM     62  C   UNL A   1      43.938  31.470  28.731  1.00  0.00     0.031 C 
ATOM     63  C   UNL A   1      46.338  31.434  28.116  1.00  0.00     0.037 A 
BRANCH  50  64
ATOM     64  C   UNL A   1      50.773  27.798  25.828  1.00  0.00     0.064 A 
ATOM     65  C   UNL A   1      51.731  27.489  26.807  1.00  0.00     0.173 A 
ATOM     66  C   UNL A   1      51.210  27.911  24.499  1.00  0.00     0.173 A 
ATOM     67  F   UNL A   1      51.368  27.379  28.094  1.00  0.00    -0.203 F 
ATOM     68  C   UNL A   1      53.073  27.329  26.472  1.00  0.00     0.198 A 
ATOM     69  C   UNL A   1      52.547  27.719  24.163  1.00  0.00     0.198 A 
ATOM     70  F   UNL A   1      50.336  28.197  23.522  1.00  0.00    -0.203 F 
ATOM     71  F   UNL A   1      53.976  27.082  27.431  1.00  0.00    -0.200 F 
ATOM     72  C   UNL A   1      53.479  27.436  25.150  1.00  0.00     0.200 A 
ATOM     73  F   UNL A   1      52.936  27.808  22.883  1.00  0.00    -0.200 F 
ATOM     74  F   UNL A   1      54.770  27.272  24.829  1.00  0.00    -0.200 F 
ENDBRANCH  50  64
BRANCH  51  75
ATOM     75  C   UNL A   1      41.120  28.372  28.262  1.00  0.00     0.064 A 
ATOM     76  C   UNL A   1      40.170  28.897  27.373  1.00  0.00     0.173 A 
ATOM     77  C   UNL A   1      40.672  27.951  29.523  1.00  0.00     0.173 A 
ATOM     78  F   UNL A   1      40.554  29.334  26.165  1.00  0.00    -0.203 F 
ATOM     79  C   UNL A   1      38.832  29.016  27.738  1.00  0.00     0.198 A 
ATOM     80  C   UNL A   1      39.327  28.044  29.876  1.00  0.00     0.198 A 
ATOM     81  F   UNL A   1      41.540  27.438  30.407  1.00  0.00    -0.203 F 
ATOM     82  F   UNL A   1      37.954  29.566  26.888  1.00  0.00    -0.200 F 
ATOM     83  C   UNL A   1      38.409  28.585  28.987  1.00  0.00     0.200 A 
ATOM     84  F   UNL A   1      38.922  27.612  31.077  1.00  0.00    -0.200 F 
ATOM     85  F   UNL A   1      37.121  28.697  29.337  1.00  0.00    -0.200 F 
ENDBRANCH  51  75
BRANCH  63  86
ATOM     86  C   UNL A   1      46.440  32.859  28.578  1.00  0.00     0.064 A 
ATOM     87  C   UNL A   1      46.786  33.183  29.899  1.00  0.00     0.173 A 
ATOM     88  C   UNL A   1      46.226  33.915  27.678  1.00  0.00     0.173 A 
ATOM     89  F   UNL A   1      46.986  32.212  30.801  1.00  0.00    -0.203 F 
ATOM     90  C   UNL A   1      46.889  34.511  30.306  1.00  0.00     0.198 A 
ATOM     91  C   UNL A   1      46.360  35.241  28.081  1.00  0.00     0.198 A 
ATOM     92  F   UNL A   1      45.899  33.660  26.402  1.00  0.00    -0.203 F 
ATOM     93  F   UNL A   1      47.173  34.798  31.584  1.00  0.00    -0.200 F 
ATOM     94  C   UNL A   1      46.683  35.538  29.396  1.00  0.00     0.200 A 
ATOM     95  F   UNL A   1      46.175  36.230  27.197  1.00  0.00    -0.200 F 
ATOM     96  F   UNL A   1      46.791  36.814  29.789  1.00  0.00    -0.200 F 
ENDBRANCH  63  86
ENDBRANCH  37  38
ENDBRANCH  29  32
ENDBRANCH  27  28
ENDBRANCH  26  27
ENDBRANCH  25  26
ENDBRANCH   1  25
TORSDOF 16
ENDMDL
