MODEL 1
REMARK VINA RESULT:     -12.4      0.000      0.000
REMARK SMILES CC[C@@H](C)[C@H](NC(=O)N1CCn2c1nc1ccccc12)C(=O)N[C@H](C)C(=O)NCCCCNC(=O)c1ccc(-c2c3nc(c(-c4c(F)c(F)c(F)c(F)c4F)c4ccc([nH]4)c(-c4c(F)c(F)c(F)c(F)c4F)c4nc(c(-c5c(F)c(F)c(F)c(F)c5F)c5ccc2[nH]5)C=C4)C=C3)cc1
REMARK SMILES IDX 29 1 28 2 26 3 27 4 24 6 25 7 23 8 21 9 22 10 5 12 3 13 4 14
REMARK SMILES IDX 2 15 1 16 6 17 7 18 8 20 9 21 10 22 13 23 11 24 12 25 14 26
REMARK SMILES IDX 20 27 15 28 19 29 16 30 18 31 17 32 30 33 31 34 32 35 33 36
REMARK SMILES IDX 34 37 35 39 36 40 37 41 98 42 38 43 97 44 39 45 40 46 41 47
REMARK SMILES IDX 91 48 42 49 96 50 90 51 92 52 43 53 95 54 89 55 88 56 44 58
REMARK SMILES IDX 76 59 56 60 75 61 57 62 60 63 74 64 93 65 58 66 59 67 73 69
REMARK SMILES IDX 94 70 61 71 45 72 46 73 54 74 47 75 48 76 52 77 55 78 49 79
REMARK SMILES IDX 50 80 53 81 51 82 77 83 78 84 86 85 79 86 80 87 84 88 87 89
REMARK SMILES IDX 81 90 82 91 85 92 83 93 62 94 63 95 71 96 64 97 65 98 69 99
REMARK SMILES IDX 72 100 66 101 67 102 70 103 68 104
REMARK H PARENT 28 5 23 11 6 19 33 38 92 57 60 68
REMARK Flexibility Score: inf
ROOT
ATOM      1  C   UNL A   1      38.695  24.463  26.952  1.00  0.00     0.116 C 
ENDROOT
BRANCH   1   2
ATOM      2  N   UNL A   1      39.096  23.079  26.830  1.00  0.00    -0.354 N 
ATOM      3  C   UNL A   1      38.613  22.095  26.025  1.00  0.00     0.242 C 
ATOM      4  O   UNL A   1      39.322  21.090  25.899  1.00  0.00    -0.273 OA
ATOM      5  H   UNL A   1      39.833  22.806  27.423  1.00  0.00     0.163 HD
BRANCH   3   6
ATOM      6  C   UNL A   1      37.150  22.069  25.537  1.00  0.00     0.168 C 
ATOM      7  C   UNL A   1      37.050  20.885  24.647  1.00  0.00     0.041 C 
BRANCH   6   8
ATOM      8  N   UNL A   1      36.058  22.142  26.494  1.00  0.00    -0.343 N 
ATOM      9  C   UNL A   1      34.762  22.532  26.445  1.00  0.00     0.243 C 
ATOM     10  O   UNL A   1      34.365  22.952  27.550  1.00  0.00    -0.273 OA
ATOM     11  H   UNL A   1      36.323  21.834  27.390  1.00  0.00     0.164 HD
BRANCH   9  12
ATOM     12  C   UNL A   1      33.683  22.389  25.268  1.00  0.00     0.176 C 
BRANCH  12  13
ATOM     13  C   UNL A   1      32.419  21.501  25.577  1.00  0.00     0.018 C 
ATOM     14  C   UNL A   1      32.277  20.304  24.628  1.00  0.00     0.010 C 
BRANCH  13  15
ATOM     15  C   UNL A   1      31.150  22.329  25.745  1.00  0.00     0.002 C 
ATOM     16  C   UNL A   1      31.332  23.780  26.154  1.00  0.00     0.004 C 
ENDBRANCH  13  15
ENDBRANCH  12  13
BRANCH  12  17
ATOM     17  N   UNL A   1      33.780  22.852  23.842  1.00  0.00    -0.326 N 
ATOM     18  C   UNL A   1      33.663  23.801  22.914  1.00  0.00     0.324 C 
ATOM     19  H   UNL A   1      34.079  22.057  23.343  1.00  0.00     0.166 HD
ATOM     20  O   UNL A   1      33.845  23.351  21.768  1.00  0.00    -0.248 OA
BRANCH  18  21
ATOM     21  N   UNL A   1      33.189  25.055  23.029  1.00  0.00    -0.262 N 
ATOM     22  C   UNL A   1      32.352  25.589  21.934  1.00  0.00     0.152 C 
ATOM     23  C   UNL A   1      33.388  26.049  23.957  1.00  0.00     0.214 A 
ATOM     24  C   UNL A   1      31.925  26.993  22.369  1.00  0.00     0.148 C 
ATOM     25  N   UNL A   1      32.643  27.148  23.615  1.00  0.00    -0.308 N 
ATOM     26  N   UNL A   1      34.000  26.260  25.090  1.00  0.00    -0.212 NA
ATOM     27  C   UNL A   1      32.506  27.965  24.684  1.00  0.00     0.070 A 
ATOM     28  C   UNL A   1      33.408  27.415  25.597  1.00  0.00     0.091 A 
ATOM     29  C   UNL A   1      31.682  29.057  24.969  1.00  0.00     0.028 A 
ATOM     30  C   UNL A   1      33.526  28.007  26.866  1.00  0.00     0.031 A 
ATOM     31  C   UNL A   1      31.780  29.596  26.258  1.00  0.00     0.002 A 
ATOM     32  C   UNL A   1      32.689  29.087  27.189  1.00  0.00     0.002 A 
ENDBRANCH  18  21
ENDBRANCH  12  17
ENDBRANCH   9  12
ENDBRANCH   6   8
ENDBRANCH   3   6
ENDBRANCH   1   2
BRANCH   1  33
ATOM     33  C   UNL A   1      39.690  25.367  27.669  1.00  0.00     0.023 C 
BRANCH  33  34
ATOM     34  C   UNL A   1      41.141  24.920  27.770  1.00  0.00     0.023 C 
BRANCH  34  35
ATOM     35  C   UNL A   1      42.178  26.024  27.741  1.00  0.00     0.116 C 
BRANCH  35  36
ATOM     36  N   UNL A   1      42.559  26.432  26.394  1.00  0.00    -0.352 N 
ATOM     37  C   UNL A   1      42.320  27.649  25.783  1.00  0.00     0.251 C 
ATOM     38  H   UNL A   1      43.042  25.763  25.857  1.00  0.00     0.163 HD
ATOM     39  O   UNL A   1      42.653  27.887  24.641  1.00  0.00    -0.269 OA
BRANCH  37  40
ATOM     40  C   UNL A   1      41.599  28.643  26.594  1.00  0.00     0.039 A 
ATOM     41  C   UNL A   1      42.266  29.214  27.683  1.00  0.00     0.014 A 
ATOM     42  C   UNL A   1      40.216  28.745  26.435  1.00  0.00     0.014 A 
ATOM     43  C   UNL A   1      41.510  29.733  28.720  1.00  0.00     0.010 A 
ATOM     44  C   UNL A   1      39.468  29.327  27.451  1.00  0.00     0.010 A 
ATOM     45  C   UNL A   1      40.112  29.752  28.621  1.00  0.00    -0.014 A 
BRANCH  45  46
ATOM     46  C   UNL A   1      39.401  30.351  29.754  1.00  0.00     0.031 A 
ATOM     47  C   UNL A   1      39.676  29.615  31.018  1.00  0.00     0.074 A 
ATOM     48  C   UNL A   1      39.086  31.657  29.847  1.00  0.00     0.049 A 
ATOM     49  N   UNL A   1      40.733  29.852  31.739  1.00  0.00    -0.248 NA
ATOM     50  C   UNL A   1      38.985  28.372  31.351  1.00  0.00     0.031 C 
ATOM     51  C   UNL A   1      39.872  32.761  29.289  1.00  0.00     0.029 A 
ATOM     52  N   UNL A   1      38.153  32.269  30.651  1.00  0.00    -0.354 N 
ATOM     53  C   UNL A   1      40.920  28.745  32.539  1.00  0.00     0.074 A 
ATOM     54  C   UNL A   1      39.797  27.866  32.291  1.00  0.00     0.031 C 
ATOM     55  C   UNL A   1      39.520  33.897  29.925  1.00  0.00     0.029 A 
ATOM     56  C   UNL A   1      38.381  33.631  30.798  1.00  0.00     0.049 A 
ATOM     57  H   UNL A   1      37.403  31.793  31.076  1.00  0.00     0.167 HD
ATOM     58  C   UNL A   1      42.012  28.582  33.324  1.00  0.00     0.037 A 
ATOM     59  C   UNL A   1      38.054  34.347  31.907  1.00  0.00     0.037 A 
ATOM     60  C   UNL A   1      42.960  29.652  33.317  1.00  0.00     0.049 A 
ATOM     61  C   UNL A   1      39.100  33.868  32.882  1.00  0.00     0.074 A 
ATOM     62  C   UNL A   1      44.142  29.941  32.670  1.00  0.00     0.029 A 
ATOM     63  N   UNL A   1      42.671  30.774  34.058  1.00  0.00    -0.354 N 
ATOM     64  N   UNL A   1      40.332  34.298  32.948  1.00  0.00    -0.248 NA
ATOM     65  C   UNL A   1      38.862  32.604  33.587  1.00  0.00     0.031 C 
ATOM     66  C   UNL A   1      44.272  31.363  32.720  1.00  0.00     0.029 A 
ATOM     67  C   UNL A   1      43.128  31.855  33.348  1.00  0.00     0.049 A 
ATOM     68  H   UNL A   1      42.222  30.797  34.933  1.00  0.00     0.167 HD
ATOM     69  C   UNL A   1      41.070  33.223  33.451  1.00  0.00     0.074 A 
ATOM     70  C   UNL A   1      40.102  32.239  33.880  1.00  0.00     0.031 C 
ATOM     71  C   UNL A   1      42.418  33.110  33.290  1.00  0.00     0.037 A 
BRANCH  58  72
ATOM     72  C   UNL A   1      42.198  27.447  34.237  1.00  0.00     0.064 A 
ATOM     73  C   UNL A   1      41.621  27.524  35.511  1.00  0.00     0.173 A 
ATOM     74  C   UNL A   1      43.058  26.383  33.953  1.00  0.00     0.173 A 
ATOM     75  F   UNL A   1      40.795  28.540  35.810  1.00  0.00    -0.203 F 
ATOM     76  C   UNL A   1      41.920  26.584  36.487  1.00  0.00     0.198 A 
ATOM     77  C   UNL A   1      43.353  25.438  34.932  1.00  0.00     0.198 A 
ATOM     78  F   UNL A   1      43.632  26.279  32.746  1.00  0.00    -0.203 F 
ATOM     79  F   UNL A   1      41.382  26.698  37.708  1.00  0.00    -0.200 F 
ATOM     80  C   UNL A   1      42.795  25.546  36.200  1.00  0.00     0.200 A 
ATOM     81  F   UNL A   1      44.198  24.433  34.661  1.00  0.00    -0.200 F 
ATOM     82  F   UNL A   1      43.106  24.654  37.151  1.00  0.00    -0.200 F 
ENDBRANCH  58  72
BRANCH  59  83
ATOM     83  C   UNL A   1      36.584  34.411  32.178  1.00  0.00     0.064 A 
ATOM     84  C   UNL A   1      36.175  34.651  33.511  1.00  0.00     0.173 A 
ATOM     85  C   UNL A   1      35.557  34.278  31.237  1.00  0.00     0.173 A 
ATOM     86  F   UNL A   1      37.083  34.688  34.498  1.00  0.00    -0.203 F 
ATOM     87  C   UNL A   1      34.840  34.872  33.850  1.00  0.00     0.198 A 
ATOM     88  C   UNL A   1      34.220  34.524  31.572  1.00  0.00     0.198 A 
ATOM     89  F   UNL A   1      35.813  33.926  29.971  1.00  0.00    -0.203 F 
ATOM     90  F   UNL A   1      34.507  35.141  35.120  1.00  0.00    -0.200 F 
ATOM     91  C   UNL A   1      33.865  34.838  32.872  1.00  0.00     0.200 A 
ATOM     92  F   UNL A   1      33.280  34.480  30.618  1.00  0.00    -0.200 F 
ATOM     93  F   UNL A   1      32.589  35.106  33.179  1.00  0.00    -0.200 F 
ENDBRANCH  59  83
BRANCH  71  94
ATOM     94  C   UNL A   1      43.090  34.321  32.748  1.00  0.00     0.064 A 
ATOM     95  C   UNL A   1      43.248  34.474  31.367  1.00  0.00     0.173 A 
ATOM     96  C   UNL A   1      43.561  35.339  33.590  1.00  0.00     0.173 A 
ATOM     97  F   UNL A   1      42.807  33.525  30.526  1.00  0.00    -0.203 F 
ATOM     98  C   UNL A   1      43.839  35.618  30.841  1.00  0.00     0.198 A 
ATOM     99  C   UNL A   1      44.131  36.491  33.060  1.00  0.00     0.198 A 
ATOM    100  F   UNL A   1      43.455  35.233  34.924  1.00  0.00    -0.203 F 
ATOM    101  F   UNL A   1      43.976  35.751  29.515  1.00  0.00    -0.200 F 
ATOM    102  C   UNL A   1      44.268  36.631  31.687  1.00  0.00     0.200 A 
ATOM    103  F   UNL A   1      44.531  37.476  33.877  1.00  0.00    -0.200 F 
ATOM    104  F   UNL A   1      44.805  37.748  31.178  1.00  0.00    -0.200 F 
ENDBRANCH  71  94
ENDBRANCH  45  46
ENDBRANCH  37  40
ENDBRANCH  35  36
ENDBRANCH  34  35
ENDBRANCH  33  34
ENDBRANCH   1  33
TORSDOF 17
ENDMDL
MODEL 2
REMARK VINA RESULT:     -12.2      1.313      2.385
REMARK SMILES CC[C@@H](C)[C@H](NC(=O)N1CCn2c1nc1ccccc12)C(=O)N[C@H](C)C(=O)NCCCCNC(=O)c1ccc(-c2c3nc(c(-c4c(F)c(F)c(F)c(F)c4F)c4ccc([nH]4)c(-c4c(F)c(F)c(F)c(F)c4F)c4nc(c(-c5c(F)c(F)c(F)c(F)c5F)c5ccc2[nH]5)C=C4)C=C3)cc1
REMARK SMILES IDX 29 1 28 2 26 3 27 4 24 6 25 7 23 8 21 9 22 10 5 12 3 13 4 14
REMARK SMILES IDX 2 15 1 16 6 17 7 18 8 20 9 21 10 22 13 23 11 24 12 25 14 26
REMARK SMILES IDX 20 27 15 28 19 29 16 30 18 31 17 32 30 33 31 34 32 35 33 36
REMARK SMILES IDX 34 37 35 39 36 40 37 41 98 42 38 43 97 44 39 45 40 46 41 47
REMARK SMILES IDX 91 48 42 49 96 50 90 51 92 52 43 53 95 54 89 55 88 56 44 58
REMARK SMILES IDX 76 59 56 60 75 61 57 62 60 63 74 64 93 65 58 66 59 67 73 69
REMARK SMILES IDX 94 70 61 71 45 72 46 73 54 74 47 75 48 76 52 77 55 78 49 79
REMARK SMILES IDX 50 80 53 81 51 82 77 83 78 84 86 85 79 86 80 87 84 88 87 89
REMARK SMILES IDX 81 90 82 91 85 92 83 93 62 94 63 95 71 96 64 97 65 98 69 99
REMARK SMILES IDX 72 100 66 101 67 102 70 103 68 104
REMARK H PARENT 28 5 23 11 6 19 33 38 92 57 60 68
REMARK Flexibility Score: inf
ROOT
ATOM      1  C   UNL A   1      38.259  23.691  26.378  1.00  0.00     0.116 C 
ENDROOT
BRANCH   1   2
ATOM      2  N   UNL A   1      37.992  22.302  26.076  1.00  0.00    -0.354 N 
ATOM      3  C   UNL A   1      37.248  21.750  25.081  1.00  0.00     0.242 C 
ATOM      4  O   UNL A   1      37.425  20.545  24.865  1.00  0.00    -0.273 OA
ATOM      5  H   UNL A   1      38.415  21.656  26.686  1.00  0.00     0.163 HD
BRANCH   3   6
ATOM      6  C   UNL A   1      36.037  22.472  24.455  1.00  0.00     0.168 C 
ATOM      7  C   UNL A   1      36.506  22.958  23.132  1.00  0.00     0.041 C 
BRANCH   6   8
ATOM      8  N   UNL A   1      34.747  21.806  24.379  1.00  0.00    -0.343 N 
ATOM      9  C   UNL A   1      33.458  22.189  24.538  1.00  0.00     0.243 C 
ATOM     10  O   UNL A   1      32.742  21.247  24.930  1.00  0.00    -0.273 OA
ATOM     11  H   UNL A   1      34.830  20.850  24.161  1.00  0.00     0.164 HD
BRANCH   9  12
ATOM     12  C   UNL A   1      32.736  23.569  24.159  1.00  0.00     0.176 C 
BRANCH  12  13
ATOM     13  C   UNL A   1      31.247  23.740  24.642  1.00  0.00     0.018 C 
ATOM     14  C   UNL A   1      30.278  24.078  23.502  1.00  0.00     0.010 C 
BRANCH  13  15
ATOM     15  C   UNL A   1      31.128  24.647  25.862  1.00  0.00     0.002 C 
ATOM     16  C   UNL A   1      29.936  25.589  25.896  1.00  0.00     0.004 C 
ENDBRANCH  13  15
ENDBRANCH  12  13
BRANCH  12  17
ATOM     17  N   UNL A   1      33.225  24.671  23.261  1.00  0.00    -0.326 N 
ATOM     18  C   UNL A   1      33.319  25.962  22.946  1.00  0.00     0.324 C 
ATOM     19  H   UNL A   1      33.727  24.208  22.552  1.00  0.00     0.166 HD
ATOM     20  O   UNL A   1      33.878  26.129  21.847  1.00  0.00    -0.248 OA
BRANCH  18  21
ATOM     21  N   UNL A   1      32.729  27.027  23.520  1.00  0.00    -0.262 N 
ATOM     22  C   UNL A   1      33.493  27.787  24.532  1.00  0.00     0.152 C 
ATOM     23  C   UNL A   1      31.465  27.556  23.433  1.00  0.00     0.214 A 
ATOM     24  C   UNL A   1      32.597  28.953  24.957  1.00  0.00     0.148 C 
ATOM     25  N   UNL A   1      31.384  28.678  24.218  1.00  0.00    -0.308 N 
ATOM     26  N   UNL A   1      30.340  27.376  22.797  1.00  0.00    -0.212 NA
ATOM     27  C   UNL A   1      30.317  29.423  23.853  1.00  0.00     0.070 A 
ATOM     28  C   UNL A   1      29.638  28.565  22.984  1.00  0.00     0.091 A 
ATOM     29  C   UNL A   1      29.906  30.729  24.131  1.00  0.00     0.028 A 
ATOM     30  C   UNL A   1      28.456  29.021  22.377  1.00  0.00     0.031 A 
ATOM     31  C   UNL A   1      28.755  31.178  23.472  1.00  0.00     0.002 A 
ATOM     32  C   UNL A   1      28.037  30.340  22.615  1.00  0.00     0.002 A 
ENDBRANCH  18  21
ENDBRANCH  12  17
ENDBRANCH   9  12
ENDBRANCH   6   8
ENDBRANCH   3   6
ENDBRANCH   1   2
BRANCH   1  33
ATOM     33  C   UNL A   1      39.626  23.973  26.988  1.00  0.00     0.023 C 
BRANCH  33  34
ATOM     34  C   UNL A   1      39.936  25.386  27.461  1.00  0.00     0.023 C 
BRANCH  34  35
ATOM     35  C   UNL A   1      41.402  25.766  27.496  1.00  0.00     0.116 C 
BRANCH  35  36
ATOM     36  N   UNL A   1      41.915  26.231  26.214  1.00  0.00    -0.352 N 
ATOM     37  C   UNL A   1      41.925  27.527  25.731  1.00  0.00     0.251 C 
ATOM     38  H   UNL A   1      42.299  25.544  25.623  1.00  0.00     0.163 HD
ATOM     39  O   UNL A   1      42.351  27.815  24.632  1.00  0.00    -0.269 OA
BRANCH  37  40
ATOM     40  C   UNL A   1      41.352  28.547  26.623  1.00  0.00     0.039 A 
ATOM     41  C   UNL A   1      42.135  29.010  27.685  1.00  0.00     0.014 A 
ATOM     42  C   UNL A   1      39.977  28.782  26.558  1.00  0.00     0.014 A 
ATOM     43  C   UNL A   1      41.497  29.552  28.787  1.00  0.00     0.010 A 
ATOM     44  C   UNL A   1      39.351  29.387  27.641  1.00  0.00     0.010 A 
ATOM     45  C   UNL A   1      40.103  29.703  28.781  1.00  0.00    -0.014 A 
BRANCH  45  46
ATOM     46  C   UNL A   1      39.523  30.316  29.978  1.00  0.00     0.031 A 
ATOM     47  C   UNL A   1      39.924  29.586  31.212  1.00  0.00     0.074 A 
ATOM     48  C   UNL A   1      39.231  31.626  30.094  1.00  0.00     0.049 A 
ATOM     49  N   UNL A   1      41.054  29.817  31.813  1.00  0.00    -0.248 NA
ATOM     50  C   UNL A   1      39.261  28.352  31.625  1.00  0.00     0.031 C 
ATOM     51  C   UNL A   1      39.964  32.719  29.447  1.00  0.00     0.029 A 
ATOM     52  N   UNL A   1      38.395  32.253  30.988  1.00  0.00    -0.354 N 
ATOM     53  C   UNL A   1      41.314  28.713  32.597  1.00  0.00     0.074 A 
ATOM     54  C   UNL A   1      40.163  27.844  32.477  1.00  0.00     0.031 C 
ATOM     55  C   UNL A   1      39.692  33.862  30.109  1.00  0.00     0.029 A 
ATOM     56  C   UNL A   1      38.651  33.613  31.099  1.00  0.00     0.049 A 
ATOM     57  H   UNL A   1      37.691  31.787  31.495  1.00  0.00     0.167 HD
ATOM     58  C   UNL A   1      42.483  28.545  33.263  1.00  0.00     0.037 A 
ATOM     59  C   UNL A   1      38.451  34.340  32.231  1.00  0.00     0.037 A 
ATOM     60  C   UNL A   1      43.435  29.605  33.147  1.00  0.00     0.049 A 
ATOM     61  C   UNL A   1      39.590  33.856  33.093  1.00  0.00     0.074 A 
ATOM     62  C   UNL A   1      44.543  29.877  32.375  1.00  0.00     0.029 A 
ATOM     63  N   UNL A   1      43.237  30.735  33.906  1.00  0.00    -0.354 N 
ATOM     64  N   UNL A   1      40.826  34.275  33.025  1.00  0.00    -0.248 NA
ATOM     65  C   UNL A   1      39.417  32.600  33.829  1.00  0.00     0.031 C 
ATOM     66  C   UNL A   1      44.691  31.299  32.400  1.00  0.00     0.029 A 
ATOM     67  C   UNL A   1      43.626  31.807  33.142  1.00  0.00     0.049 A 
ATOM     68  H   UNL A   1      42.884  30.768  34.824  1.00  0.00     0.167 HD
ATOM     69  C   UNL A   1      41.604  33.196  33.454  1.00  0.00     0.074 A 
ATOM     70  C   UNL A   1      40.678  32.224  33.992  1.00  0.00     0.031 C 
ATOM     71  C   UNL A   1      42.926  33.068  33.151  1.00  0.00     0.037 A 
BRANCH  58  72
ATOM     72  C   UNL A   1      42.754  27.414  34.160  1.00  0.00     0.064 A 
ATOM     73  C   UNL A   1      43.435  26.308  33.639  1.00  0.00     0.173 A 
ATOM     74  C   UNL A   1      42.218  27.328  35.448  1.00  0.00     0.173 A 
ATOM     75  F   UNL A   1      43.955  26.365  32.402  1.00  0.00    -0.203 F 
ATOM     76  C   UNL A   1      43.549  25.133  34.369  1.00  0.00     0.198 A 
ATOM     77  C   UNL A   1      42.337  26.149  36.180  1.00  0.00     0.198 A 
ATOM     78  F   UNL A   1      41.554  28.365  35.978  1.00  0.00    -0.203 F 
ATOM     79  F   UNL A   1      44.176  24.076  33.835  1.00  0.00    -0.200 F 
ATOM     80  C   UNL A   1      42.990  25.050  35.635  1.00  0.00     0.200 A 
ATOM     81  F   UNL A   1      41.798  26.064  37.405  1.00  0.00    -0.200 F 
ATOM     82  F   UNL A   1      43.075  23.906  36.329  1.00  0.00    -0.200 F 
ENDBRANCH  58  72
BRANCH  59  83
ATOM     83  C   UNL A   1      37.019  34.421  32.657  1.00  0.00     0.064 A 
ATOM     84  C   UNL A   1      36.033  34.422  31.642  1.00  0.00     0.173 A 
ATOM     85  C   UNL A   1      36.542  34.474  33.973  1.00  0.00     0.173 A 
ATOM     86  F   UNL A   1      36.396  34.478  30.351  1.00  0.00    -0.203 F 
ATOM     87  C   UNL A   1      34.670  34.349  31.929  1.00  0.00     0.198 A 
ATOM     88  C   UNL A   1      35.176  34.377  34.262  1.00  0.00     0.198 A 
ATOM     89  F   UNL A   1      37.377  34.605  35.011  1.00  0.00    -0.203 F 
ATOM     90  F   UNL A   1      33.776  34.307  30.932  1.00  0.00    -0.200 F 
ATOM     91  C   UNL A   1      34.244  34.296  33.242  1.00  0.00     0.200 A 
ATOM     92  F   UNL A   1      34.772  34.336  35.538  1.00  0.00    -0.200 F 
ATOM     93  F   UNL A   1      32.941  34.169  33.526  1.00  0.00    -0.200 F 
ENDBRANCH  59  83
BRANCH  71  94
ATOM     94  C   UNL A   1      43.547  34.269  32.532  1.00  0.00     0.064 A 
ATOM     95  C   UNL A   1      43.538  34.422  31.141  1.00  0.00     0.173 A 
ATOM     96  C   UNL A   1      44.135  35.277  33.310  1.00  0.00     0.173 A 
ATOM     97  F   UNL A   1      42.982  33.482  30.360  1.00  0.00    -0.203 F 
ATOM     98  C   UNL A   1      44.080  35.556  30.547  1.00  0.00     0.198 A 
ATOM     99  C   UNL A   1      44.656  36.420  32.714  1.00  0.00     0.198 A 
ATOM    100  F   UNL A   1      44.191  35.169  34.647  1.00  0.00    -0.203 F 
ATOM    101  F   UNL A   1      44.056  35.691  29.214  1.00  0.00    -0.200 F 
ATOM    102  C   UNL A   1      44.627  36.560  31.334  1.00  0.00     0.200 A 
ATOM    103  F   UNL A   1      45.170  37.396  33.476  1.00  0.00    -0.200 F 
ATOM    104  F   UNL A   1      45.117  37.669  30.763  1.00  0.00    -0.200 F 
ENDBRANCH  71  94
ENDBRANCH  45  46
ENDBRANCH  37  40
ENDBRANCH  35  36
ENDBRANCH  34  35
ENDBRANCH  33  34
ENDBRANCH   1  33
TORSDOF 17
ENDMDL
MODEL 3
REMARK VINA RESULT:     -12.0      5.007     11.053
REMARK SMILES CC[C@@H](C)[C@H](NC(=O)N1CCn2c1nc1ccccc12)C(=O)N[C@H](C)C(=O)NCCCCNC(=O)c1ccc(-c2c3nc(c(-c4c(F)c(F)c(F)c(F)c4F)c4ccc([nH]4)c(-c4c(F)c(F)c(F)c(F)c4F)c4nc(c(-c5c(F)c(F)c(F)c(F)c5F)c5ccc2[nH]5)C=C4)C=C3)cc1
REMARK SMILES IDX 29 1 28 2 26 3 27 4 24 6 25 7 23 8 21 9 22 10 5 12 3 13 4 14
REMARK SMILES IDX 2 15 1 16 6 17 7 18 8 20 9 21 10 22 13 23 11 24 12 25 14 26
REMARK SMILES IDX 20 27 15 28 19 29 16 30 18 31 17 32 30 33 31 34 32 35 33 36
REMARK SMILES IDX 34 37 35 39 36 40 37 41 98 42 38 43 97 44 39 45 40 46 41 47
REMARK SMILES IDX 91 48 42 49 96 50 90 51 92 52 43 53 95 54 89 55 88 56 44 58
REMARK SMILES IDX 76 59 56 60 75 61 57 62 60 63 74 64 93 65 58 66 59 67 73 69
REMARK SMILES IDX 94 70 61 71 45 72 46 73 54 74 47 75 48 76 52 77 55 78 49 79
REMARK SMILES IDX 50 80 53 81 51 82 77 83 78 84 86 85 79 86 80 87 84 88 87 89
REMARK SMILES IDX 81 90 82 91 85 92 83 93 62 94 63 95 71 96 64 97 65 98 69 99
REMARK SMILES IDX 72 100 66 101 67 102 70 103 68 104
REMARK H PARENT 28 5 23 11 6 19 33 38 92 57 60 68
REMARK Flexibility Score: inf
ROOT
ATOM      1  C   UNL A   1      45.705  31.156  26.877  1.00  0.00     0.116 C 
ENDROOT
BRANCH   1   2
ATOM      2  N   UNL A   1      46.262  30.476  25.730  1.00  0.00    -0.354 N 
ATOM      3  C   UNL A   1      46.390  29.146  25.477  1.00  0.00     0.242 C 
ATOM      4  O   UNL A   1      46.622  28.829  24.304  1.00  0.00    -0.273 OA
ATOM      5  H   UNL A   1      46.603  31.069  25.021  1.00  0.00     0.163 HD
BRANCH   3   6
ATOM      6  C   UNL A   1      46.549  28.102  26.601  1.00  0.00     0.168 C 
ATOM      7  C   UNL A   1      45.185  27.564  26.839  1.00  0.00     0.041 C 
BRANCH   6   8
ATOM      8  N   UNL A   1      47.550  27.053  26.489  1.00  0.00    -0.343 N 
ATOM      9  C   UNL A   1      48.534  26.576  27.287  1.00  0.00     0.243 C 
ATOM     10  O   UNL A   1      49.471  26.090  26.624  1.00  0.00    -0.273 OA
ATOM     11  H   UNL A   1      47.501  26.577  25.629  1.00  0.00     0.164 HD
BRANCH   9  12
ATOM     12  C   UNL A   1      48.585  26.414  28.881  1.00  0.00     0.176 C 
BRANCH  12  13
ATOM     13  C   UNL A   1      50.015  26.325  29.534  1.00  0.00     0.018 C 
ATOM     14  C   UNL A   1      50.043  25.471  30.808  1.00  0.00     0.010 C 
BRANCH  13  15
ATOM     15  C   UNL A   1      50.681  27.689  29.674  1.00  0.00     0.002 C 
ATOM     16  C   UNL A   1      49.757  28.884  29.840  1.00  0.00     0.004 C 
ENDBRANCH  13  15
ENDBRANCH  12  13
BRANCH  12  17
ATOM     17  N   UNL A   1      47.452  26.173  29.839  1.00  0.00    -0.326 N 
ATOM     18  C   UNL A   1      46.271  25.630  30.135  1.00  0.00     0.324 C 
ATOM     19  H   UNL A   1      47.711  26.657  30.656  1.00  0.00     0.166 HD
ATOM     20  O   UNL A   1      45.859  26.003  31.248  1.00  0.00    -0.248 OA
BRANCH  18  21
ATOM     21  N   UNL A   1      45.422  24.949  29.345  1.00  0.00    -0.262 N 
ATOM     22  C   UNL A   1      44.011  24.833  29.772  1.00  0.00     0.152 C 
ATOM     23  C   UNL A   1      45.596  24.217  28.196  1.00  0.00     0.214 A 
ATOM     24  C   UNL A   1      43.291  24.064  28.662  1.00  0.00     0.148 C 
ATOM     25  N   UNL A   1      44.383  23.737  27.772  1.00  0.00    -0.308 N 
ATOM     26  N   UNL A   1      46.527  23.888  27.343  1.00  0.00    -0.212 NA
ATOM     27  C   UNL A   1      44.459  23.367  26.473  1.00  0.00     0.070 A 
ATOM     28  C   UNL A   1      45.833  23.424  26.228  1.00  0.00     0.091 A 
ATOM     29  C   UNL A   1      43.509  23.051  25.498  1.00  0.00     0.028 A 
ATOM     30  C   UNL A   1      46.299  23.116  24.938  1.00  0.00     0.031 A 
ATOM     31  C   UNL A   1      43.994  22.800  24.209  1.00  0.00     0.002 A 
ATOM     32  C   UNL A   1      45.364  22.825  23.933  1.00  0.00     0.002 A 
ENDBRANCH  18  21
ENDBRANCH  12  17
ENDBRANCH   9  12
ENDBRANCH   6   8
ENDBRANCH   3   6
ENDBRANCH   1   2
BRANCH   1  33
ATOM     33  C   UNL A   1      44.480  32.016  26.592  1.00  0.00     0.023 C 
BRANCH  33  34
ATOM     34  C   UNL A   1      44.688  33.445  26.109  1.00  0.00     0.023 C 
BRANCH  34  35
ATOM     35  C   UNL A   1      43.431  34.216  25.762  1.00  0.00     0.116 C 
BRANCH  35  36
ATOM     36  N   UNL A   1      43.603  35.663  25.809  1.00  0.00    -0.352 N 
ATOM     37  C   UNL A   1      43.416  36.498  26.894  1.00  0.00     0.251 C 
ATOM     38  H   UNL A   1      43.883  36.095  24.970  1.00  0.00     0.163 HD
ATOM     39  O   UNL A   1      43.556  37.702  26.829  1.00  0.00    -0.269 OA
BRANCH  37  40
ATOM     40  C   UNL A   1      42.999  35.842  28.143  1.00  0.00     0.039 A 
ATOM     41  C   UNL A   1      43.992  35.465  29.053  1.00  0.00     0.014 A 
ATOM     42  C   UNL A   1      41.692  35.360  28.230  1.00  0.00     0.014 A 
ATOM     43  C   UNL A   1      43.713  34.445  29.947  1.00  0.00     0.010 A 
ATOM     44  C   UNL A   1      41.402  34.384  29.174  1.00  0.00     0.010 A 
ATOM     45  C   UNL A   1      42.432  33.878  29.980  1.00  0.00    -0.014 A 
BRANCH  45  46
ATOM     46  C   UNL A   1      42.224  32.829  30.981  1.00  0.00     0.031 A 
ATOM     47  C   UNL A   1      40.823  32.826  31.483  1.00  0.00     0.074 A 
ATOM     48  C   UNL A   1      42.902  31.666  31.013  1.00  0.00     0.049 A 
ATOM     49  N   UNL A   1      39.865  32.215  30.850  1.00  0.00    -0.248 NA
ATOM     50  C   UNL A   1      40.368  33.770  32.500  1.00  0.00     0.031 C 
ATOM     51  C   UNL A   1      43.413  30.949  29.840  1.00  0.00     0.029 A 
ATOM     52  N   UNL A   1      43.055  30.778  32.052  1.00  0.00    -0.354 N 
ATOM     53  C   UNL A   1      38.683  32.768  31.295  1.00  0.00     0.074 A 
ATOM     54  C   UNL A   1      39.038  33.704  32.340  1.00  0.00     0.031 C 
ATOM     55  C   UNL A   1      43.632  29.665  30.189  1.00  0.00     0.029 A 
ATOM     56  C   UNL A   1      43.443  29.515  31.627  1.00  0.00     0.049 A 
ATOM     57  H   UNL A   1      42.906  31.014  32.997  1.00  0.00     0.167 HD
ATOM     58  C   UNL A   1      37.480  32.469  30.748  1.00  0.00     0.037 A 
ATOM     59  C   UNL A   1      43.112  28.358  32.262  1.00  0.00     0.037 A 
ATOM     60  C   UNL A   1      37.488  31.501  29.695  1.00  0.00     0.049 A 
ATOM     61  C   UNL A   1      41.651  28.241  31.911  1.00  0.00     0.074 A 
ATOM     62  C   UNL A   1      37.499  31.518  28.318  1.00  0.00     0.029 A 
ATOM     63  N   UNL A   1      37.591  30.174  30.040  1.00  0.00    -0.354 N 
ATOM     64  N   UNL A   1      41.173  27.778  30.785  1.00  0.00    -0.248 NA
ATOM     65  C   UNL A   1      40.683  28.997  32.712  1.00  0.00     0.031 C 
ATOM     66  C   UNL A   1      38.035  30.255  27.920  1.00  0.00     0.029 A 
ATOM     67  C   UNL A   1      38.371  29.569  29.087  1.00  0.00     0.049 A 
ATOM     68  H   UNL A   1      37.183  29.740  30.824  1.00  0.00     0.167 HD
ATOM     69  C   UNL A   1      39.947  28.426  30.612  1.00  0.00     0.074 A 
ATOM     70  C   UNL A   1      39.677  29.111  31.856  1.00  0.00     0.031 C 
ATOM     71  C   UNL A   1      39.335  28.543  29.400  1.00  0.00     0.037 A 
BRANCH  58  72
ATOM     72  C   UNL A   1      36.203  32.990  31.252  1.00  0.00     0.064 A 
ATOM     73  C   UNL A   1      35.534  33.950  30.485  1.00  0.00     0.173 A 
ATOM     74  C   UNL A   1      35.721  32.696  32.531  1.00  0.00     0.173 A 
ATOM     75  F   UNL A   1      35.981  34.254  29.255  1.00  0.00    -0.203 F 
ATOM     76  C   UNL A   1      34.433  34.627  30.991  1.00  0.00     0.198 A 
ATOM     77  C   UNL A   1      34.613  33.373  33.035  1.00  0.00     0.198 A 
ATOM     78  F   UNL A   1      36.339  31.786  33.297  1.00  0.00    -0.203 F 
ATOM     79  F   UNL A   1      33.830  35.566  30.251  1.00  0.00    -0.200 F 
ATOM     80  C   UNL A   1      33.979  34.345  32.271  1.00  0.00     0.200 A 
ATOM     81  F   UNL A   1      34.171  33.104  34.272  1.00  0.00    -0.200 F 
ATOM     82  F   UNL A   1      32.933  35.018  32.772  1.00  0.00    -0.200 F 
ENDBRANCH  58  72
BRANCH  59  83
ATOM     83  C   UNL A   1      43.683  28.235  33.639  1.00  0.00     0.064 A 
ATOM     84  C   UNL A   1      44.996  28.717  33.849  1.00  0.00     0.173 A 
ATOM     85  C   UNL A   1      43.038  27.706  34.764  1.00  0.00     0.173 A 
ATOM     86  F   UNL A   1      45.730  29.145  32.810  1.00  0.00    -0.203 F 
ATOM     87  C   UNL A   1      45.570  28.784  35.119  1.00  0.00     0.198 A 
ATOM     88  C   UNL A   1      43.603  27.795  36.041  1.00  0.00     0.198 A 
ATOM     89  F   UNL A   1      41.845  27.107  34.665  1.00  0.00    -0.203 F 
ATOM     90  F   UNL A   1      46.800  29.291  35.273  1.00  0.00    -0.200 F 
ATOM     91  C   UNL A   1      44.858  28.349  36.221  1.00  0.00     0.200 A 
ATOM     92  F   UNL A   1      42.909  27.362  37.103  1.00  0.00    -0.200 F 
ATOM     93  F   UNL A   1      45.379  28.462  37.450  1.00  0.00    -0.200 F 
ENDBRANCH  59  83
BRANCH  71  94
ATOM     94  C   UNL A   1      39.940  27.731  28.311  1.00  0.00     0.064 A 
ATOM     95  C   UNL A   1      39.638  26.370  28.203  1.00  0.00     0.173 A 
ATOM     96  C   UNL A   1      40.802  28.300  27.362  1.00  0.00     0.173 A 
ATOM     97  F   UNL A   1      38.814  25.787  29.089  1.00  0.00    -0.203 F 
ATOM     98  C   UNL A   1      40.164  25.605  27.168  1.00  0.00     0.198 A 
ATOM     99  C   UNL A   1      41.307  27.537  26.315  1.00  0.00     0.198 A 
ATOM    100  F   UNL A   1      41.143  29.597  27.432  1.00  0.00    -0.203 F 
ATOM    101  F   UNL A   1      39.858  24.303  27.076  1.00  0.00    -0.200 F 
ATOM    102  C   UNL A   1      40.987  26.191  26.218  1.00  0.00     0.200 A 
ATOM    103  F   UNL A   1      42.091  28.108  25.389  1.00  0.00    -0.200 F 
ATOM    104  F   UNL A   1      41.465  25.461  25.201  1.00  0.00    -0.200 F 
ENDBRANCH  71  94
ENDBRANCH  45  46
ENDBRANCH  37  40
ENDBRANCH  35  36
ENDBRANCH  34  35
ENDBRANCH  33  34
ENDBRANCH   1  33
TORSDOF 17
ENDMDL
