MODEL 1
REMARK VINA RESULT:     -13.4      0.000      0.000
REMARK SMILES O=C(NCCCCNC(=O)c1nccnc1C(=O)Nc1ccc2c(c1)OCO2)c1ccc(-c2c3nc(c(-c4c(F)c(F)c(F)c(F)c4F)c4ccc([nH]4)c(-c4c(F)c(F)c(F)c(F)c4F)c4nc(c(-c5c(F)c(F)c(F)c(F)c5F)c5ccc2[nH]5)C=C4)C=C3)cc1
REMARK SMILES IDX 5 1 4 2 3 3 1 4 2 5 29 7 30 8 91 9 31 10 90 11 32 12 33 13
REMARK SMILES IDX 34 14 84 15 35 16 89 17 83 18 85 19 36 20 88 21 82 22 81 23
REMARK SMILES IDX 37 25 69 26 49 27 68 28 50 29 53 30 67 31 86 32 51 33 52 34
REMARK SMILES IDX 66 36 87 37 54 38 38 39 39 40 47 41 40 42 41 43 45 44 48 45
REMARK SMILES IDX 42 46 43 47 46 48 44 49 70 50 71 51 79 52 72 53 73 54 77 55
REMARK SMILES IDX 80 56 74 57 75 58 78 59 76 60 55 61 56 62 64 63 57 64 58 65
REMARK SMILES IDX 62 66 65 67 59 68 60 69 63 70 61 71 6 72 7 73 8 74 9 75
REMARK SMILES IDX 10 77 11 78 12 79 16 80 13 81 15 82 14 83 17 84 18 85 19 86
REMARK SMILES IDX 20 88 21 89 25 90 22 91 24 92 23 93 26 94 28 95 27 96
REMARK H PARENT 3 6 85 24 53 35 8 76 19 87
REMARK Flexibility Score: inf
ROOT
ATOM      1  C   UNL A   1      31.389  32.400  26.560  1.00  0.00     0.023 C 
ENDROOT
BRANCH   1   2
ATOM      2  C   UNL A   1      32.628  33.002  27.214  1.00  0.00     0.116 C 
BRANCH   2   3
ATOM      3  N   UNL A   1      32.416  34.350  27.700  1.00  0.00    -0.352 N 
ATOM      4  O   UNL A   1      32.605  36.137  29.045  1.00  0.00    -0.269 OA
ATOM      5  C   UNL A   1      33.031  35.033  28.718  1.00  0.00     0.251 C 
ATOM      6  H   UNL A   1      31.719  34.857  27.224  1.00  0.00     0.163 HD
BRANCH   5   7
ATOM      7  C   UNL A   1      34.186  34.460  29.449  1.00  0.00     0.039 A 
ATOM      8  C   UNL A   1      34.034  33.722  30.629  1.00  0.00     0.014 A 
ATOM      9  C   UNL A   1      35.456  34.597  28.878  1.00  0.00     0.014 A 
ATOM     10  C   UNL A   1      35.156  33.196  31.276  1.00  0.00     0.010 A 
ATOM     11  C   UNL A   1      36.571  34.030  29.499  1.00  0.00     0.010 A 
ATOM     12  C   UNL A   1      36.434  33.336  30.712  1.00  0.00    -0.014 A 
BRANCH  12  13
ATOM     13  C   UNL A   1      37.628  32.723  31.346  1.00  0.00     0.031 A 
ATOM     14  C   UNL A   1      38.325  31.561  30.699  1.00  0.00     0.074 A 
ATOM     15  C   UNL A   1      38.044  33.169  32.546  1.00  0.00     0.049 A 
ATOM     16  N   UNL A   1      39.305  30.821  31.156  1.00  0.00    -0.248 NA
ATOM     17  C   UNL A   1      37.846  31.169  29.365  1.00  0.00     0.031 C 
ATOM     18  C   UNL A   1      37.443  34.278  33.286  1.00  0.00     0.029 A 
ATOM     19  N   UNL A   1      39.052  32.726  33.367  1.00  0.00    -0.354 N 
ATOM     20  C   UNL A   1      39.546  29.866  30.179  1.00  0.00     0.074 A 
ATOM     21  C   UNL A   1      38.596  30.106  29.112  1.00  0.00     0.031 C 
ATOM     22  C   UNL A   1      38.088  34.426  34.453  1.00  0.00     0.029 A 
ATOM     23  C   UNL A   1      39.115  33.395  34.563  1.00  0.00     0.049 A 
ATOM     24  H   UNL A   1      39.669  31.999  33.120  1.00  0.00     0.167 HD
ATOM     25  C   UNL A   1      40.479  28.883  30.171  1.00  0.00     0.037 A 
ATOM     26  C   UNL A   1      39.891  33.183  35.643  1.00  0.00     0.037 A 
ATOM     27  C   UNL A   1      41.429  28.653  31.229  1.00  0.00     0.049 A 
ATOM     28  C   UNL A   1      40.902  32.071  35.626  1.00  0.00     0.074 A 
ATOM     29  C   UNL A   1      42.446  27.715  31.288  1.00  0.00     0.029 A 
ATOM     30  N   UNL A   1      41.474  29.365  32.419  1.00  0.00    -0.354 N 
ATOM     31  N   UNL A   1      41.155  31.203  34.677  1.00  0.00    -0.248 NA
ATOM     32  C   UNL A   1      41.735  31.909  36.826  1.00  0.00     0.031 C 
ATOM     33  C   UNL A   1      43.076  27.828  32.533  1.00  0.00     0.029 A 
ATOM     34  C   UNL A   1      42.484  28.869  33.229  1.00  0.00     0.049 A 
ATOM     35  H   UNL A   1      40.876  30.110  32.654  1.00  0.00     0.167 HD
ATOM     36  C   UNL A   1      42.190  30.409  35.151  1.00  0.00     0.074 A 
ATOM     37  C   UNL A   1      42.521  30.900  36.473  1.00  0.00     0.031 C 
ATOM     38  C   UNL A   1      42.811  29.371  34.540  1.00  0.00     0.037 A 
BRANCH  25  39
ATOM     39  C   UNL A   1      40.502  27.962  28.986  1.00  0.00     0.064 A 
ATOM     40  C   UNL A   1      41.284  28.235  27.854  1.00  0.00     0.173 A 
ATOM     41  C   UNL A   1      39.750  26.776  28.994  1.00  0.00     0.173 A 
ATOM     42  F   UNL A   1      42.012  29.359  27.793  1.00  0.00    -0.203 F 
ATOM     43  C   UNL A   1      41.285  27.372  26.760  1.00  0.00     0.198 A 
ATOM     44  C   UNL A   1      39.776  25.903  27.911  1.00  0.00     0.198 A 
ATOM     45  F   UNL A   1      38.992  26.463  30.057  1.00  0.00    -0.203 F 
ATOM     46  F   UNL A   1      42.001  27.679  25.669  1.00  0.00    -0.200 F 
ATOM     47  C   UNL A   1      40.536  26.206  26.791  1.00  0.00     0.200 A 
ATOM     48  F   UNL A   1      39.060  24.770  27.947  1.00  0.00    -0.200 F 
ATOM     49  F   UNL A   1      40.539  25.378  25.738  1.00  0.00    -0.200 F 
ENDBRANCH  25  39
BRANCH  26  50
ATOM     50  C   UNL A   1      39.729  34.055  36.833  1.00  0.00     0.064 A 
ATOM     51  C   UNL A   1      38.906  33.673  37.900  1.00  0.00     0.173 A 
ATOM     52  C   UNL A   1      40.432  35.264  36.948  1.00  0.00     0.173 A 
ATOM     53  F   UNL A   1      38.199  32.535  37.825  1.00  0.00    -0.203 F 
ATOM     54  C   UNL A   1      38.790  34.468  39.038  1.00  0.00     0.198 A 
ATOM     55  C   UNL A   1      40.334  36.046  38.096  1.00  0.00     0.198 A 
ATOM     56  F   UNL A   1      41.237  35.669  35.954  1.00  0.00    -0.203 F 
ATOM     57  F   UNL A   1      37.978  34.091  40.035  1.00  0.00    -0.200 F 
ATOM     58  C   UNL A   1      39.511  35.648  39.139  1.00  0.00     0.200 A 
ATOM     59  F   UNL A   1      41.043  37.178  38.196  1.00  0.00    -0.200 F 
ATOM     60  F   UNL A   1      39.412  36.403  40.242  1.00  0.00    -0.200 F 
ENDBRANCH  26  50
BRANCH  38  61
ATOM     61  C   UNL A   1      43.943  28.713  35.271  1.00  0.00     0.064 A 
ATOM     62  C   UNL A   1      43.735  27.610  36.111  1.00  0.00     0.173 A 
ATOM     63  C   UNL A   1      45.260  29.153  35.076  1.00  0.00     0.173 A 
ATOM     64  F   UNL A   1      42.490  27.163  36.342  1.00  0.00    -0.203 F 
ATOM     65  C   UNL A   1      44.805  26.976  36.735  1.00  0.00     0.198 A 
ATOM     66  C   UNL A   1      46.330  28.502  35.683  1.00  0.00     0.198 A 
ATOM     67  F   UNL A   1      45.511  30.203  34.279  1.00  0.00    -0.203 F 
ATOM     68  F   UNL A   1      44.582  25.939  37.555  1.00  0.00    -0.200 F 
ATOM     69  C   UNL A   1      46.102  27.416  36.515  1.00  0.00     0.200 A 
ATOM     70  F   UNL A   1      47.583  28.923  35.460  1.00  0.00    -0.200 F 
ATOM     71  F   UNL A   1      47.132  26.795  37.105  1.00  0.00    -0.200 F 
ENDBRANCH  38  61
ENDBRANCH  12  13
ENDBRANCH   5   7
ENDBRANCH   2   3
ENDBRANCH   1   2
BRANCH   1  72
ATOM     72  C   UNL A   1      31.440  30.923  26.163  1.00  0.00     0.023 C 
BRANCH  72  73
ATOM     73  C   UNL A   1      32.797  30.223  26.167  1.00  0.00     0.116 C 
BRANCH  73  74
ATOM     74  N   UNL A   1      33.297  29.830  24.861  1.00  0.00    -0.351 N 
ATOM     75  C   UNL A   1      32.891  28.780  24.068  1.00  0.00     0.272 C 
ATOM     76  H   UNL A   1      34.020  30.387  24.495  1.00  0.00     0.163 HD
ATOM     77  O   UNL A   1      33.072  28.824  22.854  1.00  0.00    -0.267 OA
BRANCH  75  78
ATOM     78  C   UNL A   1      32.165  27.639  24.641  1.00  0.00     0.159 A 
ATOM     79  N   UNL A   1      32.715  27.188  25.815  1.00  0.00    -0.247 NA
ATOM     80  C   UNL A   1      31.001  27.103  24.095  1.00  0.00     0.159 A 
ATOM     81  C   UNL A   1      32.056  26.182  26.422  1.00  0.00     0.132 A 
ATOM     82  N   UNL A   1      30.361  26.067  24.725  1.00  0.00    -0.247 NA
ATOM     83  C   UNL A   1      30.907  25.632  25.886  1.00  0.00     0.132 A 
BRANCH  80  84
ATOM     84  C   UNL A   1      30.390  27.477  22.772  1.00  0.00     0.276 C 
ATOM     85  O   UNL A   1      30.825  26.988  21.732  1.00  0.00    -0.267 OA
ATOM     86  N   UNL A   1      29.226  28.217  22.786  1.00  0.00    -0.320 N 
ATOM     87  H   UNL A   1      28.379  27.735  22.922  1.00  0.00     0.170 HD
BRANCH  86  88
ATOM     88  C   UNL A   1      29.163  29.613  22.619  1.00  0.00     0.045 A 
ATOM     89  C   UNL A   1      29.198  30.494  23.719  1.00  0.00     0.030 A 
ATOM     90  C   UNL A   1      28.904  30.097  21.331  1.00  0.00     0.076 A 
ATOM     91  C   UNL A   1      28.868  31.844  23.558  1.00  0.00     0.053 A 
ATOM     92  C   UNL A   1      28.521  31.417  21.218  1.00  0.00     0.167 A 
ATOM     93  C   UNL A   1      28.483  32.260  22.304  1.00  0.00     0.165 A 
ATOM     94  O   UNL A   1      28.065  32.018  20.085  1.00  0.00    -0.454 OA
ATOM     95  O   UNL A   1      27.988  33.488  21.992  1.00  0.00    -0.454 OA
ATOM     96  C   UNL A   1      27.569  33.258  20.628  1.00  0.00     0.468 C 
ENDBRANCH  86  88
ENDBRANCH  80  84
ENDBRANCH  75  78
ENDBRANCH  73  74
ENDBRANCH  72  73
ENDBRANCH   1  72
TORSDOF 13
ENDMDL
MODEL 2
REMARK VINA RESULT:     -13.4      0.245      1.943
REMARK SMILES O=C(NCCCCNC(=O)c1nccnc1C(=O)Nc1ccc2c(c1)OCO2)c1ccc(-c2c3nc(c(-c4c(F)c(F)c(F)c(F)c4F)c4ccc([nH]4)c(-c4c(F)c(F)c(F)c(F)c4F)c4nc(c(-c5c(F)c(F)c(F)c(F)c5F)c5ccc2[nH]5)C=C4)C=C3)cc1
REMARK SMILES IDX 5 1 4 2 3 3 1 4 2 5 29 7 30 8 91 9 31 10 90 11 32 12 33 13
REMARK SMILES IDX 34 14 84 15 35 16 89 17 83 18 85 19 36 20 88 21 82 22 81 23
REMARK SMILES IDX 37 25 69 26 49 27 68 28 50 29 53 30 67 31 86 32 51 33 52 34
REMARK SMILES IDX 66 36 87 37 54 38 38 39 39 40 47 41 40 42 41 43 45 44 48 45
REMARK SMILES IDX 42 46 43 47 46 48 44 49 70 50 71 51 79 52 72 53 73 54 77 55
REMARK SMILES IDX 80 56 74 57 75 58 78 59 76 60 55 61 56 62 64 63 57 64 58 65
REMARK SMILES IDX 62 66 65 67 59 68 60 69 63 70 61 71 6 72 7 73 8 74 9 75
REMARK SMILES IDX 10 77 11 78 12 79 16 80 13 81 15 82 14 83 17 84 18 85 19 86
REMARK SMILES IDX 20 88 21 89 25 90 22 91 24 92 23 93 26 94 28 95 27 96
REMARK H PARENT 3 6 85 24 53 35 8 76 19 87
REMARK Flexibility Score: inf
ROOT
ATOM      1  C   UNL A   1      31.382  32.187  26.900  1.00  0.00     0.023 C 
ENDROOT
BRANCH   1   2
ATOM      2  C   UNL A   1      32.673  32.969  27.120  1.00  0.00     0.116 C 
BRANCH   2   3
ATOM      3  N   UNL A   1      32.449  34.299  27.649  1.00  0.00    -0.352 N 
ATOM      4  O   UNL A   1      32.613  36.040  29.057  1.00  0.00    -0.269 OA
ATOM      5  C   UNL A   1      33.048  34.949  28.698  1.00  0.00     0.251 C 
ATOM      6  H   UNL A   1      31.756  34.819  27.182  1.00  0.00     0.163 HD
BRANCH   5   7
ATOM      7  C   UNL A   1      34.196  34.355  29.424  1.00  0.00     0.039 A 
ATOM      8  C   UNL A   1      34.029  33.514  30.529  1.00  0.00     0.014 A 
ATOM      9  C   UNL A   1      35.481  34.586  28.918  1.00  0.00     0.014 A 
ATOM     10  C   UNL A   1      35.146  32.973  31.174  1.00  0.00     0.010 A 
ATOM     11  C   UNL A   1      36.592  34.006  29.533  1.00  0.00     0.010 A 
ATOM     12  C   UNL A   1      36.437  33.207  30.676  1.00  0.00    -0.014 A 
BRANCH  12  13
ATOM     13  C   UNL A   1      37.629  32.583  31.304  1.00  0.00     0.031 A 
ATOM     14  C   UNL A   1      38.350  31.456  30.622  1.00  0.00     0.074 A 
ATOM     15  C   UNL A   1      38.022  32.987  32.527  1.00  0.00     0.049 A 
ATOM     16  N   UNL A   1      39.332  30.711  31.065  1.00  0.00    -0.248 NA
ATOM     17  C   UNL A   1      37.896  31.112  29.267  1.00  0.00     0.031 C 
ATOM     18  C   UNL A   1      37.396  34.058  33.300  1.00  0.00     0.029 A 
ATOM     19  N   UNL A   1      39.023  32.524  33.345  1.00  0.00    -0.354 N 
ATOM     20  C   UNL A   1      39.600  29.798  30.054  1.00  0.00     0.074 A 
ATOM     21  C   UNL A   1      38.663  30.068  28.984  1.00  0.00     0.031 C 
ATOM     22  C   UNL A   1      38.021  34.168  34.482  1.00  0.00     0.029 A 
ATOM     23  C   UNL A   1      39.060  33.145  34.567  1.00  0.00     0.049 A 
ATOM     24  H   UNL A   1      39.653  31.814  33.079  1.00  0.00     0.167 HD
ATOM     25  C   UNL A   1      40.546  28.827  30.022  1.00  0.00     0.037 A 
ATOM     26  C   UNL A   1      39.823  32.900  35.650  1.00  0.00     0.037 A 
ATOM     27  C   UNL A   1      41.483  28.567  31.085  1.00  0.00     0.049 A 
ATOM     28  C   UNL A   1      40.848  31.802  35.604  1.00  0.00     0.074 A 
ATOM     29  C   UNL A   1      42.511  27.640  31.122  1.00  0.00     0.029 A 
ATOM     30  N   UNL A   1      41.501  29.231  32.302  1.00  0.00    -0.354 N 
ATOM     31  N   UNL A   1      41.126  30.975  34.626  1.00  0.00    -0.248 NA
ATOM     32  C   UNL A   1      41.665  31.602  36.809  1.00  0.00     0.031 C 
ATOM     33  C   UNL A   1      43.120  27.711  32.380  1.00  0.00     0.029 A 
ATOM     34  C   UNL A   1      42.505  28.717  33.108  1.00  0.00     0.049 A 
ATOM     35  H   UNL A   1      40.890  29.960  32.558  1.00  0.00     0.167 HD
ATOM     36  C   UNL A   1      42.163  30.175  35.084  1.00  0.00     0.074 A 
ATOM     37  C   UNL A   1      42.468  30.618  36.429  1.00  0.00     0.031 C 
ATOM     38  C   UNL A   1      42.806  29.170  34.442  1.00  0.00     0.037 A 
BRANCH  25  39
ATOM     39  C   UNL A   1      40.597  27.954  28.802  1.00  0.00     0.064 A 
ATOM     40  C   UNL A   1      39.870  26.757  28.721  1.00  0.00     0.173 A 
ATOM     41  C   UNL A   1      41.365  28.332  27.690  1.00  0.00     0.173 A 
ATOM     42  F   UNL A   1      39.128  26.347  29.760  1.00  0.00    -0.203 F 
ATOM     43  C   UNL A   1      39.936  25.955  27.584  1.00  0.00     0.198 A 
ATOM     44  C   UNL A   1      41.407  27.542  26.545  1.00  0.00     0.198 A 
ATOM     45  F   UNL A   1      42.073  29.472  27.713  1.00  0.00    -0.203 F 
ATOM     46  F   UNL A   1      39.272  24.791  27.549  1.00  0.00    -0.200 F 
ATOM     47  C   UNL A   1      40.700  26.349  26.497  1.00  0.00     0.200 A 
ATOM     48  F   UNL A   1      42.137  27.930  25.490  1.00  0.00    -0.200 F 
ATOM     49  F   UNL A   1      40.763  25.576  25.404  1.00  0.00    -0.200 F 
ENDBRANCH  25  39
BRANCH  26  50
ATOM     50  C   UNL A   1      39.632  33.723  36.871  1.00  0.00     0.064 A 
ATOM     51  C   UNL A   1      40.263  34.966  37.007  1.00  0.00     0.173 A 
ATOM     52  C   UNL A   1      38.779  33.304  37.902  1.00  0.00     0.173 A 
ATOM     53  F   UNL A   1      41.103  35.398  36.054  1.00  0.00    -0.203 F 
ATOM     54  C   UNL A   1      40.048  35.760  38.131  1.00  0.00     0.198 A 
ATOM     55  C   UNL A   1      38.546  34.110  39.014  1.00  0.00     0.198 A 
ATOM     56  F   UNL A   1      38.149  32.123  37.814  1.00  0.00    -0.203 F 
ATOM     57  F   UNL A   1      40.681  36.935  38.247  1.00  0.00    -0.200 F 
ATOM     58  C   UNL A   1      39.183  35.336  39.129  1.00  0.00     0.200 A 
ATOM     59  F   UNL A   1      37.699  33.702  39.968  1.00  0.00    -0.200 F 
ATOM     60  F   UNL A   1      38.964  36.109  40.200  1.00  0.00    -0.200 F 
ENDBRANCH  26  50
BRANCH  38  61
ATOM     61  C   UNL A   1      43.936  28.497  35.164  1.00  0.00     0.064 A 
ATOM     62  C   UNL A   1      45.249  28.984  35.094  1.00  0.00     0.173 A 
ATOM     63  C   UNL A   1      43.686  27.390  35.988  1.00  0.00     0.173 A 
ATOM     64  F   UNL A   1      45.539  30.031  34.306  1.00  0.00    -0.203 F 
ATOM     65  C   UNL A   1      46.273  28.382  35.819  1.00  0.00     0.198 A 
ATOM     66  C   UNL A   1      44.708  26.804  36.728  1.00  0.00     0.198 A 
ATOM     67  F   UNL A   1      42.446  26.889  36.090  1.00  0.00    -0.203 F 
ATOM     68  F   UNL A   1      47.526  28.846  35.717  1.00  0.00    -0.200 F 
ATOM     69  C   UNL A   1      46.002  27.298  36.641  1.00  0.00     0.200 A 
ATOM     70  F   UNL A   1      44.442  25.765  37.531  1.00  0.00    -0.200 F 
ATOM     71  F   UNL A   1      46.986  26.728  37.349  1.00  0.00    -0.200 F 
ENDBRANCH  38  61
ENDBRANCH  12  13
ENDBRANCH   5   7
ENDBRANCH   2   3
ENDBRANCH   1   2
BRANCH   1  72
ATOM     72  C   UNL A   1      31.467  30.884  26.101  1.00  0.00     0.023 C 
BRANCH  72  73
ATOM     73  C   UNL A   1      32.784  30.110  26.124  1.00  0.00     0.116 C 
BRANCH  73  74
ATOM     74  N   UNL A   1      33.286  29.703  24.824  1.00  0.00    -0.351 N 
ATOM     75  C   UNL A   1      32.870  28.656  24.032  1.00  0.00     0.272 C 
ATOM     76  H   UNL A   1      34.021  30.246  24.461  1.00  0.00     0.163 HD
ATOM     77  O   UNL A   1      33.060  28.691  22.820  1.00  0.00    -0.267 OA
BRANCH  75  78
ATOM     78  C   UNL A   1      32.120  27.530  24.605  1.00  0.00     0.159 A 
ATOM     79  N   UNL A   1      32.669  27.059  25.772  1.00  0.00    -0.247 NA
ATOM     80  C   UNL A   1      30.939  27.024  24.066  1.00  0.00     0.159 A 
ATOM     81  C   UNL A   1      31.990  26.066  26.379  1.00  0.00     0.132 A 
ATOM     82  N   UNL A   1      30.280  26.000  24.695  1.00  0.00    -0.247 NA
ATOM     83  C   UNL A   1      30.824  25.547  25.850  1.00  0.00     0.132 A 
BRANCH  80  84
ATOM     84  C   UNL A   1      30.327  27.420  22.749  1.00  0.00     0.276 C 
ATOM     85  O   UNL A   1      30.748  26.933  21.703  1.00  0.00    -0.267 OA
ATOM     86  N   UNL A   1      29.176  28.180  22.777  1.00  0.00    -0.320 N 
ATOM     87  H   UNL A   1      28.322  27.711  22.914  1.00  0.00     0.170 HD
BRANCH  86  88
ATOM     88  C   UNL A   1      29.136  29.578  22.623  1.00  0.00     0.045 A 
ATOM     89  C   UNL A   1      29.152  30.447  23.733  1.00  0.00     0.030 A 
ATOM     90  C   UNL A   1      28.918  30.078  21.333  1.00  0.00     0.076 A 
ATOM     91  C   UNL A   1      28.844  31.804  23.576  1.00  0.00     0.053 A 
ATOM     92  C   UNL A   1      28.555  31.404  21.223  1.00  0.00     0.167 A 
ATOM     93  C   UNL A   1      28.499  32.237  22.316  1.00  0.00     0.165 A 
ATOM     94  O   UNL A   1      28.138  32.022  20.084  1.00  0.00    -0.454 OA
ATOM     95  O   UNL A   1      28.028  33.474  22.003  1.00  0.00    -0.454 OA
ATOM     96  C   UNL A   1      27.644  33.263  20.626  1.00  0.00     0.468 C 
ENDBRANCH  86  88
ENDBRANCH  80  84
ENDBRANCH  75  78
ENDBRANCH  73  74
ENDBRANCH  72  73
ENDBRANCH   1  72
TORSDOF 13
ENDMDL
MODEL 3
REMARK VINA RESULT:     -13.3      4.129      6.421
REMARK SMILES O=C(NCCCCNC(=O)c1nccnc1C(=O)Nc1ccc2c(c1)OCO2)c1ccc(-c2c3nc(c(-c4c(F)c(F)c(F)c(F)c4F)c4ccc([nH]4)c(-c4c(F)c(F)c(F)c(F)c4F)c4nc(c(-c5c(F)c(F)c(F)c(F)c5F)c5ccc2[nH]5)C=C4)C=C3)cc1
REMARK SMILES IDX 5 1 4 2 3 3 1 4 2 5 29 7 30 8 91 9 31 10 90 11 32 12 33 13
REMARK SMILES IDX 34 14 84 15 35 16 89 17 83 18 85 19 36 20 88 21 82 22 81 23
REMARK SMILES IDX 37 25 69 26 49 27 68 28 50 29 53 30 67 31 86 32 51 33 52 34
REMARK SMILES IDX 66 36 87 37 54 38 38 39 39 40 47 41 40 42 41 43 45 44 48 45
REMARK SMILES IDX 42 46 43 47 46 48 44 49 70 50 71 51 79 52 72 53 73 54 77 55
REMARK SMILES IDX 80 56 74 57 75 58 78 59 76 60 55 61 56 62 64 63 57 64 58 65
REMARK SMILES IDX 62 66 65 67 59 68 60 69 63 70 61 71 6 72 7 73 8 74 9 75
REMARK SMILES IDX 10 77 11 78 12 79 16 80 13 81 15 82 14 83 17 84 18 85 19 86
REMARK SMILES IDX 20 88 21 89 25 90 22 91 24 92 23 93 26 94 28 95 27 96
REMARK H PARENT 3 6 85 24 53 35 8 76 19 87
REMARK Flexibility Score: inf
ROOT
ATOM      1  C   UNL A   1      32.914  27.692  25.307  1.00  0.00     0.023 C 
ENDROOT
BRANCH   1   2
ATOM      2  C   UNL A   1      33.573  29.035  25.010  1.00  0.00     0.116 C 
BRANCH   2   3
ATOM      3  N   UNL A   1      32.896  30.152  25.637  1.00  0.00    -0.352 N 
ATOM      4  O   UNL A   1      32.445  31.720  27.178  1.00  0.00    -0.269 OA
ATOM      5  C   UNL A   1      33.236  30.888  26.743  1.00  0.00     0.251 C 
ATOM      6  H   UNL A   1      32.058  30.426  25.199  1.00  0.00     0.163 HD
BRANCH   5   7
ATOM      7  C   UNL A   1      34.528  30.687  27.441  1.00  0.00     0.039 A 
ATOM      8  C   UNL A   1      35.447  31.726  27.628  1.00  0.00     0.014 A 
ATOM      9  C   UNL A   1      34.782  29.430  28.000  1.00  0.00     0.014 A 
ATOM     10  C   UNL A   1      36.650  31.485  28.300  1.00  0.00     0.010 A 
ATOM     11  C   UNL A   1      35.961  29.203  28.713  1.00  0.00     0.010 A 
ATOM     12  C   UNL A   1      36.913  30.224  28.857  1.00  0.00    -0.014 A 
BRANCH  12  13
ATOM     13  C   UNL A   1      38.151  29.969  29.636  1.00  0.00     0.031 A 
ATOM     14  C   UNL A   1      39.196  29.021  29.121  1.00  0.00     0.074 A 
ATOM     15  C   UNL A   1      38.303  30.539  30.846  1.00  0.00     0.049 A 
ATOM     16  N   UNL A   1      40.281  28.583  29.709  1.00  0.00    -0.248 NA
ATOM     17  C   UNL A   1      38.985  28.483  27.769  1.00  0.00     0.031 C 
ATOM     18  C   UNL A   1      37.355  31.464  31.465  1.00  0.00     0.029 A 
ATOM     19  N   UNL A   1      39.298  30.403  31.783  1.00  0.00    -0.354 N 
ATOM     20  C   UNL A   1      40.871  27.704  28.812  1.00  0.00     0.074 A 
ATOM     21  C   UNL A   1      40.012  27.654  27.647  1.00  0.00     0.031 C 
ATOM     22  C   UNL A   1      37.807  31.808  32.680  1.00  0.00     0.029 A 
ATOM     23  C   UNL A   1      39.053  31.093  32.943  1.00  0.00     0.049 A 
ATOM     24  H   UNL A   1      40.108  29.863  31.635  1.00  0.00     0.167 HD
ATOM     25  C   UNL A   1      42.026  27.007  28.946  1.00  0.00     0.037 A 
ATOM     26  C   UNL A   1      39.736  31.124  34.103  1.00  0.00     0.037 A 
ATOM     27  C   UNL A   1      42.883  27.067  30.102  1.00  0.00     0.049 A 
ATOM     28  C   UNL A   1      41.001  30.323  34.242  1.00  0.00     0.074 A 
ATOM     29  C   UNL A   1      44.099  26.438  30.308  1.00  0.00     0.029 A 
ATOM     30  N   UNL A   1      42.609  27.792  31.252  1.00  0.00    -0.354 N 
ATOM     31  N   UNL A   1      41.575  29.532  33.369  1.00  0.00    -0.248 NA
ATOM     32  C   UNL A   1      41.712  30.420  35.524  1.00  0.00     0.031 C 
ATOM     33  C   UNL A   1      44.539  26.746  31.601  1.00  0.00     0.029 A 
ATOM     34  C   UNL A   1      43.621  27.606  32.181  1.00  0.00     0.049 A 
ATOM     35  H   UNL A   1      41.814  28.356  31.389  1.00  0.00     0.167 HD
ATOM     36  C   UNL A   1      42.725  29.057  33.982  1.00  0.00     0.074 A 
ATOM     37  C   UNL A   1      42.770  29.651  35.302  1.00  0.00     0.031 C 
ATOM     38  C   UNL A   1      43.661  28.209  33.489  1.00  0.00     0.037 A 
BRANCH  25  39
ATOM     39  C   UNL A   1      42.418  26.097  27.819  1.00  0.00     0.064 A 
ATOM     40  C   UNL A   1      41.921  24.789  27.719  1.00  0.00     0.173 A 
ATOM     41  C   UNL A   1      43.284  26.548  26.810  1.00  0.00     0.173 A 
ATOM     42  F   UNL A   1      41.098  24.307  28.662  1.00  0.00    -0.203 F 
ATOM     43  C   UNL A   1      42.303  23.956  26.670  1.00  0.00     0.198 A 
ATOM     44  C   UNL A   1      43.642  25.722  25.749  1.00  0.00     0.198 A 
ATOM     45  F   UNL A   1      43.782  27.794  26.853  1.00  0.00    -0.203 F 
ATOM     46  F   UNL A   1      41.854  22.694  26.624  1.00  0.00    -0.200 F 
ATOM     47  C   UNL A   1      43.159  24.423  25.685  1.00  0.00     0.200 A 
ATOM     48  F   UNL A   1      44.460  26.179  24.791  1.00  0.00    -0.200 F 
ATOM     49  F   UNL A   1      43.525  23.620  24.677  1.00  0.00    -0.200 F 
ENDBRANCH  25  39
BRANCH  26  50
ATOM     50  C   UNL A   1      39.222  31.949  35.224  1.00  0.00     0.064 A 
ATOM     51  C   UNL A   1      38.463  31.375  36.252  1.00  0.00     0.173 A 
ATOM     52  C   UNL A   1      39.520  33.317  35.315  1.00  0.00     0.173 A 
ATOM     53  F   UNL A   1      38.137  30.075  36.197  1.00  0.00    -0.203 F 
ATOM     54  C   UNL A   1      38.020  32.139  37.330  1.00  0.00     0.198 A 
ATOM     55  C   UNL A   1      39.098  34.074  36.405  1.00  0.00     0.198 A 
ATOM     56  F   UNL A   1      40.248  33.910  34.357  1.00  0.00    -0.203 F 
ATOM     57  F   UNL A   1      37.277  31.571  38.289  1.00  0.00    -0.200 F 
ATOM     58  C   UNL A   1      38.345  33.485  37.410  1.00  0.00     0.200 A 
ATOM     59  F   UNL A   1      39.426  35.370  36.485  1.00  0.00    -0.200 F 
ATOM     60  F   UNL A   1      37.934  34.214  38.456  1.00  0.00    -0.200 F 
ENDBRANCH  26  50
BRANCH  38  61
ATOM     61  C   UNL A   1      44.841  27.897  34.361  1.00  0.00     0.064 A 
ATOM     62  C   UNL A   1      44.846  26.794  35.226  1.00  0.00     0.173 A 
ATOM     63  C   UNL A   1      46.005  28.675  34.278  1.00  0.00     0.173 A 
ATOM     64  F   UNL A   1      43.749  26.030  35.352  1.00  0.00    -0.203 F 
ATOM     65  C   UNL A   1      45.972  26.486  35.983  1.00  0.00     0.198 A 
ATOM     66  C   UNL A   1      47.137  28.351  35.020  1.00  0.00     0.198 A 
ATOM     67  F   UNL A   1      46.050  29.739  33.462  1.00  0.00    -0.203 F 
ATOM     68  F   UNL A   1      45.947  25.443  36.825  1.00  0.00    -0.200 F 
ATOM     69  C   UNL A   1      47.119  27.258  35.874  1.00  0.00     0.200 A 
ATOM     70  F   UNL A   1      48.248  29.092  34.904  1.00  0.00    -0.200 F 
ATOM     71  F   UNL A   1      48.207  26.952  36.593  1.00  0.00    -0.200 F 
ENDBRANCH  38  61
ENDBRANCH  12  13
ENDBRANCH   5   7
ENDBRANCH   2   3
ENDBRANCH   1   2
BRANCH   1  72
ATOM     72  C   UNL A   1      33.497  26.449  24.632  1.00  0.00     0.023 C 
BRANCH  72  73
ATOM     73  C   UNL A   1      32.600  25.221  24.485  1.00  0.00     0.116 C 
BRANCH  73  74
ATOM     74  N   UNL A   1      32.635  24.579  23.183  1.00  0.00    -0.351 N 
ATOM     75  C   UNL A   1      33.321  23.448  22.803  1.00  0.00     0.272 C 
ATOM     76  H   UNL A   1      32.098  25.009  22.481  1.00  0.00     0.163 HD
ATOM     77  O   UNL A   1      32.930  22.787  21.845  1.00  0.00    -0.267 OA
BRANCH  75  78
ATOM     78  C   UNL A   1      34.471  22.967  23.581  1.00  0.00     0.159 A 
ATOM     79  N   UNL A   1      35.624  23.666  23.321  1.00  0.00    -0.247 NA
ATOM     80  C   UNL A   1      34.399  21.951  24.531  1.00  0.00     0.159 A 
ATOM     81  C   UNL A   1      36.700  23.311  24.051  1.00  0.00     0.132 A 
ATOM     82  N   UNL A   1      35.515  21.599  25.246  1.00  0.00    -0.247 NA
ATOM     83  C   UNL A   1      36.646  22.299  24.989  1.00  0.00     0.132 A 
BRANCH  80  84
ATOM     84  C   UNL A   1      33.204  21.079  24.806  1.00  0.00     0.276 C 
ATOM     85  O   UNL A   1      32.277  21.504  25.491  1.00  0.00    -0.267 OA
ATOM     86  N   UNL A   1      33.103  19.889  24.116  1.00  0.00    -0.320 N 
ATOM     87  H   UNL A   1      32.738  19.920  23.202  1.00  0.00     0.170 HD
BRANCH  86  88
ATOM     88  C   UNL A   1      33.483  18.634  24.625  1.00  0.00     0.045 A 
ATOM     89  C   UNL A   1      34.730  18.054  24.315  1.00  0.00     0.030 A 
ATOM     90  C   UNL A   1      32.515  17.902  25.323  1.00  0.00     0.076 A 
ATOM     91  C   UNL A   1      34.978  16.708  24.605  1.00  0.00     0.053 A 
ATOM     92  C   UNL A   1      32.767  16.563  25.536  1.00  0.00     0.167 A 
ATOM     93  C   UNL A   1      33.956  15.978  25.168  1.00  0.00     0.165 A 
ATOM     94  O   UNL A   1      31.883  15.658  26.037  1.00  0.00    -0.454 OA
ATOM     95  O   UNL A   1      33.962  14.634  25.378  1.00  0.00    -0.454 OA
ATOM     96  C   UNL A   1      32.585  14.428  25.765  1.00  0.00     0.468 C 
ENDBRANCH  86  88
ENDBRANCH  80  84
ENDBRANCH  75  78
ENDBRANCH  73  74
ENDBRANCH  72  73
ENDBRANCH   1  72
TORSDOF 13
ENDMDL
