MODEL 1
REMARK VINA RESULT:     -12.8      0.000      0.000
REMARK SMILES Cc1ccc(Cl)c(Nc2ccccc2C(=O)NCC(=O)NCCCCNC(=O)c2ccc(-c3c4nc(c(-c5c(F)c(F)c(F)c(F)c5F)c5ccc([nH]5)c(-c5c(F)c(F)c(F)c(F)c5F)c5nc(c(-c6c(F)c(F)c(F)c(F)c6F)c6ccc3[nH]6)C=C5)C=C4)cc2)c1Cl
REMARK SMILES IDX 22 1 21 2 19 3 20 4 18 6 17 7 15 8 16 9 14 11 9 12 10 13
REMARK SMILES IDX 11 14 13 15 12 16 8 17 7 19 1 20 2 21 3 22 92 23 4 24 93 25
REMARK SMILES IDX 5 26 6 27 23 28 24 29 25 30 26 31 27 32 28 34 29 35 30 36
REMARK SMILES IDX 91 37 31 38 90 39 32 40 33 41 34 42 84 43 35 44 89 45 83 46
REMARK SMILES IDX 85 47 36 48 88 49 82 50 81 51 37 53 69 54 49 55 68 56 50 57
REMARK SMILES IDX 53 58 67 59 86 60 51 61 52 62 66 64 87 65 54 66 38 67 39 68
REMARK SMILES IDX 47 69 40 70 41 71 45 72 48 73 42 74 43 75 46 76 44 77 70 78
REMARK SMILES IDX 71 79 79 80 72 81 73 82 77 83 80 84 74 85 75 86 78 87 76 88
REMARK SMILES IDX 55 89 56 90 64 91 57 92 58 93 62 94 65 95 59 96 60 97 63 98
REMARK SMILES IDX 61 99
REMARK H PARENT 21 5 17 10 8 18 26 33 85 52 53 63
REMARK Flexibility Score: inf
ROOT
ATOM      1  C   UNL A   1      33.217  30.265  26.596  1.00  0.00     0.116 C 
ENDROOT
BRANCH   1   2
ATOM      2  N   UNL A   1      33.651  29.156  25.785  1.00  0.00    -0.355 N 
ATOM      3  C   UNL A   1      33.521  27.834  26.087  1.00  0.00     0.239 C 
ATOM      4  O   UNL A   1      34.089  27.010  25.368  1.00  0.00    -0.273 OA
ATOM      5  H   UNL A   1      34.085  29.375  24.929  1.00  0.00     0.163 HD
BRANCH   3   6
ATOM      6  C   UNL A   1      32.466  27.408  27.106  1.00  0.00     0.216 C 
BRANCH   6   7
ATOM      7  N   UNL A   1      31.204  26.782  26.777  1.00  0.00    -0.343 N 
ATOM      8  C   UNL A   1      30.884  25.557  26.239  1.00  0.00     0.253 C 
ATOM      9  O   UNL A   1      29.742  25.163  26.501  1.00  0.00    -0.269 OA
ATOM     10  H   UNL A   1      30.420  27.342  26.979  1.00  0.00     0.164 HD
BRANCH   8  11
ATOM     11  C   UNL A   1      31.681  24.776  25.223  1.00  0.00     0.063 A 
ATOM     12  C   UNL A   1      31.632  24.747  23.809  1.00  0.00     0.051 A 
ATOM     13  C   UNL A   1      32.453  23.804  23.132  1.00  0.00     0.027 A 
ATOM     14  C   UNL A   1      33.350  22.969  23.794  1.00  0.00     0.002 A 
ATOM     15  C   UNL A   1      32.620  23.920  25.867  1.00  0.00     0.016 A 
ATOM     16  C   UNL A   1      33.452  23.044  25.169  1.00  0.00     0.001 A 
BRANCH  12  17
ATOM     17  N   UNL A   1      30.969  25.632  22.931  1.00  0.00    -0.352 N 
ATOM     18  H   UNL A   1      30.696  25.207  22.087  1.00  0.00     0.167 HD
BRANCH  17  19
ATOM     19  C   UNL A   1      30.615  27.002  23.005  1.00  0.00     0.077 A 
ATOM     20  C   UNL A   1      27.523  29.255  23.009  1.00  0.00     0.046 C 
ATOM     21  C   UNL A   1      28.950  28.791  22.915  1.00  0.00    -0.030 A 
ATOM     22  C   UNL A   1      29.934  29.681  22.458  1.00  0.00     0.006 A 
ATOM     23  C   UNL A   1      29.306  27.465  23.231  1.00  0.00     0.069 A 
ATOM     24  C   UNL A   1      31.261  29.277  22.355  1.00  0.00     0.023 A 
ATOM     25  Cl  UNL A   1      28.132  26.445  24.008  1.00  0.00    -0.082 Cl
ATOM     26  C   UNL A   1      31.598  27.956  22.638  1.00  0.00     0.066 A 
ATOM     27  Cl  UNL A   1      33.248  27.474  22.388  1.00  0.00    -0.082 Cl
ENDBRANCH  17  19
ENDBRANCH  12  17
ENDBRANCH   8  11
ENDBRANCH   6   7
ENDBRANCH   3   6
ENDBRANCH   1   2
BRANCH   1  28
ATOM     28  C   UNL A   1      31.860  30.759  26.107  1.00  0.00     0.023 C 
BRANCH  28  29
ATOM     29  C   UNL A   1      31.472  32.105  26.719  1.00  0.00     0.023 C 
BRANCH  29  30
ATOM     30  C   UNL A   1      32.629  32.833  27.386  1.00  0.00     0.116 C 
BRANCH  30  31
ATOM     31  N   UNL A   1      32.336  34.236  27.612  1.00  0.00    -0.352 N 
ATOM     32  C   UNL A   1      32.912  35.081  28.534  1.00  0.00     0.251 C 
ATOM     33  H   UNL A   1      31.641  34.631  27.038  1.00  0.00     0.163 HD
ATOM     34  O   UNL A   1      32.461  36.195  28.740  1.00  0.00    -0.269 OA
BRANCH  32  35
ATOM     35  C   UNL A   1      34.075  34.586  29.289  1.00  0.00     0.039 A 
ATOM     36  C   UNL A   1      33.868  33.996  30.535  1.00  0.00     0.014 A 
ATOM     37  C   UNL A   1      35.353  34.647  28.726  1.00  0.00     0.014 A 
ATOM     38  C   UNL A   1      34.946  33.415  31.202  1.00  0.00     0.010 A 
ATOM     39  C   UNL A   1      36.410  34.004  29.357  1.00  0.00     0.010 A 
ATOM     40  C   UNL A   1      36.217  33.388  30.603  1.00  0.00    -0.014 A 
BRANCH  40  41
ATOM     41  C   UNL A   1      37.364  32.730  31.274  1.00  0.00     0.031 A 
ATOM     42  C   UNL A   1      38.044  31.562  30.613  1.00  0.00     0.074 A 
ATOM     43  C   UNL A   1      37.746  33.140  32.499  1.00  0.00     0.049 A 
ATOM     44  N   UNL A   1      39.017  30.811  31.062  1.00  0.00    -0.248 NA
ATOM     45  C   UNL A   1      37.546  31.167  29.286  1.00  0.00     0.031 C 
ATOM     46  C   UNL A   1      37.127  34.226  33.261  1.00  0.00     0.029 A 
ATOM     47  N   UNL A   1      38.743  32.684  33.324  1.00  0.00    -0.354 N 
ATOM     48  C   UNL A   1      39.229  29.847  30.086  1.00  0.00     0.074 A 
ATOM     49  C   UNL A   1      38.257  30.076  29.041  1.00  0.00     0.031 C 
ATOM     50  C   UNL A   1      37.769  34.366  34.432  1.00  0.00     0.029 A 
ATOM     51  C   UNL A   1      38.820  33.357  34.520  1.00  0.00     0.049 A 
ATOM     52  H   UNL A   1      39.346  31.945  33.083  1.00  0.00     0.167 HD
ATOM     53  C   UNL A   1      40.167  28.873  30.057  1.00  0.00     0.037 A 
ATOM     54  C   UNL A   1      39.642  33.171  35.571  1.00  0.00     0.037 A 
ATOM     55  C   UNL A   1      41.164  28.681  31.077  1.00  0.00     0.049 A 
ATOM     56  C   UNL A   1      40.684  32.085  35.499  1.00  0.00     0.074 A 
ATOM     57  C   UNL A   1      42.214  27.781  31.095  1.00  0.00     0.029 A 
ATOM     58  N   UNL A   1      41.231  29.402  32.258  1.00  0.00    -0.354 N 
ATOM     59  N   UNL A   1      40.936  31.241  34.528  1.00  0.00    -0.248 NA
ATOM     60  C   UNL A   1      41.561  31.931  36.668  1.00  0.00     0.031 C 
ATOM     61  C   UNL A   1      42.887  27.922  32.312  1.00  0.00     0.029 A 
ATOM     62  C   UNL A   1      42.290  28.947  33.027  1.00  0.00     0.049 A 
ATOM     63  H   UNL A   1      40.617  30.128  32.515  1.00  0.00     0.167 HD
ATOM     64  C   UNL A   1      42.020  30.485  34.953  1.00  0.00     0.074 A 
ATOM     65  C   UNL A   1      42.388  30.979  36.263  1.00  0.00     0.031 C 
ATOM     66  C   UNL A   1      42.654  29.469  34.318  1.00  0.00     0.037 A 
BRANCH  53  67
ATOM     67  C   UNL A   1      40.177  27.937  28.885  1.00  0.00     0.064 A 
ATOM     68  C   UNL A   1      40.894  28.229  27.715  1.00  0.00     0.173 A 
ATOM     69  C   UNL A   1      39.525  26.697  28.963  1.00  0.00     0.173 A 
ATOM     70  F   UNL A   1      41.524  29.406  27.584  1.00  0.00    -0.203 F 
ATOM     71  C   UNL A   1      40.948  27.319  26.663  1.00  0.00     0.198 A 
ATOM     72  C   UNL A   1      39.604  25.778  27.921  1.00  0.00     0.198 A 
ATOM     73  F   UNL A   1      38.827  26.369  30.062  1.00  0.00    -0.203 F 
ATOM     74  F   UNL A   1      41.612  27.632  25.542  1.00  0.00    -0.200 F 
ATOM     75  C   UNL A   1      40.312  26.091  26.771  1.00  0.00     0.200 A 
ATOM     76  F   UNL A   1      39.001  24.586  28.034  1.00  0.00    -0.200 F 
ATOM     77  F   UNL A   1      40.382  25.208  25.766  1.00  0.00    -0.200 F 
ENDBRANCH  53  67
BRANCH  54  78
ATOM     78  C   UNL A   1      39.533  34.033  36.779  1.00  0.00     0.064 A 
ATOM     79  C   UNL A   1      40.221  35.251  36.859  1.00  0.00     0.173 A 
ATOM     80  C   UNL A   1      38.781  33.634  37.894  1.00  0.00     0.173 A 
ATOM     81  F   UNL A   1      40.970  35.667  35.828  1.00  0.00    -0.203 F 
ATOM     82  C   UNL A   1      40.196  36.018  38.023  1.00  0.00     0.198 A 
ATOM     83  C   UNL A   1      38.729  34.419  39.044  1.00  0.00     0.198 A 
ATOM     84  F   UNL A   1      38.098  32.480  37.867  1.00  0.00    -0.203 F 
ATOM     85  F   UNL A   1      40.920  37.144  38.096  1.00  0.00    -0.200 F 
ATOM     86  C   UNL A   1      39.448  35.602  39.114  1.00  0.00     0.200 A 
ATOM     87  F   UNL A   1      37.994  34.020  40.091  1.00  0.00    -0.200 F 
ATOM     88  F   UNL A   1      39.431  36.335  40.236  1.00  0.00    -0.200 F 
ENDBRANCH  54  78
BRANCH  66  89
ATOM     89  C   UNL A   1      43.840  28.859  35.005  1.00  0.00     0.064 A 
ATOM     90  C   UNL A   1      43.710  27.756  35.862  1.00  0.00     0.173 A 
ATOM     91  C   UNL A   1      45.130  29.360  34.767  1.00  0.00     0.173 A 
ATOM     92  F   UNL A   1      42.498  27.250  36.132  1.00  0.00    -0.203 F 
ATOM     93  C   UNL A   1      44.826  27.195  36.478  1.00  0.00     0.198 A 
ATOM     94  C   UNL A   1      46.246  28.775  35.359  1.00  0.00     0.198 A 
ATOM     95  F   UNL A   1      45.309  30.407  33.949  1.00  0.00    -0.203 F 
ATOM     96  F   UNL A   1      44.674  26.174  37.333  1.00  0.00    -0.200 F 
ATOM     97  C   UNL A   1      46.092  27.699  36.220  1.00  0.00     0.200 A 
ATOM     98  F   UNL A   1      47.469  29.254  35.096  1.00  0.00    -0.200 F 
ATOM     99  F   UNL A   1      47.165  27.152  36.807  1.00  0.00    -0.200 F 
ENDBRANCH  66  89
ENDBRANCH  40  41
ENDBRANCH  32  35
ENDBRANCH  30  31
ENDBRANCH  29  30
ENDBRANCH  28  29
ENDBRANCH   1  28
TORSDOF 15
ENDMDL
MODEL 2
REMARK VINA RESULT:     -12.8      0.550      7.165
REMARK SMILES Cc1ccc(Cl)c(Nc2ccccc2C(=O)NCC(=O)NCCCCNC(=O)c2ccc(-c3c4nc(c(-c5c(F)c(F)c(F)c(F)c5F)c5ccc([nH]5)c(-c5c(F)c(F)c(F)c(F)c5F)c5nc(c(-c6c(F)c(F)c(F)c(F)c6F)c6ccc3[nH]6)C=C5)C=C4)cc2)c1Cl
REMARK SMILES IDX 22 1 21 2 19 3 20 4 18 6 17 7 15 8 16 9 14 11 9 12 10 13
REMARK SMILES IDX 11 14 13 15 12 16 8 17 7 19 1 20 2 21 3 22 92 23 4 24 93 25
REMARK SMILES IDX 5 26 6 27 23 28 24 29 25 30 26 31 27 32 28 34 29 35 30 36
REMARK SMILES IDX 91 37 31 38 90 39 32 40 33 41 34 42 84 43 35 44 89 45 83 46
REMARK SMILES IDX 85 47 36 48 88 49 82 50 81 51 37 53 69 54 49 55 68 56 50 57
REMARK SMILES IDX 53 58 67 59 86 60 51 61 52 62 66 64 87 65 54 66 38 67 39 68
REMARK SMILES IDX 47 69 40 70 41 71 45 72 48 73 42 74 43 75 46 76 44 77 70 78
REMARK SMILES IDX 71 79 79 80 72 81 73 82 77 83 80 84 74 85 75 86 78 87 76 88
REMARK SMILES IDX 55 89 56 90 64 91 57 92 58 93 62 94 65 95 59 96 60 97 63 98
REMARK SMILES IDX 61 99
REMARK H PARENT 21 5 17 10 8 18 26 33 85 52 53 63
REMARK Flexibility Score: inf
ROOT
ATOM      1  C   UNL A   1      33.074  30.251  26.669  1.00  0.00     0.116 C 
ENDROOT
BRANCH   1   2
ATOM      2  N   UNL A   1      33.507  29.184  25.802  1.00  0.00    -0.355 N 
ATOM      3  C   UNL A   1      33.420  27.849  26.058  1.00  0.00     0.239 C 
ATOM      4  O   UNL A   1      33.984  27.068  25.289  1.00  0.00    -0.273 OA
ATOM      5  H   UNL A   1      33.906  29.447  24.941  1.00  0.00     0.163 HD
BRANCH   3   6
ATOM      6  C   UNL A   1      32.412  27.359  27.095  1.00  0.00     0.216 C 
BRANCH   6   7
ATOM      7  N   UNL A   1      31.180  26.666  26.786  1.00  0.00    -0.343 N 
ATOM      8  C   UNL A   1      30.917  25.432  26.239  1.00  0.00     0.253 C 
ATOM      9  O   UNL A   1      29.805  24.971  26.522  1.00  0.00    -0.269 OA
ATOM     10  H   UNL A   1      30.370  27.178  27.014  1.00  0.00     0.164 HD
BRANCH   8  11
ATOM     11  C   UNL A   1      31.732  24.710  25.193  1.00  0.00     0.063 A 
ATOM     12  C   UNL A   1      31.662  24.712  23.780  1.00  0.00     0.051 A 
ATOM     13  C   UNL A   1      32.514  23.821  23.070  1.00  0.00     0.027 A 
ATOM     14  C   UNL A   1      33.456  23.012  23.700  1.00  0.00     0.002 A 
ATOM     15  C   UNL A   1      32.716  23.882  25.804  1.00  0.00     0.016 A 
ATOM     16  C   UNL A   1      33.575  23.059  25.075  1.00  0.00     0.001 A 
BRANCH  12  17
ATOM     17  N   UNL A   1      30.949  25.586  22.933  1.00  0.00    -0.352 N 
ATOM     18  H   UNL A   1      30.606  25.145  22.122  1.00  0.00     0.167 HD
BRANCH  17  19
ATOM     19  C   UNL A   1      30.623  26.964  22.999  1.00  0.00     0.077 A 
ATOM     20  C   UNL A   1      27.575  29.276  23.033  1.00  0.00     0.046 C 
ATOM     21  C   UNL A   1      28.991  28.783  22.919  1.00  0.00    -0.030 A 
ATOM     22  C   UNL A   1      29.982  29.650  22.435  1.00  0.00     0.006 A 
ATOM     23  C   UNL A   1      29.327  27.454  23.242  1.00  0.00     0.069 A 
ATOM     24  C   UNL A   1      31.300  29.219  22.313  1.00  0.00     0.023 A 
ATOM     25  Cl  UNL A   1      28.147  26.465  24.051  1.00  0.00    -0.082 Cl
ATOM     26  C   UNL A   1      31.617  27.895  22.603  1.00  0.00     0.066 A 
ATOM     27  Cl  UNL A   1      33.253  27.379  22.329  1.00  0.00    -0.082 Cl
ENDBRANCH  17  19
ENDBRANCH  12  17
ENDBRANCH   8  11
ENDBRANCH   6   7
ENDBRANCH   3   6
ENDBRANCH   1   2
BRANCH   1  28
ATOM     28  C   UNL A   1      31.735  30.795  26.185  1.00  0.00     0.023 C 
BRANCH  28  29
ATOM     29  C   UNL A   1      31.489  32.235  26.636  1.00  0.00     0.023 C 
BRANCH  29  30
ATOM     30  C   UNL A   1      32.684  32.872  27.328  1.00  0.00     0.116 C 
BRANCH  30  31
ATOM     31  N   UNL A   1      32.439  34.261  27.674  1.00  0.00    -0.352 N 
ATOM     32  C   UNL A   1      33.037  35.001  28.669  1.00  0.00     0.251 C 
ATOM     33  H   UNL A   1      31.764  34.729  27.132  1.00  0.00     0.163 HD
ATOM     34  O   UNL A   1      32.625  36.109  28.968  1.00  0.00    -0.269 OA
BRANCH  32  35
ATOM     35  C   UNL A   1      34.175  34.400  29.385  1.00  0.00     0.039 A 
ATOM     36  C   UNL A   1      33.921  33.542  30.454  1.00  0.00     0.014 A 
ATOM     37  C   UNL A   1      35.481  34.636  28.947  1.00  0.00     0.014 A 
ATOM     38  C   UNL A   1      34.984  32.874  31.059  1.00  0.00     0.010 A 
ATOM     39  C   UNL A   1      36.530  33.914  29.502  1.00  0.00     0.010 A 
ATOM     40  C   UNL A   1      36.291  33.031  30.567  1.00  0.00    -0.014 A 
BRANCH  40  41
ATOM     41  C   UNL A   1      37.428  32.289  31.164  1.00  0.00     0.031 A 
ATOM     42  C   UNL A   1      37.920  32.657  32.536  1.00  0.00     0.074 A 
ATOM     43  C   UNL A   1      38.053  31.336  30.446  1.00  0.00     0.049 A 
ATOM     44  N   UNL A   1      38.936  32.177  33.206  1.00  0.00    -0.248 NA
ATOM     45  C   UNL A   1      37.192  33.726  33.239  1.00  0.00     0.031 C 
ATOM     46  C   UNL A   1      37.700  30.931  29.084  1.00  0.00     0.029 A 
ATOM     47  N   UNL A   1      39.126  30.540  30.759  1.00  0.00    -0.354 N 
ATOM     48  C   UNL A   1      38.982  32.898  34.391  1.00  0.00     0.074 A 
ATOM     49  C   UNL A   1      37.922  33.879  34.335  1.00  0.00     0.031 C 
ATOM     50  C   UNL A   1      38.527  29.950  28.686  1.00  0.00     0.029 A 
ATOM     51  C   UNL A   1      39.490  29.682  29.749  1.00  0.00     0.049 A 
ATOM     52  H   UNL A   1      39.591  30.580  31.625  1.00  0.00     0.167 HD
ATOM     53  C   UNL A   1      39.820  32.739  35.440  1.00  0.00     0.037 A 
ATOM     54  C   UNL A   1      40.496  28.789  29.688  1.00  0.00     0.037 A 
ATOM     55  C   UNL A   1      40.842  31.728  35.511  1.00  0.00     0.049 A 
ATOM     56  C   UNL A   1      41.403  28.628  30.880  1.00  0.00     0.074 A 
ATOM     57  C   UNL A   1      41.681  31.426  36.568  1.00  0.00     0.029 A 
ATOM     58  N   UNL A   1      41.160  30.857  34.482  1.00  0.00    -0.354 N 
ATOM     59  N   UNL A   1      41.375  29.251  32.033  1.00  0.00    -0.248 NA
ATOM     60  C   UNL A   1      42.479  27.633  30.764  1.00  0.00     0.031 C 
ATOM     61  C   UNL A   1      42.544  30.405  36.160  1.00  0.00     0.029 A 
ATOM     62  C   UNL A   1      42.205  30.034  34.870  1.00  0.00     0.049 A 
ATOM     63  H   UNL A   1      40.713  30.827  33.606  1.00  0.00     0.167 HD
ATOM     64  C   UNL A   1      42.400  28.699  32.790  1.00  0.00     0.074 A 
ATOM     65  C   UNL A   1      43.022  27.680  31.972  1.00  0.00     0.031 C 
ATOM     66  C   UNL A   1      42.795  29.009  34.049  1.00  0.00     0.037 A 
BRANCH  53  67
ATOM     67  C   UNL A   1      39.673  33.668  36.609  1.00  0.00     0.064 A 
ATOM     68  C   UNL A   1      40.290  34.927  36.632  1.00  0.00     0.173 A 
ATOM     69  C   UNL A   1      38.839  33.324  37.684  1.00  0.00     0.173 A 
ATOM     70  F   UNL A   1      41.106  35.299  35.634  1.00  0.00    -0.203 F 
ATOM     71  C   UNL A   1      40.087  35.804  37.695  1.00  0.00     0.198 A 
ATOM     72  C   UNL A   1      38.617  34.214  38.731  1.00  0.00     0.198 A 
ATOM     73  F   UNL A   1      38.224  32.132  37.709  1.00  0.00    -0.203 F 
ATOM     74  F   UNL A   1      40.712  36.989  37.711  1.00  0.00    -0.200 F 
ATOM     75  C   UNL A   1      39.243  35.451  38.737  1.00  0.00     0.200 A 
ATOM     76  F   UNL A   1      37.789  33.877  39.730  1.00  0.00    -0.200 F 
ATOM     77  F   UNL A   1      39.032  36.304  39.748  1.00  0.00    -0.200 F 
ENDBRANCH  53  67
BRANCH  54  78
ATOM     78  C   UNL A   1      40.702  27.963  28.467  1.00  0.00     0.064 A 
ATOM     79  C   UNL A   1      41.474  28.438  27.398  1.00  0.00     0.173 A 
ATOM     80  C   UNL A   1      40.092  26.708  28.324  1.00  0.00     0.173 A 
ATOM     81  F   UNL A   1      42.061  29.641  27.477  1.00  0.00    -0.203 F 
ATOM     82  C   UNL A   1      41.595  27.709  26.216  1.00  0.00     0.198 A 
ATOM     83  C   UNL A   1      40.242  25.966  27.154  1.00  0.00     0.198 A 
ATOM     84  F   UNL A   1      39.348  26.205  29.319  1.00  0.00    -0.203 F 
ATOM     85  F   UNL A   1      42.282  28.219  25.184  1.00  0.00    -0.200 F 
ATOM     86  C   UNL A   1      40.981  26.472  26.096  1.00  0.00     0.200 A 
ATOM     87  F   UNL A   1      39.658  24.764  27.048  1.00  0.00    -0.200 F 
ATOM     88  F   UNL A   1      41.089  25.775  24.956  1.00  0.00    -0.200 F 
ENDBRANCH  54  78
BRANCH  66  89
ATOM     89  C   UNL A   1      43.916  28.205  34.638  1.00  0.00     0.064 A 
ATOM     90  C   UNL A   1      45.249  28.632  34.561  1.00  0.00     0.173 A 
ATOM     91  C   UNL A   1      43.645  27.012  35.327  1.00  0.00     0.173 A 
ATOM     92  F   UNL A   1      45.562  29.757  33.902  1.00  0.00    -0.203 F 
ATOM     93  C   UNL A   1      46.274  27.878  35.128  1.00  0.00     0.198 A 
ATOM     94  C   UNL A   1      44.668  26.279  35.921  1.00  0.00     0.198 A 
ATOM     95  F   UNL A   1      42.385  26.565  35.436  1.00  0.00    -0.203 F 
ATOM     96  F   UNL A   1      47.547  28.278  34.999  1.00  0.00    -0.200 F 
ATOM     97  C   UNL A   1      45.982  26.708  35.814  1.00  0.00     0.200 A 
ATOM     98  F   UNL A   1      44.382  25.158  36.596  1.00  0.00    -0.200 F 
ATOM     99  F   UNL A   1      46.969  25.990  36.366  1.00  0.00    -0.200 F 
ENDBRANCH  66  89
ENDBRANCH  40  41
ENDBRANCH  32  35
ENDBRANCH  30  31
ENDBRANCH  29  30
ENDBRANCH  28  29
ENDBRANCH   1  28
TORSDOF 15
ENDMDL
MODEL 3
REMARK VINA RESULT:     -12.7      1.936      7.946
REMARK SMILES Cc1ccc(Cl)c(Nc2ccccc2C(=O)NCC(=O)NCCCCNC(=O)c2ccc(-c3c4nc(c(-c5c(F)c(F)c(F)c(F)c5F)c5ccc([nH]5)c(-c5c(F)c(F)c(F)c(F)c5F)c5nc(c(-c6c(F)c(F)c(F)c(F)c6F)c6ccc3[nH]6)C=C5)C=C4)cc2)c1Cl
REMARK SMILES IDX 22 1 21 2 19 3 20 4 18 6 17 7 15 8 16 9 14 11 9 12 10 13
REMARK SMILES IDX 11 14 13 15 12 16 8 17 7 19 1 20 2 21 3 22 92 23 4 24 93 25
REMARK SMILES IDX 5 26 6 27 23 28 24 29 25 30 26 31 27 32 28 34 29 35 30 36
REMARK SMILES IDX 91 37 31 38 90 39 32 40 33 41 34 42 84 43 35 44 89 45 83 46
REMARK SMILES IDX 85 47 36 48 88 49 82 50 81 51 37 53 69 54 49 55 68 56 50 57
REMARK SMILES IDX 53 58 67 59 86 60 51 61 52 62 66 64 87 65 54 66 38 67 39 68
REMARK SMILES IDX 47 69 40 70 41 71 45 72 48 73 42 74 43 75 46 76 44 77 70 78
REMARK SMILES IDX 71 79 79 80 72 81 73 82 77 83 80 84 74 85 75 86 78 87 76 88
REMARK SMILES IDX 55 89 56 90 64 91 57 92 58 93 62 94 65 95 59 96 60 97 63 98
REMARK SMILES IDX 61 99
REMARK H PARENT 21 5 17 10 8 18 26 33 85 52 53 63
REMARK Flexibility Score: inf
ROOT
ATOM      1  C   UNL A   1      35.152  33.167  27.984  1.00  0.00     0.116 C 
ENDROOT
BRANCH   1   2
ATOM      2  N   UNL A   1      35.673  31.828  28.098  1.00  0.00    -0.355 N 
ATOM      3  C   UNL A   1      34.960  30.672  27.987  1.00  0.00     0.239 C 
ATOM      4  O   UNL A   1      35.518  29.610  28.271  1.00  0.00    -0.273 OA
ATOM      5  H   UNL A   1      36.637  31.740  28.273  1.00  0.00     0.163 HD
BRANCH   3   6
ATOM      6  C   UNL A   1      33.620  30.696  27.256  1.00  0.00     0.216 C 
BRANCH   6   7
ATOM      7  N   UNL A   1      32.531  29.773  27.495  1.00  0.00    -0.343 N 
ATOM      8  C   UNL A   1      32.281  28.493  27.059  1.00  0.00     0.253 C 
ATOM      9  O   UNL A   1      31.522  27.841  27.785  1.00  0.00    -0.269 OA
ATOM     10  H   UNL A   1      31.831  30.132  28.089  1.00  0.00     0.164 HD
BRANCH   8  11
ATOM     11  C   UNL A   1      32.656  27.901  25.722  1.00  0.00     0.063 A 
ATOM     12  C   UNL A   1      33.200  26.643  25.369  1.00  0.00     0.051 A 
ATOM     13  C   UNL A   1      33.553  26.427  24.008  1.00  0.00     0.027 A 
ATOM     14  C   UNL A   1      33.317  27.367  23.007  1.00  0.00     0.002 A 
ATOM     15  C   UNL A   1      32.414  28.832  24.672  1.00  0.00     0.016 A 
ATOM     16  C   UNL A   1      32.722  28.568  23.337  1.00  0.00     0.001 A 
BRANCH  12  17
ATOM     17  N   UNL A   1      33.327  25.483  26.162  1.00  0.00    -0.352 N 
ATOM     18  H   UNL A   1      33.737  25.657  27.040  1.00  0.00     0.167 HD
BRANCH  17  19
ATOM     19  C   UNL A   1      32.991  24.120  25.965  1.00  0.00     0.077 A 
ATOM     20  C   UNL A   1      34.544  20.846  24.739  1.00  0.00     0.046 C 
ATOM     21  C   UNL A   1      33.532  21.878  25.152  1.00  0.00    -0.030 A 
ATOM     22  C   UNL A   1      32.169  21.632  24.929  1.00  0.00     0.006 A 
ATOM     23  C   UNL A   1      33.933  23.107  25.713  1.00  0.00     0.069 A 
ATOM     24  C   UNL A   1      31.211  22.572  25.295  1.00  0.00     0.023 A 
ATOM     25  Cl  UNL A   1      35.592  23.306  26.193  1.00  0.00    -0.082 Cl
ATOM     26  C   UNL A   1      31.618  23.796  25.818  1.00  0.00     0.066 A 
ATOM     27  Cl  UNL A   1      30.390  24.977  26.156  1.00  0.00    -0.082 Cl
ENDBRANCH  17  19
ENDBRANCH  12  17
ENDBRANCH   8  11
ENDBRANCH   6   7
ENDBRANCH   3   6
ENDBRANCH   1   2
BRANCH   1  28
ATOM     28  C   UNL A   1      34.428  33.547  29.271  1.00  0.00     0.023 C 
BRANCH  28  29
ATOM     29  C   UNL A   1      33.282  34.529  29.030  1.00  0.00     0.023 C 
BRANCH  29  30
ATOM     30  C   UNL A   1      33.514  35.904  29.638  1.00  0.00     0.116 C 
BRANCH  30  31
ATOM     31  N   UNL A   1      32.535  36.221  30.663  1.00  0.00    -0.352 N 
ATOM     32  C   UNL A   1      32.525  35.810  31.977  1.00  0.00     0.251 C 
ATOM     33  H   UNL A   1      31.789  36.799  30.384  1.00  0.00     0.163 HD
ATOM     34  O   UNL A   1      31.559  36.006  32.694  1.00  0.00    -0.269 OA
BRANCH  32  35
ATOM     35  C   UNL A   1      33.709  35.096  32.484  1.00  0.00     0.039 A 
ATOM     36  C   UNL A   1      33.572  33.769  32.890  1.00  0.00     0.014 A 
ATOM     37  C   UNL A   1      34.957  35.724  32.487  1.00  0.00     0.014 A 
ATOM     38  C   UNL A   1      34.709  33.048  33.256  1.00  0.00     0.010 A 
ATOM     39  C   UNL A   1      36.095  34.984  32.780  1.00  0.00     0.010 A 
ATOM     40  C   UNL A   1      35.980  33.641  33.173  1.00  0.00    -0.014 A 
BRANCH  40  41
ATOM     41  C   UNL A   1      37.204  32.875  33.508  1.00  0.00     0.031 A 
ATOM     42  C   UNL A   1      37.946  33.174  34.781  1.00  0.00     0.074 A 
ATOM     43  C   UNL A   1      37.679  31.962  32.638  1.00  0.00     0.049 A 
ATOM     44  N   UNL A   1      39.067  32.665  35.224  1.00  0.00    -0.248 NA
ATOM     45  C   UNL A   1      37.368  34.202  35.662  1.00  0.00     0.031 C 
ATOM     46  C   UNL A   1      37.075  31.626  31.348  1.00  0.00     0.029 A 
ATOM     47  N   UNL A   1      38.788  31.156  32.704  1.00  0.00    -0.354 N 
ATOM     48  C   UNL A   1      39.337  33.324  36.415  1.00  0.00     0.074 A 
ATOM     49  C   UNL A   1      38.290  34.302  36.608  1.00  0.00     0.031 C 
ATOM     50  C   UNL A   1      37.808  30.671  30.753  1.00  0.00     0.029 A 
ATOM     51  C   UNL A   1      38.952  30.353  31.601  1.00  0.00     0.049 A 
ATOM     52  H   UNL A   1      39.407  31.154  33.469  1.00  0.00     0.167 HD
ATOM     53  C   UNL A   1      40.356  33.115  37.279  1.00  0.00     0.037 A 
ATOM     54  C   UNL A   1      39.925  29.469  31.307  1.00  0.00     0.037 A 
ATOM     55  C   UNL A   1      41.368  32.107  37.106  1.00  0.00     0.049 A 
ATOM     56  C   UNL A   1      41.038  29.251  32.299  1.00  0.00     0.074 A 
ATOM     57  C   UNL A   1      42.389  31.754  37.971  1.00  0.00     0.029 A 
ATOM     58  N   UNL A   1      41.484  31.291  35.992  1.00  0.00    -0.354 N 
ATOM     59  N   UNL A   1      41.228  29.814  33.467  1.00  0.00    -0.248 NA
ATOM     60  C   UNL A   1      42.068  28.268  31.933  1.00  0.00     0.031 C 
ATOM     61  C   UNL A   1      43.155  30.760  37.357  1.00  0.00     0.029 A 
ATOM     62  C   UNL A   1      42.579  30.454  36.135  1.00  0.00     0.049 A 
ATOM     63  H   UNL A   1      40.880  31.303  35.215  1.00  0.00     0.167 HD
ATOM     64  C   UNL A   1      42.374  29.228  33.989  1.00  0.00     0.074 A 
ATOM     65  C   UNL A   1      42.827  28.255  33.019  1.00  0.00     0.031 C 
ATOM     66  C   UNL A   1      42.999  29.475  35.167  1.00  0.00     0.037 A 
BRANCH  53  67
ATOM     67  C   UNL A   1      40.435  33.982  38.501  1.00  0.00     0.064 A 
ATOM     68  C   UNL A   1      41.169  35.177  38.511  1.00  0.00     0.173 A 
ATOM     69  C   UNL A   1      39.702  33.652  39.651  1.00  0.00     0.173 A 
ATOM     70  F   UNL A   1      41.898  35.532  37.441  1.00  0.00    -0.203 F 
ATOM     71  C   UNL A   1      41.175  36.004  39.631  1.00  0.00     0.198 A 
ATOM     72  C   UNL A   1      39.688  34.494  40.759  1.00  0.00     0.198 A 
ATOM     73  F   UNL A   1      38.981  32.520  39.691  1.00  0.00    -0.203 F 
ATOM     74  F   UNL A   1      41.910  37.125  39.630  1.00  0.00    -0.200 F 
ATOM     75  C   UNL A   1      40.427  35.667  40.750  1.00  0.00     0.200 A 
ATOM     76  F   UNL A   1      38.952  34.174  41.832  1.00  0.00    -0.200 F 
ATOM     77  F   UNL A   1      40.418  36.474  41.819  1.00  0.00    -0.200 F 
ENDBRANCH  53  67
BRANCH  54  78
ATOM     78  C   UNL A   1      39.894  28.707  30.029  1.00  0.00     0.064 A 
ATOM     79  C   UNL A   1      39.326  27.427  29.966  1.00  0.00     0.173 A 
ATOM     80  C   UNL A   1      40.474  29.221  28.860  1.00  0.00     0.173 A 
ATOM     81  F   UNL A   1      38.777  26.884  31.062  1.00  0.00    -0.203 F 
ATOM     82  C   UNL A   1      39.376  26.674  28.795  1.00  0.00     0.198 A 
ATOM     83  C   UNL A   1      40.493  28.479  27.680  1.00  0.00     0.198 A 
ATOM     84  F   UNL A   1      41.026  30.443  28.863  1.00  0.00    -0.203 F 
ATOM     85  F   UNL A   1      38.887  25.426  28.784  1.00  0.00    -0.200 F 
ATOM     86  C   UNL A   1      39.957  27.201  27.652  1.00  0.00     0.200 A 
ATOM     87  F   UNL A   1      41.043  28.998  26.575  1.00  0.00    -0.200 F 
ATOM     88  F   UNL A   1      40.014  26.472  26.529  1.00  0.00    -0.200 F 
ENDBRANCH  54  78
BRANCH  66  89
ATOM     89  C   UNL A   1      44.206  28.647  35.494  1.00  0.00     0.064 A 
ATOM     90  C   UNL A   1      45.500  29.059  35.144  1.00  0.00     0.173 A 
ATOM     91  C   UNL A   1      44.068  27.445  36.206  1.00  0.00     0.173 A 
ATOM     92  F   UNL A   1      45.684  30.192  34.451  1.00  0.00    -0.203 F 
ATOM     93  C   UNL A   1      46.609  28.282  35.471  1.00  0.00     0.198 A 
ATOM     94  C   UNL A   1      45.181  26.689  36.560  1.00  0.00     0.198 A 
ATOM     95  F   UNL A   1      42.853  27.012  36.572  1.00  0.00    -0.203 F 
ATOM     96  F   UNL A   1      47.833  28.670  35.082  1.00  0.00    -0.200 F 
ATOM     97  C   UNL A   1      46.450  27.104  36.184  1.00  0.00     0.200 A 
ATOM     98  F   UNL A   1      45.027  25.559  37.263  1.00  0.00    -0.200 F 
ATOM     99  F   UNL A   1      47.520  26.364  36.506  1.00  0.00    -0.200 F 
ENDBRANCH  66  89
ENDBRANCH  40  41
ENDBRANCH  32  35
ENDBRANCH  30  31
ENDBRANCH  29  30
ENDBRANCH  28  29
ENDBRANCH   1  28
TORSDOF 15
ENDMDL
