MODEL 1
REMARK VINA RESULT:     -10.0      0.000      0.000
REMARK SMILES Cc1cscc1-c1nc(C)c(C(=O)NCCCCNC(=O)c2ccc(-c3c4nc(c(-c5c(F)c(F)c(F)c(F)c5F)c5ccc([nH]5)c(-c5c(F)c(F)c(F)c(F)c5F)c5nc(c(-c6c(F)c(F)c(F)c(F)c6F)c6ccc3[nH]6)C=C5)C=C4)cc2)c(C)n1
REMARK SMILES IDX 17 1 16 2 15 3 14 4 12 5 13 6 11 8 7 9 8 10 87 11 9 12 85 13
REMARK SMILES IDX 10 14 86 15 6 16 1 17 2 18 3 19 4 20 5 21 18 22 19 23 20 24
REMARK SMILES IDX 21 26 22 27 23 28 84 29 24 30 83 31 25 32 26 33 27 34 77 35
REMARK SMILES IDX 28 36 82 37 76 38 78 39 29 40 81 41 75 42 74 43 30 45 62 46
REMARK SMILES IDX 42 47 61 48 43 49 46 50 60 51 79 52 44 53 45 54 59 56 80 57
REMARK SMILES IDX 47 58 31 59 32 60 40 61 33 62 34 63 38 64 41 65 35 66 36 67
REMARK SMILES IDX 39 68 37 69 63 70 64 71 72 72 65 73 66 74 70 75 73 76 67 77
REMARK SMILES IDX 68 78 71 79 69 80 48 81 49 82 57 83 50 84 51 85 55 86 58 87
REMARK SMILES IDX 52 88 53 89 56 90 54 91
REMARK H PARENT 14 7 19 25 78 44 46 55
REMARK Flexibility Score: inf
ROOT
ATOM      1  C   UNL A   1      41.955  22.226  28.068  1.00  0.00     0.023 C 
ENDROOT
BRANCH   1   2
ATOM      2  C   UNL A   1      42.600  23.274  28.971  1.00  0.00     0.023 C 
BRANCH   2   3
ATOM      3  C   UNL A   1      44.034  22.958  29.409  1.00  0.00     0.116 C 
BRANCH   3   4
ATOM      4  N   UNL A   1      44.915  22.901  28.267  1.00  0.00    -0.352 N 
ATOM      5  C   UNL A   1      45.432  23.730  27.313  1.00  0.00     0.254 C 
ATOM      6  O   UNL A   1      46.085  23.081  26.487  1.00  0.00    -0.269 OA
ATOM      7  H   UNL A   1      45.243  21.982  28.134  1.00  0.00     0.163 HD
BRANCH   5   8
ATOM      8  C   UNL A   1      45.333  25.226  27.149  1.00  0.00     0.082 A 
ATOM      9  C   UNL A   1      45.429  27.986  27.018  1.00  0.00     0.160 A 
ATOM     10  N   UNL A   1      44.559  27.339  26.251  1.00  0.00    -0.232 NA
ATOM     11  N   UNL A   1      46.271  27.394  27.854  1.00  0.00    -0.232 NA
ATOM     12  C   UNL A   1      44.537  25.981  26.284  1.00  0.00     0.054 A 
ATOM     13  C   UNL A   1      46.204  26.032  27.932  1.00  0.00     0.054 A 
ATOM     14  C   UNL A   1      43.581  25.510  25.252  1.00  0.00     0.068 C 
ATOM     15  C   UNL A   1      47.168  25.498  28.960  1.00  0.00     0.068 C 
BRANCH   9  16
ATOM     16  C   UNL A   1      45.408  29.431  26.910  1.00  0.00     0.033 A 
ATOM     17  C   UNL A   1      42.837  29.779  27.060  1.00  0.00     0.046 C 
ATOM     18  C   UNL A   1      44.236  30.275  26.877  1.00  0.00    -0.029 A 
ATOM     19  C   UNL A   1      44.581  31.594  26.654  1.00  0.00     0.069 A 
ATOM     20  S   UNL A   1      46.268  31.822  26.504  1.00  0.00    -0.151 S 
ATOM     21  C   UNL A   1      46.571  30.154  26.730  1.00  0.00     0.077 A 
ENDBRANCH   9  16
ENDBRANCH   5   8
ENDBRANCH   3   4
ENDBRANCH   2   3
ENDBRANCH   1   2
BRANCH   1  22
ATOM     22  C   UNL A   1      41.745  22.680  26.631  1.00  0.00     0.116 C 
BRANCH  22  23
ATOM     23  N   UNL A   1      40.419  22.388  26.102  1.00  0.00    -0.352 N 
ATOM     24  C   UNL A   1      39.292  23.169  26.198  1.00  0.00     0.251 C 
ATOM     25  H   UNL A   1      40.319  21.535  25.620  1.00  0.00     0.163 HD
ATOM     26  O   UNL A   1      38.212  22.784  25.764  1.00  0.00    -0.269 OA
BRANCH  24  27
ATOM     27  C   UNL A   1      39.404  24.461  26.896  1.00  0.00     0.039 A 
ATOM     28  C   UNL A   1      38.958  24.553  28.215  1.00  0.00     0.014 A 
ATOM     29  C   UNL A   1      40.057  25.532  26.283  1.00  0.00     0.014 A 
ATOM     30  C   UNL A   1      39.241  25.703  28.952  1.00  0.00     0.010 A 
ATOM     31  C   UNL A   1      40.407  26.641  27.040  1.00  0.00     0.010 A 
ATOM     32  C   UNL A   1      40.006  26.735  28.383  1.00  0.00    -0.014 A 
BRANCH  32  33
ATOM     33  C   UNL A   1      40.401  27.923  29.174  1.00  0.00     0.031 A 
ATOM     34  C   UNL A   1      41.766  27.985  29.796  1.00  0.00     0.074 A 
ATOM     35  C   UNL A   1      39.507  28.907  29.391  1.00  0.00     0.049 A 
ATOM     36  N   UNL A   1      42.276  28.897  30.582  1.00  0.00    -0.248 NA
ATOM     37  C   UNL A   1      42.665  26.853  29.524  1.00  0.00     0.031 C 
ATOM     38  C   UNL A   1      38.132  28.931  28.888  1.00  0.00     0.029 A 
ATOM     39  N   UNL A   1      39.619  30.075  30.103  1.00  0.00    -0.354 N 
ATOM     40  C   UNL A   1      43.545  28.441  30.912  1.00  0.00     0.074 A 
ATOM     41  C   UNL A   1      43.705  27.145  30.289  1.00  0.00     0.031 C 
ATOM     42  C   UNL A   1      37.538  30.068  29.283  1.00  0.00     0.029 A 
ATOM     43  C   UNL A   1      38.477  30.838  30.094  1.00  0.00     0.049 A 
ATOM     44  H   UNL A   1      40.441  30.340  30.576  1.00  0.00     0.167 HD
ATOM     45  C   UNL A   1      44.500  29.060  31.644  1.00  0.00     0.037 A 
ATOM     46  C   UNL A   1      38.222  32.025  30.673  1.00  0.00     0.037 A 
ATOM     47  C   UNL A   1      44.348  30.363  32.231  1.00  0.00     0.049 A 
ATOM     48  C   UNL A   1      39.306  32.699  31.472  1.00  0.00     0.074 A 
ATOM     49  C   UNL A   1      45.277  31.107  32.936  1.00  0.00     0.029 A 
ATOM     50  N   UNL A   1      43.186  31.120  32.177  1.00  0.00    -0.354 N 
ATOM     51  N   UNL A   1      40.526  32.290  31.718  1.00  0.00    -0.248 NA
ATOM     52  C   UNL A   1      38.977  34.002  32.066  1.00  0.00     0.031 C 
ATOM     53  C   UNL A   1      44.666  32.300  33.339  1.00  0.00     0.029 A 
ATOM     54  C   UNL A   1      43.370  32.317  32.850  1.00  0.00     0.049 A 
ATOM     55  H   UNL A   1      42.354  30.846  31.727  1.00  0.00     0.167 HD
ATOM     56  C   UNL A   1      41.120  33.294  32.472  1.00  0.00     0.074 A 
ATOM     57  C   UNL A   1      40.129  34.338  32.630  1.00  0.00     0.031 C 
ATOM     58  C   UNL A   1      42.373  33.346  32.987  1.00  0.00     0.037 A 
BRANCH  45  59
ATOM     59  C   UNL A   1      45.798  28.333  31.837  1.00  0.00     0.064 A 
ATOM     60  C   UNL A   1      46.932  28.641  31.070  1.00  0.00     0.173 A 
ATOM     61  C   UNL A   1      45.915  27.329  32.809  1.00  0.00     0.173 A 
ATOM     62  F   UNL A   1      46.867  29.583  30.117  1.00  0.00    -0.203 F 
ATOM     63  C   UNL A   1      48.127  27.949  31.248  1.00  0.00     0.198 A 
ATOM     64  C   UNL A   1      47.121  26.659  33.004  1.00  0.00     0.198 A 
ATOM     65  F   UNL A   1      44.862  26.997  33.570  1.00  0.00    -0.203 F 
ATOM     66  F   UNL A   1      49.180  28.223  30.465  1.00  0.00    -0.200 F 
ATOM     67  C   UNL A   1      48.222  26.962  32.217  1.00  0.00     0.200 A 
ATOM     68  F   UNL A   1      47.214  25.712  33.948  1.00  0.00    -0.200 F 
ATOM     69  F   UNL A   1      49.373  26.298  32.388  1.00  0.00    -0.200 F 
ENDBRANCH  45  59
BRANCH  46  70
ATOM     70  C   UNL A   1      36.899  32.673  30.490  1.00  0.00     0.064 A 
ATOM     71  C   UNL A   1      36.612  33.400  29.326  1.00  0.00     0.173 A 
ATOM     72  C   UNL A   1      35.896  32.583  31.466  1.00  0.00     0.173 A 
ATOM     73  F   UNL A   1      37.547  33.531  28.373  1.00  0.00    -0.203 F 
ATOM     74  C   UNL A   1      35.382  34.030  29.154  1.00  0.00     0.198 A 
ATOM     75  C   UNL A   1      34.656  33.191  31.282  1.00  0.00     0.198 A 
ATOM     76  F   UNL A   1      36.117  31.893  32.595  1.00  0.00    -0.203 F 
ATOM     77  F   UNL A   1      35.150  34.754  28.050  1.00  0.00    -0.200 F 
ATOM     78  C   UNL A   1      34.403  33.921  30.130  1.00  0.00     0.200 A 
ATOM     79  F   UNL A   1      33.708  33.073  32.221  1.00  0.00    -0.200 F 
ATOM     80  F   UNL A   1      33.217  34.524  29.963  1.00  0.00    -0.200 F 
ENDBRANCH  46  70
BRANCH  58  81
ATOM     81  C   UNL A   1      42.751  34.585  33.742  1.00  0.00     0.064 A 
ATOM     82  C   UNL A   1      43.195  35.739  33.081  1.00  0.00     0.173 A 
ATOM     83  C   UNL A   1      42.627  34.631  35.139  1.00  0.00     0.173 A 
ATOM     84  F   UNL A   1      43.345  35.739  31.747  1.00  0.00    -0.203 F 
ATOM     85  C   UNL A   1      43.521  36.889  33.794  1.00  0.00     0.198 A 
ATOM     86  C   UNL A   1      42.928  35.791  35.846  1.00  0.00     0.198 A 
ATOM     87  F   UNL A   1      42.202  33.554  35.815  1.00  0.00    -0.203 F 
ATOM     88  F   UNL A   1      43.983  37.967  33.147  1.00  0.00    -0.200 F 
ATOM     89  C   UNL A   1      43.381  36.917  35.174  1.00  0.00     0.200 A 
ATOM     90  F   UNL A   1      42.781  35.819  37.178  1.00  0.00    -0.200 F 
ATOM     91  F   UNL A   1      43.688  38.027  35.858  1.00  0.00    -0.200 F 
ENDBRANCH  58  81
ENDBRANCH  32  33
ENDBRANCH  24  27
ENDBRANCH  22  23
ENDBRANCH   1  22
TORSDOF 12
ENDMDL
MODEL 2
REMARK VINA RESULT:     -10.0      5.089     10.496
REMARK SMILES Cc1cscc1-c1nc(C)c(C(=O)NCCCCNC(=O)c2ccc(-c3c4nc(c(-c5c(F)c(F)c(F)c(F)c5F)c5ccc([nH]5)c(-c5c(F)c(F)c(F)c(F)c5F)c5nc(c(-c6c(F)c(F)c(F)c(F)c6F)c6ccc3[nH]6)C=C5)C=C4)cc2)c(C)n1
REMARK SMILES IDX 17 1 16 2 15 3 14 4 12 5 13 6 11 8 7 9 8 10 87 11 9 12 85 13
REMARK SMILES IDX 10 14 86 15 6 16 1 17 2 18 3 19 4 20 5 21 18 22 19 23 20 24
REMARK SMILES IDX 21 26 22 27 23 28 84 29 24 30 83 31 25 32 26 33 27 34 77 35
REMARK SMILES IDX 28 36 82 37 76 38 78 39 29 40 81 41 75 42 74 43 30 45 62 46
REMARK SMILES IDX 42 47 61 48 43 49 46 50 60 51 79 52 44 53 45 54 59 56 80 57
REMARK SMILES IDX 47 58 31 59 32 60 40 61 33 62 34 63 38 64 41 65 35 66 36 67
REMARK SMILES IDX 39 68 37 69 63 70 64 71 72 72 65 73 66 74 70 75 73 76 67 77
REMARK SMILES IDX 68 78 71 79 69 80 48 81 49 82 57 83 50 84 51 85 55 86 58 87
REMARK SMILES IDX 52 88 53 89 56 90 54 91
REMARK H PARENT 14 7 19 25 78 44 46 55
REMARK Flexibility Score: inf
ROOT
ATOM      1  C   UNL A   1      31.681  31.892  26.844  1.00  0.00     0.023 C 
ENDROOT
BRANCH   1   2
ATOM      2  C   UNL A   1      32.079  30.442  26.576  1.00  0.00     0.023 C 
BRANCH   2   3
ATOM      3  C   UNL A   1      31.402  29.798  25.362  1.00  0.00     0.116 C 
BRANCH   3   4
ATOM      4  N   UNL A   1      32.329  29.689  24.261  1.00  0.00    -0.352 N 
ATOM      5  C   UNL A   1      33.071  28.738  23.619  1.00  0.00     0.254 C 
ATOM      6  O   UNL A   1      33.792  29.261  22.762  1.00  0.00    -0.269 OA
ATOM      7  H   UNL A   1      32.472  30.570  23.844  1.00  0.00     0.163 HD
BRANCH   5   8
ATOM      8  C   UNL A   1      33.116  27.241  23.793  1.00  0.00     0.082 A 
ATOM      9  C   UNL A   1      33.261  24.552  24.424  1.00  0.00     0.160 A 
ATOM     10  N   UNL A   1      32.778  24.906  23.239  1.00  0.00    -0.232 NA
ATOM     11  N   UNL A   1      33.684  25.409  25.343  1.00  0.00    -0.232 NA
ATOM     12  C   UNL A   1      32.669  26.228  22.941  1.00  0.00     0.054 A 
ATOM     13  C   UNL A   1      33.631  26.735  25.017  1.00  0.00     0.054 A 
ATOM     14  C   UNL A   1      31.988  26.350  21.629  1.00  0.00     0.068 C 
ATOM     15  C   UNL A   1      34.196  27.589  26.123  1.00  0.00     0.068 C 
BRANCH   9  16
ATOM     16  C   UNL A   1      33.325  23.126  24.676  1.00  0.00     0.033 A 
ATOM     17  C   UNL A   1      35.732  22.699  23.791  1.00  0.00     0.046 C 
ATOM     18  C   UNL A   1      34.423  22.244  24.353  1.00  0.00    -0.029 A 
ATOM     19  C   UNL A   1      34.100  20.930  24.630  1.00  0.00     0.069 A 
ATOM     20  S   UNL A   1      32.528  20.755  25.278  1.00  0.00    -0.151 S 
ATOM     21  C   UNL A   1      32.245  22.440  25.195  1.00  0.00     0.077 A 
ENDBRANCH   9  16
ENDBRANCH   5   8
ENDBRANCH   3   4
ENDBRANCH   2   3
ENDBRANCH   1   2
BRANCH   1  22
ATOM     22  C   UNL A   1      32.826  32.782  27.305  1.00  0.00     0.116 C 
BRANCH  22  23
ATOM     23  N   UNL A   1      32.427  34.146  27.626  1.00  0.00    -0.352 N 
ATOM     24  C   UNL A   1      32.997  34.986  28.552  1.00  0.00     0.251 C 
ATOM     25  H   UNL A   1      31.663  34.508  27.120  1.00  0.00     0.163 HD
ATOM     26  O   UNL A   1      32.530  36.097  28.777  1.00  0.00    -0.269 OA
BRANCH  24  27
ATOM     27  C   UNL A   1      34.154  34.489  29.317  1.00  0.00     0.039 A 
ATOM     28  C   UNL A   1      33.926  33.823  30.522  1.00  0.00     0.014 A 
ATOM     29  C   UNL A   1      35.439  34.577  28.777  1.00  0.00     0.014 A 
ATOM     30  C   UNL A   1      34.986  33.172  31.152  1.00  0.00     0.010 A 
ATOM     31  C   UNL A   1      36.474  33.863  29.363  1.00  0.00     0.010 A 
ATOM     32  C   UNL A   1      36.257  33.150  30.553  1.00  0.00    -0.014 A 
BRANCH  32  33
ATOM     33  C   UNL A   1      37.376  32.387  31.153  1.00  0.00     0.031 A 
ATOM     34  C   UNL A   1      37.866  32.738  32.527  1.00  0.00     0.074 A 
ATOM     35  C   UNL A   1      37.994  31.432  30.431  1.00  0.00     0.049 A 
ATOM     36  N   UNL A   1      38.875  32.245  33.197  1.00  0.00    -0.248 NA
ATOM     37  C   UNL A   1      37.146  33.812  33.228  1.00  0.00     0.031 C 
ATOM     38  C   UNL A   1      37.645  31.042  29.063  1.00  0.00     0.029 A 
ATOM     39  N   UNL A   1      39.055  30.620  30.747  1.00  0.00    -0.354 N 
ATOM     40  C   UNL A   1      38.920  32.958  34.387  1.00  0.00     0.074 A 
ATOM     41  C   UNL A   1      37.876  33.957  34.323  1.00  0.00     0.031 C 
ATOM     42  C   UNL A   1      38.458  30.049  28.668  1.00  0.00     0.029 A 
ATOM     43  C   UNL A   1      39.404  29.754  29.740  1.00  0.00     0.049 A 
ATOM     44  H   UNL A   1      39.521  30.656  31.613  1.00  0.00     0.167 HD
ATOM     45  C   UNL A   1      39.740  32.777  35.448  1.00  0.00     0.037 A 
ATOM     46  C   UNL A   1      40.379  28.827  29.691  1.00  0.00     0.037 A 
ATOM     47  C   UNL A   1      40.754  31.760  35.520  1.00  0.00     0.049 A 
ATOM     48  C   UNL A   1      41.269  28.637  30.890  1.00  0.00     0.074 A 
ATOM     49  C   UNL A   1      41.594  31.450  36.574  1.00  0.00     0.029 A 
ATOM     50  N   UNL A   1      41.061  30.881  34.491  1.00  0.00    -0.354 N 
ATOM     51  N   UNL A   1      41.257  29.270  32.037  1.00  0.00    -0.248 NA
ATOM     52  C   UNL A   1      42.303  27.598  30.788  1.00  0.00     0.031 C 
ATOM     53  C   UNL A   1      42.434  30.407  36.171  1.00  0.00     0.029 A 
ATOM     54  C   UNL A   1      42.090  30.039  34.881  1.00  0.00     0.049 A 
ATOM     55  H   UNL A   1      40.614  30.860  33.614  1.00  0.00     0.167 HD
ATOM     56  C   UNL A   1      42.260  28.692  32.803  1.00  0.00     0.074 A 
ATOM     57  C   UNL A   1      42.851  27.646  31.994  1.00  0.00     0.031 C 
ATOM     58  C   UNL A   1      42.657  28.999  34.062  1.00  0.00     0.037 A 
BRANCH  45  59
ATOM     59  C   UNL A   1      39.562  33.697  36.620  1.00  0.00     0.064 A 
ATOM     60  C   UNL A   1      40.184  34.954  36.667  1.00  0.00     0.173 A 
ATOM     61  C   UNL A   1      38.749  33.326  37.700  1.00  0.00     0.173 A 
ATOM     62  F   UNL A   1      40.984  35.349  35.664  1.00  0.00    -0.203 F 
ATOM     63  C   UNL A   1      40.024  35.792  37.766  1.00  0.00     0.198 A 
ATOM     64  C   UNL A   1      38.568  34.179  38.786  1.00  0.00     0.198 A 
ATOM     65  F   UNL A   1      38.131  32.135  37.705  1.00  0.00    -0.203 F 
ATOM     66  F   UNL A   1      40.672  36.964  37.813  1.00  0.00    -0.200 F 
ATOM     67  C   UNL A   1      39.213  35.406  38.823  1.00  0.00     0.200 A 
ATOM     68  F   UNL A   1      37.776  33.809  39.802  1.00  0.00    -0.200 F 
ATOM     69  F   UNL A   1      39.058  36.215  39.880  1.00  0.00    -0.200 F 
ENDBRANCH  45  59
BRANCH  46  70
ATOM     70  C   UNL A   1      40.541  27.981  28.482  1.00  0.00     0.064 A 
ATOM     71  C   UNL A   1      39.916  26.730  28.395  1.00  0.00     0.173 A 
ATOM     72  C   UNL A   1      41.320  28.399  27.393  1.00  0.00     0.173 A 
ATOM     73  F   UNL A   1      39.177  26.279  29.420  1.00  0.00    -0.203 F 
ATOM     74  C   UNL A   1      40.079  25.919  27.274  1.00  0.00     0.198 A 
ATOM     75  C   UNL A   1      41.462  27.599  26.262  1.00  0.00     0.198 A 
ATOM     76  F   UNL A   1      41.933  29.591  27.424  1.00  0.00    -0.203 F 
ATOM     77  F   UNL A   1      39.504  24.709  27.235  1.00  0.00    -0.200 F 
ATOM     78  C   UNL A   1      40.848  26.356  26.206  1.00  0.00     0.200 A 
ATOM     79  F   UNL A   1      42.195  28.030  25.226  1.00  0.00    -0.200 F 
ATOM     80  F   UNL A   1      41.002  25.578  25.126  1.00  0.00    -0.200 F 
ENDBRANCH  46  70
BRANCH  58  81
ATOM     81  C   UNL A   1      43.760  28.174  34.653  1.00  0.00     0.064 A 
ATOM     82  C   UNL A   1      43.497  26.975  35.332  1.00  0.00     0.173 A 
ATOM     83  C   UNL A   1      45.099  28.565  34.500  1.00  0.00     0.173 A 
ATOM     84  F   UNL A   1      42.232  26.568  35.517  1.00  0.00    -0.203 F 
ATOM     85  C   UNL A   1      44.534  26.208  35.855  1.00  0.00     0.198 A 
ATOM     86  C   UNL A   1      46.135  27.782  35.000  1.00  0.00     0.198 A 
ATOM     87  F   UNL A   1      45.401  29.701  33.854  1.00  0.00    -0.203 F 
ATOM     88  F   UNL A   1      44.258  25.089  36.537  1.00  0.00    -0.200 F 
ATOM     89  C   UNL A   1      45.852  26.608  35.683  1.00  0.00     0.200 A 
ATOM     90  F   UNL A   1      47.407  28.163  34.824  1.00  0.00    -0.200 F 
ATOM     91  F   UNL A   1      46.849  25.865  36.180  1.00  0.00    -0.200 F 
ENDBRANCH  58  81
ENDBRANCH  32  33
ENDBRANCH  24  27
ENDBRANCH  22  23
ENDBRANCH   1  22
TORSDOF 12
ENDMDL
MODEL 3
REMARK VINA RESULT:     -10.0      5.094     10.394
REMARK SMILES Cc1cscc1-c1nc(C)c(C(=O)NCCCCNC(=O)c2ccc(-c3c4nc(c(-c5c(F)c(F)c(F)c(F)c5F)c5ccc([nH]5)c(-c5c(F)c(F)c(F)c(F)c5F)c5nc(c(-c6c(F)c(F)c(F)c(F)c6F)c6ccc3[nH]6)C=C5)C=C4)cc2)c(C)n1
REMARK SMILES IDX 17 1 16 2 15 3 14 4 12 5 13 6 11 8 7 9 8 10 87 11 9 12 85 13
REMARK SMILES IDX 10 14 86 15 6 16 1 17 2 18 3 19 4 20 5 21 18 22 19 23 20 24
REMARK SMILES IDX 21 26 22 27 23 28 84 29 24 30 83 31 25 32 26 33 27 34 77 35
REMARK SMILES IDX 28 36 82 37 76 38 78 39 29 40 81 41 75 42 74 43 30 45 62 46
REMARK SMILES IDX 42 47 61 48 43 49 46 50 60 51 79 52 44 53 45 54 59 56 80 57
REMARK SMILES IDX 47 58 31 59 32 60 40 61 33 62 34 63 38 64 41 65 35 66 36 67
REMARK SMILES IDX 39 68 37 69 63 70 64 71 72 72 65 73 66 74 70 75 73 76 67 77
REMARK SMILES IDX 68 78 71 79 69 80 48 81 49 82 57 83 50 84 51 85 55 86 58 87
REMARK SMILES IDX 52 88 53 89 56 90 54 91
REMARK H PARENT 14 7 19 25 78 44 46 55
REMARK Flexibility Score: inf
ROOT
ATOM      1  C   UNL A   1      31.689  31.878  26.872  1.00  0.00     0.023 C 
ENDROOT
BRANCH   1   2
ATOM      2  C   UNL A   1      32.108  30.437  26.592  1.00  0.00     0.023 C 
BRANCH   2   3
ATOM      3  C   UNL A   1      31.442  29.793  25.371  1.00  0.00     0.116 C 
BRANCH   3   4
ATOM      4  N   UNL A   1      32.381  29.674  24.282  1.00  0.00    -0.352 N 
ATOM      5  C   UNL A   1      33.111  28.714  23.642  1.00  0.00     0.254 C 
ATOM      6  O   UNL A   1      33.856  29.230  22.799  1.00  0.00    -0.269 OA
ATOM      7  H   UNL A   1      32.548  30.556  23.876  1.00  0.00     0.163 HD
BRANCH   5   8
ATOM      8  C   UNL A   1      33.122  27.215  23.801  1.00  0.00     0.082 A 
ATOM      9  C   UNL A   1      33.203  24.518  24.408  1.00  0.00     0.160 A 
ATOM     10  N   UNL A   1      32.739  24.894  23.222  1.00  0.00    -0.232 NA
ATOM     11  N   UNL A   1      33.635  25.357  25.340  1.00  0.00    -0.232 NA
ATOM     12  C   UNL A   1      32.661  26.220  22.936  1.00  0.00     0.054 A 
ATOM     13  C   UNL A   1      33.614  26.686  25.026  1.00  0.00     0.054 A 
ATOM     14  C   UNL A   1      31.996  26.369  21.618  1.00  0.00     0.068 C 
ATOM     15  C   UNL A   1      34.187  27.518  26.145  1.00  0.00     0.068 C 
BRANCH   9  16
ATOM     16  C   UNL A   1      33.233  23.089  24.647  1.00  0.00     0.033 A 
ATOM     17  C   UNL A   1      35.668  22.631  23.859  1.00  0.00     0.046 C 
ATOM     18  C   UNL A   1      34.329  22.192  24.361  1.00  0.00    -0.029 A 
ATOM     19  C   UNL A   1      33.974  20.880  24.610  1.00  0.00     0.069 A 
ATOM     20  S   UNL A   1      32.373  20.725  25.189  1.00  0.00    -0.151 S 
ATOM     21  C   UNL A   1      32.121  22.415  25.113  1.00  0.00     0.077 A 
ENDBRANCH   9  16
ENDBRANCH   5   8
ENDBRANCH   3   4
ENDBRANCH   2   3
ENDBRANCH   1   2
BRANCH   1  22
ATOM     22  C   UNL A   1      32.824  32.785  27.324  1.00  0.00     0.116 C 
BRANCH  22  23
ATOM     23  N   UNL A   1      32.406  34.141  27.655  1.00  0.00    -0.352 N 
ATOM     24  C   UNL A   1      32.969  34.985  28.582  1.00  0.00     0.251 C 
ATOM     25  H   UNL A   1      31.633  34.494  27.156  1.00  0.00     0.163 HD
ATOM     26  O   UNL A   1      32.487  36.087  28.816  1.00  0.00    -0.269 OA
BRANCH  24  27
ATOM     27  C   UNL A   1      34.139  34.502  29.336  1.00  0.00     0.039 A 
ATOM     28  C   UNL A   1      33.931  33.859  30.558  1.00  0.00     0.014 A 
ATOM     29  C   UNL A   1      35.414  34.580  28.773  1.00  0.00     0.014 A 
ATOM     30  C   UNL A   1      35.002  33.220  31.181  1.00  0.00     0.010 A 
ATOM     31  C   UNL A   1      36.460  33.877  29.355  1.00  0.00     0.010 A 
ATOM     32  C   UNL A   1      36.262  33.186  30.561  1.00  0.00    -0.014 A 
BRANCH  32  33
ATOM     33  C   UNL A   1      37.391  32.434  31.156  1.00  0.00     0.031 A 
ATOM     34  C   UNL A   1      37.885  32.792  32.527  1.00  0.00     0.074 A 
ATOM     35  C   UNL A   1      38.014  31.483  30.433  1.00  0.00     0.049 A 
ATOM     36  N   UNL A   1      38.902  32.309  33.193  1.00  0.00    -0.248 NA
ATOM     37  C   UNL A   1      37.159  33.861  33.231  1.00  0.00     0.031 C 
ATOM     38  C   UNL A   1      37.661  31.088  29.068  1.00  0.00     0.029 A 
ATOM     39  N   UNL A   1      39.084  30.681  30.745  1.00  0.00    -0.354 N 
ATOM     40  C   UNL A   1      38.948  33.025  34.381  1.00  0.00     0.074 A 
ATOM     41  C   UNL A   1      37.894  34.014  34.321  1.00  0.00     0.031 C 
ATOM     42  C   UNL A   1      38.480  30.101  28.670  1.00  0.00     0.029 A 
ATOM     43  C   UNL A   1      39.436  29.817  29.737  1.00  0.00     0.049 A 
ATOM     44  H   UNL A   1      39.554  30.723  31.608  1.00  0.00     0.167 HD
ATOM     45  C   UNL A   1      39.775  32.853  35.438  1.00  0.00     0.037 A 
ATOM     46  C   UNL A   1      40.418  28.899  29.685  1.00  0.00     0.037 A 
ATOM     47  C   UNL A   1      40.798  31.845  35.507  1.00  0.00     0.049 A 
ATOM     48  C   UNL A   1      41.316  28.719  30.879  1.00  0.00     0.074 A 
ATOM     49  C   UNL A   1      41.646  31.544  36.557  1.00  0.00     0.029 A 
ATOM     50  N   UNL A   1      41.107  30.967  34.477  1.00  0.00    -0.354 N 
ATOM     51  N   UNL A   1      41.305  29.354  32.025  1.00  0.00    -0.248 NA
ATOM     52  C   UNL A   1      42.359  27.689  30.773  1.00  0.00     0.031 C 
ATOM     53  C   UNL A   1      42.494  30.508  36.151  1.00  0.00     0.029 A 
ATOM     54  C   UNL A   1      42.146  30.135  34.863  1.00  0.00     0.049 A 
ATOM     55  H   UNL A   1      40.656  30.940  33.603  1.00  0.00     0.167 HD
ATOM     56  C   UNL A   1      42.317  28.785  32.787  1.00  0.00     0.074 A 
ATOM     57  C   UNL A   1      42.913  27.744  31.976  1.00  0.00     0.031 C 
ATOM     58  C   UNL A   1      42.718  29.098  34.043  1.00  0.00     0.037 A 
BRANCH  45  59
ATOM     59  C   UNL A   1      39.595  33.773  36.610  1.00  0.00     0.064 A 
ATOM     60  C   UNL A   1      40.204  35.037  36.650  1.00  0.00     0.173 A 
ATOM     61  C   UNL A   1      38.793  33.396  37.696  1.00  0.00     0.173 A 
ATOM     62  F   UNL A   1      40.994  35.438  35.641  1.00  0.00    -0.203 F 
ATOM     63  C   UNL A   1      40.043  35.875  37.749  1.00  0.00     0.198 A 
ATOM     64  C   UNL A   1      38.610  34.249  38.781  1.00  0.00     0.198 A 
ATOM     65  F   UNL A   1      38.187  32.199  37.707  1.00  0.00    -0.203 F 
ATOM     66  F   UNL A   1      40.679  37.054  37.789  1.00  0.00    -0.200 F 
ATOM     67  C   UNL A   1      39.242  35.483  38.811  1.00  0.00     0.200 A 
ATOM     68  F   UNL A   1      37.828  33.873  39.803  1.00  0.00    -0.200 F 
ATOM     69  F   UNL A   1      39.086  36.292  39.868  1.00  0.00    -0.200 F 
ENDBRANCH  45  59
BRANCH  46  70
ATOM     70  C   UNL A   1      40.581  28.052  28.476  1.00  0.00     0.064 A 
ATOM     71  C   UNL A   1      41.359  28.489  27.395  1.00  0.00     0.173 A 
ATOM     72  C   UNL A   1      39.968  26.795  28.373  1.00  0.00     0.173 A 
ATOM     73  F   UNL A   1      41.948  29.693  27.440  1.00  0.00    -0.203 F 
ATOM     74  C   UNL A   1      41.501  27.712  26.249  1.00  0.00     0.198 A 
ATOM     75  C   UNL A   1      40.131  26.007  27.236  1.00  0.00     0.198 A 
ATOM     76  F   UNL A   1      39.219  26.327  29.382  1.00  0.00    -0.203 F 
ATOM     77  F   UNL A   1      42.216  28.173  25.213  1.00  0.00    -0.200 F 
ATOM     78  C   UNL A   1      40.891  26.469  26.171  1.00  0.00     0.200 A 
ATOM     79  F   UNL A   1      39.552  24.801  27.170  1.00  0.00    -0.200 F 
ATOM     80  F   UNL A   1      41.031  25.719  25.069  1.00  0.00    -0.200 F 
ENDBRANCH  46  70
BRANCH  58  81
ATOM     81  C   UNL A   1      43.831  28.284  34.630  1.00  0.00     0.064 A 
ATOM     82  C   UNL A   1      45.168  28.704  34.551  1.00  0.00     0.173 A 
ATOM     83  C   UNL A   1      43.554  27.092  35.316  1.00  0.00     0.173 A 
ATOM     84  F   UNL A   1      45.484  29.829  33.892  1.00  0.00    -0.203 F 
ATOM     85  C   UNL A   1      46.188  27.948  35.121  1.00  0.00     0.198 A 
ATOM     86  C   UNL A   1      44.574  26.353  35.908  1.00  0.00     0.198 A 
ATOM     87  F   UNL A   1      42.291  26.652  35.422  1.00  0.00    -0.203 F 
ATOM     88  F   UNL A   1      47.461  28.346  34.998  1.00  0.00    -0.200 F 
ATOM     89  C   UNL A   1      45.890  26.778  35.804  1.00  0.00     0.200 A 
ATOM     90  F   UNL A   1      44.284  25.229  36.577  1.00  0.00    -0.200 F 
ATOM     91  F   UNL A   1      46.873  26.055  36.358  1.00  0.00    -0.200 F 
ENDBRANCH  58  81
ENDBRANCH  32  33
ENDBRANCH  24  27
ENDBRANCH  22  23
ENDBRANCH   1  22
TORSDOF 12
ENDMDL
