MODEL 1
REMARK VINA RESULT:     -11.4      0.000      0.000
REMARK SMILES CCCCCCOC(=O)Nc1cccc(-c2ccc([C@@H](C)C(=O)NCCCCNC(=O)c3ccc(-c4c5nc(c(-c6c(F)c(F)c(F)c(F)c6F)c6ccc([nH]6)c(-c6c(F)c(F)c(F)c(F)c6F)c6nc(c(-c7c(F)c(F)c(F)c(F)c7F)c7ccc4[nH]7)C=C6)C=C5)cc3)cc2F)c1
REMARK SMILES IDX 20 1 21 2 19 3 16 4 17 5 96 6 18 7 95 8 97 9 15 10 11 11
REMARK SMILES IDX 12 12 98 13 13 14 14 15 10 16 8 17 9 18 7 20 6 21 5 22 4 23
REMARK SMILES IDX 3 24 2 25 1 26 22 27 23 28 24 29 25 31 26 32 27 33 28 34
REMARK SMILES IDX 29 35 30 36 31 38 32 39 33 40 94 41 34 42 93 43 35 44 36 45
REMARK SMILES IDX 37 46 87 47 38 48 92 49 86 50 88 51 39 52 91 53 85 54 84 55
REMARK SMILES IDX 40 57 72 58 52 59 71 60 53 61 56 62 70 63 89 64 54 65 55 66
REMARK SMILES IDX 69 68 90 69 57 70 41 71 42 72 50 73 43 74 44 75 48 76 51 77
REMARK SMILES IDX 45 78 46 79 49 80 47 81 73 82 74 83 82 84 75 85 76 86 80 87
REMARK SMILES IDX 83 88 77 89 78 90 81 91 79 92 58 93 59 94 67 95 60 96 61 97
REMARK SMILES IDX 65 98 68 99 62 100 63 101 66 102 64 103
REMARK H PARENT 10 19 24 30 29 37 88 56 56 67
REMARK Flexibility Score: inf
ROOT
ATOM      1  C   UNL A   1      34.810  22.402  26.276  1.00  0.00     0.105 C 
ATOM      2  C   UNL A   1      33.822  21.309  26.677  1.00  0.00     0.023 C 
ENDROOT
BRANCH   1   3
ATOM      3  C   UNL A   1      34.219  23.783  26.048  1.00  0.00    -0.033 A 
ATOM      4  C   UNL A   1      33.118  26.419  25.895  1.00  0.00     0.018 A 
ATOM      5  C   UNL A   1      34.385  26.124  25.374  1.00  0.00     0.012 A 
ATOM      6  C   UNL A   1      32.391  25.342  26.427  1.00  0.00     0.131 A 
ATOM      7  C   UNL A   1      34.909  24.824  25.416  1.00  0.00     0.005 A 
ATOM      8  C   UNL A   1      32.931  24.058  26.527  1.00  0.00     0.044 A 
ATOM      9  F   UNL A   1      31.136  25.515  26.873  1.00  0.00    -0.206 F 
BRANCH   4  10
ATOM     10  C   UNL A   1      32.597  27.804  25.905  1.00  0.00    -0.013 A 
ATOM     11  C   UNL A   1      31.227  29.552  24.866  1.00  0.00     0.045 A 
ATOM     12  C   UNL A   1      31.663  30.475  25.812  1.00  0.00     0.026 A 
ATOM     13  C   UNL A   1      31.683  28.230  24.927  1.00  0.00     0.035 A 
ATOM     14  C   UNL A   1      32.513  30.062  26.836  1.00  0.00     0.003 A 
ATOM     15  C   UNL A   1      32.982  28.743  26.875  1.00  0.00     0.009 A 
BRANCH  11  16
ATOM     16  N   UNL A   1      30.424  29.996  23.809  1.00  0.00    -0.291 N 
ATOM     17  C   UNL A   1      30.158  29.333  22.638  1.00  0.00     0.411 C 
ATOM     18  O   UNL A   1      29.853  29.932  21.622  1.00  0.00    -0.224 OA
ATOM     19  H   UNL A   1      30.005  30.880  23.916  1.00  0.00     0.173 HD
BRANCH  17  20
ATOM     20  O   UNL A   1      30.149  27.982  22.794  1.00  0.00    -0.449 OA
BRANCH  20  21
ATOM     21  C   UNL A   1      28.978  27.367  23.351  1.00  0.00     0.235 C 
BRANCH  21  22
ATOM     22  C   UNL A   1      29.246  25.933  23.820  1.00  0.00     0.042 C 
BRANCH  22  23
ATOM     23  C   UNL A   1      30.558  25.306  23.332  1.00  0.00     0.003 C 
BRANCH  23  24
ATOM     24  C   UNL A   1      30.657  23.786  23.516  1.00  0.00    -0.000 C 
BRANCH  24  25
ATOM     25  C   UNL A   1      32.002  23.176  23.126  1.00  0.00    -0.003 C 
ATOM     26  C   UNL A   1      32.908  24.164  22.410  1.00  0.00     0.004 C 
ENDBRANCH  24  25
ENDBRANCH  23  24
ENDBRANCH  22  23
ENDBRANCH  21  22
ENDBRANCH  20  21
ENDBRANCH  17  20
ENDBRANCH  11  16
ENDBRANCH   4  10
ENDBRANCH   1   3
BRANCH   1  27
ATOM     27  C   UNL A   1      35.803  21.970  25.183  1.00  0.00     0.227 C 
ATOM     28  O   UNL A   1      35.420  21.254  24.249  1.00  0.00    -0.274 OA
ATOM     29  N   UNL A   1      37.112  22.342  25.159  1.00  0.00    -0.356 N 
ATOM     30  H   UNL A   1      37.601  22.056  24.354  1.00  0.00     0.163 HD
BRANCH  29  31
ATOM     31  C   UNL A   1      37.911  23.084  26.109  1.00  0.00     0.116 C 
BRANCH  31  32
ATOM     32  C   UNL A   1      39.285  22.448  26.323  1.00  0.00     0.023 C 
BRANCH  32  33
ATOM     33  C   UNL A   1      39.486  21.102  25.628  1.00  0.00     0.023 C 
BRANCH  33  34
ATOM     34  C   UNL A   1      39.888  19.955  26.546  1.00  0.00     0.116 C 
BRANCH  34  35
ATOM     35  N   UNL A   1      40.951  19.113  26.017  1.00  0.00    -0.352 N 
ATOM     36  C   UNL A   1      42.285  19.416  25.871  1.00  0.00     0.251 C 
ATOM     37  H   UNL A   1      40.681  18.212  25.727  1.00  0.00     0.163 HD
ATOM     38  O   UNL A   1      43.049  18.623  25.330  1.00  0.00    -0.269 OA
BRANCH  36  39
ATOM     39  C   UNL A   1      42.779  20.731  26.329  1.00  0.00     0.039 A 
ATOM     40  C   UNL A   1      43.221  21.653  25.376  1.00  0.00     0.014 A 
ATOM     41  C   UNL A   1      42.753  21.072  27.683  1.00  0.00     0.014 A 
ATOM     42  C   UNL A   1      43.564  22.945  25.777  1.00  0.00     0.010 A 
ATOM     43  C   UNL A   1      43.012  22.383  28.069  1.00  0.00     0.010 A 
ATOM     44  C   UNL A   1      43.421  23.332  27.120  1.00  0.00    -0.014 A 
BRANCH  44  45
ATOM     45  C   UNL A   1      43.695  24.727  27.550  1.00  0.00     0.031 A 
ATOM     46  C   UNL A   1      45.111  25.207  27.696  1.00  0.00     0.074 A 
ATOM     47  C   UNL A   1      42.667  25.539  27.866  1.00  0.00     0.049 A 
ATOM     48  N   UNL A   1      45.553  26.373  28.096  1.00  0.00    -0.248 NA
ATOM     49  C   UNL A   1      46.175  24.239  27.384  1.00  0.00     0.031 C 
ATOM     50  C   UNL A   1      41.251  25.167  27.828  1.00  0.00     0.029 A 
ATOM     51  N   UNL A   1      42.655  26.844  28.287  1.00  0.00    -0.354 N 
ATOM     52  C   UNL A   1      46.937  26.272  28.095  1.00  0.00     0.074 A 
ATOM     53  C   UNL A   1      47.264  24.915  27.717  1.00  0.00     0.031 C 
ATOM     54  C   UNL A   1      40.508  26.227  28.181  1.00  0.00     0.029 A 
ATOM     55  C   UNL A   1      41.393  27.343  28.500  1.00  0.00     0.049 A 
ATOM     56  H   UNL A   1      43.473  27.374  28.426  1.00  0.00     0.167 HD
ATOM     57  C   UNL A   1      47.854  27.233  28.356  1.00  0.00     0.037 A 
ATOM     58  C   UNL A   1      40.997  28.565  28.906  1.00  0.00     0.037 A 
ATOM     59  C   UNL A   1      47.525  28.591  28.702  1.00  0.00     0.049 A 
ATOM     60  C   UNL A   1      42.036  29.620  29.174  1.00  0.00     0.074 A 
ATOM     61  C   UNL A   1      48.379  29.657  28.920  1.00  0.00     0.029 A 
ATOM     62  N   UNL A   1      46.235  29.066  28.881  1.00  0.00    -0.354 N 
ATOM     63  N   UNL A   1      43.341  29.536  29.089  1.00  0.00    -0.248 NA
ATOM     64  C   UNL A   1      41.545  30.942  29.583  1.00  0.00     0.031 C 
ATOM     65  C   UNL A   1      47.607  30.768  29.276  1.00  0.00     0.029 A 
ATOM     66  C   UNL A   1      46.270  30.408  29.227  1.00  0.00     0.049 A 
ATOM     67  H   UNL A   1      45.415  28.531  28.778  1.00  0.00     0.167 HD
ATOM     68  C   UNL A   1      43.826  30.797  29.405  1.00  0.00     0.074 A 
ATOM     69  C   UNL A   1      42.672  31.633  29.666  1.00  0.00     0.031 C 
ATOM     70  C   UNL A   1      45.110  31.226  29.476  1.00  0.00     0.037 A 
BRANCH  57  71
ATOM     71  C   UNL A   1      49.304  26.851  28.266  1.00  0.00     0.064 A 
ATOM     72  C   UNL A   1      49.993  26.865  27.043  1.00  0.00     0.173 A 
ATOM     73  C   UNL A   1      50.022  26.498  29.418  1.00  0.00     0.173 A 
ATOM     74  F   UNL A   1      49.350  27.182  25.909  1.00  0.00    -0.203 F 
ATOM     75  C   UNL A   1      51.338  26.510  26.972  1.00  0.00     0.198 A 
ATOM     76  C   UNL A   1      51.375  26.175  29.348  1.00  0.00     0.198 A 
ATOM     77  F   UNL A   1      49.414  26.473  30.613  1.00  0.00    -0.203 F 
ATOM     78  F   UNL A   1      51.959  26.480  25.786  1.00  0.00    -0.200 F 
ATOM     79  C   UNL A   1      52.030  26.173  28.126  1.00  0.00     0.200 A 
ATOM     80  F   UNL A   1      52.045  25.861  30.465  1.00  0.00    -0.200 F 
ATOM     81  F   UNL A   1      53.326  25.839  28.058  1.00  0.00    -0.200 F 
ENDBRANCH  57  71
BRANCH  58  82
ATOM     82  C   UNL A   1      39.548  28.869  29.046  1.00  0.00     0.064 A 
ATOM     83  C   UNL A   1      38.794  29.299  27.946  1.00  0.00     0.173 A 
ATOM     84  C   UNL A   1      38.891  28.745  30.278  1.00  0.00     0.173 A 
ATOM     85  F   UNL A   1      39.381  29.452  26.750  1.00  0.00    -0.203 F 
ATOM     86  C   UNL A   1      37.443  29.617  28.078  1.00  0.00     0.198 A 
ATOM     87  C   UNL A   1      37.533  29.036  30.404  1.00  0.00     0.198 A 
ATOM     88  F   UNL A   1      39.565  28.330  31.361  1.00  0.00    -0.203 F 
ATOM     89  F   UNL A   1      36.758  30.074  27.020  1.00  0.00    -0.200 F 
ATOM     90  C   UNL A   1      36.814  29.481  29.306  1.00  0.00     0.200 A 
ATOM     91  F   UNL A   1      36.925  28.888  31.588  1.00  0.00    -0.200 F 
ATOM     92  F   UNL A   1      35.514  29.785  29.432  1.00  0.00    -0.200 F 
ENDBRANCH  58  82
BRANCH  70  93
ATOM     93  C   UNL A   1      45.334  32.670  29.818  1.00  0.00     0.064 A 
ATOM     94  C   UNL A   1      45.539  33.091  31.140  1.00  0.00     0.173 A 
ATOM     95  C   UNL A   1      45.374  33.640  28.806  1.00  0.00     0.173 A 
ATOM     96  F   UNL A   1      45.495  32.204  32.146  1.00  0.00    -0.203 F 
ATOM     97  C   UNL A   1      45.747  34.435  31.438  1.00  0.00     0.198 A 
ATOM     98  C   UNL A   1      45.614  34.978  29.103  1.00  0.00     0.198 A 
ATOM     99  F   UNL A   1      45.192  33.289  27.524  1.00  0.00    -0.203 F 
ATOM    100  F   UNL A   1      45.888  34.822  32.713  1.00  0.00    -0.200 F 
ATOM    101  C   UNL A   1      45.792  35.376  30.420  1.00  0.00     0.200 A 
ATOM    102  F   UNL A   1      45.672  35.884  28.117  1.00  0.00    -0.200 F 
ATOM    103  F   UNL A   1      45.997  36.669  30.709  1.00  0.00    -0.200 F 
ENDBRANCH  70  93
ENDBRANCH  44  45
ENDBRANCH  36  39
ENDBRANCH  34  35
ENDBRANCH  33  34
ENDBRANCH  32  33
ENDBRANCH  31  32
ENDBRANCH  29  31
ENDBRANCH   1  27
TORSDOF 20
ENDMDL
MODEL 2
REMARK VINA RESULT:     -11.1      2.666      4.608
REMARK SMILES CCCCCCOC(=O)Nc1cccc(-c2ccc([C@@H](C)C(=O)NCCCCNC(=O)c3ccc(-c4c5nc(c(-c6c(F)c(F)c(F)c(F)c6F)c6ccc([nH]6)c(-c6c(F)c(F)c(F)c(F)c6F)c6nc(c(-c7c(F)c(F)c(F)c(F)c7F)c7ccc4[nH]7)C=C6)C=C5)cc3)cc2F)c1
REMARK SMILES IDX 20 1 21 2 19 3 16 4 17 5 96 6 18 7 95 8 97 9 15 10 11 11
REMARK SMILES IDX 12 12 98 13 13 14 14 15 10 16 8 17 9 18 7 20 6 21 5 22 4 23
REMARK SMILES IDX 3 24 2 25 1 26 22 27 23 28 24 29 25 31 26 32 27 33 28 34
REMARK SMILES IDX 29 35 30 36 31 38 32 39 33 40 94 41 34 42 93 43 35 44 36 45
REMARK SMILES IDX 37 46 87 47 38 48 92 49 86 50 88 51 39 52 91 53 85 54 84 55
REMARK SMILES IDX 40 57 72 58 52 59 71 60 53 61 56 62 70 63 89 64 54 65 55 66
REMARK SMILES IDX 69 68 90 69 57 70 41 71 42 72 50 73 43 74 44 75 48 76 51 77
REMARK SMILES IDX 45 78 46 79 49 80 47 81 73 82 74 83 82 84 75 85 76 86 80 87
REMARK SMILES IDX 83 88 77 89 78 90 81 91 79 92 58 93 59 94 67 95 60 96 61 97
REMARK SMILES IDX 65 98 68 99 62 100 63 101 66 102 64 103
REMARK H PARENT 10 19 24 30 29 37 88 56 56 67
REMARK Flexibility Score: inf
ROOT
ATOM      1  C   UNL A   1      32.928  22.846  26.107  1.00  0.00     0.105 C 
ATOM      2  C   UNL A   1      32.950  22.657  27.622  1.00  0.00     0.023 C 
ENDROOT
BRANCH   1   3
ATOM      3  C   UNL A   1      32.074  23.992  25.592  1.00  0.00    -0.033 A 
ATOM      4  C   UNL A   1      30.301  25.959  24.507  1.00  0.00     0.018 A 
ATOM      5  C   UNL A   1      30.418  25.761  25.889  1.00  0.00     0.012 A 
ATOM      6  C   UNL A   1      31.152  25.195  23.690  1.00  0.00     0.131 A 
ATOM      7  C   UNL A   1      31.313  24.823  26.422  1.00  0.00     0.005 A 
ATOM      8  C   UNL A   1      32.002  24.217  24.211  1.00  0.00     0.044 A 
ATOM      9  F   UNL A   1      31.169  25.377  22.360  1.00  0.00    -0.206 F 
BRANCH   4  10
ATOM     10  C   UNL A   1      29.309  26.903  23.948  1.00  0.00    -0.013 A 
ATOM     11  C   UNL A   1      28.815  29.024  22.821  1.00  0.00     0.045 A 
ATOM     12  C   UNL A   1      27.450  28.798  22.967  1.00  0.00     0.026 A 
ATOM     13  C   UNL A   1      29.728  28.075  23.297  1.00  0.00     0.035 A 
ATOM     14  C   UNL A   1      27.005  27.611  23.544  1.00  0.00     0.003 A 
ATOM     15  C   UNL A   1      27.926  26.679  24.038  1.00  0.00     0.009 A 
BRANCH  11  16
ATOM     16  N   UNL A   1      29.246  30.248  22.296  1.00  0.00    -0.291 N 
ATOM     17  C   UNL A   1      29.116  31.486  22.872  1.00  0.00     0.411 C 
ATOM     18  O   UNL A   1      29.090  32.501  22.199  1.00  0.00    -0.224 OA
ATOM     19  H   UNL A   1      29.691  30.218  21.418  1.00  0.00     0.173 HD
BRANCH  17  20
ATOM     20  O   UNL A   1      29.154  31.436  24.231  1.00  0.00    -0.449 OA
BRANCH  20  21
ATOM     21  C   UNL A   1      30.393  31.736  24.890  1.00  0.00     0.235 C 
BRANCH  21  22
ATOM     22  C   UNL A   1      31.049  30.485  25.484  1.00  0.00     0.042 C 
BRANCH  22  23
ATOM     23  C   UNL A   1      32.177  30.740  26.492  1.00  0.00     0.003 C 
BRANCH  23  24
ATOM     24  C   UNL A   1      33.362  29.770  26.395  1.00  0.00    -0.000 C 
BRANCH  24  25
ATOM     25  C   UNL A   1      32.980  28.300  26.229  1.00  0.00    -0.003 C 
ATOM     26  C   UNL A   1      33.624  27.660  25.010  1.00  0.00     0.004 C 
ENDBRANCH  24  25
ENDBRANCH  23  24
ENDBRANCH  22  23
ENDBRANCH  21  22
ENDBRANCH  20  21
ENDBRANCH  17  20
ENDBRANCH  11  16
ENDBRANCH   4  10
ENDBRANCH   1   3
BRANCH   1  27
ATOM     27  C   UNL A   1      32.740  21.537  25.321  1.00  0.00     0.227 C 
ATOM     28  O   UNL A   1      31.601  21.117  25.084  1.00  0.00    -0.274 OA
ATOM     29  N   UNL A   1      33.771  20.789  24.839  1.00  0.00    -0.356 N 
ATOM     30  H   UNL A   1      33.492  20.024  24.286  1.00  0.00     0.163 HD
BRANCH  29  31
ATOM     31  C   UNL A   1      35.202  20.921  24.997  1.00  0.00     0.116 C 
BRANCH  31  32
ATOM     32  C   UNL A   1      35.789  21.971  24.053  1.00  0.00     0.023 C 
BRANCH  32  33
ATOM     33  C   UNL A   1      36.028  23.342  24.683  1.00  0.00     0.023 C 
BRANCH  33  34
ATOM     34  C   UNL A   1      36.751  23.321  26.024  1.00  0.00     0.116 C 
BRANCH  34  35
ATOM     35  N   UNL A   1      37.958  22.507  26.037  1.00  0.00    -0.352 N 
ATOM     36  C   UNL A   1      39.229  22.874  26.413  1.00  0.00     0.251 C 
ATOM     37  H   UNL A   1      37.850  21.575  25.739  1.00  0.00     0.163 HD
ATOM     38  O   UNL A   1      40.165  22.092  26.292  1.00  0.00    -0.269 OA
BRANCH  36  39
ATOM     39  C   UNL A   1      39.463  24.242  26.920  1.00  0.00     0.039 A 
ATOM     40  C   UNL A   1      39.130  24.535  28.245  1.00  0.00     0.014 A 
ATOM     41  C   UNL A   1      40.059  25.211  26.110  1.00  0.00     0.014 A 
ATOM     42  C   UNL A   1      39.467  25.780  28.779  1.00  0.00     0.010 A 
ATOM     43  C   UNL A   1      40.471  26.417  26.667  1.00  0.00     0.010 A 
ATOM     44  C   UNL A   1      40.178  26.714  28.006  1.00  0.00    -0.014 A 
BRANCH  44  45
ATOM     45  C   UNL A   1      40.623  28.007  28.585  1.00  0.00     0.031 A 
ATOM     46  C   UNL A   1      42.068  28.217  28.940  1.00  0.00     0.074 A 
ATOM     47  C   UNL A   1      39.715  28.966  28.847  1.00  0.00     0.049 A 
ATOM     48  N   UNL A   1      42.643  29.257  29.489  1.00  0.00    -0.248 NA
ATOM     49  C   UNL A   1      42.986  27.097  28.673  1.00  0.00     0.031 C 
ATOM     50  C   UNL A   1      38.274  28.855  28.610  1.00  0.00     0.029 A 
ATOM     51  N   UNL A   1      39.866  30.223  29.376  1.00  0.00    -0.354 N 
ATOM     52  C   UNL A   1      43.979  28.912  29.644  1.00  0.00     0.074 A 
ATOM     53  C   UNL A   1      44.119  27.546  29.190  1.00  0.00     0.031 C 
ATOM     54  C   UNL A   1      37.679  30.005  28.963  1.00  0.00     0.029 A 
ATOM     55  C   UNL A   1      38.689  30.924  29.480  1.00  0.00     0.049 A 
ATOM     56  H   UNL A   1      40.737  30.588  29.656  1.00  0.00     0.167 HD
ATOM     57  C   UNL A   1      45.002  29.675  30.093  1.00  0.00     0.037 A 
ATOM     58  C   UNL A   1      38.454  32.167  29.941  1.00  0.00     0.037 A 
ATOM     59  C   UNL A   1      44.863  31.044  30.516  1.00  0.00     0.049 A 
ATOM     60  C   UNL A   1      39.612  33.000  30.422  1.00  0.00     0.074 A 
ATOM     61  C   UNL A   1      45.848  31.926  30.926  1.00  0.00     0.029 A 
ATOM     62  N   UNL A   1      43.659  31.729  30.581  1.00  0.00    -0.354 N 
ATOM     63  N   UNL A   1      40.884  32.691  30.485  1.00  0.00    -0.248 NA
ATOM     64  C   UNL A   1      39.301  34.359  30.883  1.00  0.00     0.031 C 
ATOM     65  C   UNL A   1      45.234  33.131  31.283  1.00  0.00     0.029 A 
ATOM     66  C   UNL A   1      43.874  33.018  31.044  1.00  0.00     0.049 A 
ATOM     67  H   UNL A   1      42.782  31.357  30.335  1.00  0.00     0.167 HD
ATOM     68  C   UNL A   1      41.528  33.823  30.965  1.00  0.00     0.074 A 
ATOM     69  C   UNL A   1      40.507  34.832  31.160  1.00  0.00     0.031 C 
ATOM     70  C   UNL A   1      42.845  34.011  31.225  1.00  0.00     0.037 A 
BRANCH  57  71
ATOM     71  C   UNL A   1      46.366  29.049  30.143  1.00  0.00     0.064 A 
ATOM     72  C   UNL A   1      46.825  28.378  31.288  1.00  0.00     0.173 A 
ATOM     73  C   UNL A   1      47.213  29.092  29.026  1.00  0.00     0.173 A 
ATOM     74  F   UNL A   1      46.061  28.320  32.388  1.00  0.00    -0.203 F 
ATOM     75  C   UNL A   1      48.092  27.801  31.322  1.00  0.00     0.198 A 
ATOM     76  C   UNL A   1      48.466  28.485  29.052  1.00  0.00     0.198 A 
ATOM     77  F   UNL A   1      46.823  29.716  27.905  1.00  0.00    -0.203 F 
ATOM     78  F   UNL A   1      48.528  27.212  32.443  1.00  0.00    -0.200 F 
ATOM     79  C   UNL A   1      48.909  27.848  30.201  1.00  0.00     0.200 A 
ATOM     80  F   UNL A   1      49.249  28.521  27.965  1.00  0.00    -0.200 F 
ATOM     81  F   UNL A   1      50.124  27.286  30.233  1.00  0.00    -0.200 F 
ENDBRANCH  57  71
BRANCH  58  82
ATOM     82  C   UNL A   1      37.072  32.714  29.935  1.00  0.00     0.064 A 
ATOM     83  C   UNL A   1      36.554  33.346  28.796  1.00  0.00     0.173 A 
ATOM     84  C   UNL A   1      36.245  32.626  31.064  1.00  0.00     0.173 A 
ATOM     85  F   UNL A   1      37.312  33.472  27.697  1.00  0.00    -0.203 F 
ATOM     86  C   UNL A   1      35.270  33.889  28.794  1.00  0.00     0.198 A 
ATOM     87  C   UNL A   1      34.952  33.145  31.053  1.00  0.00     0.198 A 
ATOM     88  F   UNL A   1      36.691  32.025  32.178  1.00  0.00    -0.203 F 
ATOM     89  F   UNL A   1      34.819  34.531  27.708  1.00  0.00    -0.200 F 
ATOM     90  C   UNL A   1      34.469  33.784  29.921  1.00  0.00     0.200 A 
ATOM     91  F   UNL A   1      34.175  33.027  32.138  1.00  0.00    -0.200 F 
ATOM     92  F   UNL A   1      33.235  34.306  29.918  1.00  0.00    -0.200 F 
ENDBRANCH  58  82
BRANCH  70  93
ATOM     93  C   UNL A   1      43.262  35.367  31.716  1.00  0.00     0.064 A 
ATOM     94  C   UNL A   1      43.645  36.384  30.830  1.00  0.00     0.173 A 
ATOM     95  C   UNL A   1      43.249  35.660  33.088  1.00  0.00     0.173 A 
ATOM     96  F   UNL A   1      43.688  36.150  29.510  1.00  0.00    -0.203 F 
ATOM     97  C   UNL A   1      44.027  37.637  31.303  1.00  0.00     0.198 A 
ATOM     98  C   UNL A   1      43.601  36.922  33.555  1.00  0.00     0.198 A 
ATOM     99  F   UNL A   1      42.884  34.723  33.976  1.00  0.00    -0.203 F 
ATOM    100  F   UNL A   1      44.439  38.578  30.442  1.00  0.00    -0.200 F 
ATOM    101  C   UNL A   1      43.998  37.908  32.662  1.00  0.00     0.200 A 
ATOM    102  F   UNL A   1      43.558  37.186  34.868  1.00  0.00    -0.200 F 
ATOM    103  F   UNL A   1      44.361  39.116  33.115  1.00  0.00    -0.200 F 
ENDBRANCH  70  93
ENDBRANCH  44  45
ENDBRANCH  36  39
ENDBRANCH  34  35
ENDBRANCH  33  34
ENDBRANCH  32  33
ENDBRANCH  31  32
ENDBRANCH  29  31
ENDBRANCH   1  27
TORSDOF 20
ENDMDL
MODEL 3
REMARK VINA RESULT:     -10.7      2.106      3.453
REMARK SMILES CCCCCCOC(=O)Nc1cccc(-c2ccc([C@@H](C)C(=O)NCCCCNC(=O)c3ccc(-c4c5nc(c(-c6c(F)c(F)c(F)c(F)c6F)c6ccc([nH]6)c(-c6c(F)c(F)c(F)c(F)c6F)c6nc(c(-c7c(F)c(F)c(F)c(F)c7F)c7ccc4[nH]7)C=C6)C=C5)cc3)cc2F)c1
REMARK SMILES IDX 20 1 21 2 19 3 16 4 17 5 96 6 18 7 95 8 97 9 15 10 11 11
REMARK SMILES IDX 12 12 98 13 13 14 14 15 10 16 8 17 9 18 7 20 6 21 5 22 4 23
REMARK SMILES IDX 3 24 2 25 1 26 22 27 23 28 24 29 25 31 26 32 27 33 28 34
REMARK SMILES IDX 29 35 30 36 31 38 32 39 33 40 94 41 34 42 93 43 35 44 36 45
REMARK SMILES IDX 37 46 87 47 38 48 92 49 86 50 88 51 39 52 91 53 85 54 84 55
REMARK SMILES IDX 40 57 72 58 52 59 71 60 53 61 56 62 70 63 89 64 54 65 55 66
REMARK SMILES IDX 69 68 90 69 57 70 41 71 42 72 50 73 43 74 44 75 48 76 51 77
REMARK SMILES IDX 45 78 46 79 49 80 47 81 73 82 74 83 82 84 75 85 76 86 80 87
REMARK SMILES IDX 83 88 77 89 78 90 81 91 79 92 58 93 59 94 67 95 60 96 61 97
REMARK SMILES IDX 65 98 68 99 62 100 63 101 66 102 64 103
REMARK H PARENT 10 19 24 30 29 37 88 56 56 67
REMARK Flexibility Score: inf
ROOT
ATOM      1  C   UNL A   1      33.677  23.865  25.893  1.00  0.00     0.105 C 
ATOM      2  C   UNL A   1      33.912  23.220  27.257  1.00  0.00     0.023 C 
ENDROOT
BRANCH   1   3
ATOM      3  C   UNL A   1      33.132  25.284  25.912  1.00  0.00    -0.033 A 
ATOM      4  C   UNL A   1      32.051  27.922  25.678  1.00  0.00     0.018 A 
ATOM      5  C   UNL A   1      31.414  26.935  26.442  1.00  0.00     0.012 A 
ATOM      6  C   UNL A   1      33.281  27.570  25.097  1.00  0.00     0.131 A 
ATOM      7  C   UNL A   1      31.963  25.653  26.586  1.00  0.00     0.005 A 
ATOM      8  C   UNL A   1      33.803  26.278  25.187  1.00  0.00     0.044 A 
ATOM      9  F   UNL A   1      34.002  28.476  24.418  1.00  0.00    -0.206 F 
BRANCH   4  10
ATOM     10  C   UNL A   1      31.435  29.252  25.476  1.00  0.00    -0.013 A 
ATOM     11  C   UNL A   1      30.124  30.780  24.076  1.00  0.00     0.045 A 
ATOM     12  C   UNL A   1      30.335  31.813  24.984  1.00  0.00     0.026 A 
ATOM     13  C   UNL A   1      30.661  29.513  24.333  1.00  0.00     0.035 A 
ATOM     14  C   UNL A   1      31.040  31.564  26.160  1.00  0.00     0.003 A 
ATOM     15  C   UNL A   1      31.592  30.300  26.397  1.00  0.00     0.009 A 
BRANCH  11  16
ATOM     16  N   UNL A   1      29.469  31.062  22.871  1.00  0.00    -0.291 N 
ATOM     17  C   UNL A   1      28.316  30.486  22.404  1.00  0.00     0.411 C 
ATOM     18  O   UNL A   1      28.067  30.437  21.212  1.00  0.00    -0.224 OA
ATOM     19  H   UNL A   1      29.881  31.748  22.298  1.00  0.00     0.173 HD
BRANCH  17  20
ATOM     20  O   UNL A   1      27.472  30.118  23.405  1.00  0.00    -0.449 OA
BRANCH  20  21
ATOM     21  C   UNL A   1      27.085  28.740  23.500  1.00  0.00     0.235 C 
BRANCH  21  22
ATOM     22  C   UNL A   1      28.156  27.798  22.939  1.00  0.00     0.042 C 
BRANCH  22  23
ATOM     23  C   UNL A   1      28.613  26.675  23.878  1.00  0.00     0.003 C 
BRANCH  23  24
ATOM     24  C   UNL A   1      29.903  25.960  23.452  1.00  0.00    -0.000 C 
BRANCH  24  25
ATOM     25  C   UNL A   1      30.693  26.661  22.348  1.00  0.00    -0.003 C 
ATOM     26  C   UNL A   1      32.007  25.964  22.036  1.00  0.00     0.004 C 
ENDBRANCH  24  25
ENDBRANCH  23  24
ENDBRANCH  22  23
ENDBRANCH  21  22
ENDBRANCH  20  21
ENDBRANCH  17  20
ENDBRANCH  11  16
ENDBRANCH   4  10
ENDBRANCH   1   3
BRANCH   1  27
ATOM     27  C   UNL A   1      32.964  22.945  24.886  1.00  0.00     0.227 C 
ATOM     28  O   UNL A   1      32.128  23.415  24.105  1.00  0.00    -0.274 OA
ATOM     29  N   UNL A   1      33.205  21.610  24.779  1.00  0.00    -0.356 N 
ATOM     30  H   UNL A   1      32.733  21.171  24.035  1.00  0.00     0.163 HD
BRANCH  29  31
ATOM     31  C   UNL A   1      34.031  20.722  25.568  1.00  0.00     0.116 C 
BRANCH  31  32
ATOM     32  C   UNL A   1      35.393  20.477  24.916  1.00  0.00     0.023 C 
BRANCH  32  33
ATOM     33  C   UNL A   1      36.024  21.705  24.262  1.00  0.00     0.023 C 
BRANCH  33  34
ATOM     34  C   UNL A   1      37.304  22.203  24.921  1.00  0.00     0.116 C 
BRANCH  34  35
ATOM     35  N   UNL A   1      38.187  21.142  25.383  1.00  0.00    -0.352 N 
ATOM     36  C   UNL A   1      39.337  21.255  26.131  1.00  0.00     0.251 C 
ATOM     37  H   UNL A   1      37.929  20.227  25.129  1.00  0.00     0.163 HD
ATOM     38  O   UNL A   1      40.021  20.267  26.375  1.00  0.00    -0.269 OA
BRANCH  36  39
ATOM     39  C   UNL A   1      39.766  22.591  26.594  1.00  0.00     0.039 A 
ATOM     40  C   UNL A   1      40.635  22.677  27.685  1.00  0.00     0.014 A 
ATOM     41  C   UNL A   1      39.359  23.745  25.921  1.00  0.00     0.014 A 
ATOM     42  C   UNL A   1      41.156  23.919  28.051  1.00  0.00     0.010 A 
ATOM     43  C   UNL A   1      39.945  24.967  26.232  1.00  0.00     0.010 A 
ATOM     44  C   UNL A   1      40.848  25.067  27.301  1.00  0.00    -0.014 A 
BRANCH  44  45
ATOM     45  C   UNL A   1      41.463  26.380  27.621  1.00  0.00     0.031 A 
ATOM     46  C   UNL A   1      42.871  26.679  27.189  1.00  0.00     0.074 A 
ATOM     47  C   UNL A   1      40.774  27.276  28.352  1.00  0.00     0.049 A 
ATOM     48  N   UNL A   1      43.594  27.748  27.407  1.00  0.00    -0.248 NA
ATOM     49  C   UNL A   1      43.573  25.623  26.442  1.00  0.00     0.031 C 
ATOM     50  C   UNL A   1      39.425  27.076  28.887  1.00  0.00     0.029 A 
ATOM     51  N   UNL A   1      41.114  28.535  28.780  1.00  0.00    -0.354 N 
ATOM     52  C   UNL A   1      44.833  27.488  26.837  1.00  0.00     0.074 A 
ATOM     53  C   UNL A   1      44.787  26.138  26.319  1.00  0.00     0.031 C 
ATOM     54  C   UNL A   1      39.042  28.182  29.543  1.00  0.00     0.029 A 
ATOM     55  C   UNL A   1      40.127  29.158  29.504  1.00  0.00     0.049 A 
ATOM     56  H   UNL A   1      41.984  28.953  28.587  1.00  0.00     0.167 HD
ATOM     57  C   UNL A   1      45.902  28.311  26.727  1.00  0.00     0.037 A 
ATOM     58  C   UNL A   1      40.102  30.378  30.072  1.00  0.00     0.037 A 
ATOM     59  C   UNL A   1      45.933  29.664  27.217  1.00  0.00     0.049 A 
ATOM     60  C   UNL A   1      41.298  31.280  29.922  1.00  0.00     0.074 A 
ATOM     61  C   UNL A   1      46.942  30.603  27.098  1.00  0.00     0.029 A 
ATOM     62  N   UNL A   1      44.903  30.270  27.922  1.00  0.00    -0.354 N 
ATOM     63  N   UNL A   1      42.433  31.052  29.308  1.00  0.00    -0.248 NA
ATOM     64  C   UNL A   1      41.202  32.612  30.534  1.00  0.00     0.031 C 
ATOM     65  C   UNL A   1      46.542  31.762  27.770  1.00  0.00     0.029 A 
ATOM     66  C   UNL A   1      45.262  31.565  28.261  1.00  0.00     0.049 A 
ATOM     67  H   UNL A   1      44.045  29.844  28.147  1.00  0.00     0.167 HD
ATOM     68  C   UNL A   1      43.175  32.218  29.435  1.00  0.00     0.074 A 
ATOM     69  C   UNL A   1      42.353  33.158  30.169  1.00  0.00     0.031 C 
ATOM     70  C   UNL A   1      44.426  32.488  28.987  1.00  0.00     0.037 A 
BRANCH  57  71
ATOM     71  C   UNL A   1      47.125  27.773  26.042  1.00  0.00     0.064 A 
ATOM     72  C   UNL A   1      48.200  27.238  26.769  1.00  0.00     0.173 A 
ATOM     73  C   UNL A   1      47.212  27.763  24.642  1.00  0.00     0.173 A 
ATOM     74  F   UNL A   1      48.173  27.236  28.110  1.00  0.00    -0.203 F 
ATOM     75  C   UNL A   1      49.329  26.742  26.122  1.00  0.00     0.198 A 
ATOM     76  C   UNL A   1      48.329  27.236  23.997  1.00  0.00     0.198 A 
ATOM     77  F   UNL A   1      46.213  28.257  23.898  1.00  0.00    -0.203 F 
ATOM     78  F   UNL A   1      50.363  26.285  26.840  1.00  0.00    -0.200 F 
ATOM     79  C   UNL A   1      49.389  26.734  24.736  1.00  0.00     0.200 A 
ATOM     80  F   UNL A   1      48.381  27.218  22.658  1.00  0.00    -0.200 F 
ATOM     81  F   UNL A   1      50.473  26.249  24.115  1.00  0.00    -0.200 F 
ENDBRANCH  57  71
BRANCH  58  82
ATOM     82  C   UNL A   1      38.889  30.836  30.801  1.00  0.00     0.064 A 
ATOM     83  C   UNL A   1      38.723  30.559  32.165  1.00  0.00     0.173 A 
ATOM     84  C   UNL A   1      37.871  31.549  30.152  1.00  0.00     0.173 A 
ATOM     85  F   UNL A   1      39.660  29.864  32.826  1.00  0.00    -0.203 F 
ATOM     86  C   UNL A   1      37.574  30.957  32.846  1.00  0.00     0.198 A 
ATOM     87  C   UNL A   1      36.735  31.971  30.841  1.00  0.00     0.198 A 
ATOM     88  F   UNL A   1      37.984  31.845  28.848  1.00  0.00    -0.203 F 
ATOM     89  F   UNL A   1      37.420  30.635  34.138  1.00  0.00    -0.200 F 
ATOM     90  C   UNL A   1      36.584  31.666  32.184  1.00  0.00     0.200 A 
ATOM     91  F   UNL A   1      35.788  32.670  30.201  1.00  0.00    -0.200 F 
ATOM     92  F   UNL A   1      35.480  32.050  32.841  1.00  0.00    -0.200 F 
ENDBRANCH  58  82
BRANCH  70  93
ATOM     93  C   UNL A   1      44.968  33.863  29.249  1.00  0.00     0.064 A 
ATOM     94  C   UNL A   1      44.762  34.919  28.350  1.00  0.00     0.173 A 
ATOM     95  C   UNL A   1      45.678  34.133  30.429  1.00  0.00     0.173 A 
ATOM     96  F   UNL A   1      44.102  34.709  27.200  1.00  0.00    -0.203 F 
ATOM     97  C   UNL A   1      45.270  36.189  28.610  1.00  0.00     0.198 A 
ATOM     98  C   UNL A   1      46.157  35.411  30.700  1.00  0.00     0.198 A 
ATOM     99  F   UNL A   1      45.896  33.159  31.325  1.00  0.00    -0.203 F 
ATOM    100  F   UNL A   1      45.106  37.171  27.712  1.00  0.00    -0.200 F 
ATOM    101  C   UNL A   1      45.960  36.436  29.787  1.00  0.00     0.200 A 
ATOM    102  F   UNL A   1      46.812  35.651  31.846  1.00  0.00    -0.200 F 
ATOM    103  F   UNL A   1      46.445  37.660  30.037  1.00  0.00    -0.200 F 
ENDBRANCH  70  93
ENDBRANCH  44  45
ENDBRANCH  36  39
ENDBRANCH  34  35
ENDBRANCH  33  34
ENDBRANCH  32  33
ENDBRANCH  31  32
ENDBRANCH  29  31
ENDBRANCH   1  27
TORSDOF 20
ENDMDL
