MODEL 1
REMARK VINA RESULT:     -14.2      0.000      0.000
REMARK SMILES CN1C(=O)/C(=C\c2cccc(Cl)c2)Sc2ccc(C(=O)NCCCCNC(=O)c3ccc(-c4c5nc(c(-c6c(F)c(F)c(F)c(F)c6F)c6ccc([nH]6)c(-c6c(F)c(F)c(F)c(F)c6F)c6nc(c(-c7c(F)c(F)c(F)c(F)c7F)c7ccc4[nH]7)C=C6)C=C5)cc3)cc21
REMARK SMILES IDX 24 1 23 2 22 3 21 4 19 5 20 6 18 8 1 9 2 10 3 11 93 12 4 13
REMARK SMILES IDX 5 14 15 15 92 16 6 17 14 18 16 19 17 20 7 21 8 22 13 23 9 24
REMARK SMILES IDX 11 25 10 26 12 27 25 28 26 29 27 30 28 32 29 33 30 34 91 35
REMARK SMILES IDX 31 36 90 37 32 38 33 39 34 40 84 41 35 42 89 43 83 44 85 45
REMARK SMILES IDX 36 46 88 47 82 48 81 49 37 51 69 52 49 53 68 54 50 55 53 56
REMARK SMILES IDX 67 57 86 58 51 59 52 60 66 62 87 63 54 64 38 65 39 66 47 67
REMARK SMILES IDX 40 68 41 69 45 70 48 71 42 72 43 73 46 74 44 75 70 76 71 77
REMARK SMILES IDX 79 78 72 79 73 80 77 81 80 82 74 83 75 84 78 85 76 86 55 87
REMARK SMILES IDX 56 88 64 89 57 90 58 91 62 92 65 93 59 94 60 95 63 96 61 97
REMARK H PARENT 21 7 26 31 85 50 53 61
REMARK Flexibility Score: inf
ROOT
ATOM      1  C   UNL A   1      32.226  29.951  25.351  1.00  0.00     0.023 C 
ENDROOT
BRANCH   1   2
ATOM      2  C   UNL A   1      33.212  28.902  24.839  1.00  0.00     0.023 C 
BRANCH   2   3
ATOM      3  C   UNL A   1      33.431  28.910  23.323  1.00  0.00     0.116 C 
BRANCH   3   4
ATOM      4  N   UNL A   1      32.182  28.746  22.610  1.00  0.00    -0.352 N 
ATOM      5  C   UNL A   1      31.183  27.813  22.701  1.00  0.00     0.251 C 
ATOM      6  O   UNL A   1      30.189  27.992  21.993  1.00  0.00    -0.269 OA
ATOM      7  H   UNL A   1      32.019  29.439  21.930  1.00  0.00     0.163 HD
BRANCH   5   8
ATOM      8  C   UNL A   1      31.218  26.619  23.601  1.00  0.00     0.041 A 
ATOM      9  C   UNL A   1      34.077  23.662  22.477  1.00  0.00     0.153 C 
ATOM     10  N   UNL A   1      33.211  23.419  23.625  1.00  0.00    -0.310 N 
ATOM     11  C   UNL A   1      33.459  22.262  24.361  1.00  0.00     0.264 C 
ATOM     12  C   UNL A   1      32.242  24.405  23.997  1.00  0.00     0.058 A 
ATOM     13  O   UNL A   1      34.500  21.616  24.243  1.00  0.00    -0.268 OA
ATOM     14  C   UNL A   1      32.371  21.782  25.270  1.00  0.00     0.078 C 
ATOM     15  C   UNL A   1      31.531  24.309  25.202  1.00  0.00     0.036 A 
ATOM     16  C   UNL A   1      32.048  25.553  23.202  1.00  0.00     0.041 A 
ATOM     17  C   UNL A   1      31.990  20.492  25.311  1.00  0.00     0.029 C 
ATOM     18  S   UNL A   1      31.643  22.935  26.319  1.00  0.00    -0.082 SA
ATOM     19  C   UNL A   1      30.708  25.365  25.608  1.00  0.00     0.018 A 
ATOM     20  C   UNL A   1      30.573  26.515  24.829  1.00  0.00     0.015 A 
BRANCH  17  21
ATOM     21  C   UNL A   1      32.555  19.425  24.481  1.00  0.00    -0.023 A 
ATOM     22  C   UNL A   1      32.133  19.278  23.154  1.00  0.00     0.008 A 
ATOM     23  C   UNL A   1      33.472  18.518  25.019  1.00  0.00     0.028 A 
ATOM     24  C   UNL A   1      32.601  18.219  22.377  1.00  0.00     0.002 A 
ATOM     25  C   UNL A   1      33.943  17.465  24.234  1.00  0.00     0.041 A 
ATOM     26  C   UNL A   1      33.507  17.309  22.918  1.00  0.00     0.020 A 
ATOM     27  Cl  UNL A   1      35.060  16.338  24.899  1.00  0.00    -0.084 Cl
ENDBRANCH  17  21
ENDBRANCH   5   8
ENDBRANCH   3   4
ENDBRANCH   2   3
ENDBRANCH   1   2
BRANCH   1  28
ATOM     28  C   UNL A   1      32.423  30.367  26.802  1.00  0.00     0.116 C 
BRANCH  28  29
ATOM     29  N   UNL A   1      32.349  31.805  27.020  1.00  0.00    -0.352 N 
ATOM     30  C   UNL A   1      33.327  32.631  27.526  1.00  0.00     0.251 C 
ATOM     31  H   UNL A   1      31.499  32.238  26.775  1.00  0.00     0.163 HD
ATOM     32  O   UNL A   1      33.112  33.819  27.725  1.00  0.00    -0.269 OA
BRANCH  30  33
ATOM     33  C   UNL A   1      34.626  32.033  27.888  1.00  0.00     0.039 A 
ATOM     34  C   UNL A   1      34.704  30.678  28.228  1.00  0.00     0.014 A 
ATOM     35  C   UNL A   1      35.742  32.862  27.999  1.00  0.00     0.014 A 
ATOM     36  C   UNL A   1      35.853  30.197  28.842  1.00  0.00     0.010 A 
ATOM     37  C   UNL A   1      36.919  32.358  28.556  1.00  0.00     0.010 A 
ATOM     38  C   UNL A   1      36.961  31.040  29.035  1.00  0.00    -0.014 A 
BRANCH  38  39
ATOM     39  C   UNL A   1      38.135  30.538  29.790  1.00  0.00     0.031 A 
ATOM     40  C   UNL A   1      38.329  30.923  31.232  1.00  0.00     0.074 A 
ATOM     41  C   UNL A   1      38.988  29.685  29.194  1.00  0.00     0.049 A 
ATOM     42  N   UNL A   1      39.302  30.598  32.047  1.00  0.00    -0.248 NA
ATOM     43  C   UNL A   1      37.300  31.780  31.838  1.00  0.00     0.031 C 
ATOM     44  C   UNL A   1      38.880  29.217  27.814  1.00  0.00     0.029 A 
ATOM     45  N   UNL A   1      40.094  29.045  29.683  1.00  0.00    -0.354 N 
ATOM     46  C   UNL A   1      39.014  31.231  33.250  1.00  0.00     0.074 A 
ATOM     47  C   UNL A   1      37.785  31.969  33.058  1.00  0.00     0.031 C 
ATOM     48  C   UNL A   1      39.853  28.325  27.578  1.00  0.00     0.029 A 
ATOM     49  C   UNL A   1      40.685  28.204  28.771  1.00  0.00     0.049 A 
ATOM     50  H   UNL A   1      40.434  29.174  30.598  1.00  0.00     0.167 HD
ATOM     51  C   UNL A   1      39.710  31.189  34.411  1.00  0.00     0.037 A 
ATOM     52  C   UNL A   1      41.781  27.431  28.883  1.00  0.00     0.037 A 
ATOM     53  C   UNL A   1      40.916  30.429  34.609  1.00  0.00     0.049 A 
ATOM     54  C   UNL A   1      42.551  27.431  30.172  1.00  0.00     0.074 A 
ATOM     55  C   UNL A   1      41.690  30.322  35.752  1.00  0.00     0.029 A 
ATOM     56  N   UNL A   1      41.516  29.637  33.644  1.00  0.00    -0.354 N 
ATOM     57  N   UNL A   1      42.291  28.062  31.289  1.00  0.00    -0.248 NA
ATOM     58  C   UNL A   1      43.778  26.623  30.207  1.00  0.00     0.031 C 
ATOM     59  C   UNL A   1      42.775  29.484  35.468  1.00  0.00     0.029 A 
ATOM     60  C   UNL A   1      42.657  29.045  34.159  1.00  0.00     0.049 A 
ATOM     61  H   UNL A   1      41.180  29.512  32.727  1.00  0.00     0.167 HD
ATOM     62  C   UNL A   1      43.318  27.733  32.160  1.00  0.00     0.074 A 
ATOM     63  C   UNL A   1      44.194  26.825  31.450  1.00  0.00     0.031 C 
ATOM     64  C   UNL A   1      43.522  28.154  33.431  1.00  0.00     0.037 A 
BRANCH  51  65
ATOM     65  C   UNL A   1      39.194  32.000  35.562  1.00  0.00     0.064 A 
ATOM     66  C   UNL A   1      38.356  31.439  36.536  1.00  0.00     0.173 A 
ATOM     67  C   UNL A   1      39.595  33.335  35.725  1.00  0.00     0.173 A 
ATOM     68  F   UNL A   1      37.934  30.172  36.414  1.00  0.00    -0.203 F 
ATOM     69  C   UNL A   1      37.927  32.191  37.628  1.00  0.00     0.198 A 
ATOM     70  C   UNL A   1      39.181  34.076  36.828  1.00  0.00     0.198 A 
ATOM     71  F   UNL A   1      40.399  33.915  34.822  1.00  0.00    -0.203 F 
ATOM     72  F   UNL A   1      37.105  31.644  38.533  1.00  0.00    -0.200 F 
ATOM     73  C   UNL A   1      38.347  33.504  37.778  1.00  0.00     0.200 A 
ATOM     74  F   UNL A   1      39.592  35.343  36.976  1.00  0.00    -0.200 F 
ATOM     75  F   UNL A   1      37.942  34.222  38.835  1.00  0.00    -0.200 F 
ENDBRANCH  51  65
BRANCH  52  76
ATOM     76  C   UNL A   1      42.207  26.599  27.732  1.00  0.00     0.064 A 
ATOM     77  C   UNL A   1      43.171  27.065  26.829  1.00  0.00     0.173 A 
ATOM     78  C   UNL A   1      41.687  25.312  27.534  1.00  0.00     0.173 A 
ATOM     79  F   UNL A   1      43.681  28.297  26.970  1.00  0.00    -0.203 F 
ATOM     80  C   UNL A   1      43.601  26.272  25.768  1.00  0.00     0.198 A 
ATOM     81  C   UNL A   1      42.134  24.512  26.486  1.00  0.00     0.198 A 
ATOM     82  F   UNL A   1      40.763  24.825  28.375  1.00  0.00    -0.203 F 
ATOM     83  F   UNL A   1      44.509  26.746  24.905  1.00  0.00    -0.200 F 
ATOM     84  C   UNL A   1      43.088  24.992  25.602  1.00  0.00     0.200 A 
ATOM     85  F   UNL A   1      41.646  23.273  26.337  1.00  0.00    -0.200 F 
ATOM     86  F   UNL A   1      43.512  24.225  24.590  1.00  0.00    -0.200 F 
ENDBRANCH  52  76
BRANCH  64  87
ATOM     87  C   UNL A   1      44.741  27.639  34.133  1.00  0.00     0.064 A 
ATOM     88  C   UNL A   1      45.946  28.353  34.107  1.00  0.00     0.173 A 
ATOM     89  C   UNL A   1      44.691  26.449  34.872  1.00  0.00     0.173 A 
ATOM     90  F   UNL A   1      46.043  29.490  33.402  1.00  0.00    -0.203 F 
ATOM     91  C   UNL A   1      47.068  27.884  34.786  1.00  0.00     0.198 A 
ATOM     92  C   UNL A   1      45.809  25.992  35.565  1.00  0.00     0.198 A 
ATOM     93  F   UNL A   1      43.558  25.734  34.927  1.00  0.00    -0.203 F 
ATOM     94  F   UNL A   1      48.221  28.564  34.723  1.00  0.00    -0.200 F 
ATOM     95  C   UNL A   1      46.996  26.708  35.518  1.00  0.00     0.200 A 
ATOM     96  F   UNL A   1      45.737  24.860  36.278  1.00  0.00    -0.200 F 
ATOM     97  F   UNL A   1      48.075  26.259  36.174  1.00  0.00    -0.200 F 
ENDBRANCH  64  87
ENDBRANCH  38  39
ENDBRANCH  30  33
ENDBRANCH  28  29
ENDBRANCH   1  28
TORSDOF 12
ENDMDL
MODEL 2
REMARK VINA RESULT:     -14.1      1.580      2.625
REMARK SMILES CN1C(=O)/C(=C\c2cccc(Cl)c2)Sc2ccc(C(=O)NCCCCNC(=O)c3ccc(-c4c5nc(c(-c6c(F)c(F)c(F)c(F)c6F)c6ccc([nH]6)c(-c6c(F)c(F)c(F)c(F)c6F)c6nc(c(-c7c(F)c(F)c(F)c(F)c7F)c7ccc4[nH]7)C=C6)C=C5)cc3)cc21
REMARK SMILES IDX 24 1 23 2 22 3 21 4 19 5 20 6 18 8 1 9 2 10 3 11 93 12 4 13
REMARK SMILES IDX 5 14 15 15 92 16 6 17 14 18 16 19 17 20 7 21 8 22 13 23 9 24
REMARK SMILES IDX 11 25 10 26 12 27 25 28 26 29 27 30 28 32 29 33 30 34 91 35
REMARK SMILES IDX 31 36 90 37 32 38 33 39 34 40 84 41 35 42 89 43 83 44 85 45
REMARK SMILES IDX 36 46 88 47 82 48 81 49 37 51 69 52 49 53 68 54 50 55 53 56
REMARK SMILES IDX 67 57 86 58 51 59 52 60 66 62 87 63 54 64 38 65 39 66 47 67
REMARK SMILES IDX 40 68 41 69 45 70 48 71 42 72 43 73 46 74 44 75 70 76 71 77
REMARK SMILES IDX 79 78 72 79 73 80 77 81 80 82 74 83 75 84 78 85 76 86 55 87
REMARK SMILES IDX 56 88 64 89 57 90 58 91 62 92 65 93 59 94 60 95 63 96 61 97
REMARK H PARENT 21 7 26 31 85 50 53 61
REMARK Flexibility Score: inf
ROOT
ATOM      1  C   UNL A   1      31.995  31.549  26.778  1.00  0.00     0.023 C 
ENDROOT
BRANCH   1   2
ATOM      2  C   UNL A   1      32.332  30.059  26.841  1.00  0.00     0.023 C 
BRANCH   2   3
ATOM      3  C   UNL A   1      33.711  29.686  26.290  1.00  0.00     0.116 C 
BRANCH   3   4
ATOM      4  N   UNL A   1      33.647  29.370  24.879  1.00  0.00    -0.352 N 
ATOM      5  C   UNL A   1      33.288  28.234  24.203  1.00  0.00     0.251 C 
ATOM      6  O   UNL A   1      33.264  28.304  22.972  1.00  0.00    -0.269 OA
ATOM      7  H   UNL A   1      33.910  30.116  24.292  1.00  0.00     0.163 HD
BRANCH   5   8
ATOM      8  C   UNL A   1      32.917  26.941  24.856  1.00  0.00     0.041 A 
ATOM      9  C   UNL A   1      35.247  23.604  23.585  1.00  0.00     0.153 C 
ATOM     10  N   UNL A   1      34.163  23.397  24.539  1.00  0.00    -0.310 N 
ATOM     11  C   UNL A   1      34.033  22.115  25.068  1.00  0.00     0.264 C 
ATOM     12  C   UNL A   1      33.372  24.514  24.958  1.00  0.00     0.058 A 
ATOM     13  O   UNL A   1      34.920  21.268  24.970  1.00  0.00    -0.268 OA
ATOM     14  C   UNL A   1      32.728  21.770  25.715  1.00  0.00     0.078 C 
ATOM     15  C   UNL A   1      32.459  24.403  26.017  1.00  0.00     0.036 A 
ATOM     16  C   UNL A   1      33.562  25.785  24.377  1.00  0.00     0.041 A 
ATOM     17  C   UNL A   1      32.085  20.616  25.458  1.00  0.00     0.029 C 
ATOM     18  S   UNL A   1      32.085  22.885  26.856  1.00  0.00    -0.082 SA
ATOM     19  C   UNL A   1      31.815  25.547  26.501  1.00  0.00     0.018 A 
ATOM     20  C   UNL A   1      32.061  26.803  25.944  1.00  0.00     0.015 A 
BRANCH  17  21
ATOM     21  C   UNL A   1      32.550  19.588  24.524  1.00  0.00    -0.023 A 
ATOM     22  C   UNL A   1      32.157  19.638  23.181  1.00  0.00     0.008 A 
ATOM     23  C   UNL A   1      33.341  18.526  24.974  1.00  0.00     0.028 A 
ATOM     24  C   UNL A   1      32.525  18.623  22.298  1.00  0.00     0.002 A 
ATOM     25  C   UNL A   1      33.713  17.518  24.083  1.00  0.00     0.041 A 
ATOM     26  C   UNL A   1      33.304  17.559  22.750  1.00  0.00     0.020 A 
ATOM     27  Cl  UNL A   1      34.673  16.201  24.638  1.00  0.00    -0.084 Cl
ENDBRANCH  17  21
ENDBRANCH   5   8
ENDBRANCH   3   4
ENDBRANCH   2   3
ENDBRANCH   1   2
BRANCH   1  28
ATOM     28  C   UNL A   1      33.037  32.471  27.394  1.00  0.00     0.116 C 
BRANCH  28  29
ATOM     29  N   UNL A   1      32.562  33.828  27.626  1.00  0.00    -0.352 N 
ATOM     30  C   UNL A   1      33.065  34.757  28.509  1.00  0.00     0.251 C 
ATOM     31  H   UNL A   1      31.789  34.115  27.087  1.00  0.00     0.163 HD
ATOM     32  O   UNL A   1      32.526  35.845  28.658  1.00  0.00    -0.269 OA
BRANCH  30  33
ATOM     33  C   UNL A   1      34.236  34.381  29.324  1.00  0.00     0.039 A 
ATOM     34  C   UNL A   1      35.529  34.578  28.827  1.00  0.00     0.014 A 
ATOM     35  C   UNL A   1      34.029  33.723  30.536  1.00  0.00     0.014 A 
ATOM     36  C   UNL A   1      36.601  33.964  29.460  1.00  0.00     0.010 A 
ATOM     37  C   UNL A   1      35.118  33.162  31.206  1.00  0.00     0.010 A 
ATOM     38  C   UNL A   1      36.400  33.228  30.641  1.00  0.00    -0.014 A 
BRANCH  38  39
ATOM     39  C   UNL A   1      37.539  32.490  31.240  1.00  0.00     0.031 A 
ATOM     40  C   UNL A   1      38.013  32.826  32.628  1.00  0.00     0.074 A 
ATOM     41  C   UNL A   1      38.101  31.476  30.558  1.00  0.00     0.049 A 
ATOM     42  N   UNL A   1      39.002  32.304  33.310  1.00  0.00    -0.248 NA
ATOM     43  C   UNL A   1      37.283  33.881  33.346  1.00  0.00     0.031 C 
ATOM     44  C   UNL A   1      37.702  31.040  29.221  1.00  0.00     0.029 A 
ATOM     45  N   UNL A   1      39.107  30.616  30.907  1.00  0.00    -0.354 N 
ATOM     46  C   UNL A   1      39.027  32.984  34.521  1.00  0.00     0.074 A 
ATOM     47  C   UNL A   1      37.965  33.964  34.479  1.00  0.00     0.031 C 
ATOM     48  C   UNL A   1      38.424  29.962  28.880  1.00  0.00     0.029 A 
ATOM     49  C   UNL A   1      39.373  29.669  29.949  1.00  0.00     0.049 A 
ATOM     50  H   UNL A   1      39.593  30.672  31.761  1.00  0.00     0.167 HD
ATOM     51  C   UNL A   1      39.859  32.797  35.575  1.00  0.00     0.037 A 
ATOM     52  C   UNL A   1      40.289  28.683  29.931  1.00  0.00     0.037 A 
ATOM     53  C   UNL A   1      40.894  31.800  35.626  1.00  0.00     0.049 A 
ATOM     54  C   UNL A   1      41.217  28.520  31.099  1.00  0.00     0.074 A 
ATOM     55  C   UNL A   1      41.784  31.532  36.653  1.00  0.00     0.029 A 
ATOM     56  N   UNL A   1      41.171  30.898  34.611  1.00  0.00    -0.354 N 
ATOM     57  N   UNL A   1      41.257  29.194  32.221  1.00  0.00    -0.248 NA
ATOM     58  C   UNL A   1      42.241  27.472  30.987  1.00  0.00     0.031 C 
ATOM     59  C   UNL A   1      42.618  30.484  36.246  1.00  0.00     0.029 A 
ATOM     60  C   UNL A   1      42.225  30.079  34.981  1.00  0.00     0.049 A 
ATOM     61  H   UNL A   1      40.690  30.846  33.754  1.00  0.00     0.167 HD
ATOM     62  C   UNL A   1      42.306  28.655  32.951  1.00  0.00     0.074 A 
ATOM     63  C   UNL A   1      42.863  27.582  32.154  1.00  0.00     0.031 C 
ATOM     64  C   UNL A   1      42.772  29.024  34.168  1.00  0.00     0.037 A 
BRANCH  51  65
ATOM     65  C   UNL A   1      39.693  33.699  36.761  1.00  0.00     0.064 A 
ATOM     66  C   UNL A   1      40.339  34.940  36.834  1.00  0.00     0.173 A 
ATOM     67  C   UNL A   1      38.826  33.343  37.806  1.00  0.00     0.173 A 
ATOM     68  F   UNL A   1      41.188  35.317  35.866  1.00  0.00    -0.203 F 
ATOM     69  C   UNL A   1      40.133  35.790  37.919  1.00  0.00     0.198 A 
ATOM     70  C   UNL A   1      38.608  34.203  38.879  1.00  0.00     0.198 A 
ATOM     71  F   UNL A   1      38.183  32.167  37.780  1.00  0.00    -0.203 F 
ATOM     72  F   UNL A   1      40.781  36.961  37.982  1.00  0.00    -0.200 F 
ATOM     73  C   UNL A   1      39.261  35.425  38.935  1.00  0.00     0.200 A 
ATOM     74  F   UNL A   1      37.761  33.853  39.856  1.00  0.00    -0.200 F 
ATOM     75  F   UNL A   1      39.057  36.249  39.972  1.00  0.00    -0.200 F 
ENDBRANCH  51  65
BRANCH  52  76
ATOM     76  C   UNL A   1      40.362  27.779  28.757  1.00  0.00     0.064 A 
ATOM     77  C   UNL A   1      39.649  26.574  28.735  1.00  0.00     0.173 A 
ATOM     78  C   UNL A   1      41.115  28.119  27.624  1.00  0.00     0.173 A 
ATOM     79  F   UNL A   1      38.932  26.201  29.806  1.00  0.00    -0.203 F 
ATOM     80  C   UNL A   1      39.686  25.740  27.621  1.00  0.00     0.198 A 
ATOM     81  C   UNL A   1      41.132  27.295  26.501  1.00  0.00     0.198 A 
ATOM     82  F   UNL A   1      41.812  29.264  27.600  1.00  0.00    -0.203 F 
ATOM     83  F   UNL A   1      39.012  24.582  27.631  1.00  0.00    -0.200 F 
ATOM     84  C   UNL A   1      40.420  26.106  26.501  1.00  0.00     0.200 A 
ATOM     85  F   UNL A   1      41.832  27.658  25.418  1.00  0.00    -0.200 F 
ATOM     86  F   UNL A   1      40.443  25.310  25.424  1.00  0.00    -0.200 F 
ENDBRANCH  52  76
BRANCH  64  87
ATOM     87  C   UNL A   1      43.944  28.265  34.708  1.00  0.00     0.064 A 
ATOM     88  C   UNL A   1      45.255  28.724  34.518  1.00  0.00     0.173 A 
ATOM     89  C   UNL A   1      43.754  27.096  35.458  1.00  0.00     0.173 A 
ATOM     90  F   UNL A   1      45.484  29.830  33.795  1.00  0.00    -0.203 F 
ATOM     91  C   UNL A   1      46.338  28.028  35.048  1.00  0.00     0.198 A 
ATOM     92  C   UNL A   1      44.838  26.413  36.003  1.00  0.00     0.198 A 
ATOM     93  F   UNL A   1      42.517  26.622  35.669  1.00  0.00    -0.203 F 
ATOM     94  F   UNL A   1      47.586  28.465  34.827  1.00  0.00    -0.200 F 
ATOM     95  C   UNL A   1      46.128  26.878  35.794  1.00  0.00     0.200 A 
ATOM     96  F   UNL A   1      44.634  25.307  36.730  1.00  0.00    -0.200 F 
ATOM     97  F   UNL A   1      47.172  26.211  36.308  1.00  0.00    -0.200 F 
ENDBRANCH  64  87
ENDBRANCH  38  39
ENDBRANCH  30  33
ENDBRANCH  28  29
ENDBRANCH   1  28
TORSDOF 12
ENDMDL
MODEL 3
REMARK VINA RESULT:     -14.1      1.727      7.588
REMARK SMILES CN1C(=O)/C(=C\c2cccc(Cl)c2)Sc2ccc(C(=O)NCCCCNC(=O)c3ccc(-c4c5nc(c(-c6c(F)c(F)c(F)c(F)c6F)c6ccc([nH]6)c(-c6c(F)c(F)c(F)c(F)c6F)c6nc(c(-c7c(F)c(F)c(F)c(F)c7F)c7ccc4[nH]7)C=C6)C=C5)cc3)cc21
REMARK SMILES IDX 24 1 23 2 22 3 21 4 19 5 20 6 18 8 1 9 2 10 3 11 93 12 4 13
REMARK SMILES IDX 5 14 15 15 92 16 6 17 14 18 16 19 17 20 7 21 8 22 13 23 9 24
REMARK SMILES IDX 11 25 10 26 12 27 25 28 26 29 27 30 28 32 29 33 30 34 91 35
REMARK SMILES IDX 31 36 90 37 32 38 33 39 34 40 84 41 35 42 89 43 83 44 85 45
REMARK SMILES IDX 36 46 88 47 82 48 81 49 37 51 69 52 49 53 68 54 50 55 53 56
REMARK SMILES IDX 67 57 86 58 51 59 52 60 66 62 87 63 54 64 38 65 39 66 47 67
REMARK SMILES IDX 40 68 41 69 45 70 48 71 42 72 43 73 46 74 44 75 70 76 71 77
REMARK SMILES IDX 79 78 72 79 73 80 77 81 80 82 74 83 75 84 78 85 76 86 55 87
REMARK SMILES IDX 56 88 64 89 57 90 58 91 62 92 65 93 59 94 60 95 63 96 61 97
REMARK H PARENT 21 7 26 31 85 50 53 61
REMARK Flexibility Score: inf
ROOT
ATOM      1  C   UNL A   1      31.999  31.660  26.718  1.00  0.00     0.023 C 
ENDROOT
BRANCH   1   2
ATOM      2  C   UNL A   1      32.285  30.161  26.812  1.00  0.00     0.023 C 
BRANCH   2   3
ATOM      3  C   UNL A   1      33.659  29.734  26.287  1.00  0.00     0.116 C 
BRANCH   3   4
ATOM      4  N   UNL A   1      33.607  29.414  24.876  1.00  0.00    -0.352 N 
ATOM      5  C   UNL A   1      33.265  28.272  24.200  1.00  0.00     0.251 C 
ATOM      6  O   UNL A   1      33.247  28.339  22.969  1.00  0.00    -0.269 OA
ATOM      7  H   UNL A   1      33.867  30.161  24.289  1.00  0.00     0.163 HD
BRANCH   5   8
ATOM      8  C   UNL A   1      32.902  26.977  24.855  1.00  0.00     0.041 A 
ATOM      9  C   UNL A   1      35.234  23.650  23.561  1.00  0.00     0.153 C 
ATOM     10  N   UNL A   1      34.158  23.438  24.522  1.00  0.00    -0.310 N 
ATOM     11  C   UNL A   1      34.036  22.155  25.051  1.00  0.00     0.264 C 
ATOM     12  C   UNL A   1      33.366  24.552  24.949  1.00  0.00     0.058 A 
ATOM     13  O   UNL A   1      34.925  21.310  24.945  1.00  0.00    -0.268 OA
ATOM     14  C   UNL A   1      32.737  21.805  25.707  1.00  0.00     0.078 C 
ATOM     15  C   UNL A   1      32.461  24.436  26.015  1.00  0.00     0.036 A 
ATOM     16  C   UNL A   1      33.548  25.824  24.369  1.00  0.00     0.041 A 
ATOM     17  C   UNL A   1      32.096  20.649  25.454  1.00  0.00     0.029 C 
ATOM     18  S   UNL A   1      32.099  22.916  26.855  1.00  0.00    -0.082 SA
ATOM     19  C   UNL A   1      31.818  25.578  26.506  1.00  0.00     0.018 A 
ATOM     20  C   UNL A   1      32.055  26.835  25.948  1.00  0.00     0.015 A 
BRANCH  17  21
ATOM     21  C   UNL A   1      32.558  19.624  24.514  1.00  0.00    -0.023 A 
ATOM     22  C   UNL A   1      32.171  19.686  23.170  1.00  0.00     0.008 A 
ATOM     23  C   UNL A   1      33.337  18.552  24.960  1.00  0.00     0.028 A 
ATOM     24  C   UNL A   1      32.535  18.674  22.282  1.00  0.00     0.002 A 
ATOM     25  C   UNL A   1      33.705  17.547  24.065  1.00  0.00     0.041 A 
ATOM     26  C   UNL A   1      33.303  17.601  22.730  1.00  0.00     0.020 A 
ATOM     27  Cl  UNL A   1      34.652  16.219  24.615  1.00  0.00    -0.084 Cl
ENDBRANCH  17  21
ENDBRANCH   5   8
ENDBRANCH   3   4
ENDBRANCH   2   3
ENDBRANCH   1   2
BRANCH   1  28
ATOM     28  C   UNL A   1      32.947  32.549  27.510  1.00  0.00     0.116 C 
BRANCH  28  29
ATOM     29  N   UNL A   1      32.475  33.916  27.675  1.00  0.00    -0.352 N 
ATOM     30  C   UNL A   1      32.970  34.881  28.524  1.00  0.00     0.251 C 
ATOM     31  H   UNL A   1      31.713  34.183  27.111  1.00  0.00     0.163 HD
ATOM     32  O   UNL A   1      32.435  35.977  28.616  1.00  0.00    -0.269 OA
BRANCH  30  33
ATOM     33  C   UNL A   1      34.126  34.535  29.373  1.00  0.00     0.039 A 
ATOM     34  C   UNL A   1      35.423  34.599  28.853  1.00  0.00     0.014 A 
ATOM     35  C   UNL A   1      33.894  34.035  30.654  1.00  0.00     0.014 A 
ATOM     36  C   UNL A   1      36.464  34.002  29.549  1.00  0.00     0.010 A 
ATOM     37  C   UNL A   1      34.956  33.494  31.381  1.00  0.00     0.010 A 
ATOM     38  C   UNL A   1      36.234  33.421  30.808  1.00  0.00    -0.014 A 
BRANCH  38  39
ATOM     39  C   UNL A   1      37.335  32.692  31.486  1.00  0.00     0.031 A 
ATOM     40  C   UNL A   1      38.062  31.585  30.771  1.00  0.00     0.074 A 
ATOM     41  C   UNL A   1      37.719  33.072  32.717  1.00  0.00     0.049 A 
ATOM     42  N   UNL A   1      39.036  30.824  31.206  1.00  0.00    -0.248 NA
ATOM     43  C   UNL A   1      37.646  31.295  29.391  1.00  0.00     0.031 C 
ATOM     44  C   UNL A   1      37.110  34.153  33.491  1.00  0.00     0.029 A 
ATOM     45  N   UNL A   1      38.727  32.609  33.519  1.00  0.00    -0.354 N 
ATOM     46  C   UNL A   1      39.328  29.952  30.165  1.00  0.00     0.074 A 
ATOM     47  C   UNL A   1      38.424  30.267  29.081  1.00  0.00     0.031 C 
ATOM     48  C   UNL A   1      37.788  34.303  34.639  1.00  0.00     0.029 A 
ATOM     49  C   UNL A   1      38.840  33.294  34.705  1.00  0.00     0.049 A 
ATOM     50  H   UNL A   1      39.314  31.860  33.270  1.00  0.00     0.167 HD
ATOM     51  C   UNL A   1      40.274  28.984  30.118  1.00  0.00     0.037 A 
ATOM     52  C   UNL A   1      39.688  33.117  35.734  1.00  0.00     0.037 A 
ATOM     53  C   UNL A   1      41.194  28.693  31.186  1.00  0.00     0.049 A 
ATOM     54  C   UNL A   1      40.705  32.015  35.668  1.00  0.00     0.074 A 
ATOM     55  C   UNL A   1      42.191  27.733  31.230  1.00  0.00     0.029 A 
ATOM     56  N   UNL A   1      41.237  29.369  32.395  1.00  0.00    -0.354 N 
ATOM     57  N   UNL A   1      40.947  31.173  34.694  1.00  0.00    -0.248 NA
ATOM     58  C   UNL A   1      41.554  31.828  36.853  1.00  0.00     0.031 C 
ATOM     59  C   UNL A   1      42.819  27.812  32.478  1.00  0.00     0.029 A 
ATOM     60  C   UNL A   1      42.235  28.842  33.197  1.00  0.00     0.049 A 
ATOM     61  H   UNL A   1      40.645  30.115  32.647  1.00  0.00     0.167 HD
ATOM     62  C   UNL A   1      41.972  30.356  35.145  1.00  0.00     0.074 A 
ATOM     63  C   UNL A   1      42.324  30.818  36.471  1.00  0.00     0.031 C 
ATOM     64  C   UNL A   1      42.561  29.309  34.519  1.00  0.00     0.037 A 
BRANCH  51  65
ATOM     65  C   UNL A   1      40.360  28.153  28.873  1.00  0.00     0.064 A 
ATOM     66  C   UNL A   1      41.161  28.537  27.789  1.00  0.00     0.173 A 
ATOM     67  C   UNL A   1      39.680  26.927  28.791  1.00  0.00     0.173 A 
ATOM     68  F   UNL A   1      41.816  29.707  27.815  1.00  0.00    -0.203 F 
ATOM     69  C   UNL A   1      41.271  27.727  26.660  1.00  0.00     0.198 A 
ATOM     70  C   UNL A   1      39.809  26.112  27.670  1.00  0.00     0.198 A 
ATOM     71  F   UNL A   1      38.904  26.516  29.804  1.00  0.00    -0.203 F 
ATOM     72  F   UNL A   1      42.021  28.126  25.624  1.00  0.00    -0.200 F 
ATOM     73  C   UNL A   1      40.602  26.513  26.605  1.00  0.00     0.200 A 
ATOM     74  F   UNL A   1      39.168  24.936  27.620  1.00  0.00    -0.200 F 
ATOM     75  F   UNL A   1      40.718  25.731  25.523  1.00  0.00    -0.200 F 
ENDBRANCH  51  65
BRANCH  52  76
ATOM     76  C   UNL A   1      39.600  34.013  36.913  1.00  0.00     0.064 A 
ATOM     77  C   UNL A   1      38.861  33.641  38.042  1.00  0.00     0.173 A 
ATOM     78  C   UNL A   1      40.282  35.238  36.947  1.00  0.00     0.173 A 
ATOM     79  F   UNL A   1      38.178  32.486  38.045  1.00  0.00    -0.203 F 
ATOM     80  C   UNL A   1      38.806  34.462  39.166  1.00  0.00     0.198 A 
ATOM     81  C   UNL A   1      40.245  36.048  38.079  1.00  0.00     0.198 A 
ATOM     82  F   UNL A   1      41.004  35.633  35.889  1.00  0.00    -0.203 F 
ATOM     83  F   UNL A   1      38.075  34.095  40.226  1.00  0.00    -0.200 F 
ATOM     84  C   UNL A   1      39.505  35.661  39.186  1.00  0.00     0.200 A 
ATOM     85  F   UNL A   1      40.932  37.197  38.100  1.00  0.00    -0.200 F 
ATOM     86  F   UNL A   1      39.464  36.444  40.272  1.00  0.00    -0.200 F 
ENDBRANCH  52  76
BRANCH  64  87
ATOM     87  C   UNL A   1      43.644  28.590  35.264  1.00  0.00     0.064 A 
ATOM     88  C   UNL A   1      43.344  27.545  36.148  1.00  0.00     0.173 A 
ATOM     89  C   UNL A   1      44.992  28.920  35.059  1.00  0.00     0.173 A 
ATOM     90  F   UNL A   1      42.069  27.206  36.384  1.00  0.00    -0.203 F 
ATOM     91  C   UNL A   1      44.358  26.863  36.815  1.00  0.00     0.198 A 
ATOM     92  C   UNL A   1      46.004  28.223  35.713  1.00  0.00     0.198 A 
ATOM     93  F   UNL A   1      45.325  29.911  34.219  1.00  0.00    -0.203 F 
ATOM     94  F   UNL A   1      44.050  25.888  37.681  1.00  0.00    -0.200 F 
ATOM     95  C   UNL A   1      45.686  27.198  36.592  1.00  0.00     0.200 A 
ATOM     96  F   UNL A   1      47.286  28.541  35.492  1.00  0.00    -0.200 F 
ATOM     97  F   UNL A   1      46.661  26.537  37.232  1.00  0.00    -0.200 F 
ENDBRANCH  64  87
ENDBRANCH  38  39
ENDBRANCH  30  33
ENDBRANCH  28  29
ENDBRANCH   1  28
TORSDOF 12
ENDMDL
