MODEL 1
REMARK VINA RESULT:     -12.1      0.000      0.000
REMARK SMILES CC(C)N(CCCC(=O)NCCCCNC(=O)c1ccc(-c2c3nc(c(-c4c(F)c(F)c(F)c(F)c4F)c4ccc([nH]4)c(-c4c(F)c(F)c(F)c(F)c4F)c4nc(c(-c5c(F)c(F)c(F)c(F)c5F)c5ccc2[nH]5)C=C4)C=C3)cc1)c1cc(Cl)c(Cl)cc1[N+](=O)[O-]
REMARK SMILES IDX 11 1 10 2 8 3 9 4 7 6 6 7 5 8 4 9 2 10 1 11 3 12 81 13 82 14
REMARK SMILES IDX 88 15 83 16 87 17 84 18 85 19 86 20 89 21 90 22 91 23 12 24
REMARK SMILES IDX 13 25 14 26 15 27 16 28 17 30 18 31 19 32 80 33 20 34 79 35
REMARK SMILES IDX 21 36 22 37 23 38 73 39 24 40 78 41 72 42 74 43 25 44 77 45
REMARK SMILES IDX 71 46 70 47 26 49 58 50 38 51 57 52 39 53 42 54 56 55 75 56
REMARK SMILES IDX 40 57 41 58 55 60 76 61 43 62 27 63 28 64 36 65 29 66 30 67
REMARK SMILES IDX 34 68 37 69 31 70 32 71 35 72 33 73 59 74 60 75 68 76 61 77
REMARK SMILES IDX 62 78 66 79 69 80 63 81 64 82 67 83 65 84 44 85 45 86 53 87
REMARK SMILES IDX 46 88 47 89 51 90 54 91 48 92 49 93 52 94 50 95
REMARK H PARENT 10 5 15 29 74 48 42 59
REMARK Flexibility Score: inf
ROOT
ATOM      1  C   UNL A   1      32.018  28.594  23.071  1.00  0.00     0.116 C 
ENDROOT
BRANCH   1   2
ATOM      2  N   UNL A   1      32.897  27.783  22.256  1.00  0.00    -0.356 N 
ATOM      3  C   UNL A   1      32.940  26.428  22.143  1.00  0.00     0.220 C 
ATOM      4  O   UNL A   1      33.901  25.912  21.573  1.00  0.00    -0.275 OA
ATOM      5  H   UNL A   1      33.550  28.279  21.710  1.00  0.00     0.163 HD
BRANCH   3   6
ATOM      6  C   UNL A   1      31.793  25.590  22.671  1.00  0.00     0.102 C 
BRANCH   6   7
ATOM      7  C   UNL A   1      32.103  24.102  22.855  1.00  0.00     0.031 C 
BRANCH   7   8
ATOM      8  C   UNL A   1      31.447  23.354  24.025  1.00  0.00     0.117 C 
BRANCH   8   9
ATOM      9  N   UNL A   1      32.215  23.142  25.286  1.00  0.00    -0.364 N 
BRANCH   9  10
ATOM     10  C   UNL A   1      31.579  23.688  26.519  1.00  0.00     0.076 C 
ATOM     11  C   UNL A   1      31.381  25.200  26.497  1.00  0.00     0.030 C 
ATOM     12  C   UNL A   1      30.291  22.955  26.876  1.00  0.00     0.030 C 
ENDBRANCH   9  10
BRANCH   9  13
ATOM     13  C   UNL A   1      33.426  22.464  25.304  1.00  0.00     0.117 A 
ATOM     14  C   UNL A   1      34.564  23.181  25.731  1.00  0.00     0.055 A 
ATOM     15  C   UNL A   1      33.677  21.131  24.921  1.00  0.00     0.294 A 
ATOM     16  C   UNL A   1      35.867  22.667  25.646  1.00  0.00     0.062 A 
ATOM     17  C   UNL A   1      34.976  20.584  24.856  1.00  0.00     0.110 A 
ATOM     18  Cl  UNL A   1      37.172  23.716  26.065  1.00  0.00    -0.083 Cl
ATOM     19  C   UNL A   1      36.074  21.367  25.189  1.00  0.00     0.066 A 
ATOM     20  Cl  UNL A   1      37.643  20.676  25.000  1.00  0.00    -0.082 Cl
BRANCH  15  21
ATOM     21  N   UNL A   1      32.635  20.213  24.514  1.00  0.00     0.065 N 
ATOM     22  O   UNL A   1      32.227  20.319  23.350  1.00  0.00    -0.258 OA
ATOM     23  O   UNL A   1      32.153  19.470  25.378  1.00  0.00    -0.258 OA
ENDBRANCH  15  21
ENDBRANCH   9  13
ENDBRANCH   8   9
ENDBRANCH   7   8
ENDBRANCH   6   7
ENDBRANCH   3   6
ENDBRANCH   1   2
BRANCH   1  24
ATOM     24  C   UNL A   1      32.774  29.109  24.298  1.00  0.00     0.023 C 
BRANCH  24  25
ATOM     25  C   UNL A   1      31.871  29.707  25.363  1.00  0.00     0.023 C 
BRANCH  25  26
ATOM     26  C   UNL A   1      32.612  30.143  26.620  1.00  0.00     0.116 C 
BRANCH  26  27
ATOM     27  N   UNL A   1      32.495  31.565  26.918  1.00  0.00    -0.352 N 
ATOM     28  C   UNL A   1      33.412  32.369  27.561  1.00  0.00     0.251 C 
ATOM     29  H   UNL A   1      31.663  32.003  26.627  1.00  0.00     0.163 HD
ATOM     30  O   UNL A   1      33.175  33.533  27.840  1.00  0.00    -0.269 OA
BRANCH  28  31
ATOM     31  C   UNL A   1      34.700  31.757  27.936  1.00  0.00     0.039 A 
ATOM     32  C   UNL A   1      35.818  32.572  28.105  1.00  0.00     0.014 A 
ATOM     33  C   UNL A   1      34.743  30.397  28.259  1.00  0.00     0.014 A 
ATOM     34  C   UNL A   1      36.962  32.039  28.698  1.00  0.00     0.010 A 
ATOM     35  C   UNL A   1      35.846  29.894  28.932  1.00  0.00     0.010 A 
ATOM     36  C   UNL A   1      36.961  30.714  29.166  1.00  0.00    -0.014 A 
BRANCH  36  37
ATOM     37  C   UNL A   1      38.108  30.165  29.929  1.00  0.00     0.031 A 
ATOM     38  C   UNL A   1      38.336  30.596  31.347  1.00  0.00     0.074 A 
ATOM     39  C   UNL A   1      38.991  29.356  29.312  1.00  0.00     0.049 A 
ATOM     40  N   UNL A   1      39.320  30.297  32.156  1.00  0.00    -0.248 NA
ATOM     41  C   UNL A   1      37.346  31.521  31.922  1.00  0.00     0.031 C 
ATOM     42  C   UNL A   1      38.919  28.934  27.912  1.00  0.00     0.029 A 
ATOM     43  N   UNL A   1      40.132  28.755  29.781  1.00  0.00    -0.354 N 
ATOM     44  C   UNL A   1      39.077  31.008  33.321  1.00  0.00     0.074 A 
ATOM     45  C   UNL A   1      37.890  31.803  33.096  1.00  0.00     0.031 C 
ATOM     46  C   UNL A   1      39.954  28.121  27.644  1.00  0.00     0.029 A 
ATOM     47  C   UNL A   1      40.777  27.990  28.841  1.00  0.00     0.049 A 
ATOM     48  H   UNL A   1      40.456  28.862  30.705  1.00  0.00     0.167 HD
ATOM     49  C   UNL A   1      39.764  30.978  34.487  1.00  0.00     0.037 A 
ATOM     50  C   UNL A   1      41.906  27.263  28.939  1.00  0.00     0.037 A 
ATOM     51  C   UNL A   1      40.923  30.157  34.718  1.00  0.00     0.049 A 
ATOM     52  C   UNL A   1      42.633  27.215  30.255  1.00  0.00     0.074 A 
ATOM     53  C   UNL A   1      41.649  29.996  35.883  1.00  0.00     0.029 A 
ATOM     54  N   UNL A   1      41.524  29.359  33.755  1.00  0.00    -0.354 N 
ATOM     55  N   UNL A   1      42.348  27.828  31.378  1.00  0.00    -0.248 NA
ATOM     56  C   UNL A   1      43.831  26.368  30.319  1.00  0.00     0.031 C 
ATOM     57  C   UNL A   1      42.710  29.123  35.617  1.00  0.00     0.029 A 
ATOM     58  C   UNL A   1      42.622  28.711  34.297  1.00  0.00     0.049 A 
ATOM     59  H   UNL A   1      41.215  29.265  32.825  1.00  0.00     0.167 HD
ATOM     60  C   UNL A   1      43.318  27.430  32.286  1.00  0.00     0.074 A 
ATOM     61  C   UNL A   1      44.189  26.507  31.588  1.00  0.00     0.031 C 
ATOM     62  C   UNL A   1      43.475  27.796  33.582  1.00  0.00     0.037 A 
BRANCH  49  63
ATOM     63  C   UNL A   1      39.264  31.849  35.601  1.00  0.00     0.064 A 
ATOM     64  C   UNL A   1      38.395  31.352  36.586  1.00  0.00     0.173 A 
ATOM     65  C   UNL A   1      39.658  33.192  35.690  1.00  0.00     0.173 A 
ATOM     66  F   UNL A   1      37.976  30.079  36.536  1.00  0.00    -0.203 F 
ATOM     67  C   UNL A   1      37.909  32.178  37.596  1.00  0.00     0.198 A 
ATOM     68  C   UNL A   1      39.194  34.007  36.719  1.00  0.00     0.198 A 
ATOM     69  F   UNL A   1      40.488  33.715  34.776  1.00  0.00    -0.203 F 
ATOM     70  F   UNL A   1      37.034  31.697  38.489  1.00  0.00    -0.200 F 
ATOM     71  C   UNL A   1      38.314  33.503  37.665  1.00  0.00     0.200 A 
ATOM     72  F   UNL A   1      39.592  35.285  36.791  1.00  0.00    -0.200 F 
ATOM     73  F   UNL A   1      37.844  34.297  38.637  1.00  0.00    -0.200 F 
ENDBRANCH  49  63
BRANCH  50  74
ATOM     74  C   UNL A   1      42.392  26.492  27.766  1.00  0.00     0.064 A 
ATOM     75  C   UNL A   1      43.376  27.021  26.920  1.00  0.00     0.173 A 
ATOM     76  C   UNL A   1      41.899  25.212  27.477  1.00  0.00     0.173 A 
ATOM     77  F   UNL A   1      43.865  28.249  27.146  1.00  0.00    -0.203 F 
ATOM     78  C   UNL A   1      43.838  26.304  25.816  1.00  0.00     0.198 A 
ATOM     79  C   UNL A   1      42.378  24.486  26.388  1.00  0.00     0.198 A 
ATOM     80  F   UNL A   1      40.962  24.661  28.261  1.00  0.00    -0.203 F 
ATOM     81  F   UNL A   1      44.753  26.847  25.003  1.00  0.00    -0.200 F 
ATOM     82  C   UNL A   1      43.342  25.035  25.556  1.00  0.00     0.200 A 
ATOM     83  F   UNL A   1      41.907  23.256  26.146  1.00  0.00    -0.200 F 
ATOM     84  F   UNL A   1      43.792  24.343  24.500  1.00  0.00    -0.200 F 
ENDBRANCH  50  74
BRANCH  62  85
ATOM     85  C   UNL A   1      44.620  27.185  34.331  1.00  0.00     0.064 A 
ATOM     86  C   UNL A   1      45.867  27.823  34.410  1.00  0.00     0.173 A 
ATOM     87  C   UNL A   1      44.456  25.971  35.013  1.00  0.00     0.173 A 
ATOM     88  F   UNL A   1      46.075  28.979  33.762  1.00  0.00    -0.203 F 
ATOM     89  C   UNL A   1      46.914  27.257  35.131  1.00  0.00     0.198 A 
ATOM     90  C   UNL A   1      45.498  25.420  35.753  1.00  0.00     0.198 A 
ATOM     91  F   UNL A   1      43.281  25.325  34.971  1.00  0.00    -0.203 F 
ATOM     92  F   UNL A   1      48.109  27.863  35.160  1.00  0.00    -0.200 F 
ATOM     93  C   UNL A   1      46.727  26.060  35.807  1.00  0.00     0.200 A 
ATOM     94  F   UNL A   1      45.314  24.269  36.415  1.00  0.00    -0.200 F 
ATOM     95  F   UNL A   1      47.736  25.520  36.505  1.00  0.00    -0.200 F 
ENDBRANCH  62  85
ENDBRANCH  36  37
ENDBRANCH  28  31
ENDBRANCH  26  27
ENDBRANCH  25  26
ENDBRANCH  24  25
ENDBRANCH   1  24
TORSDOF 17
ENDMDL
MODEL 2
REMARK VINA RESULT:     -11.9      1.663      2.469
REMARK SMILES CC(C)N(CCCC(=O)NCCCCNC(=O)c1ccc(-c2c3nc(c(-c4c(F)c(F)c(F)c(F)c4F)c4ccc([nH]4)c(-c4c(F)c(F)c(F)c(F)c4F)c4nc(c(-c5c(F)c(F)c(F)c(F)c5F)c5ccc2[nH]5)C=C4)C=C3)cc1)c1cc(Cl)c(Cl)cc1[N+](=O)[O-]
REMARK SMILES IDX 11 1 10 2 8 3 9 4 7 6 6 7 5 8 4 9 2 10 1 11 3 12 81 13 82 14
REMARK SMILES IDX 88 15 83 16 87 17 84 18 85 19 86 20 89 21 90 22 91 23 12 24
REMARK SMILES IDX 13 25 14 26 15 27 16 28 17 30 18 31 19 32 80 33 20 34 79 35
REMARK SMILES IDX 21 36 22 37 23 38 73 39 24 40 78 41 72 42 74 43 25 44 77 45
REMARK SMILES IDX 71 46 70 47 26 49 58 50 38 51 57 52 39 53 42 54 56 55 75 56
REMARK SMILES IDX 40 57 41 58 55 60 76 61 43 62 27 63 28 64 36 65 29 66 30 67
REMARK SMILES IDX 34 68 37 69 31 70 32 71 35 72 33 73 59 74 60 75 68 76 61 77
REMARK SMILES IDX 62 78 66 79 69 80 63 81 64 82 67 83 65 84 44 85 45 86 53 87
REMARK SMILES IDX 46 88 47 89 51 90 54 91 48 92 49 93 52 94 50 95
REMARK H PARENT 10 5 15 29 74 48 42 59
REMARK Flexibility Score: inf
ROOT
ATOM      1  C   UNL A   1      33.037  28.580  22.718  1.00  0.00     0.116 C 
ENDROOT
BRANCH   1   2
ATOM      2  N   UNL A   1      31.712  29.110  22.481  1.00  0.00    -0.356 N 
ATOM      3  C   UNL A   1      30.544  28.433  22.308  1.00  0.00     0.220 C 
ATOM      4  O   UNL A   1      29.560  29.046  21.895  1.00  0.00    -0.275 OA
ATOM      5  H   UNL A   1      31.647  30.092  22.438  1.00  0.00     0.163 HD
BRANCH   3   6
ATOM      6  C   UNL A   1      30.464  26.963  22.670  1.00  0.00     0.102 C 
BRANCH   6   7
ATOM      7  C   UNL A   1      30.300  26.669  24.164  1.00  0.00     0.031 C 
BRANCH   7   8
ATOM      8  C   UNL A   1      30.521  25.232  24.657  1.00  0.00     0.117 C 
BRANCH   8   9
ATOM      9  N   UNL A   1      31.904  24.676  24.709  1.00  0.00    -0.364 N 
BRANCH   9  10
ATOM     10  C   UNL A   1      32.987  25.679  24.920  1.00  0.00     0.076 C 
ATOM     11  C   UNL A   1      33.087  26.192  26.353  1.00  0.00     0.030 C 
ATOM     12  C   UNL A   1      34.334  25.189  24.401  1.00  0.00     0.030 C 
ENDBRANCH   9  10
BRANCH   9  13
ATOM     13  C   UNL A   1      32.155  23.316  24.588  1.00  0.00     0.117 A 
ATOM     14  C   UNL A   1      32.068  22.753  23.297  1.00  0.00     0.055 A 
ATOM     15  C   UNL A   1      32.469  22.400  25.612  1.00  0.00     0.294 A 
ATOM     16  C   UNL A   1      32.141  21.371  23.060  1.00  0.00     0.062 A 
ATOM     17  C   UNL A   1      32.575  21.011  25.391  1.00  0.00     0.110 A 
ATOM     18  Cl  UNL A   1      31.867  20.820  21.447  1.00  0.00    -0.083 Cl
ATOM     19  C   UNL A   1      32.378  20.495  24.117  1.00  0.00     0.066 A 
ATOM     20  Cl  UNL A   1      32.426  18.782  23.923  1.00  0.00    -0.082 Cl
BRANCH  15  21
ATOM     21  N   UNL A   1      32.665  22.789  26.992  1.00  0.00     0.065 N 
ATOM     22  O   UNL A   1      31.653  23.123  27.622  1.00  0.00    -0.258 OA
ATOM     23  O   UNL A   1      33.827  22.866  27.409  1.00  0.00    -0.258 OA
ENDBRANCH  15  21
ENDBRANCH   9  13
ENDBRANCH   8   9
ENDBRANCH   7   8
ENDBRANCH   6   7
ENDBRANCH   3   6
ENDBRANCH   1   2
BRANCH   1  24
ATOM     24  C   UNL A   1      33.575  29.102  24.052  1.00  0.00     0.023 C 
BRANCH  24  25
ATOM     25  C   UNL A   1      32.496  29.638  24.977  1.00  0.00     0.023 C 
BRANCH  25  26
ATOM     26  C   UNL A   1      32.989  29.930  26.388  1.00  0.00     0.116 C 
BRANCH  26  27
ATOM     27  N   UNL A   1      32.770  31.304  26.823  1.00  0.00    -0.352 N 
ATOM     28  C   UNL A   1      33.608  32.090  27.585  1.00  0.00     0.251 C 
ATOM     29  H   UNL A   1      31.924  31.720  26.540  1.00  0.00     0.163 HD
ATOM     30  O   UNL A   1      33.287  33.203  27.970  1.00  0.00    -0.269 OA
BRANCH  28  31
ATOM     31  C   UNL A   1      34.917  31.520  27.954  1.00  0.00     0.039 A 
ATOM     32  C   UNL A   1      36.021  32.365  28.065  1.00  0.00     0.014 A 
ATOM     33  C   UNL A   1      34.996  30.176  28.329  1.00  0.00     0.014 A 
ATOM     34  C   UNL A   1      37.188  31.879  28.652  1.00  0.00     0.010 A 
ATOM     35  C   UNL A   1      36.124  29.723  28.996  1.00  0.00     0.010 A 
ATOM     36  C   UNL A   1      37.227  30.574  29.172  1.00  0.00    -0.014 A 
BRANCH  36  37
ATOM     37  C   UNL A   1      38.402  30.080  29.929  1.00  0.00     0.031 A 
ATOM     38  C   UNL A   1      38.636  30.550  31.334  1.00  0.00     0.074 A 
ATOM     39  C   UNL A   1      39.302  29.287  29.316  1.00  0.00     0.049 A 
ATOM     40  N   UNL A   1      39.641  30.301  32.134  1.00  0.00    -0.248 NA
ATOM     41  C   UNL A   1      37.625  31.455  31.904  1.00  0.00     0.031 C 
ATOM     42  C   UNL A   1      39.224  28.831  27.927  1.00  0.00     0.029 A 
ATOM     43  N   UNL A   1      40.468  28.734  29.782  1.00  0.00    -0.354 N 
ATOM     44  C   UNL A   1      39.391  31.030  33.287  1.00  0.00     0.074 A 
ATOM     45  C   UNL A   1      38.176  31.781  33.062  1.00  0.00     0.031 C 
ATOM     46  C   UNL A   1      40.280  28.046  27.662  1.00  0.00     0.029 A 
ATOM     47  C   UNL A   1      41.125  27.969  28.849  1.00  0.00     0.049 A 
ATOM     48  H   UNL A   1      40.802  28.872  30.698  1.00  0.00     0.167 HD
ATOM     49  C   UNL A   1      40.096  31.048  34.443  1.00  0.00     0.037 A 
ATOM     50  C   UNL A   1      42.279  27.282  28.946  1.00  0.00     0.037 A 
ATOM     51  C   UNL A   1      41.285  30.271  34.674  1.00  0.00     0.049 A 
ATOM     52  C   UNL A   1      43.025  27.287  30.251  1.00  0.00     0.074 A 
ATOM     53  C   UNL A   1      42.032  30.159  35.832  1.00  0.00     0.029 A 
ATOM     54  N   UNL A   1      41.897  29.471  33.720  1.00  0.00    -0.354 N 
ATOM     55  N   UNL A   1      42.737  27.915  31.364  1.00  0.00    -0.248 NA
ATOM     56  C   UNL A   1      44.251  26.481  30.316  1.00  0.00     0.031 C 
ATOM     57  C   UNL A   1      43.117  29.315  35.569  1.00  0.00     0.029 A 
ATOM     58  C   UNL A   1      43.024  28.872  34.259  1.00  0.00     0.049 A 
ATOM     59  H   UNL A   1      41.578  29.346  32.797  1.00  0.00     0.167 HD
ATOM     60  C   UNL A   1      43.732  27.569  32.267  1.00  0.00     0.074 A 
ATOM     61  C   UNL A   1      44.623  26.659  31.576  1.00  0.00     0.031 C 
ATOM     62  C   UNL A   1      43.896  27.969  33.552  1.00  0.00     0.037 A 
BRANCH  49  63
ATOM     63  C   UNL A   1      39.584  31.927  35.545  1.00  0.00     0.064 A 
ATOM     64  C   UNL A   1      40.062  33.236  35.721  1.00  0.00     0.173 A 
ATOM     65  C   UNL A   1      38.603  31.462  36.433  1.00  0.00     0.173 A 
ATOM     66  F   UNL A   1      41.012  33.723  34.907  1.00  0.00    -0.203 F 
ATOM     67  C   UNL A   1      39.605  34.032  36.768  1.00  0.00     0.198 A 
ATOM     68  C   UNL A   1      38.127  32.272  37.461  1.00  0.00     0.198 A 
ATOM     69  F   UNL A   1      38.112  30.221  36.308  1.00  0.00    -0.203 F 
ATOM     70  F   UNL A   1      40.120  35.255  36.951  1.00  0.00    -0.200 F 
ATOM     71  C   UNL A   1      38.634  33.551  37.633  1.00  0.00     0.200 A 
ATOM     72  F   UNL A   1      37.182  31.811  38.292  1.00  0.00    -0.200 F 
ATOM     73  F   UNL A   1      38.196  34.318  38.641  1.00  0.00    -0.200 F 
ENDBRANCH  49  63
BRANCH  50  74
ATOM     74  C   UNL A   1      42.772  26.501  27.783  1.00  0.00     0.064 A 
ATOM     75  C   UNL A   1      43.647  27.078  26.852  1.00  0.00     0.173 A 
ATOM     76  C   UNL A   1      42.397  25.164  27.586  1.00  0.00     0.173 A 
ATOM     77  F   UNL A   1      44.019  28.359  26.988  1.00  0.00    -0.203 F 
ATOM     78  C   UNL A   1      44.115  26.353  25.757  1.00  0.00     0.198 A 
ATOM     79  C   UNL A   1      42.884  24.432  26.505  1.00  0.00     0.198 A 
ATOM     80  F   UNL A   1      41.569  24.565  28.453  1.00  0.00    -0.203 F 
ATOM     81  F   UNL A   1      44.922  26.939  24.863  1.00  0.00    -0.200 F 
ATOM     82  C   UNL A   1      43.738  25.029  25.589  1.00  0.00     0.200 A 
ATOM     83  F   UNL A   1      42.529  23.150  26.352  1.00  0.00    -0.200 F 
ATOM     84  F   UNL A   1      44.195  24.328  24.541  1.00  0.00    -0.200 F 
ENDBRANCH  50  74
BRANCH  62  85
ATOM     85  C   UNL A   1      45.071  27.412  34.297  1.00  0.00     0.064 A 
ATOM     86  C   UNL A   1      44.985  26.202  34.999  1.00  0.00     0.173 A 
ATOM     87  C   UNL A   1      46.307  28.075  34.271  1.00  0.00     0.173 A 
ATOM     88  F   UNL A   1      43.819  25.541  35.065  1.00  0.00    -0.203 F 
ATOM     89  C   UNL A   1      46.091  25.683  35.666  1.00  0.00     0.198 A 
ATOM     90  C   UNL A   1      47.417  27.540  34.917  1.00  0.00     0.198 A 
ATOM     91  F   UNL A   1      46.440  29.233  33.608  1.00  0.00    -0.203 F 
ATOM     92  F   UNL A   1      45.978  24.546  36.365  1.00  0.00    -0.200 F 
ATOM     93  C   UNL A   1      47.308  26.349  35.619  1.00  0.00     0.200 A 
ATOM     94  F   UNL A   1      48.595  28.178  34.862  1.00  0.00    -0.200 F 
ATOM     95  F   UNL A   1      48.373  25.844  36.255  1.00  0.00    -0.200 F 
ENDBRANCH  62  85
ENDBRANCH  36  37
ENDBRANCH  28  31
ENDBRANCH  26  27
ENDBRANCH  25  26
ENDBRANCH  24  25
ENDBRANCH   1  24
TORSDOF 17
ENDMDL
MODEL 3
REMARK VINA RESULT:     -11.8      3.082      4.920
REMARK SMILES CC(C)N(CCCC(=O)NCCCCNC(=O)c1ccc(-c2c3nc(c(-c4c(F)c(F)c(F)c(F)c4F)c4ccc([nH]4)c(-c4c(F)c(F)c(F)c(F)c4F)c4nc(c(-c5c(F)c(F)c(F)c(F)c5F)c5ccc2[nH]5)C=C4)C=C3)cc1)c1cc(Cl)c(Cl)cc1[N+](=O)[O-]
REMARK SMILES IDX 11 1 10 2 8 3 9 4 7 6 6 7 5 8 4 9 2 10 1 11 3 12 81 13 82 14
REMARK SMILES IDX 88 15 83 16 87 17 84 18 85 19 86 20 89 21 90 22 91 23 12 24
REMARK SMILES IDX 13 25 14 26 15 27 16 28 17 30 18 31 19 32 80 33 20 34 79 35
REMARK SMILES IDX 21 36 22 37 23 38 73 39 24 40 78 41 72 42 74 43 25 44 77 45
REMARK SMILES IDX 71 46 70 47 26 49 58 50 38 51 57 52 39 53 42 54 56 55 75 56
REMARK SMILES IDX 40 57 41 58 55 60 76 61 43 62 27 63 28 64 36 65 29 66 30 67
REMARK SMILES IDX 34 68 37 69 31 70 32 71 35 72 33 73 59 74 60 75 68 76 61 77
REMARK SMILES IDX 62 78 66 79 69 80 63 81 64 82 67 83 65 84 44 85 45 86 53 87
REMARK SMILES IDX 46 88 47 89 51 90 54 91 48 92 49 93 52 94 50 95
REMARK H PARENT 10 5 15 29 74 48 42 59
REMARK Flexibility Score: inf
ROOT
ATOM      1  C   UNL A   1      34.212  31.154  28.002  1.00  0.00     0.116 C 
ENDROOT
BRANCH   1   2
ATOM      2  N   UNL A   1      33.051  31.362  27.165  1.00  0.00    -0.356 N 
ATOM      3  C   UNL A   1      32.212  30.434  26.630  1.00  0.00     0.220 C 
ATOM      4  O   UNL A   1      31.413  30.787  25.763  1.00  0.00    -0.275 OA
ATOM      5  H   UNL A   1      32.838  32.301  26.956  1.00  0.00     0.163 HD
BRANCH   3   6
ATOM      6  C   UNL A   1      32.243  29.006  27.140  1.00  0.00     0.102 C 
BRANCH   6   7
ATOM      7  C   UNL A   1      33.356  28.131  26.557  1.00  0.00     0.031 C 
BRANCH   7   8
ATOM      8  C   UNL A   1      33.655  28.228  25.054  1.00  0.00     0.117 C 
BRANCH   8   9
ATOM      9  N   UNL A   1      32.937  27.333  24.101  1.00  0.00    -0.364 N 
BRANCH   9  10
ATOM     10  C   UNL A   1      33.759  26.240  23.508  1.00  0.00     0.076 C 
ATOM     11  C   UNL A   1      34.148  25.148  24.500  1.00  0.00     0.030 C 
ATOM     12  C   UNL A   1      33.124  25.660  22.249  1.00  0.00     0.030 C 
ENDBRANCH   9  10
BRANCH   9  13
ATOM     13  C   UNL A   1      31.591  27.501  23.807  1.00  0.00     0.117 A 
ATOM     14  C   UNL A   1      31.248  28.526  22.900  1.00  0.00     0.055 A 
ATOM     15  C   UNL A   1      30.495  26.782  24.326  1.00  0.00     0.294 A 
ATOM     16  C   UNL A   1      29.921  28.906  22.640  1.00  0.00     0.062 A 
ATOM     17  C   UNL A   1      29.154  27.127  24.055  1.00  0.00     0.110 A 
ATOM     18  Cl  UNL A   1      29.664  30.276  21.622  1.00  0.00    -0.083 Cl
ATOM     19  C   UNL A   1      28.870  28.211  23.235  1.00  0.00     0.066 A 
ATOM     20  Cl  UNL A   1      27.216  28.645  23.016  1.00  0.00    -0.082 Cl
BRANCH  15  21
ATOM     21  N   UNL A   1      30.639  25.653  25.220  1.00  0.00     0.065 N 
ATOM     22  O   UNL A   1      30.665  24.532  24.696  1.00  0.00    -0.258 OA
ATOM     23  O   UNL A   1      30.614  25.876  26.436  1.00  0.00    -0.258 OA
ENDBRANCH  15  21
ENDBRANCH   9  13
ENDBRANCH   8   9
ENDBRANCH   7   8
ENDBRANCH   6   7
ENDBRANCH   3   6
ENDBRANCH   1   2
BRANCH   1  24
ATOM     24  C   UNL A   1      34.556  32.447  28.747  1.00  0.00     0.023 C 
BRANCH  24  25
ATOM     25  C   UNL A   1      33.613  33.597  28.438  1.00  0.00     0.023 C 
BRANCH  25  26
ATOM     26  C   UNL A   1      34.051  34.926  29.038  1.00  0.00     0.116 C 
BRANCH  26  27
ATOM     27  N   UNL A   1      33.039  35.568  29.868  1.00  0.00    -0.352 N 
ATOM     28  C   UNL A   1      32.950  35.562  31.244  1.00  0.00     0.251 C 
ATOM     29  H   UNL A   1      32.336  36.064  29.390  1.00  0.00     0.163 HD
ATOM     30  O   UNL A   1      32.008  36.060  31.838  1.00  0.00    -0.269 OA
BRANCH  28  31
ATOM     31  C   UNL A   1      34.036  34.895  31.987  1.00  0.00     0.039 A 
ATOM     32  C   UNL A   1      33.892  33.557  32.349  1.00  0.00     0.014 A 
ATOM     33  C   UNL A   1      35.245  35.570  32.183  1.00  0.00     0.014 A 
ATOM     34  C   UNL A   1      35.003  32.860  32.820  1.00  0.00     0.010 A 
ATOM     35  C   UNL A   1      36.368  34.852  32.564  1.00  0.00     0.010 A 
ATOM     36  C   UNL A   1      36.259  33.488  32.876  1.00  0.00    -0.014 A 
BRANCH  36  37
ATOM     37  C   UNL A   1      37.483  32.733  33.235  1.00  0.00     0.031 A 
ATOM     38  C   UNL A   1      38.186  33.021  34.529  1.00  0.00     0.074 A 
ATOM     39  C   UNL A   1      38.009  31.860  32.354  1.00  0.00     0.049 A 
ATOM     40  N   UNL A   1      39.308  32.532  34.989  1.00  0.00    -0.248 NA
ATOM     41  C   UNL A   1      37.565  34.027  35.406  1.00  0.00     0.031 C 
ATOM     42  C   UNL A   1      37.460  31.557  31.031  1.00  0.00     0.029 A 
ATOM     43  N   UNL A   1      39.132  31.076  32.435  1.00  0.00    -0.354 N 
ATOM     44  C   UNL A   1      39.534  33.181  36.194  1.00  0.00     0.074 A 
ATOM     45  C   UNL A   1      38.470  34.144  36.365  1.00  0.00     0.031 C 
ATOM     46  C   UNL A   1      38.232  30.634  30.436  1.00  0.00     0.029 A 
ATOM     47  C   UNL A   1      39.345  30.303  31.320  1.00  0.00     0.049 A 
ATOM     48  H   UNL A   1      39.729  31.069  33.218  1.00  0.00     0.167 HD
ATOM     49  C   UNL A   1      40.525  32.970  37.092  1.00  0.00     0.037 A 
ATOM     50  C   UNL A   1      40.328  29.424  31.047  1.00  0.00     0.037 A 
ATOM     51  C   UNL A   1      41.561  31.985  36.933  1.00  0.00     0.049 A 
ATOM     52  C   UNL A   1      41.397  29.180  32.075  1.00  0.00     0.074 A 
ATOM     53  C   UNL A   1      42.567  31.639  37.816  1.00  0.00     0.029 A 
ATOM     54  N   UNL A   1      41.719  31.186  35.810  1.00  0.00    -0.354 N 
ATOM     55  N   UNL A   1      41.556  29.740  33.249  1.00  0.00    -0.248 NA
ATOM     56  C   UNL A   1      42.416  28.176  31.745  1.00  0.00     0.031 C 
ATOM     57  C   UNL A   1      43.355  30.653  37.213  1.00  0.00     0.029 A 
ATOM     58  C   UNL A   1      42.817  30.357  35.971  1.00  0.00     0.049 A 
ATOM     59  H   UNL A   1      41.136  31.205  35.016  1.00  0.00     0.167 HD
ATOM     60  C   UNL A   1      42.680  29.147  33.806  1.00  0.00     0.074 A 
ATOM     61  C   UNL A   1      43.152  28.169  32.848  1.00  0.00     0.031 C 
ATOM     62  C   UNL A   1      43.269  29.391  35.003  1.00  0.00     0.037 A 
BRANCH  49  63
ATOM     63  C   UNL A   1      40.517  33.815  38.332  1.00  0.00     0.064 A 
ATOM     64  C   UNL A   1      39.726  33.480  39.442  1.00  0.00     0.173 A 
ATOM     65  C   UNL A   1      41.310  34.969  38.415  1.00  0.00     0.173 A 
ATOM     66  F   UNL A   1      38.938  32.395  39.407  1.00  0.00    -0.203 F 
ATOM     67  C   UNL A   1      39.700  34.290  40.575  1.00  0.00     0.198 A 
ATOM     68  C   UNL A   1      41.304  35.761  39.560  1.00  0.00     0.198 A 
ATOM     69  F   UNL A   1      42.085  35.333  37.383  1.00  0.00    -0.203 F 
ATOM     70  F   UNL A   1      38.891  33.982  41.597  1.00  0.00    -0.200 F 
ATOM     71  C   UNL A   1      40.493  35.426  40.634  1.00  0.00     0.200 A 
ATOM     72  F   UNL A   1      42.077  36.853  39.622  1.00  0.00    -0.200 F 
ATOM     73  F   UNL A   1      40.466  36.205  41.724  1.00  0.00    -0.200 F 
ENDBRANCH  49  63
BRANCH  50  74
ATOM     74  C   UNL A   1      40.319  28.684  29.759  1.00  0.00     0.064 A 
ATOM     75  C   UNL A   1      41.044  29.157  28.656  1.00  0.00     0.173 A 
ATOM     76  C   UNL A   1      39.605  27.488  29.607  1.00  0.00     0.173 A 
ATOM     77  F   UNL A   1      41.728  30.307  28.748  1.00  0.00    -0.203 F 
ATOM     78  C   UNL A   1      41.041  28.470  27.444  1.00  0.00     0.198 A 
ATOM     79  C   UNL A   1      39.622  26.788  28.402  1.00  0.00     0.198 A 
ATOM     80  F   UNL A   1      38.902  26.991  30.634  1.00  0.00    -0.203 F 
ATOM     81  F   UNL A   1      41.714  28.962  26.395  1.00  0.00    -0.200 F 
ATOM     82  C   UNL A   1      40.335  27.282  27.320  1.00  0.00     0.200 A 
ATOM     83  F   UNL A   1      38.950  25.635  28.289  1.00  0.00    -0.200 F 
ATOM     84  F   UNL A   1      40.340  26.616  26.157  1.00  0.00    -0.200 F 
ENDBRANCH  50  74
BRANCH  62  85
ATOM     85  C   UNL A   1      44.478  28.575  35.348  1.00  0.00     0.064 A 
ATOM     86  C   UNL A   1      44.365  27.342  36.006  1.00  0.00     0.173 A 
ATOM     87  C   UNL A   1      45.758  29.012  34.977  1.00  0.00     0.173 A 
ATOM     88  F   UNL A   1      43.163  26.891  36.393  1.00  0.00    -0.203 F 
ATOM     89  C   UNL A   1      45.495  26.582  36.297  1.00  0.00     0.198 A 
ATOM     90  C   UNL A   1      46.883  28.238  35.248  1.00  0.00     0.198 A 
ATOM     91  F   UNL A   1      45.917  30.182  34.342  1.00  0.00    -0.203 F 
ATOM     92  F   UNL A   1      45.369  25.427  36.962  1.00  0.00    -0.200 F 
ATOM     93  C   UNL A   1      46.751  27.028  35.913  1.00  0.00     0.200 A 
ATOM     94  F   UNL A   1      48.096  28.663  34.866  1.00  0.00    -0.200 F 
ATOM     95  F   UNL A   1      47.836  26.292  36.189  1.00  0.00    -0.200 F 
ENDBRANCH  62  85
ENDBRANCH  36  37
ENDBRANCH  28  31
ENDBRANCH  26  27
ENDBRANCH  25  26
ENDBRANCH  24  25
ENDBRANCH   1  24
TORSDOF 17
ENDMDL
