MODEL 1
REMARK VINA RESULT:     -12.8      0.000      0.000
REMARK SMILES CC(=O)c1c(C)nn(CC(=O)N2CCC[C@H](c3cccc(C(=O)NCCCCNC(=O)c4ccc(-c5c6nc(c(-c7c(F)c(F)c(F)c(F)c7F)c7ccc([nH]7)c(-c7c(F)c(F)c(F)c(F)c7F)c7nc(c(-c8c(F)c(F)c(F)c(F)c8F)c8ccc5[nH]8)C=C7)C=C6)cc4)c3)C2)c1C
REMARK SMILES IDX 25 1 24 2 22 3 23 4 21 6 17 7 18 8 95 9 19 10 20 11 16 12
REMARK SMILES IDX 12 13 13 14 96 15 14 16 15 17 10 18 11 19 9 20 8 21 4 22
REMARK SMILES IDX 5 23 97 24 6 25 7 26 98 27 2 28 1 29 3 30 26 31 27 32 28 33
REMARK SMILES IDX 29 34 30 35 31 37 32 38 33 39 94 40 34 41 93 42 35 43 36 44
REMARK SMILES IDX 37 45 87 46 38 47 92 48 86 49 88 50 39 51 91 52 85 53 84 54
REMARK SMILES IDX 40 56 72 57 52 58 71 59 53 60 56 61 70 62 89 63 54 64 55 65
REMARK SMILES IDX 69 67 90 68 57 69 41 70 42 71 50 72 43 73 44 74 48 75 51 76
REMARK SMILES IDX 45 77 46 78 49 79 47 80 73 81 74 82 82 83 75 84 76 85 80 86
REMARK SMILES IDX 83 87 77 88 78 89 81 90 79 91 58 92 59 93 67 94 60 95 61 96
REMARK SMILES IDX 65 97 68 98 62 99 63 100 66 101 64 102
REMARK H PARENT 24 5 29 36 88 55 56 66
REMARK Flexibility Score: inf
ROOT
ATOM      1  C   UNL A   1      39.384  21.409  26.111  1.00  0.00     0.116 C 
ENDROOT
BRANCH   1   2
ATOM      2  N   UNL A   1      39.192  22.792  26.537  1.00  0.00    -0.352 N 
ATOM      3  C   UNL A   1      38.172  23.702  26.314  1.00  0.00     0.251 C 
ATOM      4  O   UNL A   1      38.273  24.826  26.802  1.00  0.00    -0.269 OA
ATOM      5  H   UNL A   1      39.927  23.145  27.088  1.00  0.00     0.163 HD
BRANCH   3   6
ATOM      6  C   UNL A   1      37.008  23.388  25.444  1.00  0.00     0.040 A 
ATOM      7  C   UNL A   1      34.882  22.231  25.212  1.00  0.00    -0.042 A 
ATOM      8  C   UNL A   1      35.045  22.305  23.828  1.00  0.00     0.004 A 
ATOM      9  C   UNL A   1      35.802  22.945  25.982  1.00  0.00     0.018 A 
ATOM     10  C   UNL A   1      36.139  22.951  23.246  1.00  0.00     0.001 A 
ATOM     11  C   UNL A   1      37.153  23.447  24.057  1.00  0.00     0.014 A 
BRANCH   7  12
ATOM     12  C   UNL A   1      33.919  21.263  25.913  1.00  0.00     0.039 C 
ATOM     13  N   UNL A   1      31.733  22.392  25.594  1.00  0.00    -0.340 N 
ATOM     14  C   UNL A   1      31.671  22.771  27.015  1.00  0.00     0.119 C 
ATOM     15  C   UNL A   1      32.490  21.169  25.335  1.00  0.00     0.127 C 
ATOM     16  C   UNL A   1      33.037  22.775  27.705  1.00  0.00     0.022 C 
ATOM     17  C   UNL A   1      33.789  21.479  27.430  1.00  0.00     0.012 C 
BRANCH  13  18
ATOM     18  C   UNL A   1      31.246  23.277  24.645  1.00  0.00     0.244 C 
ATOM     19  O   UNL A   1      31.623  23.157  23.466  1.00  0.00    -0.273 OA
BRANCH  18  20
ATOM     20  C   UNL A   1      30.435  24.531  24.958  1.00  0.00     0.244 C 
BRANCH  20  21
ATOM     21  N   UNL A   1      30.856  25.844  24.496  1.00  0.00    -0.259 N 
ATOM     22  C   UNL A   1      31.941  27.724  24.102  1.00  0.00     0.061 A 
ATOM     23  C   UNL A   1      30.684  27.682  23.442  1.00  0.00     0.070 A 
ATOM     24  C   UNL A   1      32.016  26.524  24.800  1.00  0.00     0.047 A 
ATOM     25  C   UNL A   1      29.996  28.742  22.660  1.00  0.00     0.069 C 
ATOM     26  N   UNL A   1      30.105  26.486  23.583  1.00  0.00    -0.177 NA
ATOM     27  C   UNL A   1      33.010  26.006  25.774  1.00  0.00     0.067 C 
BRANCH  22  28
ATOM     28  C   UNL A   1      32.899  28.817  24.086  1.00  0.00     0.163 C 
ATOM     29  C   UNL A   1      32.973  29.706  25.302  1.00  0.00     0.093 C 
ATOM     30  O   UNL A   1      33.675  28.970  23.144  1.00  0.00    -0.294 OA
ENDBRANCH  22  28
ENDBRANCH  20  21
ENDBRANCH  18  20
ENDBRANCH  13  18
ENDBRANCH   7  12
ENDBRANCH   3   6
ENDBRANCH   1   2
BRANCH   1  31
ATOM     31  C   UNL A   1      40.409  20.608  26.907  1.00  0.00     0.023 C 
BRANCH  31  32
ATOM     32  C   UNL A   1      41.302  19.650  26.127  1.00  0.00     0.023 C 
BRANCH  32  33
ATOM     33  C   UNL A   1      42.768  19.667  26.535  1.00  0.00     0.116 C 
BRANCH  33  34
ATOM     34  N   UNL A   1      43.699  19.524  25.415  1.00  0.00    -0.352 N 
ATOM     35  C   UNL A   1      44.206  20.534  24.609  1.00  0.00     0.251 C 
ATOM     36  H   UNL A   1      43.997  18.609  25.208  1.00  0.00     0.163 HD
ATOM     37  O   UNL A   1      44.679  20.307  23.513  1.00  0.00    -0.269 OA
BRANCH  35  38
ATOM     38  C   UNL A   1      44.177  21.909  25.141  1.00  0.00     0.039 A 
ATOM     39  C   UNL A   1      43.113  22.781  24.885  1.00  0.00     0.014 A 
ATOM     40  C   UNL A   1      45.231  22.282  25.965  1.00  0.00     0.014 A 
ATOM     41  C   UNL A   1      43.080  24.010  25.541  1.00  0.00     0.010 A 
ATOM     42  C   UNL A   1      45.115  23.409  26.730  1.00  0.00     0.010 A 
ATOM     43  C   UNL A   1      44.079  24.307  26.478  1.00  0.00    -0.014 A 
BRANCH  43  44
ATOM     44  C   UNL A   1      44.022  25.498  27.320  1.00  0.00     0.031 A 
ATOM     45  C   UNL A   1      45.004  26.565  26.965  1.00  0.00     0.074 A 
ATOM     46  C   UNL A   1      42.947  25.712  28.114  1.00  0.00     0.049 A 
ATOM     47  N   UNL A   1      45.869  27.143  27.733  1.00  0.00    -0.248 NA
ATOM     48  C   UNL A   1      45.117  26.966  25.549  1.00  0.00     0.031 C 
ATOM     49  C   UNL A   1      41.768  24.849  28.276  1.00  0.00     0.029 A 
ATOM     50  N   UNL A   1      42.594  26.818  28.823  1.00  0.00    -0.354 N 
ATOM     51  C   UNL A   1      46.490  28.117  26.951  1.00  0.00     0.074 A 
ATOM     52  C   UNL A   1      46.133  27.829  25.589  1.00  0.00     0.031 C 
ATOM     53  C   UNL A   1      40.750  25.563  28.798  1.00  0.00     0.029 A 
ATOM     54  C   UNL A   1      41.245  26.876  29.159  1.00  0.00     0.049 A 
ATOM     55  H   UNL A   1      43.239  27.516  29.076  1.00  0.00     0.167 HD
ATOM     56  C   UNL A   1      47.023  29.236  27.519  1.00  0.00     0.037 A 
ATOM     57  C   UNL A   1      40.575  27.954  29.642  1.00  0.00     0.037 A 
ATOM     58  C   UNL A   1      47.255  29.032  28.929  1.00  0.00     0.049 A 
ATOM     59  C   UNL A   1      41.595  28.898  30.166  1.00  0.00     0.074 A 
ATOM     60  C   UNL A   1      47.991  28.123  29.667  1.00  0.00     0.029 A 
ATOM     61  N   UNL A   1      46.374  29.596  29.819  1.00  0.00    -0.354 N 
ATOM     62  N   UNL A   1      42.348  28.645  31.202  1.00  0.00    -0.248 NA
ATOM     63  C   UNL A   1      42.110  29.903  29.248  1.00  0.00     0.031 C 
ATOM     64  C   UNL A   1      47.174  27.825  30.799  1.00  0.00     0.029 A 
ATOM     65  C   UNL A   1      46.037  28.630  30.730  1.00  0.00     0.049 A 
ATOM     66  H   UNL A   1      46.045  30.525  29.805  1.00  0.00     0.167 HD
ATOM     67  C   UNL A   1      43.603  29.112  30.845  1.00  0.00     0.074 A 
ATOM     68  C   UNL A   1      43.380  29.942  29.663  1.00  0.00     0.031 C 
ATOM     69  C   UNL A   1      44.736  28.541  31.349  1.00  0.00     0.037 A 
BRANCH  56  70
ATOM     70  C   UNL A   1      46.953  30.625  26.912  1.00  0.00     0.064 A 
ATOM     71  C   UNL A   1      48.108  31.436  26.942  1.00  0.00     0.173 A 
ATOM     72  C   UNL A   1      45.754  31.303  26.601  1.00  0.00     0.173 A 
ATOM     73  F   UNL A   1      49.309  30.907  27.220  1.00  0.00    -0.203 F 
ATOM     74  C   UNL A   1      48.044  32.825  26.797  1.00  0.00     0.198 A 
ATOM     75  C   UNL A   1      45.702  32.683  26.404  1.00  0.00     0.198 A 
ATOM     76  F   UNL A   1      44.565  30.693  26.581  1.00  0.00    -0.203 F 
ATOM     77  F   UNL A   1      49.146  33.564  26.984  1.00  0.00    -0.200 F 
ATOM     78  C   UNL A   1      46.838  33.448  26.541  1.00  0.00     0.200 A 
ATOM     79  F   UNL A   1      44.520  33.268  26.166  1.00  0.00    -0.200 F 
ATOM     80  F   UNL A   1      46.760  34.784  26.476  1.00  0.00    -0.200 F 
ENDBRANCH  56  70
BRANCH  57  81
ATOM     81  C   UNL A   1      39.172  28.359  29.370  1.00  0.00     0.064 A 
ATOM     82  C   UNL A   1      38.244  28.502  30.415  1.00  0.00     0.173 A 
ATOM     83  C   UNL A   1      38.780  28.876  28.118  1.00  0.00     0.173 A 
ATOM     84  F   UNL A   1      38.551  28.078  31.650  1.00  0.00    -0.203 F 
ATOM     85  C   UNL A   1      37.014  29.143  30.226  1.00  0.00     0.198 A 
ATOM     86  C   UNL A   1      37.549  29.508  27.928  1.00  0.00     0.198 A 
ATOM     87  F   UNL A   1      39.619  28.864  27.072  1.00  0.00    -0.203 F 
ATOM     88  F   UNL A   1      36.182  29.316  31.264  1.00  0.00    -0.200 F 
ATOM     89  C   UNL A   1      36.672  29.655  28.986  1.00  0.00     0.200 A 
ATOM     90  F   UNL A   1      37.247  30.026  26.730  1.00  0.00    -0.200 F 
ATOM     91  F   UNL A   1      35.522  30.323  28.819  1.00  0.00    -0.200 F 
ENDBRANCH  57  81
BRANCH  69  92
ATOM     92  C   UNL A   1      44.596  27.564  32.485  1.00  0.00     0.064 A 
ATOM     93  C   UNL A   1      44.446  26.176  32.320  1.00  0.00     0.173 A 
ATOM     94  C   UNL A   1      44.781  28.037  33.790  1.00  0.00     0.173 A 
ATOM     95  F   UNL A   1      44.369  25.628  31.103  1.00  0.00    -0.203 F 
ATOM     96  C   UNL A   1      44.440  25.310  33.413  1.00  0.00     0.198 A 
ATOM     97  C   UNL A   1      44.812  27.168  34.877  1.00  0.00     0.198 A 
ATOM     98  F   UNL A   1      44.988  29.346  34.006  1.00  0.00    -0.203 F 
ATOM     99  F   UNL A   1      44.286  23.991  33.226  1.00  0.00    -0.200 F 
ATOM    100  C   UNL A   1      44.631  25.807  34.691  1.00  0.00     0.200 A 
ATOM    101  F   UNL A   1      45.051  27.649  36.105  1.00  0.00    -0.200 F 
ATOM    102  F   UNL A   1      44.670  24.973  35.739  1.00  0.00    -0.200 F 
ENDBRANCH  69  92
ENDBRANCH  43  44
ENDBRANCH  35  38
ENDBRANCH  33  34
ENDBRANCH  32  33
ENDBRANCH  31  32
ENDBRANCH   1  31
TORSDOF 16
ENDMDL
MODEL 2
REMARK VINA RESULT:     -12.8      2.963      8.741
REMARK SMILES CC(=O)c1c(C)nn(CC(=O)N2CCC[C@H](c3cccc(C(=O)NCCCCNC(=O)c4ccc(-c5c6nc(c(-c7c(F)c(F)c(F)c(F)c7F)c7ccc([nH]7)c(-c7c(F)c(F)c(F)c(F)c7F)c7nc(c(-c8c(F)c(F)c(F)c(F)c8F)c8ccc5[nH]8)C=C7)C=C6)cc4)c3)C2)c1C
REMARK SMILES IDX 25 1 24 2 22 3 23 4 21 6 17 7 18 8 95 9 19 10 20 11 16 12
REMARK SMILES IDX 12 13 13 14 96 15 14 16 15 17 10 18 11 19 9 20 8 21 4 22
REMARK SMILES IDX 5 23 97 24 6 25 7 26 98 27 2 28 1 29 3 30 26 31 27 32 28 33
REMARK SMILES IDX 29 34 30 35 31 37 32 38 33 39 94 40 34 41 93 42 35 43 36 44
REMARK SMILES IDX 37 45 87 46 38 47 92 48 86 49 88 50 39 51 91 52 85 53 84 54
REMARK SMILES IDX 40 56 72 57 52 58 71 59 53 60 56 61 70 62 89 63 54 64 55 65
REMARK SMILES IDX 69 67 90 68 57 69 41 70 42 71 50 72 43 73 44 74 48 75 51 76
REMARK SMILES IDX 45 77 46 78 49 79 47 80 73 81 74 82 82 83 75 84 76 85 80 86
REMARK SMILES IDX 83 87 77 88 78 89 81 90 79 91 58 92 59 93 67 94 60 95 61 96
REMARK SMILES IDX 65 97 68 98 62 99 63 100 66 101 64 102
REMARK H PARENT 24 5 29 36 88 55 56 66
REMARK Flexibility Score: inf
ROOT
ATOM      1  C   UNL A   1      34.263  29.013  26.814  1.00  0.00     0.116 C 
ENDROOT
BRANCH   1   2
ATOM      2  N   UNL A   1      33.132  28.500  27.580  1.00  0.00    -0.352 N 
ATOM      3  C   UNL A   1      31.843  28.148  27.214  1.00  0.00     0.251 C 
ATOM      4  O   UNL A   1      31.079  27.737  28.086  1.00  0.00    -0.269 OA
ATOM      5  H   UNL A   1      33.320  28.380  28.539  1.00  0.00     0.163 HD
BRANCH   3   6
ATOM      6  C   UNL A   1      31.337  28.326  25.827  1.00  0.00     0.040 A 
ATOM      7  C   UNL A   1      30.866  27.297  23.675  1.00  0.00    -0.042 A 
ATOM      8  C   UNL A   1      30.910  28.571  23.108  1.00  0.00     0.004 A 
ATOM      9  C   UNL A   1      30.907  27.239  25.069  1.00  0.00     0.018 A 
ATOM     10  C   UNL A   1      31.114  29.718  23.880  1.00  0.00     0.001 A 
ATOM     11  C   UNL A   1      31.384  29.590  25.238  1.00  0.00     0.014 A 
BRANCH   7  12
ATOM     12  C   UNL A   1      30.994  25.994  22.873  1.00  0.00     0.039 C 
ATOM     13  N   UNL A   1      32.970  24.931  23.932  1.00  0.00    -0.340 N 
ATOM     14  C   UNL A   1      33.807  25.210  22.753  1.00  0.00     0.119 C 
ATOM     15  C   UNL A   1      31.550  24.768  23.629  1.00  0.00     0.127 C 
ATOM     16  C   UNL A   1      33.265  26.340  21.874  1.00  0.00     0.022 C 
ATOM     17  C   UNL A   1      31.789  26.127  21.564  1.00  0.00     0.012 C 
BRANCH  13  18
ATOM     18  C   UNL A   1      33.540  25.021  25.192  1.00  0.00     0.244 C 
ATOM     19  O   UNL A   1      34.183  26.043  25.487  1.00  0.00    -0.273 OA
BRANCH  18  20
ATOM     20  C   UNL A   1      33.622  23.873  26.194  1.00  0.00     0.244 C 
BRANCH  20  21
ATOM     21  N   UNL A   1      33.711  22.489  25.758  1.00  0.00    -0.259 N 
ATOM     22  C   UNL A   1      33.297  20.412  25.140  1.00  0.00     0.061 A 
ATOM     23  C   UNL A   1      34.687  20.700  25.152  1.00  0.00     0.070 A 
ATOM     24  C   UNL A   1      32.686  21.588  25.561  1.00  0.00     0.047 A 
ATOM     25  C   UNL A   1      35.839  19.788  24.928  1.00  0.00     0.069 C 
ATOM     26  N   UNL A   1      34.910  21.995  25.397  1.00  0.00    -0.177 NA
ATOM     27  C   UNL A   1      31.272  21.912  25.876  1.00  0.00     0.067 C 
BRANCH  22  28
ATOM     28  C   UNL A   1      32.671  19.141  24.811  1.00  0.00     0.163 C 
ATOM     29  C   UNL A   1      32.535  18.781  23.352  1.00  0.00     0.093 C 
ATOM     30  O   UNL A   1      32.330  18.352  25.690  1.00  0.00    -0.294 OA
ENDBRANCH  22  28
ENDBRANCH  20  21
ENDBRANCH  18  20
ENDBRANCH  13  18
ENDBRANCH   7  12
ENDBRANCH   3   6
ENDBRANCH   1   2
BRANCH   1  31
ATOM     31  C   UNL A   1      34.792  30.376  27.248  1.00  0.00     0.023 C 
BRANCH  31  32
ATOM     32  C   UNL A   1      33.762  31.429  27.642  1.00  0.00     0.023 C 
BRANCH  32  33
ATOM     33  C   UNL A   1      34.348  32.734  28.160  1.00  0.00     0.116 C 
BRANCH  33  34
ATOM     34  N   UNL A   1      34.137  32.953  29.593  1.00  0.00    -0.352 N 
ATOM     35  C   UNL A   1      34.842  32.382  30.643  1.00  0.00     0.251 C 
ATOM     36  H   UNL A   1      33.412  33.572  29.838  1.00  0.00     0.163 HD
ATOM     37  O   UNL A   1      34.393  32.337  31.771  1.00  0.00    -0.269 OA
BRANCH  35  38
ATOM     38  C   UNL A   1      36.183  31.844  30.350  1.00  0.00     0.039 A 
ATOM     39  C   UNL A   1      37.272  32.678  30.070  1.00  0.00     0.014 A 
ATOM     40  C   UNL A   1      36.333  30.465  30.425  1.00  0.00     0.014 A 
ATOM     41  C   UNL A   1      38.539  32.110  29.951  1.00  0.00     0.010 A 
ATOM     42  C   UNL A   1      37.591  29.932  30.472  1.00  0.00     0.010 A 
ATOM     43  C   UNL A   1      38.690  30.735  30.172  1.00  0.00    -0.014 A 
BRANCH  43  44
ATOM     44  C   UNL A   1      40.003  30.099  30.226  1.00  0.00     0.031 A 
ATOM     45  C   UNL A   1      40.552  29.910  31.601  1.00  0.00     0.074 A 
ATOM     46  C   UNL A   1      40.488  29.457  29.138  1.00  0.00     0.049 A 
ATOM     47  N   UNL A   1      41.698  30.292  32.065  1.00  0.00    -0.248 NA
ATOM     48  C   UNL A   1      39.674  29.316  32.628  1.00  0.00     0.031 C 
ATOM     49  C   UNL A   1      39.849  29.321  27.821  1.00  0.00     0.029 A 
ATOM     50  N   UNL A   1      41.575  28.649  29.016  1.00  0.00    -0.354 N 
ATOM     51  C   UNL A   1      41.766  29.811  33.372  1.00  0.00     0.074 A 
ATOM     52  C   UNL A   1      40.433  29.399  33.720  1.00  0.00     0.031 C 
ATOM     53  C   UNL A   1      40.406  28.293  27.149  1.00  0.00     0.029 A 
ATOM     54  C   UNL A   1      41.540  27.805  27.908  1.00  0.00     0.049 A 
ATOM     55  H   UNL A   1      42.322  28.659  29.656  1.00  0.00     0.167 HD
ATOM     56  C   UNL A   1      42.967  29.542  33.958  1.00  0.00     0.037 A 
ATOM     57  C   UNL A   1      42.353  26.745  27.671  1.00  0.00     0.037 A 
ATOM     58  C   UNL A   1      44.035  30.226  33.269  1.00  0.00     0.049 A 
ATOM     59  C   UNL A   1      43.544  26.908  28.544  1.00  0.00     0.074 A 
ATOM     60  C   UNL A   1      44.304  31.549  32.975  1.00  0.00     0.029 A 
ATOM     61  N   UNL A   1      44.837  29.494  32.428  1.00  0.00    -0.354 N 
ATOM     62  N   UNL A   1      44.416  27.869  28.402  1.00  0.00    -0.248 NA
ATOM     63  C   UNL A   1      43.494  26.297  29.863  1.00  0.00     0.031 C 
ATOM     64  C   UNL A   1      44.839  31.528  31.652  1.00  0.00     0.029 A 
ATOM     65  C   UNL A   1      44.946  30.195  31.255  1.00  0.00     0.049 A 
ATOM     66  H   UNL A   1      45.256  28.625  32.630  1.00  0.00     0.167 HD
ATOM     67  C   UNL A   1      44.700  28.277  29.696  1.00  0.00     0.074 A 
ATOM     68  C   UNL A   1      44.161  27.225  30.556  1.00  0.00     0.031 C 
ATOM     69  C   UNL A   1      45.068  29.565  29.962  1.00  0.00     0.037 A 
BRANCH  56  70
ATOM     70  C   UNL A   1      43.231  28.361  34.874  1.00  0.00     0.064 A 
ATOM     71  C   UNL A   1      43.816  28.601  36.136  1.00  0.00     0.173 A 
ATOM     72  C   UNL A   1      43.239  27.011  34.458  1.00  0.00     0.173 A 
ATOM     73  F   UNL A   1      43.864  29.842  36.644  1.00  0.00    -0.203 F 
ATOM     74  C   UNL A   1      44.463  27.594  36.859  1.00  0.00     0.198 A 
ATOM     75  C   UNL A   1      43.839  25.999  35.207  1.00  0.00     0.198 A 
ATOM     76  F   UNL A   1      42.772  26.620  33.268  1.00  0.00    -0.203 F 
ATOM     77  F   UNL A   1      45.132  27.903  37.977  1.00  0.00    -0.200 F 
ATOM     78  C   UNL A   1      44.485  26.296  36.386  1.00  0.00     0.200 A 
ATOM     79  F   UNL A   1      43.857  24.748  34.725  1.00  0.00    -0.200 F 
ATOM     80  F   UNL A   1      45.167  25.344  37.036  1.00  0.00    -0.200 F 
ENDBRANCH  56  70
BRANCH  57  81
ATOM     81  C   UNL A   1      42.012  25.457  27.012  1.00  0.00     0.064 A 
ATOM     82  C   UNL A   1      42.766  24.976  25.929  1.00  0.00     0.173 A 
ATOM     83  C   UNL A   1      41.112  24.542  27.596  1.00  0.00     0.173 A 
ATOM     84  F   UNL A   1      43.678  25.764  25.341  1.00  0.00    -0.203 F 
ATOM     85  C   UNL A   1      42.647  23.656  25.476  1.00  0.00     0.198 A 
ATOM     86  C   UNL A   1      40.987  23.229  27.139  1.00  0.00     0.198 A 
ATOM     87  F   UNL A   1      40.401  24.872  28.684  1.00  0.00    -0.203 F 
ATOM     88  F   UNL A   1      43.431  23.217  24.481  1.00  0.00    -0.200 F 
ATOM     89  C   UNL A   1      41.765  22.781  26.088  1.00  0.00     0.200 A 
ATOM     90  F   UNL A   1      40.153  22.385  27.762  1.00  0.00    -0.200 F 
ATOM     91  F   UNL A   1      41.695  21.502  25.696  1.00  0.00    -0.200 F 
ENDBRANCH  57  81
BRANCH  69  92
ATOM     92  C   UNL A   1      45.399  30.464  28.803  1.00  0.00     0.064 A 
ATOM     93  C   UNL A   1      44.459  31.262  28.126  1.00  0.00     0.173 A 
ATOM     94  C   UNL A   1      46.748  30.646  28.471  1.00  0.00     0.173 A 
ATOM     95  F   UNL A   1      43.164  31.230  28.453  1.00  0.00    -0.203 F 
ATOM     96  C   UNL A   1      44.849  32.163  27.137  1.00  0.00     0.198 A 
ATOM     97  C   UNL A   1      47.139  31.573  27.509  1.00  0.00     0.198 A 
ATOM     98  F   UNL A   1      47.698  29.955  29.123  1.00  0.00    -0.203 F 
ATOM     99  F   UNL A   1      43.928  32.905  26.502  1.00  0.00    -0.200 F 
ATOM    100  C   UNL A   1      46.190  32.324  26.835  1.00  0.00     0.200 A 
ATOM    101  F   UNL A   1      48.442  31.762  27.260  1.00  0.00    -0.200 F 
ATOM    102  F   UNL A   1      46.570  33.222  25.916  1.00  0.00    -0.200 F 
ENDBRANCH  69  92
ENDBRANCH  43  44
ENDBRANCH  35  38
ENDBRANCH  33  34
ENDBRANCH  32  33
ENDBRANCH  31  32
ENDBRANCH   1  31
TORSDOF 16
ENDMDL
MODEL 3
REMARK VINA RESULT:     -12.7      1.089      2.014
REMARK SMILES CC(=O)c1c(C)nn(CC(=O)N2CCC[C@H](c3cccc(C(=O)NCCCCNC(=O)c4ccc(-c5c6nc(c(-c7c(F)c(F)c(F)c(F)c7F)c7ccc([nH]7)c(-c7c(F)c(F)c(F)c(F)c7F)c7nc(c(-c8c(F)c(F)c(F)c(F)c8F)c8ccc5[nH]8)C=C7)C=C6)cc4)c3)C2)c1C
REMARK SMILES IDX 25 1 24 2 22 3 23 4 21 6 17 7 18 8 95 9 19 10 20 11 16 12
REMARK SMILES IDX 12 13 13 14 96 15 14 16 15 17 10 18 11 19 9 20 8 21 4 22
REMARK SMILES IDX 5 23 97 24 6 25 7 26 98 27 2 28 1 29 3 30 26 31 27 32 28 33
REMARK SMILES IDX 29 34 30 35 31 37 32 38 33 39 94 40 34 41 93 42 35 43 36 44
REMARK SMILES IDX 37 45 87 46 38 47 92 48 86 49 88 50 39 51 91 52 85 53 84 54
REMARK SMILES IDX 40 56 72 57 52 58 71 59 53 60 56 61 70 62 89 63 54 64 55 65
REMARK SMILES IDX 69 67 90 68 57 69 41 70 42 71 50 72 43 73 44 74 48 75 51 76
REMARK SMILES IDX 45 77 46 78 49 79 47 80 73 81 74 82 82 83 75 84 76 85 80 86
REMARK SMILES IDX 83 87 77 88 78 89 81 90 79 91 58 92 59 93 67 94 60 95 61 96
REMARK SMILES IDX 65 97 68 98 62 99 63 100 66 101 64 102
REMARK H PARENT 24 5 29 36 88 55 56 66
REMARK Flexibility Score: inf
ROOT
ATOM      1  C   UNL A   1      39.617  21.474  26.257  1.00  0.00     0.116 C 
ENDROOT
BRANCH   1   2
ATOM      2  N   UNL A   1      39.383  22.839  26.719  1.00  0.00    -0.352 N 
ATOM      3  C   UNL A   1      38.342  23.728  26.509  1.00  0.00     0.251 C 
ATOM      4  O   UNL A   1      38.407  24.840  27.028  1.00  0.00    -0.269 OA
ATOM      5  H   UNL A   1      40.102  23.196  27.288  1.00  0.00     0.163 HD
BRANCH   3   6
ATOM      6  C   UNL A   1      37.196  23.407  25.617  1.00  0.00     0.040 A 
ATOM      7  C   UNL A   1      35.085  22.231  25.342  1.00  0.00    -0.042 A 
ATOM      8  C   UNL A   1      35.272  22.314  23.961  1.00  0.00     0.004 A 
ATOM      9  C   UNL A   1      35.985  22.950  26.131  1.00  0.00     0.018 A 
ATOM     10  C   UNL A   1      36.370  22.972  23.401  1.00  0.00     0.001 A 
ATOM     11  C   UNL A   1      37.366  23.473  24.233  1.00  0.00     0.014 A 
BRANCH   7  12
ATOM     12  C   UNL A   1      34.118  21.252  26.021  1.00  0.00     0.039 C 
ATOM     13  N   UNL A   1      31.916  22.291  25.547  1.00  0.00    -0.340 N 
ATOM     14  C   UNL A   1      31.763  22.712  26.950  1.00  0.00     0.119 C 
ATOM     15  C   UNL A   1      32.728  21.089  25.371  1.00  0.00     0.127 C 
ATOM     16  C   UNL A   1      33.088  22.787  27.712  1.00  0.00     0.022 C 
ATOM     17  C   UNL A   1      33.897  21.511  27.521  1.00  0.00     0.012 C 
BRANCH  13  18
ATOM     18  C   UNL A   1      31.452  23.128  24.544  1.00  0.00     0.244 C 
ATOM     19  O   UNL A   1      31.861  22.954  23.383  1.00  0.00    -0.273 OA
BRANCH  18  20
ATOM     20  C   UNL A   1      30.629  24.391  24.776  1.00  0.00     0.244 C 
BRANCH  20  21
ATOM     21  N   UNL A   1      31.077  25.689  24.297  1.00  0.00    -0.259 N 
ATOM     22  C   UNL A   1      32.209  27.533  23.863  1.00  0.00     0.061 A 
ATOM     23  C   UNL A   1      30.931  27.531  23.245  1.00  0.00     0.070 A 
ATOM     24  C   UNL A   1      32.268  26.331  24.561  1.00  0.00     0.047 A 
ATOM     25  C   UNL A   1      30.252  28.612  22.484  1.00  0.00     0.069 C 
ATOM     26  N   UNL A   1      30.317  26.354  23.408  1.00  0.00    -0.177 NA
ATOM     27  C   UNL A   1      33.276  25.781  25.503  1.00  0.00     0.067 C 
BRANCH  22  28
ATOM     28  C   UNL A   1      33.202  28.594  23.812  1.00  0.00     0.163 C 
ATOM     29  C   UNL A   1      34.139  28.624  22.631  1.00  0.00     0.093 C 
ATOM     30  O   UNL A   1      33.232  29.480  24.664  1.00  0.00    -0.294 OA
ENDBRANCH  22  28
ENDBRANCH  20  21
ENDBRANCH  18  20
ENDBRANCH  13  18
ENDBRANCH   7  12
ENDBRANCH   3   6
ENDBRANCH   1   2
BRANCH   1  31
ATOM     31  C   UNL A   1      40.899  20.817  26.758  1.00  0.00     0.023 C 
BRANCH  31  32
ATOM     32  C   UNL A   1      41.400  19.596  25.994  1.00  0.00     0.023 C 
BRANCH  32  33
ATOM     33  C   UNL A   1      42.862  19.250  26.230  1.00  0.00     0.116 C 
BRANCH  33  34
ATOM     34  N   UNL A   1      43.645  19.103  25.002  1.00  0.00    -0.352 N 
ATOM     35  C   UNL A   1      44.167  20.118  24.212  1.00  0.00     0.251 C 
ATOM     36  H   UNL A   1      43.818  18.182  24.701  1.00  0.00     0.163 HD
ATOM     37  O   UNL A   1      44.489  19.932  23.055  1.00  0.00    -0.269 OA
BRANCH  35  38
ATOM     38  C   UNL A   1      44.344  21.443  24.834  1.00  0.00     0.039 A 
ATOM     39  C   UNL A   1      43.406  22.469  24.673  1.00  0.00     0.014 A 
ATOM     40  C   UNL A   1      45.461  21.608  25.643  1.00  0.00     0.014 A 
ATOM     41  C   UNL A   1      43.561  23.642  25.410  1.00  0.00     0.010 A 
ATOM     42  C   UNL A   1      45.523  22.684  26.483  1.00  0.00     0.010 A 
ATOM     43  C   UNL A   1      44.617  23.732  26.328  1.00  0.00    -0.014 A 
BRANCH  43  44
ATOM     44  C   UNL A   1      44.748  24.857  27.248  1.00  0.00     0.031 A 
ATOM     45  C   UNL A   1      45.925  25.740  26.995  1.00  0.00     0.074 A 
ATOM     46  C   UNL A   1      43.701  25.219  28.026  1.00  0.00     0.049 A 
ATOM     47  N   UNL A   1      46.850  26.096  27.825  1.00  0.00    -0.248 NA
ATOM     48  C   UNL A   1      46.167  26.201  25.614  1.00  0.00     0.031 C 
ATOM     49  C   UNL A   1      42.376  24.585  28.095  1.00  0.00     0.029 A 
ATOM     50  N   UNL A   1      43.532  26.325  28.799  1.00  0.00    -0.354 N 
ATOM     51  C   UNL A   1      47.673  26.983  27.129  1.00  0.00     0.074 A 
ATOM     52  C   UNL A   1      47.322  26.854  25.741  1.00  0.00     0.031 C 
ATOM     53  C   UNL A   1      41.489  25.443  28.638  1.00  0.00     0.029 A 
ATOM     54  C   UNL A   1      42.204  26.616  29.101  1.00  0.00     0.049 A 
ATOM     55  H   UNL A   1      44.285  26.873  29.118  1.00  0.00     0.167 HD
ATOM     56  C   UNL A   1      48.381  27.944  27.787  1.00  0.00     0.037 A 
ATOM     57  C   UNL A   1      41.728  27.767  29.638  1.00  0.00     0.037 A 
ATOM     58  C   UNL A   1      48.514  27.612  29.185  1.00  0.00     0.049 A 
ATOM     59  C   UNL A   1      42.884  28.468  30.255  1.00  0.00     0.074 A 
ATOM     60  C   UNL A   1      49.039  26.537  29.879  1.00  0.00     0.029 A 
ATOM     61  N   UNL A   1      47.719  28.275  30.088  1.00  0.00    -0.354 N 
ATOM     62  N   UNL A   1      43.535  28.013  31.291  1.00  0.00    -0.248 NA
ATOM     63  C   UNL A   1      43.613  29.413  29.423  1.00  0.00     0.031 C 
ATOM     64  C   UNL A   1      48.137  26.327  30.965  1.00  0.00     0.029 A 
ATOM     65  C   UNL A   1      47.173  27.334  30.920  1.00  0.00     0.049 A 
ATOM     66  H   UNL A   1      47.570  29.249  30.129  1.00  0.00     0.167 HD
ATOM     67  C   UNL A   1      44.868  28.258  31.001  1.00  0.00     0.074 A 
ATOM     68  C   UNL A   1      44.850  29.188  29.874  1.00  0.00     0.031 C 
ATOM     69  C   UNL A   1      45.854  27.453  31.496  1.00  0.00     0.037 A 
BRANCH  56  70
ATOM     70  C   UNL A   1      48.595  29.357  27.275  1.00  0.00     0.064 A 
ATOM     71  C   UNL A   1      49.893  29.907  27.329  1.00  0.00     0.173 A 
ATOM     72  C   UNL A   1      47.559  30.288  27.042  1.00  0.00     0.173 A 
ATOM     73  F   UNL A   1      50.962  29.123  27.539  1.00  0.00    -0.203 F 
ATOM     74  C   UNL A   1      50.119  31.286  27.278  1.00  0.00     0.198 A 
ATOM     75  C   UNL A   1      47.794  31.659  26.938  1.00  0.00     0.198 A 
ATOM     76  F   UNL A   1      46.269  29.941  27.014  1.00  0.00    -0.203 F 
ATOM     77  F   UNL A   1      51.352  31.766  27.484  1.00  0.00    -0.200 F 
ATOM     78  C   UNL A   1      49.066  32.162  27.096  1.00  0.00     0.200 A 
ATOM     79  F   UNL A   1      46.757  32.492  26.771  1.00  0.00    -0.200 F 
ATOM     80  F   UNL A   1      49.267  33.485  27.122  1.00  0.00    -0.200 F 
ENDBRANCH  56  70
BRANCH  57  81
ATOM     81  C   UNL A   1      40.436  28.445  29.357  1.00  0.00     0.064 A 
ATOM     82  C   UNL A   1      40.149  28.954  28.079  1.00  0.00     0.173 A 
ATOM     83  C   UNL A   1      39.351  28.372  30.253  1.00  0.00     0.173 A 
ATOM     84  F   UNL A   1      41.113  29.018  27.148  1.00  0.00    -0.203 F 
ATOM     85  C   UNL A   1      38.854  29.339  27.712  1.00  0.00     0.198 A 
ATOM     86  C   UNL A   1      38.060  28.765  29.890  1.00  0.00     0.198 A 
ATOM     87  F   UNL A   1      39.496  27.830  31.471  1.00  0.00    -0.203 F 
ATOM     88  F   UNL A   1      38.609  29.759  26.463  1.00  0.00    -0.200 F 
ATOM     89  C   UNL A   1      37.809  29.235  28.615  1.00  0.00     0.200 A 
ATOM     90  F   UNL A   1      37.054  28.628  30.764  1.00  0.00    -0.200 F 
ATOM     91  F   UNL A   1      36.559  29.546  28.246  1.00  0.00    -0.200 F 
ENDBRANCH  57  81
BRANCH  69  92
ATOM     92  C   UNL A   1      45.489  26.451  32.557  1.00  0.00     0.064 A 
ATOM     93  C   UNL A   1      45.371  26.756  33.925  1.00  0.00     0.173 A 
ATOM     94  C   UNL A   1      45.089  25.172  32.149  1.00  0.00     0.173 A 
ATOM     95  F   UNL A   1      45.630  27.983  34.385  1.00  0.00    -0.203 F 
ATOM     96  C   UNL A   1      44.914  25.811  34.843  1.00  0.00     0.198 A 
ATOM     97  C   UNL A   1      44.598  24.242  33.061  1.00  0.00     0.198 A 
ATOM     98  F   UNL A   1      45.124  24.842  30.849  1.00  0.00    -0.203 F 
ATOM     99  F   UNL A   1      44.819  26.127  36.143  1.00  0.00    -0.200 F 
ATOM    100  C   UNL A   1      44.520  24.557  34.408  1.00  0.00     0.200 A 
ATOM    101  F   UNL A   1      44.168  23.049  32.627  1.00  0.00    -0.200 F 
ATOM    102  F   UNL A   1      44.039  23.662  35.282  1.00  0.00    -0.200 F 
ENDBRANCH  69  92
ENDBRANCH  43  44
ENDBRANCH  35  38
ENDBRANCH  33  34
ENDBRANCH  32  33
ENDBRANCH  31  32
ENDBRANCH   1  31
TORSDOF 16
ENDMDL
