MODEL 1
REMARK VINA RESULT:     -14.2      0.000      0.000
REMARK SMILES O=C(Cn1c(=O)[nH]c2ccccc2c1=O)NC[C@H]1CC[C@@H](C(=O)N2CCC(C(=O)NCCCCNC(=O)c3ccc(-c4c5nc(c(-c6c(F)c(F)c(F)c(F)c6F)c6ccc([nH]6)c(-c6c(F)c(F)c(F)c(F)c6F)c6nc(c(-c7c(F)c(F)c(F)c(F)c7F)c7ccc4[nH]7)C=C6)C=C5)cc3)CC2)CC1
REMARK SMILES IDX 31 1 30 2 28 3 29 4 27 6 22 7 23 8 24 9 25 10 102 11 26 12
REMARK SMILES IDX 101 13 21 14 18 15 19 16 104 17 20 18 103 19 17 20 16 21
REMARK SMILES IDX 1 22 2 23 3 25 4 26 5 27 14 28 6 29 7 30 13 31 15 32 8 33
REMARK SMILES IDX 12 35 9 36 11 37 10 38 32 39 33 40 34 41 35 42 36 43 37 45
REMARK SMILES IDX 38 46 39 47 100 48 40 49 99 50 41 51 42 52 43 53 93 54 44 55
REMARK SMILES IDX 98 56 92 57 94 58 45 59 97 60 91 61 90 62 46 64 78 65 58 66
REMARK SMILES IDX 77 67 59 68 62 69 76 70 95 71 60 72 61 73 75 75 96 76 63 77
REMARK SMILES IDX 47 78 48 79 56 80 49 81 50 82 54 83 57 84 51 85 52 86 55 87
REMARK SMILES IDX 53 88 79 89 80 90 88 91 81 92 82 93 86 94 89 95 83 96 84 97
REMARK SMILES IDX 87 98 85 99 64 100 65 101 73 102 66 103 67 104 71 105 74 106
REMARK SMILES IDX 68 107 69 108 72 109 70 110
REMARK H PARENT 30 5 16 24 7 34 35 44 94 63 62 74
REMARK Flexibility Score: inf
ROOT
ATOM      1  C   UNL A   1      32.457  29.924  25.482  1.00  0.00     0.116 C 
ENDROOT
BRANCH   1   2
ATOM      2  N   UNL A   1      31.309  29.169  25.001  1.00  0.00    -0.356 N 
ATOM      3  C   UNL A   1      31.237  27.910  24.478  1.00  0.00     0.223 C 
ATOM      4  O   UNL A   1      30.134  27.491  24.128  1.00  0.00    -0.275 OA
ATOM      5  H   UNL A   1      30.448  29.641  25.062  1.00  0.00     0.163 HD
BRANCH   3   6
ATOM      6  C   UNL A   1      32.483  27.047  24.360  1.00  0.00     0.082 C 
ATOM      7  C   UNL A   1      33.653  22.994  24.878  1.00  0.00     0.225 C 
ATOM      8  O   UNL A   1      33.174  22.513  25.912  1.00  0.00    -0.275 OA
ATOM      9  N   UNL A   1      33.477  24.336  24.606  1.00  0.00    -0.342 N 
ATOM     10  C   UNL A   1      33.819  25.288  25.652  1.00  0.00     0.120 C 
ATOM     11  C   UNL A   1      33.278  24.877  23.285  1.00  0.00     0.120 C 
ATOM     12  C   UNL A   1      32.884  26.476  25.725  1.00  0.00     0.035 C 
ATOM     13  C   UNL A   1      32.292  26.025  23.236  1.00  0.00     0.035 C 
BRANCH   7  14
ATOM     14  C   UNL A   1      34.666  22.154  24.064  1.00  0.00     0.078 C 
ATOM     15  C   UNL A   1      37.539  22.023  25.036  1.00  0.00     0.008 C 
ATOM     16  C   UNL A   1      36.373  21.361  25.783  1.00  0.00     0.006 C 
ATOM     17  C   UNL A   1      37.126  23.027  23.939  1.00  0.00     0.006 C 
ATOM     18  C   UNL A   1      35.199  20.985  24.890  1.00  0.00     0.014 C 
ATOM     19  C   UNL A   1      35.775  22.814  23.251  1.00  0.00     0.014 C 
BRANCH  15  20
ATOM     20  C   UNL A   1      38.573  22.580  26.066  1.00  0.00     0.119 C 
BRANCH  20  21
ATOM     21  N   UNL A   1      39.945  22.175  25.822  1.00  0.00    -0.354 N 
ATOM     22  O   UNL A   1      40.402  21.286  27.885  1.00  0.00    -0.273 OA
ATOM     23  C   UNL A   1      40.771  21.564  26.747  1.00  0.00     0.240 C 
ATOM     24  H   UNL A   1      40.318  22.351  24.927  1.00  0.00     0.163 HD
BRANCH  23  25
ATOM     25  C   UNL A   1      42.240  21.438  26.304  1.00  0.00     0.230 C 
BRANCH  25  26
ATOM     26  N   UNL A   1      42.894  22.738  26.303  1.00  0.00    -0.250 N 
ATOM     27  C   UNL A   1      43.277  23.270  25.085  1.00  0.00     0.329 A 
ATOM     28  C   UNL A   1      43.100  23.363  27.526  1.00  0.00     0.264 A 
ATOM     29  O   UNL A   1      43.193  22.677  24.012  1.00  0.00    -0.248 OA
ATOM     30  N   UNL A   1      43.793  24.535  25.105  1.00  0.00    -0.307 N 
ATOM     31  C   UNL A   1      43.593  24.748  27.492  1.00  0.00     0.064 A 
ATOM     32  O   UNL A   1      42.820  22.844  28.607  1.00  0.00    -0.268 OA
ATOM     33  C   UNL A   1      43.920  25.302  26.261  1.00  0.00     0.055 A 
ATOM     34  H   UNL A   1      44.092  24.928  24.254  1.00  0.00     0.171 HD
ATOM     35  C   UNL A   1      43.676  25.509  28.661  1.00  0.00     0.016 A 
ATOM     36  C   UNL A   1      44.349  26.623  26.182  1.00  0.00     0.027 A 
ATOM     37  C   UNL A   1      44.086  26.838  28.583  1.00  0.00     0.001 A 
ATOM     38  C   UNL A   1      44.423  27.393  27.345  1.00  0.00     0.002 A 
ENDBRANCH  25  26
ENDBRANCH  23  25
ENDBRANCH  20  21
ENDBRANCH  15  20
ENDBRANCH   7  14
ENDBRANCH   3   6
ENDBRANCH   1   2
BRANCH   1  39
ATOM     39  C   UNL A   1      32.234  30.474  26.886  1.00  0.00     0.023 C 
BRANCH  39  40
ATOM     40  C   UNL A   1      31.863  31.950  26.928  1.00  0.00     0.023 C 
BRANCH  40  41
ATOM     41  C   UNL A   1      32.899  32.846  27.588  1.00  0.00     0.116 C 
BRANCH  41  42
ATOM     42  N   UNL A   1      32.455  34.216  27.776  1.00  0.00    -0.352 N 
ATOM     43  C   UNL A   1      32.958  35.159  28.654  1.00  0.00     0.251 C 
ATOM     44  H   UNL A   1      31.705  34.509  27.208  1.00  0.00     0.163 HD
ATOM     45  O   UNL A   1      32.445  36.262  28.769  1.00  0.00    -0.269 OA
BRANCH  43  46
ATOM     46  C   UNL A   1      34.105  34.769  29.494  1.00  0.00     0.039 A 
ATOM     47  C   UNL A   1      35.368  34.635  28.920  1.00  0.00     0.014 A 
ATOM     48  C   UNL A   1      33.876  34.400  30.821  1.00  0.00     0.014 A 
ATOM     49  C   UNL A   1      36.355  33.949  29.611  1.00  0.00     0.010 A 
ATOM     50  C   UNL A   1      34.904  33.795  31.548  1.00  0.00     0.010 A 
ATOM     51  C   UNL A   1      36.129  33.508  30.927  1.00  0.00    -0.014 A 
BRANCH  51  52
ATOM     52  C   UNL A   1      37.187  32.725  31.614  1.00  0.00     0.031 A 
ATOM     53  C   UNL A   1      37.873  31.578  30.923  1.00  0.00     0.074 A 
ATOM     54  C   UNL A   1      37.581  33.108  32.844  1.00  0.00     0.049 A 
ATOM     55  N   UNL A   1      38.846  30.817  31.360  1.00  0.00    -0.248 NA
ATOM     56  C   UNL A   1      37.412  31.235  29.569  1.00  0.00     0.031 C 
ATOM     57  C   UNL A   1      36.994  34.212  33.606  1.00  0.00     0.029 A 
ATOM     58  N   UNL A   1      38.587  32.642  33.650  1.00  0.00    -0.354 N 
ATOM     59  C   UNL A   1      39.092  29.894  30.351  1.00  0.00     0.074 A 
ATOM     60  C   UNL A   1      38.154  30.173  29.286  1.00  0.00     0.031 C 
ATOM     61  C   UNL A   1      37.695  34.385  34.735  1.00  0.00     0.029 A 
ATOM     62  C   UNL A   1      38.734  33.363  34.809  1.00  0.00     0.049 A 
ATOM     63  H   UNL A   1      39.147  31.866  33.422  1.00  0.00     0.167 HD
ATOM     64  C   UNL A   1      40.026  28.915  30.314  1.00  0.00     0.037 A 
ATOM     65  C   UNL A   1      39.605  33.216  35.824  1.00  0.00     0.037 A 
ATOM     66  C   UNL A   1      40.987  28.669  31.358  1.00  0.00     0.049 A 
ATOM     67  C   UNL A   1      40.611  32.104  35.768  1.00  0.00     0.074 A 
ATOM     68  C   UNL A   1      42.000  27.728  31.391  1.00  0.00     0.029 A 
ATOM     69  N   UNL A   1      41.055  29.374  32.550  1.00  0.00    -0.354 N 
ATOM     70  N   UNL A   1      40.834  31.242  34.807  1.00  0.00    -0.248 NA
ATOM     71  C   UNL A   1      41.472  31.931  36.945  1.00  0.00     0.031 C 
ATOM     72  C   UNL A   1      42.658  27.837  32.620  1.00  0.00     0.029 A 
ATOM     73  C   UNL A   1      42.077  28.871  33.337  1.00  0.00     0.049 A 
ATOM     74  H   UNL A   1      40.464  30.121  32.799  1.00  0.00     0.167 HD
ATOM     75  C   UNL A   1      41.855  30.422  35.261  1.00  0.00     0.074 A 
ATOM     76  C   UNL A   1      42.228  30.906  36.575  1.00  0.00     0.031 C 
ATOM     77  C   UNL A   1      42.425  29.357  34.647  1.00  0.00     0.037 A 
BRANCH  64  78
ATOM     78  C   UNL A   1      40.061  28.022  29.108  1.00  0.00     0.064 A 
ATOM     79  C   UNL A   1      40.745  28.388  27.941  1.00  0.00     0.173 A 
ATOM     80  C   UNL A   1      39.463  26.753  29.149  1.00  0.00     0.173 A 
ATOM     81  F   UNL A   1      41.325  29.594  27.849  1.00  0.00    -0.203 F 
ATOM     82  C   UNL A   1      40.819  27.521  26.853  1.00  0.00     0.198 A 
ATOM     83  C   UNL A   1      39.557  25.880  28.069  1.00  0.00     0.198 A 
ATOM     84  F   UNL A   1      38.802  26.352  30.247  1.00  0.00    -0.203 F 
ATOM     85  F   UNL A   1      41.454  27.902  25.737  1.00  0.00    -0.200 F 
ATOM     86  C   UNL A   1      40.232  26.266  26.920  1.00  0.00     0.200 A 
ATOM     87  F   UNL A   1      39.001  24.662  28.141  1.00  0.00    -0.200 F 
ATOM     88  F   UNL A   1      40.317  25.429  25.877  1.00  0.00    -0.200 F 
ENDBRANCH  64  78
BRANCH  65  89
ATOM     89  C   UNL A   1      39.552  34.156  36.970  1.00  0.00     0.064 A 
ATOM     90  C   UNL A   1      38.812  33.846  38.118  1.00  0.00     0.173 A 
ATOM     91  C   UNL A   1      40.279  35.357  36.961  1.00  0.00     0.173 A 
ATOM     92  F   UNL A   1      38.088  32.719  38.164  1.00  0.00    -0.203 F 
ATOM     93  C   UNL A   1      38.805  34.701  39.218  1.00  0.00     0.198 A 
ATOM     94  C   UNL A   1      40.291  36.196  38.072  1.00  0.00     0.198 A 
ATOM     95  F   UNL A   1      41.005  35.693  35.886  1.00  0.00    -0.203 F 
ATOM     96  F   UNL A   1      38.075  34.392  40.298  1.00  0.00    -0.200 F 
ATOM     97  C   UNL A   1      39.552  35.870  39.197  1.00  0.00     0.200 A 
ATOM     98  F   UNL A   1      41.028  37.316  38.053  1.00  0.00    -0.200 F 
ATOM     99  F   UNL A   1      39.560  36.681  40.264  1.00  0.00    -0.200 F 
ENDBRANCH  65  89
BRANCH  77 100
ATOM    100  C   UNL A   1      43.502  28.629  35.392  1.00  0.00     0.064 A 
ATOM    101  C   UNL A   1      43.190  27.599  36.290  1.00  0.00     0.173 A 
ATOM    102  C   UNL A   1      44.854  28.912  35.154  1.00  0.00     0.173 A 
ATOM    103  F   UNL A   1      41.909  27.304  36.561  1.00  0.00    -0.203 F 
ATOM    104  C   UNL A   1      44.196  26.881  36.929  1.00  0.00     0.198 A 
ATOM    105  C   UNL A   1      45.857  28.177  35.777  1.00  0.00     0.198 A 
ATOM    106  F   UNL A   1      45.201  29.885  34.298  1.00  0.00    -0.203 F 
ATOM    107  F   UNL A   1      43.876  25.917  37.804  1.00  0.00    -0.200 F 
ATOM    108  C   UNL A   1      45.528  27.164  36.665  1.00  0.00     0.200 A 
ATOM    109  F   UNL A   1      47.145  28.444  35.513  1.00  0.00    -0.200 F 
ATOM    110  F   UNL A   1      46.496  26.461  37.270  1.00  0.00    -0.200 F 
ENDBRANCH  77 100
ENDBRANCH  51  52
ENDBRANCH  43  46
ENDBRANCH  41  42
ENDBRANCH  40  41
ENDBRANCH  39  40
ENDBRANCH   1  39
TORSDOF 16
ENDMDL
MODEL 2
REMARK VINA RESULT:     -13.2      1.311      2.295
REMARK SMILES O=C(Cn1c(=O)[nH]c2ccccc2c1=O)NC[C@H]1CC[C@@H](C(=O)N2CCC(C(=O)NCCCCNC(=O)c3ccc(-c4c5nc(c(-c6c(F)c(F)c(F)c(F)c6F)c6ccc([nH]6)c(-c6c(F)c(F)c(F)c(F)c6F)c6nc(c(-c7c(F)c(F)c(F)c(F)c7F)c7ccc4[nH]7)C=C6)C=C5)cc3)CC2)CC1
REMARK SMILES IDX 31 1 30 2 28 3 29 4 27 6 22 7 23 8 24 9 25 10 102 11 26 12
REMARK SMILES IDX 101 13 21 14 18 15 19 16 104 17 20 18 103 19 17 20 16 21
REMARK SMILES IDX 1 22 2 23 3 25 4 26 5 27 14 28 6 29 7 30 13 31 15 32 8 33
REMARK SMILES IDX 12 35 9 36 11 37 10 38 32 39 33 40 34 41 35 42 36 43 37 45
REMARK SMILES IDX 38 46 39 47 100 48 40 49 99 50 41 51 42 52 43 53 93 54 44 55
REMARK SMILES IDX 98 56 92 57 94 58 45 59 97 60 91 61 90 62 46 64 78 65 58 66
REMARK SMILES IDX 77 67 59 68 62 69 76 70 95 71 60 72 61 73 75 75 96 76 63 77
REMARK SMILES IDX 47 78 48 79 56 80 49 81 50 82 54 83 57 84 51 85 52 86 55 87
REMARK SMILES IDX 53 88 79 89 80 90 88 91 81 92 82 93 86 94 89 95 83 96 84 97
REMARK SMILES IDX 87 98 85 99 64 100 65 101 73 102 66 103 67 104 71 105 74 106
REMARK SMILES IDX 68 107 69 108 72 109 70 110
REMARK H PARENT 30 5 16 24 7 34 35 44 94 63 62 74
REMARK Flexibility Score: inf
ROOT
ATOM      1  C   UNL A   1      34.601  29.882  27.121  1.00  0.00     0.116 C 
ENDROOT
BRANCH   1   2
ATOM      2  N   UNL A   1      33.520  29.840  26.148  1.00  0.00    -0.356 N 
ATOM      3  C   UNL A   1      32.974  28.782  25.481  1.00  0.00     0.223 C 
ATOM      4  O   UNL A   1      32.059  29.006  24.688  1.00  0.00    -0.275 OA
ATOM      5  H   UNL A   1      33.118  30.713  25.938  1.00  0.00     0.163 HD
BRANCH   3   6
ATOM      6  C   UNL A   1      33.466  27.366  25.735  1.00  0.00     0.082 C 
ATOM      7  C   UNL A   1      32.485  23.373  24.662  1.00  0.00     0.225 C 
ATOM      8  O   UNL A   1      31.267  23.174  24.724  1.00  0.00    -0.275 OA
ATOM      9  N   UNL A   1      33.001  24.580  25.088  1.00  0.00    -0.342 N 
ATOM     10  C   UNL A   1      32.615  25.050  26.411  1.00  0.00     0.120 C 
ATOM     11  C   UNL A   1      34.116  25.252  24.468  1.00  0.00     0.120 C 
ATOM     12  C   UNL A   1      32.414  26.548  26.490  1.00  0.00     0.035 C 
ATOM     13  C   UNL A   1      33.974  26.758  24.425  1.00  0.00     0.035 C 
BRANCH   7  14
ATOM     14  C   UNL A   1      33.424  22.176  24.374  1.00  0.00     0.078 C 
ATOM     15  C   UNL A   1      36.375  22.474  25.019  1.00  0.00     0.008 C 
ATOM     16  C   UNL A   1      35.288  22.392  26.099  1.00  0.00     0.006 C 
ATOM     17  C   UNL A   1      35.856  22.718  23.587  1.00  0.00     0.006 C 
ATOM     18  C   UNL A   1      34.039  21.638  25.665  1.00  0.00     0.014 C 
ATOM     19  C   UNL A   1      34.449  22.222  23.245  1.00  0.00     0.014 C 
BRANCH  15  20
ATOM     20  C   UNL A   1      37.497  23.460  25.478  1.00  0.00     0.119 C 
BRANCH  20  21
ATOM     21  N   UNL A   1      38.610  22.830  26.165  1.00  0.00    -0.354 N 
ATOM     22  O   UNL A   1      38.610  20.834  25.039  1.00  0.00    -0.273 OA
ATOM     23  C   UNL A   1      39.088  21.559  25.907  1.00  0.00     0.240 C 
ATOM     24  H   UNL A   1      39.060  23.349  26.871  1.00  0.00     0.163 HD
BRANCH  23  25
ATOM     25  C   UNL A   1      40.130  21.052  26.921  1.00  0.00     0.230 C 
BRANCH  25  26
ATOM     26  N   UNL A   1      41.473  21.139  26.369  1.00  0.00    -0.250 N 
ATOM     27  C   UNL A   1      42.095  22.374  26.366  1.00  0.00     0.329 A 
ATOM     28  C   UNL A   1      42.048  19.976  25.871  1.00  0.00     0.264 A 
ATOM     29  O   UNL A   1      41.554  23.424  26.708  1.00  0.00    -0.248 OA
ATOM     30  N   UNL A   1      43.392  22.405  25.939  1.00  0.00    -0.307 N 
ATOM     31  C   UNL A   1      43.465  20.045  25.487  1.00  0.00     0.064 A 
ATOM     32  O   UNL A   1      41.454  18.899  25.812  1.00  0.00    -0.268 OA
ATOM     33  C   UNL A   1      44.105  21.277  25.543  1.00  0.00     0.055 A 
ATOM     34  H   UNL A   1      43.850  23.276  25.909  1.00  0.00     0.171 HD
ATOM     35  C   UNL A   1      44.168  18.891  25.129  1.00  0.00     0.016 A 
ATOM     36  C   UNL A   1      45.457  21.376  25.229  1.00  0.00     0.027 A 
ATOM     37  C   UNL A   1      45.527  18.984  24.833  1.00  0.00     0.001 A 
ATOM     38  C   UNL A   1      46.169  20.224  24.883  1.00  0.00     0.002 A 
ENDBRANCH  25  26
ENDBRANCH  23  25
ENDBRANCH  20  21
ENDBRANCH  15  20
ENDBRANCH   7  14
ENDBRANCH   3   6
ENDBRANCH   1   2
BRANCH   1  39
ATOM     39  C   UNL A   1      34.394  30.975  28.163  1.00  0.00     0.023 C 
BRANCH  39  40
ATOM     40  C   UNL A   1      33.267  31.945  27.838  1.00  0.00     0.023 C 
BRANCH  40  41
ATOM     41  C   UNL A   1      33.722  33.273  27.254  1.00  0.00     0.116 C 
BRANCH  41  42
ATOM     42  N   UNL A   1      32.948  34.412  27.718  1.00  0.00    -0.352 N 
ATOM     43  C   UNL A   1      33.107  35.125  28.893  1.00  0.00     0.251 C 
ATOM     44  H   UNL A   1      32.223  34.714  27.123  1.00  0.00     0.163 HD
ATOM     45  O   UNL A   1      32.339  36.023  29.203  1.00  0.00    -0.269 OA
BRANCH  43  46
ATOM     46  C   UNL A   1      34.205  34.727  29.792  1.00  0.00     0.039 A 
ATOM     47  C   UNL A   1      35.527  34.881  29.378  1.00  0.00     0.014 A 
ATOM     48  C   UNL A   1      33.898  34.069  30.983  1.00  0.00     0.014 A 
ATOM     49  C   UNL A   1      36.531  34.205  30.056  1.00  0.00     0.010 A 
ATOM     50  C   UNL A   1      34.923  33.469  31.717  1.00  0.00     0.010 A 
ATOM     51  C   UNL A   1      36.238  33.479  31.224  1.00  0.00    -0.014 A 
BRANCH  51  52
ATOM     52  C   UNL A   1      37.326  32.719  31.890  1.00  0.00     0.031 A 
ATOM     53  C   UNL A   1      38.062  31.625  31.164  1.00  0.00     0.074 A 
ATOM     54  C   UNL A   1      37.701  33.078  33.133  1.00  0.00     0.049 A 
ATOM     55  N   UNL A   1      39.064  30.892  31.579  1.00  0.00    -0.248 NA
ATOM     56  C   UNL A   1      37.618  31.307  29.798  1.00  0.00     0.031 C 
ATOM     57  C   UNL A   1      37.067  34.131  33.927  1.00  0.00     0.029 A 
ATOM     58  N   UNL A   1      38.723  32.629  33.927  1.00  0.00    -0.354 N 
ATOM     59  C   UNL A   1      39.351  30.013  30.542  1.00  0.00     0.074 A 
ATOM     60  C   UNL A   1      38.405  30.287  29.484  1.00  0.00     0.031 C 
ATOM     61  C   UNL A   1      37.757  34.296  35.064  1.00  0.00     0.029 A 
ATOM     62  C   UNL A   1      38.838  33.317  35.109  1.00  0.00     0.049 A 
ATOM     63  H   UNL A   1      39.317  31.885  33.675  1.00  0.00     0.167 HD
ATOM     64  C   UNL A   1      40.325  29.076  30.477  1.00  0.00     0.037 A 
ATOM     65  C   UNL A   1      39.712  33.174  36.121  1.00  0.00     0.037 A 
ATOM     66  C   UNL A   1      41.294  28.836  31.515  1.00  0.00     0.049 A 
ATOM     67  C   UNL A   1      40.764  32.107  36.034  1.00  0.00     0.074 A 
ATOM     68  C   UNL A   1      42.346  27.938  31.522  1.00  0.00     0.029 A 
ATOM     69  N   UNL A   1      41.329  29.504  32.730  1.00  0.00    -0.354 N 
ATOM     70  N   UNL A   1      41.025  31.287  35.046  1.00  0.00    -0.248 NA
ATOM     71  C   UNL A   1      41.629  31.932  37.208  1.00  0.00     0.031 C 
ATOM     72  C   UNL A   1      42.996  28.035  32.756  1.00  0.00     0.029 A 
ATOM     73  C   UNL A   1      42.370  29.020  33.505  1.00  0.00     0.049 A 
ATOM     74  H   UNL A   1      40.707  30.218  33.002  1.00  0.00     0.167 HD
ATOM     75  C   UNL A   1      42.079  30.497  35.477  1.00  0.00     0.074 A 
ATOM     76  C   UNL A   1      42.428  30.953  36.807  1.00  0.00     0.031 C 
ATOM     77  C   UNL A   1      42.694  29.476  34.831  1.00  0.00     0.037 A 
BRANCH  64  78
ATOM     78  C   UNL A   1      40.401  28.224  29.243  1.00  0.00     0.064 A 
ATOM     79  C   UNL A   1      39.682  27.026  29.131  1.00  0.00     0.173 A 
ATOM     80  C   UNL A   1      41.145  28.652  28.133  1.00  0.00     0.173 A 
ATOM     81  F   UNL A   1      38.964  26.570  30.168  1.00  0.00    -0.203 F 
ATOM     82  C   UNL A   1      39.715  26.280  27.956  1.00  0.00     0.198 A 
ATOM     83  C   UNL A   1      41.158  27.915  26.951  1.00  0.00     0.198 A 
ATOM     84  F   UNL A   1      41.845  29.796  28.187  1.00  0.00    -0.203 F 
ATOM     85  F   UNL A   1      39.043  25.123  27.879  1.00  0.00    -0.200 F 
ATOM     86  C   UNL A   1      40.446  26.728  26.864  1.00  0.00     0.200 A 
ATOM     87  F   UNL A   1      41.855  28.356  25.894  1.00  0.00    -0.200 F 
ATOM     88  F   UNL A   1      40.465  26.014  25.730  1.00  0.00    -0.200 F 
ENDBRANCH  64  78
BRANCH  65  89
ATOM     89  C   UNL A   1      39.616  34.073  37.297  1.00  0.00     0.064 A 
ATOM     90  C   UNL A   1      38.898  33.691  38.436  1.00  0.00     0.173 A 
ATOM     91  C   UNL A   1      40.283  35.308  37.325  1.00  0.00     0.173 A 
ATOM     92  F   UNL A   1      38.230  32.528  38.448  1.00  0.00    -0.203 F 
ATOM     93  C   UNL A   1      38.852  34.508  39.563  1.00  0.00     0.198 A 
ATOM     94  C   UNL A   1      40.258  36.111  38.462  1.00  0.00     0.198 A 
ATOM     95  F   UNL A   1      40.988  35.714  36.260  1.00  0.00    -0.203 F 
ATOM     96  F   UNL A   1      38.142  34.130  40.635  1.00  0.00    -0.200 F 
ATOM     97  C   UNL A   1      39.540  35.713  39.578  1.00  0.00     0.200 A 
ATOM     98  F   UNL A   1      40.939  37.266  38.478  1.00  0.00    -0.200 F 
ATOM     99  F   UNL A   1      39.512  36.489  40.670  1.00  0.00    -0.200 F 
ENDBRANCH  65  89
BRANCH  77 100
ATOM    100  C   UNL A   1      43.799  28.771  35.556  1.00  0.00     0.064 A 
ATOM    101  C   UNL A   1      43.531  27.683  36.398  1.00  0.00     0.173 A 
ATOM    102  C   UNL A   1      45.137  29.136  35.351  1.00  0.00     0.173 A 
ATOM    103  F   UNL A   1      42.265  27.309  36.636  1.00  0.00    -0.203 F 
ATOM    104  C   UNL A   1      44.566  26.988  37.017  1.00  0.00     0.198 A 
ATOM    105  C   UNL A   1      46.170  28.425  35.953  1.00  0.00     0.198 A 
ATOM    106  F   UNL A   1      45.442  30.166  34.548  1.00  0.00    -0.203 F 
ATOM    107  F   UNL A   1      44.287  25.968  37.839  1.00  0.00    -0.200 F 
ATOM    108  C   UNL A   1      45.884  27.353  36.786  1.00  0.00     0.200 A 
ATOM    109  F   UNL A   1      47.444  28.771  35.721  1.00  0.00    -0.200 F 
ATOM    110  F   UNL A   1      46.880  26.673  37.371  1.00  0.00    -0.200 F 
ENDBRANCH  77 100
ENDBRANCH  51  52
ENDBRANCH  43  46
ENDBRANCH  41  42
ENDBRANCH  40  41
ENDBRANCH  39  40
ENDBRANCH   1  39
TORSDOF 16
ENDMDL
MODEL 3
REMARK VINA RESULT:     -13.1      1.362      6.993
REMARK SMILES O=C(Cn1c(=O)[nH]c2ccccc2c1=O)NC[C@H]1CC[C@@H](C(=O)N2CCC(C(=O)NCCCCNC(=O)c3ccc(-c4c5nc(c(-c6c(F)c(F)c(F)c(F)c6F)c6ccc([nH]6)c(-c6c(F)c(F)c(F)c(F)c6F)c6nc(c(-c7c(F)c(F)c(F)c(F)c7F)c7ccc4[nH]7)C=C6)C=C5)cc3)CC2)CC1
REMARK SMILES IDX 31 1 30 2 28 3 29 4 27 6 22 7 23 8 24 9 25 10 102 11 26 12
REMARK SMILES IDX 101 13 21 14 18 15 19 16 104 17 20 18 103 19 17 20 16 21
REMARK SMILES IDX 1 22 2 23 3 25 4 26 5 27 14 28 6 29 7 30 13 31 15 32 8 33
REMARK SMILES IDX 12 35 9 36 11 37 10 38 32 39 33 40 34 41 35 42 36 43 37 45
REMARK SMILES IDX 38 46 39 47 100 48 40 49 99 50 41 51 42 52 43 53 93 54 44 55
REMARK SMILES IDX 98 56 92 57 94 58 45 59 97 60 91 61 90 62 46 64 78 65 58 66
REMARK SMILES IDX 77 67 59 68 62 69 76 70 95 71 60 72 61 73 75 75 96 76 63 77
REMARK SMILES IDX 47 78 48 79 56 80 49 81 50 82 54 83 57 84 51 85 52 86 55 87
REMARK SMILES IDX 53 88 79 89 80 90 88 91 81 92 82 93 86 94 89 95 83 96 84 97
REMARK SMILES IDX 87 98 85 99 64 100 65 101 73 102 66 103 67 104 71 105 74 106
REMARK SMILES IDX 68 107 69 108 72 109 70 110
REMARK H PARENT 30 5 16 24 7 34 35 44 94 63 62 74
REMARK Flexibility Score: inf
ROOT
ATOM      1  C   UNL A   1      34.532  29.571  27.241  1.00  0.00     0.116 C 
ENDROOT
BRANCH   1   2
ATOM      2  N   UNL A   1      33.229  29.495  26.598  1.00  0.00    -0.356 N 
ATOM      3  C   UNL A   1      32.576  28.429  26.051  1.00  0.00     0.223 C 
ATOM      4  O   UNL A   1      31.469  28.623  25.550  1.00  0.00    -0.275 OA
ATOM      5  H   UNL A   1      32.740  30.348  26.552  1.00  0.00     0.163 HD
BRANCH   3   6
ATOM      6  C   UNL A   1      33.193  27.040  26.086  1.00  0.00     0.082 C 
ATOM      7  C   UNL A   1      32.784  23.284  24.140  1.00  0.00     0.225 C 
ATOM      8  O   UNL A   1      31.595  22.970  24.007  1.00  0.00    -0.275 OA
ATOM      9  N   UNL A   1      33.114  24.417  24.856  1.00  0.00    -0.342 N 
ATOM     10  C   UNL A   1      32.537  24.568  26.184  1.00  0.00     0.120 C 
ATOM     11  C   UNL A   1      34.207  25.297  24.526  1.00  0.00     0.120 C 
ATOM     12  C   UNL A   1      32.163  25.995  26.527  1.00  0.00     0.035 C 
ATOM     13  C   UNL A   1      33.904  26.762  24.758  1.00  0.00     0.035 C 
BRANCH   7  14
ATOM     14  C   UNL A   1      33.875  22.258  23.748  1.00  0.00     0.078 C 
ATOM     15  C   UNL A   1      36.615  22.511  25.031  1.00  0.00     0.008 C 
ATOM     16  C   UNL A   1      35.363  22.083  25.810  1.00  0.00     0.006 C 
ATOM     17  C   UNL A   1      36.342  23.112  23.637  1.00  0.00     0.006 C 
ATOM     18  C   UNL A   1      34.297  21.418  24.952  1.00  0.00     0.014 C 
ATOM     19  C   UNL A   1      35.078  22.661  22.901  1.00  0.00     0.014 C 
BRANCH  15  20
ATOM     20  C   UNL A   1      37.529  23.386  25.947  1.00  0.00     0.119 C 
BRANCH  20  21
ATOM     21  N   UNL A   1      38.662  22.682  26.518  1.00  0.00    -0.354 N 
ATOM     22  O   UNL A   1      38.726  20.915  25.060  1.00  0.00    -0.273 OA
ATOM     23  C   UNL A   1      39.181  21.491  26.044  1.00  0.00     0.240 C 
ATOM     24  H   UNL A   1      39.096  23.084  27.306  1.00  0.00     0.163 HD
BRANCH  23  25
ATOM     25  C   UNL A   1      40.240  20.849  26.958  1.00  0.00     0.230 C 
BRANCH  25  26
ATOM     26  N   UNL A   1      41.570  20.982  26.383  1.00  0.00    -0.250 N 
ATOM     27  C   UNL A   1      42.151  22.237  26.376  1.00  0.00     0.329 A 
ATOM     28  C   UNL A   1      42.173  19.841  25.867  1.00  0.00     0.264 A 
ATOM     29  O   UNL A   1      41.582  23.267  26.733  1.00  0.00    -0.248 OA
ATOM     30  N   UNL A   1      43.438  22.313  25.925  1.00  0.00    -0.307 N 
ATOM     31  C   UNL A   1      43.580  19.959  25.459  1.00  0.00     0.064 A 
ATOM     32  O   UNL A   1      41.613  18.746  25.813  1.00  0.00    -0.268 OA
ATOM     33  C   UNL A   1      44.180  21.210  25.511  1.00  0.00     0.055 A 
ATOM     34  H   UNL A   1      43.867  23.198  25.892  1.00  0.00     0.171 HD
ATOM     35  C   UNL A   1      44.314  18.831  25.082  1.00  0.00     0.016 A 
ATOM     36  C   UNL A   1      45.522  21.355  25.173  1.00  0.00     0.027 A 
ATOM     37  C   UNL A   1      45.663  18.969  24.762  1.00  0.00     0.001 A 
ATOM     38  C   UNL A   1      46.265  20.229  24.807  1.00  0.00     0.002 A 
ENDBRANCH  25  26
ENDBRANCH  23  25
ENDBRANCH  20  21
ENDBRANCH  15  20
ENDBRANCH   7  14
ENDBRANCH   3   6
ENDBRANCH   1   2
BRANCH   1  39
ATOM     39  C   UNL A   1      34.697  30.850  28.055  1.00  0.00     0.023 C 
BRANCH  39  40
ATOM     40  C   UNL A   1      33.487  31.772  28.024  1.00  0.00     0.023 C 
BRANCH  40  41
ATOM     41  C   UNL A   1      33.697  33.068  27.257  1.00  0.00     0.116 C 
BRANCH  41  42
ATOM     42  N   UNL A   1      32.902  34.179  27.753  1.00  0.00    -0.352 N 
ATOM     43  C   UNL A   1      33.123  34.940  28.886  1.00  0.00     0.251 C 
ATOM     44  H   UNL A   1      32.111  34.418  27.217  1.00  0.00     0.163 HD
ATOM     45  O   UNL A   1      32.335  35.805  29.237  1.00  0.00    -0.269 OA
BRANCH  43  46
ATOM     46  C   UNL A   1      34.319  34.637  29.693  1.00  0.00     0.039 A 
ATOM     47  C   UNL A   1      35.587  34.849  29.157  1.00  0.00     0.014 A 
ATOM     48  C   UNL A   1      34.157  34.006  30.928  1.00  0.00     0.014 A 
ATOM     49  C   UNL A   1      36.685  34.254  29.761  1.00  0.00     0.010 A 
ATOM     50  C   UNL A   1      35.277  33.491  31.584  1.00  0.00     0.010 A 
ATOM     51  C   UNL A   1      36.540  33.556  30.974  1.00  0.00    -0.014 A 
BRANCH  51  52
ATOM     52  C   UNL A   1      37.725  32.882  31.561  1.00  0.00     0.031 A 
ATOM     53  C   UNL A   1      38.179  33.194  32.961  1.00  0.00     0.074 A 
ATOM     54  C   UNL A   1      38.344  31.922  30.846  1.00  0.00     0.049 A 
ATOM     55  N   UNL A   1      39.166  32.667  33.643  1.00  0.00    -0.248 NA
ATOM     56  C   UNL A   1      37.437  34.231  33.693  1.00  0.00     0.031 C 
ATOM     57  C   UNL A   1      37.983  31.528  29.483  1.00  0.00     0.029 A 
ATOM     58  N   UNL A   1      39.374  31.081  31.176  1.00  0.00    -0.354 N 
ATOM     59  C   UNL A   1      39.179  33.324  34.867  1.00  0.00     0.074 A 
ATOM     60  C   UNL A   1      38.116  34.305  34.830  1.00  0.00     0.031 C 
ATOM     61  C   UNL A   1      38.730  30.476  29.120  1.00  0.00     0.029 A 
ATOM     62  C   UNL A   1      39.666  30.166  30.195  1.00  0.00     0.049 A 
ATOM     63  H   UNL A   1      39.859  31.129  32.032  1.00  0.00     0.167 HD
ATOM     64  C   UNL A   1      39.994  33.115  35.927  1.00  0.00     0.037 A 
ATOM     65  C   UNL A   1      40.590  29.188  30.160  1.00  0.00     0.037 A 
ATOM     66  C   UNL A   1      41.021  32.108  35.976  1.00  0.00     0.049 A 
ATOM     67  C   UNL A   1      41.499  28.999  31.339  1.00  0.00     0.074 A 
ATOM     68  C   UNL A   1      41.869  31.792  37.022  1.00  0.00     0.029 A 
ATOM     69  N   UNL A   1      41.336  31.250  34.932  1.00  0.00    -0.354 N 
ATOM     70  N   UNL A   1      41.497  29.625  32.489  1.00  0.00    -0.248 NA
ATOM     71  C   UNL A   1      42.550  27.982  31.207  1.00  0.00     0.031 C 
ATOM     72  C   UNL A   1      42.723  30.768  36.600  1.00  0.00     0.029 A 
ATOM     73  C   UNL A   1      42.383  30.422  35.301  1.00  0.00     0.049 A 
ATOM     74  H   UNL A   1      40.882  31.233  34.058  1.00  0.00     0.167 HD
ATOM     75  C   UNL A   1      42.544  29.084  33.218  1.00  0.00     0.074 A 
ATOM     76  C   UNL A   1      43.145  28.058  32.390  1.00  0.00     0.031 C 
ATOM     77  C   UNL A   1      42.976  29.417  34.459  1.00  0.00     0.037 A 
BRANCH  64  78
ATOM     78  C   UNL A   1      39.821  33.995  37.131  1.00  0.00     0.064 A 
ATOM     79  C   UNL A   1      40.446  35.246  37.225  1.00  0.00     0.173 A 
ATOM     80  C   UNL A   1      38.961  33.609  38.171  1.00  0.00     0.173 A 
ATOM     81  F   UNL A   1      41.284  35.655  36.262  1.00  0.00    -0.203 F 
ATOM     82  C   UNL A   1      40.225  36.075  38.322  1.00  0.00     0.198 A 
ATOM     83  C   UNL A   1      38.725  34.450  39.255  1.00  0.00     0.198 A 
ATOM     84  F   UNL A   1      38.333  32.424  38.125  1.00  0.00    -0.203 F 
ATOM     85  F   UNL A   1      40.854  37.255  38.405  1.00  0.00    -0.200 F 
ATOM     86  C   UNL A   1      39.360  35.681  39.332  1.00  0.00     0.200 A 
ATOM     87  F   UNL A   1      37.878  34.072  40.224  1.00  0.00    -0.200 F 
ATOM     88  F   UNL A   1      39.139  36.486  40.380  1.00  0.00    -0.200 F 
ENDBRANCH  64  78
BRANCH  65  89
ATOM     89  C   UNL A   1      40.686  28.322  28.960  1.00  0.00     0.064 A 
ATOM     90  C   UNL A   1      39.950  27.134  28.872  1.00  0.00     0.173 A 
ATOM     91  C   UNL A   1      41.473  28.690  27.858  1.00  0.00     0.173 A 
ATOM     92  F   UNL A   1      39.198  26.733  29.907  1.00  0.00    -0.203 F 
ATOM     93  C   UNL A   1      39.995  26.347  27.723  1.00  0.00     0.198 A 
ATOM     94  C   UNL A   1      41.495  27.916  26.701  1.00  0.00     0.198 A 
ATOM     95  F   UNL A   1      42.191  29.822  27.894  1.00  0.00    -0.203 F 
ATOM     96  F   UNL A   1      39.297  25.204  27.669  1.00  0.00    -0.200 F 
ATOM     97  C   UNL A   1      40.759  26.744  26.636  1.00  0.00     0.200 A 
ATOM     98  F   UNL A   1      42.222  28.312  25.647  1.00  0.00    -0.200 F 
ATOM     99  F   UNL A   1      40.786  25.996  25.524  1.00  0.00    -0.200 F 
ENDBRANCH  65  89
BRANCH  77 100
ATOM    100  C   UNL A   1      44.163  28.676  34.995  1.00  0.00     0.064 A 
ATOM    101  C   UNL A   1      44.009  27.464  35.682  1.00  0.00     0.173 A 
ATOM    102  C   UNL A   1      45.464  29.142  34.758  1.00  0.00     0.173 A 
ATOM    103  F   UNL A   1      42.782  26.989  35.946  1.00  0.00    -0.203 F 
ATOM    104  C   UNL A   1      45.118  26.746  36.120  1.00  0.00     0.198 A 
ATOM    105  C   UNL A   1      46.571  28.410  35.177  1.00  0.00     0.198 A 
ATOM    106  F   UNL A   1      45.661  30.294  34.100  1.00  0.00    -0.203 F 
ATOM    107  F   UNL A   1      44.948  25.603  36.797  1.00  0.00    -0.200 F 
ATOM    108  C   UNL A   1      46.397  27.214  35.858  1.00  0.00     0.200 A 
ATOM    109  F   UNL A   1      47.807  28.858  34.915  1.00  0.00    -0.200 F 
ATOM    110  F   UNL A   1      47.464  26.514  36.267  1.00  0.00    -0.200 F 
ENDBRANCH  77 100
ENDBRANCH  51  52
ENDBRANCH  43  46
ENDBRANCH  41  42
ENDBRANCH  40  41
ENDBRANCH  39  40
ENDBRANCH   1  39
TORSDOF 16
ENDMDL
