MODEL 1
REMARK VINA RESULT:     -13.3      0.000      0.000
REMARK SMILES O=C(Cc1cncnc1N1CCC2(CC1)OCCC[C@@H]2O)NCCCCNC(=O)c1ccc(-c2c3nc(c(-c4c(F)c(F)c(F)c(F)c4F)c4ccc([nH]4)c(-c4c(F)c(F)c(F)c(F)c4F)c4nc(c(-c5c(F)c(F)c(F)c(F)c5F)c5ccc2[nH]5)C=C4)C=C3)cc1
REMARK SMILES IDX 24 1 23 2 22 3 1 4 2 5 3 7 4 8 5 9 9 10 6 11 8 12 7 13 10 14
REMARK SMILES IDX 11 15 15 16 12 17 14 18 13 19 16 20 20 21 17 22 19 23 18 24
REMARK SMILES IDX 21 25 25 27 26 28 27 29 28 30 29 32 30 33 31 34 92 35 32 36
REMARK SMILES IDX 91 37 33 38 34 39 35 40 85 41 36 42 90 43 84 44 86 45 37 46
REMARK SMILES IDX 89 47 83 48 82 49 38 51 70 52 50 53 69 54 51 55 54 56 68 57
REMARK SMILES IDX 87 58 52 59 53 60 67 62 88 63 55 64 39 65 40 66 48 67 41 68
REMARK SMILES IDX 42 69 46 70 49 71 43 72 44 73 47 74 45 75 71 76 72 77 80 78
REMARK SMILES IDX 73 79 74 80 78 81 81 82 75 83 76 84 79 85 77 86 56 87 57 88
REMARK SMILES IDX 65 89 58 90 59 91 63 92 66 93 60 94 61 95 64 96 62 97
REMARK H PARENT 22 6 21 26 27 31 86 50 54 61
REMARK Flexibility Score: inf
ROOT
ATOM      1  C   UNL A   1      31.817  30.556  26.701  1.00  0.00     0.023 C 
ENDROOT
BRANCH   1   2
ATOM      2  C   UNL A   1      33.192  30.038  27.108  1.00  0.00     0.116 C 
BRANCH   2   3
ATOM      3  N   UNL A   1      33.937  29.213  26.161  1.00  0.00    -0.356 N 
ATOM      4  O   UNL A   1      32.809  27.314  26.767  1.00  0.00    -0.275 OA
ATOM      5  C   UNL A   1      33.555  27.884  25.970  1.00  0.00     0.224 C 
ATOM      6  H   UNL A   1      34.700  29.590  25.663  1.00  0.00     0.163 HD
BRANCH   5   7
ATOM      7  C   UNL A   1      34.156  27.132  24.799  1.00  0.00     0.141 C 
BRANCH   7   8
ATOM      8  C   UNL A   1      33.430  26.158  23.869  1.00  0.00     0.022 A 
ATOM      9  C   UNL A   1      34.030  24.888  23.879  1.00  0.00     0.121 A 
ATOM     10  C   UNL A   1      32.208  26.198  23.169  1.00  0.00     0.135 A 
ATOM     11  N   UNL A   1      33.578  23.785  23.263  1.00  0.00    -0.244 NA
ATOM     12  N   UNL A   1      31.733  25.089  22.548  1.00  0.00    -0.219 NA
ATOM     13  C   UNL A   1      32.429  23.949  22.620  1.00  0.00     0.224 A 
BRANCH  10  14
ATOM     14  N   UNL A   1      31.380  27.292  23.047  1.00  0.00    -0.356 N 
ATOM     15  C   UNL A   1      31.838  28.579  22.488  1.00  0.00     0.121 C 
ATOM     16  C   UNL A   1      30.370  27.510  24.042  1.00  0.00     0.121 C 
ATOM     17  C   UNL A   1      30.633  29.403  21.933  1.00  0.00     0.060 C 
ATOM     18  C   UNL A   1      29.143  27.894  23.241  1.00  0.00     0.060 C 
ATOM     19  C   UNL A   1      29.313  29.330  22.762  1.00  0.00     0.097 C 
ATOM     20  O   UNL A   1      29.366  30.095  23.987  1.00  0.00    -0.372 OA
ATOM     21  C   UNL A   1      28.049  29.727  21.938  1.00  0.00     0.146 C 
ATOM     22  C   UNL A   1      29.280  31.508  23.857  1.00  0.00     0.161 C 
ATOM     23  C   UNL A   1      27.902  31.237  21.796  1.00  0.00     0.037 C 
ATOM     24  C   UNL A   1      27.997  31.917  23.158  1.00  0.00     0.031 C 
BRANCH  21  25
ATOM     25  O   UNL A   1      26.842  29.265  22.574  1.00  0.00    -0.390 OA
ATOM     26  H   UNL A   1      26.192  29.985  22.594  1.00  0.00     0.211 HD
ENDBRANCH  21  25
ENDBRANCH  10  14
ENDBRANCH   7   8
ENDBRANCH   5   7
ENDBRANCH   2   3
ENDBRANCH   1   2
BRANCH   1  27
ATOM     27  C   UNL A   1      31.570  32.061  26.847  1.00  0.00     0.023 C 
BRANCH  27  28
ATOM     28  C   UNL A   1      32.739  32.927  27.321  1.00  0.00     0.116 C 
BRANCH  28  29
ATOM     29  N   UNL A   1      32.389  34.276  27.738  1.00  0.00    -0.352 N 
ATOM     30  C   UNL A   1      32.991  35.119  28.652  1.00  0.00     0.251 C 
ATOM     31  H   UNL A   1      31.593  34.649  27.296  1.00  0.00     0.163 HD
ATOM     32  O   UNL A   1      32.522  36.224  28.875  1.00  0.00    -0.269 OA
BRANCH  30  33
ATOM     33  C   UNL A   1      34.175  34.664  29.417  1.00  0.00     0.039 A 
ATOM     34  C   UNL A   1      33.985  34.166  30.709  1.00  0.00     0.014 A 
ATOM     35  C   UNL A   1      35.458  34.699  28.869  1.00  0.00     0.014 A 
ATOM     36  C   UNL A   1      35.055  33.585  31.395  1.00  0.00     0.010 A 
ATOM     37  C   UNL A   1      36.506  34.044  29.515  1.00  0.00     0.010 A 
ATOM     38  C   UNL A   1      36.309  33.456  30.774  1.00  0.00    -0.014 A 
BRANCH  38  39
ATOM     39  C   UNL A   1      37.401  32.663  31.400  1.00  0.00     0.031 A 
ATOM     40  C   UNL A   1      37.917  33.010  32.768  1.00  0.00     0.074 A 
ATOM     41  C   UNL A   1      37.994  31.679  30.693  1.00  0.00     0.049 A 
ATOM     42  N   UNL A   1      38.914  32.484  33.436  1.00  0.00    -0.248 NA
ATOM     43  C   UNL A   1      37.243  34.113  33.469  1.00  0.00     0.031 C 
ATOM     44  C   UNL A   1      37.631  31.278  29.332  1.00  0.00     0.029 A 
ATOM     45  N   UNL A   1      39.034  30.841  31.016  1.00  0.00    -0.354 N 
ATOM     46  C   UNL A   1      38.998  33.202  34.621  1.00  0.00     0.074 A 
ATOM     47  C   UNL A   1      37.982  34.232  34.562  1.00  0.00     0.031 C 
ATOM     48  C   UNL A   1      38.415  30.258  28.948  1.00  0.00     0.029 A 
ATOM     49  C   UNL A   1      39.361  29.956  30.017  1.00  0.00     0.049 A 
ATOM     50  H   UNL A   1      39.501  30.872  31.882  1.00  0.00     0.167 HD
ATOM     51  C   UNL A   1      39.831  33.008  35.671  1.00  0.00     0.037 A 
ATOM     52  C   UNL A   1      40.320  29.011  29.964  1.00  0.00     0.037 A 
ATOM     53  C   UNL A   1      40.819  31.963  35.746  1.00  0.00     0.049 A 
ATOM     54  C   UNL A   1      41.226  28.812  31.149  1.00  0.00     0.074 A 
ATOM     55  C   UNL A   1      41.657  31.641  36.800  1.00  0.00     0.029 A 
ATOM     56  N   UNL A   1      41.104  31.071  34.722  1.00  0.00    -0.354 N 
ATOM     57  N   UNL A   1      41.242  29.447  32.294  1.00  0.00    -0.248 NA
ATOM     58  C   UNL A   1      42.245  27.758  31.033  1.00  0.00     0.031 C 
ATOM     59  C   UNL A   1      42.477  30.581  36.400  1.00  0.00     0.029 A 
ATOM     60  C   UNL A   1      42.119  30.211  35.114  1.00  0.00     0.049 A 
ATOM     61  H   UNL A   1      40.652  31.050  33.849  1.00  0.00     0.167 HD
ATOM     62  C   UNL A   1      42.246  28.853  33.046  1.00  0.00     0.074 A 
ATOM     63  C   UNL A   1      42.811  27.798  32.231  1.00  0.00     0.031 C 
ATOM     64  C   UNL A   1      42.664  29.156  34.299  1.00  0.00     0.037 A 
BRANCH  51  65
ATOM     65  C   UNL A   1      39.708  33.945  36.838  1.00  0.00     0.064 A 
ATOM     66  C   UNL A   1      38.907  33.635  37.947  1.00  0.00     0.173 A 
ATOM     67  C   UNL A   1      40.433  35.146  36.867  1.00  0.00     0.173 A 
ATOM     68  F   UNL A   1      38.186  32.503  37.965  1.00  0.00    -0.203 F 
ATOM     69  C   UNL A   1      38.812  34.507  39.028  1.00  0.00     0.198 A 
ATOM     70  C   UNL A   1      40.360  36.001  37.963  1.00  0.00     0.198 A 
ATOM     71  F   UNL A   1      41.220  35.486  35.836  1.00  0.00    -0.203 F 
ATOM     72  F   UNL A   1      38.004  34.212  40.056  1.00  0.00    -0.200 F 
ATOM     73  C   UNL A   1      39.544  35.685  39.039  1.00  0.00     0.200 A 
ATOM     74  F   UNL A   1      41.077  37.133  37.977  1.00  0.00    -0.200 F 
ATOM     75  F   UNL A   1      39.458  36.520  40.085  1.00  0.00    -0.200 F 
ENDBRANCH  51  65
BRANCH  52  76
ATOM     76  C   UNL A   1      40.456  28.155  28.756  1.00  0.00     0.064 A 
ATOM     77  C   UNL A   1      41.243  28.567  27.672  1.00  0.00     0.173 A 
ATOM     78  C   UNL A   1      39.795  26.922  28.653  1.00  0.00     0.173 A 
ATOM     79  F   UNL A   1      41.876  29.749  27.716  1.00  0.00    -0.203 F 
ATOM     80  C   UNL A   1      41.348  27.788  26.521  1.00  0.00     0.198 A 
ATOM     81  C   UNL A   1      39.923  26.132  27.513  1.00  0.00     0.198 A 
ATOM     82  F   UNL A   1      39.033  26.481  29.664  1.00  0.00    -0.203 F 
ATOM     83  F   UNL A   1      42.070  28.228  25.482  1.00  0.00    -0.200 F 
ATOM     84  C   UNL A   1      40.693  26.569  26.445  1.00  0.00     0.200 A 
ATOM     85  F   UNL A   1      39.299  24.949  27.447  1.00  0.00    -0.200 F 
ATOM     86  F   UNL A   1      40.795  25.820  25.338  1.00  0.00    -0.200 F 
ENDBRANCH  52  76
BRANCH  64  87
ATOM     87  C   UNL A   1      43.758  28.312  34.884  1.00  0.00     0.064 A 
ATOM     88  C   UNL A   1      45.108  28.675  34.772  1.00  0.00     0.173 A 
ATOM     89  C   UNL A   1      43.447  27.146  35.600  1.00  0.00     0.173 A 
ATOM     90  F   UNL A   1      45.457  29.772  34.083  1.00  0.00    -0.203 F 
ATOM     91  C   UNL A   1      46.109  27.889  35.337  1.00  0.00     0.198 A 
ATOM     92  C   UNL A   1      44.449  26.378  36.187  1.00  0.00     0.198 A 
ATOM     93  F   UNL A   1      42.171  26.758  35.739  1.00  0.00    -0.203 F 
ATOM     94  F   UNL A   1      47.394  28.231  35.180  1.00  0.00    -0.200 F 
ATOM     95  C   UNL A   1      45.777  26.746  36.050  1.00  0.00     0.200 A 
ATOM     96  F   UNL A   1      44.126  25.281  36.886  1.00  0.00    -0.200 F 
ATOM     97  F   UNL A   1      46.742  25.994  36.599  1.00  0.00    -0.200 F 
ENDBRANCH  64  87
ENDBRANCH  38  39
ENDBRANCH  30  33
ENDBRANCH  28  29
ENDBRANCH  27  28
ENDBRANCH   1  27
TORSDOF 14
ENDMDL
MODEL 2
REMARK VINA RESULT:     -13.2      0.362      7.357
REMARK SMILES O=C(Cc1cncnc1N1CCC2(CC1)OCCC[C@@H]2O)NCCCCNC(=O)c1ccc(-c2c3nc(c(-c4c(F)c(F)c(F)c(F)c4F)c4ccc([nH]4)c(-c4c(F)c(F)c(F)c(F)c4F)c4nc(c(-c5c(F)c(F)c(F)c(F)c5F)c5ccc2[nH]5)C=C4)C=C3)cc1
REMARK SMILES IDX 24 1 23 2 22 3 1 4 2 5 3 7 4 8 5 9 9 10 6 11 8 12 7 13 10 14
REMARK SMILES IDX 11 15 15 16 12 17 14 18 13 19 16 20 20 21 17 22 19 23 18 24
REMARK SMILES IDX 21 25 25 27 26 28 27 29 28 30 29 32 30 33 31 34 92 35 32 36
REMARK SMILES IDX 91 37 33 38 34 39 35 40 85 41 36 42 90 43 84 44 86 45 37 46
REMARK SMILES IDX 89 47 83 48 82 49 38 51 70 52 50 53 69 54 51 55 54 56 68 57
REMARK SMILES IDX 87 58 52 59 53 60 67 62 88 63 55 64 39 65 40 66 48 67 41 68
REMARK SMILES IDX 42 69 46 70 49 71 43 72 44 73 47 74 45 75 71 76 72 77 80 78
REMARK SMILES IDX 73 79 74 80 78 81 81 82 75 83 76 84 79 85 77 86 56 87 57 88
REMARK SMILES IDX 65 89 58 90 59 91 63 92 66 93 60 94 61 95 64 96 62 97
REMARK H PARENT 22 6 21 26 27 31 86 50 54 61
REMARK Flexibility Score: inf
ROOT
ATOM      1  C   UNL A   1      31.963  30.433  26.628  1.00  0.00     0.023 C 
ENDROOT
BRANCH   1   2
ATOM      2  C   UNL A   1      33.384  29.967  26.928  1.00  0.00     0.116 C 
BRANCH   2   3
ATOM      3  N   UNL A   1      34.055  29.101  25.962  1.00  0.00    -0.356 N 
ATOM      4  O   UNL A   1      32.986  27.230  26.739  1.00  0.00    -0.275 OA
ATOM      5  C   UNL A   1      33.663  27.765  25.861  1.00  0.00     0.224 C 
ATOM      6  H   UNL A   1      34.774  29.456  25.389  1.00  0.00     0.163 HD
BRANCH   5   7
ATOM      7  C   UNL A   1      34.173  26.962  24.680  1.00  0.00     0.141 C 
BRANCH   7   8
ATOM      8  C   UNL A   1      33.363  25.989  23.819  1.00  0.00     0.022 A 
ATOM      9  C   UNL A   1      33.920  24.700  23.833  1.00  0.00     0.121 A 
ATOM     10  C   UNL A   1      32.107  26.054  23.186  1.00  0.00     0.135 A 
ATOM     11  N   UNL A   1      33.397  23.597  23.276  1.00  0.00    -0.244 NA
ATOM     12  N   UNL A   1      31.561  24.946  22.624  1.00  0.00    -0.219 NA
ATOM     13  C   UNL A   1      32.220  23.784  22.691  1.00  0.00     0.224 A 
BRANCH  10  14
ATOM     14  N   UNL A   1      31.311  27.173  23.077  1.00  0.00    -0.356 N 
ATOM     15  C   UNL A   1      31.802  28.448  22.519  1.00  0.00     0.121 C 
ATOM     16  C   UNL A   1      30.318  27.417  24.083  1.00  0.00     0.121 C 
ATOM     17  C   UNL A   1      30.617  29.310  21.980  1.00  0.00     0.060 C 
ATOM     18  C   UNL A   1      29.095  27.841  23.296  1.00  0.00     0.060 C 
ATOM     19  C   UNL A   1      29.304  29.273  22.822  1.00  0.00     0.097 C 
ATOM     20  O   UNL A   1      29.391  30.031  24.050  1.00  0.00    -0.372 OA
ATOM     21  C   UNL A   1      28.043  29.712  22.014  1.00  0.00     0.146 C 
ATOM     22  C   UNL A   1      29.347  31.446  23.927  1.00  0.00     0.161 C 
ATOM     23  C   UNL A   1      27.941  31.227  21.879  1.00  0.00     0.037 C 
ATOM     24  C   UNL A   1      28.070  31.897  23.243  1.00  0.00     0.031 C 
BRANCH  21  25
ATOM     25  O   UNL A   1      26.830  29.284  22.660  1.00  0.00    -0.390 OA
ATOM     26  H   UNL A   1      26.175  29.040  21.987  1.00  0.00     0.211 HD
ENDBRANCH  21  25
ENDBRANCH  10  14
ENDBRANCH   7   8
ENDBRANCH   5   7
ENDBRANCH   2   3
ENDBRANCH   1   2
BRANCH   1  27
ATOM     27  C   UNL A   1      31.653  31.914  26.871  1.00  0.00     0.023 C 
BRANCH  27  28
ATOM     28  C   UNL A   1      32.779  32.793  27.416  1.00  0.00     0.116 C 
BRANCH  28  29
ATOM     29  N   UNL A   1      32.404  34.160  27.742  1.00  0.00    -0.352 N 
ATOM     30  C   UNL A   1      32.996  35.078  28.586  1.00  0.00     0.251 C 
ATOM     31  H   UNL A   1      31.594  34.484  27.285  1.00  0.00     0.163 HD
ATOM     32  O   UNL A   1      32.505  36.186  28.737  1.00  0.00    -0.269 OA
BRANCH  30  33
ATOM     33  C   UNL A   1      34.200  34.705  29.365  1.00  0.00     0.039 A 
ATOM     34  C   UNL A   1      34.035  34.280  30.687  1.00  0.00     0.014 A 
ATOM     35  C   UNL A   1      35.477  34.743  28.804  1.00  0.00     0.014 A 
ATOM     36  C   UNL A   1      35.127  33.772  31.396  1.00  0.00     0.010 A 
ATOM     37  C   UNL A   1      36.548  34.159  29.478  1.00  0.00     0.010 A 
ATOM     38  C   UNL A   1      36.379  33.643  30.772  1.00  0.00    -0.014 A 
BRANCH  38  39
ATOM     39  C   UNL A   1      37.499  32.920  31.434  1.00  0.00     0.031 A 
ATOM     40  C   UNL A   1      38.151  31.740  30.771  1.00  0.00     0.074 A 
ATOM     41  C   UNL A   1      37.871  33.276  32.681  1.00  0.00     0.049 A 
ATOM     42  N   UNL A   1      39.082  30.941  31.231  1.00  0.00    -0.248 NA
ATOM     43  C   UNL A   1      37.676  31.392  29.423  1.00  0.00     0.031 C 
ATOM     44  C   UNL A   1      37.281  34.364  33.462  1.00  0.00     0.029 A 
ATOM     45  N   UNL A   1      38.828  32.753  33.516  1.00  0.00    -0.354 N 
ATOM     46  C   UNL A   1      39.288  29.988  30.242  1.00  0.00     0.074 A 
ATOM     47  C   UNL A   1      38.353  30.280  29.176  1.00  0.00     0.031 C 
ATOM     48  C   UNL A   1      37.905  34.445  34.649  1.00  0.00     0.029 A 
ATOM     49  C   UNL A   1      38.911  33.392  34.730  1.00  0.00     0.049 A 
ATOM     50  H   UNL A   1      39.401  31.991  33.268  1.00  0.00     0.167 HD
ATOM     51  C   UNL A   1      40.189  28.977  30.215  1.00  0.00     0.037 A 
ATOM     52  C   UNL A   1      39.705  33.154  35.792  1.00  0.00     0.037 A 
ATOM     53  C   UNL A   1      41.142  28.707  31.259  1.00  0.00     0.049 A 
ATOM     54  C   UNL A   1      40.702  32.029  35.731  1.00  0.00     0.074 A 
ATOM     55  C   UNL A   1      42.144  27.752  31.287  1.00  0.00     0.029 A 
ATOM     56  N   UNL A   1      41.211  29.393  32.463  1.00  0.00    -0.354 N 
ATOM     57  N   UNL A   1      40.939  31.186  34.757  1.00  0.00    -0.248 NA
ATOM     58  C   UNL A   1      41.546  31.828  36.918  1.00  0.00     0.031 C 
ATOM     59  C   UNL A   1      42.792  27.832  32.524  1.00  0.00     0.029 A 
ATOM     60  C   UNL A   1      42.226  28.868  33.248  1.00  0.00     0.049 A 
ATOM     61  H   UNL A   1      40.628  30.142  32.721  1.00  0.00     0.167 HD
ATOM     62  C   UNL A   1      41.976  30.376  35.199  1.00  0.00     0.074 A 
ATOM     63  C   UNL A   1      42.332  30.836  36.525  1.00  0.00     0.031 C 
ATOM     64  C   UNL A   1      42.579  29.342  34.562  1.00  0.00     0.037 A 
BRANCH  51  65
ATOM     65  C   UNL A   1      40.193  28.083  29.009  1.00  0.00     0.064 A 
ATOM     66  C   UNL A   1      40.913  28.414  27.852  1.00  0.00     0.173 A 
ATOM     67  C   UNL A   1      39.504  26.860  29.026  1.00  0.00     0.173 A 
ATOM     68  F   UNL A   1      41.580  29.577  27.781  1.00  0.00    -0.203 F 
ATOM     69  C   UNL A   1      40.920  27.570  26.745  1.00  0.00     0.198 A 
ATOM     70  C   UNL A   1      39.538  26.004  27.929  1.00  0.00     0.198 A 
ATOM     71  F   UNL A   1      38.807  26.491  30.110  1.00  0.00    -0.203 F 
ATOM     72  F   UNL A   1      41.576  27.929  25.633  1.00  0.00    -0.200 F 
ATOM     73  C   UNL A   1      40.238  26.362  26.787  1.00  0.00     0.200 A 
ATOM     74  F   UNL A   1      38.890  24.832  27.975  1.00  0.00    -0.200 F 
ATOM     75  F   UNL A   1      40.252  25.546  25.723  1.00  0.00    -0.200 F 
ENDBRANCH  51  65
BRANCH  52  76
ATOM     76  C   UNL A   1      39.614  34.019  36.998  1.00  0.00     0.064 A 
ATOM     77  C   UNL A   1      38.822  33.642  38.091  1.00  0.00     0.173 A 
ATOM     78  C   UNL A   1      40.299  35.240  37.079  1.00  0.00     0.173 A 
ATOM     79  F   UNL A   1      38.130  32.493  38.051  1.00  0.00    -0.203 F 
ATOM     80  C   UNL A   1      38.702  34.462  39.211  1.00  0.00     0.198 A 
ATOM     81  C   UNL A   1      40.200  36.046  38.210  1.00  0.00     0.198 A 
ATOM     82  F   UNL A   1      41.073  35.645  36.061  1.00  0.00    -0.203 F 
ATOM     83  F   UNL A   1      37.901  34.098  40.221  1.00  0.00    -0.200 F 
ATOM     84  C   UNL A   1      39.395  35.660  39.272  1.00  0.00     0.200 A 
ATOM     85  F   UNL A   1      40.881  37.198  38.271  1.00  0.00    -0.200 F 
ATOM     86  F   UNL A   1      39.280  36.449  40.349  1.00  0.00    -0.200 F 
ENDBRANCH  52  76
BRANCH  64  87
ATOM     87  C   UNL A   1      43.712  28.662  35.272  1.00  0.00     0.064 A 
ATOM     88  C   UNL A   1      43.501  27.546  36.095  1.00  0.00     0.173 A 
ATOM     89  C   UNL A   1      45.030  29.109  35.094  1.00  0.00     0.173 A 
ATOM     90  F   UNL A   1      42.258  27.091  36.310  1.00  0.00    -0.203 F 
ATOM     91  C   UNL A   1      44.568  26.916  36.732  1.00  0.00     0.198 A 
ATOM     92  C   UNL A   1      46.096  28.459  35.710  1.00  0.00     0.198 A 
ATOM     93  F   UNL A   1      45.285  30.169  34.314  1.00  0.00    -0.203 F 
ATOM     94  F   UNL A   1      44.339  25.879  37.548  1.00  0.00    -0.200 F 
ATOM     95  C   UNL A   1      45.864  27.369  36.532  1.00  0.00     0.200 A 
ATOM     96  F   UNL A   1      47.349  28.890  35.507  1.00  0.00    -0.200 F 
ATOM     97  F   UNL A   1      46.890  26.756  37.141  1.00  0.00    -0.200 F 
ENDBRANCH  64  87
ENDBRANCH  38  39
ENDBRANCH  30  33
ENDBRANCH  28  29
ENDBRANCH  27  28
ENDBRANCH   1  27
TORSDOF 14
ENDMDL
MODEL 3
REMARK VINA RESULT:     -12.9      6.167     10.800
REMARK SMILES O=C(Cc1cncnc1N1CCC2(CC1)OCCC[C@@H]2O)NCCCCNC(=O)c1ccc(-c2c3nc(c(-c4c(F)c(F)c(F)c(F)c4F)c4ccc([nH]4)c(-c4c(F)c(F)c(F)c(F)c4F)c4nc(c(-c5c(F)c(F)c(F)c(F)c5F)c5ccc2[nH]5)C=C4)C=C3)cc1
REMARK SMILES IDX 24 1 23 2 22 3 1 4 2 5 3 7 4 8 5 9 9 10 6 11 8 12 7 13 10 14
REMARK SMILES IDX 11 15 15 16 12 17 14 18 13 19 16 20 20 21 17 22 19 23 18 24
REMARK SMILES IDX 21 25 25 27 26 28 27 29 28 30 29 32 30 33 31 34 92 35 32 36
REMARK SMILES IDX 91 37 33 38 34 39 35 40 85 41 36 42 90 43 84 44 86 45 37 46
REMARK SMILES IDX 89 47 83 48 82 49 38 51 70 52 50 53 69 54 51 55 54 56 68 57
REMARK SMILES IDX 87 58 52 59 53 60 67 62 88 63 55 64 39 65 40 66 48 67 41 68
REMARK SMILES IDX 42 69 46 70 49 71 43 72 44 73 47 74 45 75 71 76 72 77 80 78
REMARK SMILES IDX 73 79 74 80 78 81 81 82 75 83 76 84 79 85 77 86 56 87 57 88
REMARK SMILES IDX 65 89 58 90 59 91 63 92 66 93 60 94 61 95 64 96 62 97
REMARK H PARENT 22 6 21 26 27 31 86 50 54 61
REMARK Flexibility Score: inf
ROOT
ATOM      1  C   UNL A   1      39.490  22.882  26.484  1.00  0.00     0.023 C 
ENDROOT
BRANCH   1   2
ATOM      2  C   UNL A   1      38.328  23.838  26.236  1.00  0.00     0.116 C 
BRANCH   2   3
ATOM      3  N   UNL A   1      37.533  23.672  25.022  1.00  0.00    -0.356 N 
ATOM      4  O   UNL A   1      35.593  23.395  26.207  1.00  0.00    -0.275 OA
ATOM      5  C   UNL A   1      36.142  23.605  25.126  1.00  0.00     0.224 C 
ATOM      6  H   UNL A   1      37.972  23.610  24.143  1.00  0.00     0.163 HD
BRANCH   5   7
ATOM      7  C   UNL A   1      35.328  23.708  23.851  1.00  0.00     0.141 C 
BRANCH   7   8
ATOM      8  C   UNL A   1      33.804  23.800  23.745  1.00  0.00     0.022 A 
ATOM      9  C   UNL A   1      33.385  25.109  23.457  1.00  0.00     0.121 A 
ATOM     10  C   UNL A   1      32.767  22.849  23.682  1.00  0.00     0.135 A 
ATOM     11  N   UNL A   1      32.131  25.507  23.193  1.00  0.00    -0.244 NA
ATOM     12  N   UNL A   1      31.495  23.235  23.408  1.00  0.00    -0.219 NA
ATOM     13  C   UNL A   1      31.236  24.527  23.181  1.00  0.00     0.224 A 
BRANCH  10  14
ATOM     14  N   UNL A   1      32.902  21.490  23.862  1.00  0.00    -0.356 N 
ATOM     15  C   UNL A   1      32.031  20.508  23.188  1.00  0.00     0.121 C 
ATOM     16  C   UNL A   1      33.310  20.999  25.146  1.00  0.00     0.121 C 
ATOM     17  C   UNL A   1      32.735  19.118  23.090  1.00  0.00     0.060 C 
ATOM     18  C   UNL A   1      34.333  19.929  24.821  1.00  0.00     0.060 C 
ATOM     19  C   UNL A   1      33.592  18.694  24.323  1.00  0.00     0.097 C 
ATOM     20  O   UNL A   1      32.795  18.291  25.460  1.00  0.00    -0.372 OA
ATOM     21  C   UNL A   1      34.644  17.591  23.991  1.00  0.00     0.146 C 
ATOM     22  C   UNL A   1      32.171  17.018  25.378  1.00  0.00     0.161 C 
ATOM     23  C   UNL A   1      34.021  16.202  23.918  1.00  0.00     0.037 C 
ATOM     24  C   UNL A   1      33.195  15.918  25.168  1.00  0.00     0.031 C 
BRANCH  21  25
ATOM     25  O   UNL A   1      35.667  17.520  25.001  1.00  0.00    -0.390 OA
ATOM     26  H   UNL A   1      35.868  18.414  25.321  1.00  0.00     0.211 HD
ENDBRANCH  21  25
ENDBRANCH  10  14
ENDBRANCH   7   8
ENDBRANCH   5   7
ENDBRANCH   2   3
ENDBRANCH   1   2
BRANCH   1  27
ATOM     27  C   UNL A   1      39.485  21.564  25.703  1.00  0.00     0.023 C 
BRANCH  27  28
ATOM     28  C   UNL A   1      39.384  20.266  26.505  1.00  0.00     0.116 C 
BRANCH  28  29
ATOM     29  N   UNL A   1      40.337  19.230  26.142  1.00  0.00    -0.352 N 
ATOM     30  C   UNL A   1      41.718  19.250  26.108  1.00  0.00     0.251 C 
ATOM     31  H   UNL A   1      39.932  18.374  25.875  1.00  0.00     0.163 HD
ATOM     32  O   UNL A   1      42.342  18.264  25.750  1.00  0.00    -0.269 OA
BRANCH  30  33
ATOM     33  C   UNL A   1      42.453  20.492  26.447  1.00  0.00     0.039 A 
ATOM     34  C   UNL A   1      43.080  21.199  25.417  1.00  0.00     0.014 A 
ATOM     35  C   UNL A   1      42.508  20.976  27.754  1.00  0.00     0.014 A 
ATOM     36  C   UNL A   1      43.645  22.451  25.677  1.00  0.00     0.010 A 
ATOM     37  C   UNL A   1      42.993  22.259  27.998  1.00  0.00     0.010 A 
ATOM     38  C   UNL A   1      43.544  23.022  26.957  1.00  0.00    -0.014 A 
BRANCH  38  39
ATOM     39  C   UNL A   1      43.952  24.431  27.206  1.00  0.00     0.031 A 
ATOM     40  C   UNL A   1      42.956  25.447  27.690  1.00  0.00     0.074 A 
ATOM     41  C   UNL A   1      45.210  24.818  26.907  1.00  0.00     0.049 A 
ATOM     42  N   UNL A   1      43.112  26.733  27.884  1.00  0.00    -0.248 NA
ATOM     43  C   UNL A   1      41.597  24.960  27.968  1.00  0.00     0.031 C 
ATOM     44  C   UNL A   1      46.259  23.947  26.374  1.00  0.00     0.029 A 
ATOM     45  N   UNL A   1      45.818  26.047  27.000  1.00  0.00    -0.354 N 
ATOM     46  C   UNL A   1      41.871  27.210  28.284  1.00  0.00     0.074 A 
ATOM     47  C   UNL A   1      40.961  26.084  28.262  1.00  0.00     0.031 C 
ATOM     48  C   UNL A   1      47.386  24.661  26.213  1.00  0.00     0.029 A 
ATOM     49  C   UNL A   1      47.130  26.046  26.593  1.00  0.00     0.049 A 
ATOM     50  H   UNL A   1      45.356  26.852  27.328  1.00  0.00     0.167 HD
ATOM     51  C   UNL A   1      41.527  28.466  28.657  1.00  0.00     0.037 A 
ATOM     52  C   UNL A   1      48.026  27.050  26.527  1.00  0.00     0.037 A 
ATOM     53  C   UNL A   1      42.439  29.578  28.713  1.00  0.00     0.049 A 
ATOM     54  C   UNL A   1      47.619  28.433  26.955  1.00  0.00     0.074 A 
ATOM     55  C   UNL A   1      42.200  30.870  29.151  1.00  0.00     0.029 A 
ATOM     56  N   UNL A   1      43.768  29.531  28.315  1.00  0.00    -0.354 N 
ATOM     57  N   UNL A   1      46.463  28.852  27.407  1.00  0.00    -0.248 NA
ATOM     58  C   UNL A   1      48.646  29.482  26.870  1.00  0.00     0.031 C 
ATOM     59  C   UNL A   1      43.370  31.615  28.979  1.00  0.00     0.029 A 
ATOM     60  C   UNL A   1      44.354  30.777  28.479  1.00  0.00     0.049 A 
ATOM     61  H   UNL A   1      44.226  28.733  27.969  1.00  0.00     0.167 HD
ATOM     62  C   UNL A   1      46.630  30.201  27.688  1.00  0.00     0.074 A 
ATOM     63  C   UNL A   1      48.003  30.529  27.366  1.00  0.00     0.031 C 
ATOM     64  C   UNL A   1      45.725  31.089  28.168  1.00  0.00     0.037 A 
BRANCH  51  65
ATOM     65  C   UNL A   1      40.097  28.708  29.045  1.00  0.00     0.064 A 
ATOM     66  C   UNL A   1      39.140  29.116  28.104  1.00  0.00     0.173 A 
ATOM     67  C   UNL A   1      39.669  28.488  30.364  1.00  0.00     0.173 A 
ATOM     68  F   UNL A   1      39.500  29.349  26.832  1.00  0.00    -0.203 F 
ATOM     69  C   UNL A   1      37.814  29.323  28.474  1.00  0.00     0.198 A 
ATOM     70  C   UNL A   1      38.336  28.668  30.723  1.00  0.00     0.198 A 
ATOM     71  F   UNL A   1      40.542  28.089  31.300  1.00  0.00    -0.203 F 
ATOM     72  F   UNL A   1      36.927  29.759  27.568  1.00  0.00    -0.200 F 
ATOM     73  C   UNL A   1      37.412  29.092  29.781  1.00  0.00     0.200 A 
ATOM     74  F   UNL A   1      37.947  28.432  31.984  1.00  0.00    -0.200 F 
ATOM     75  F   UNL A   1      36.133  29.285  30.134  1.00  0.00    -0.200 F 
ENDBRANCH  51  65
BRANCH  52  76
ATOM     76  C   UNL A   1      49.413  26.779  26.064  1.00  0.00     0.064 A 
ATOM     77  C   UNL A   1      50.399  26.356  26.966  1.00  0.00     0.173 A 
ATOM     78  C   UNL A   1      49.785  26.951  24.723  1.00  0.00     0.173 A 
ATOM     79  F   UNL A   1      50.097  26.199  28.263  1.00  0.00    -0.203 F 
ATOM     80  C   UNL A   1      51.710  26.135  26.549  1.00  0.00     0.198 A 
ATOM     81  C   UNL A   1      51.090  26.703  24.302  1.00  0.00     0.198 A 
ATOM     82  F   UNL A   1      48.878  27.350  23.820  1.00  0.00    -0.203 F 
ATOM     83  F   UNL A   1      52.643  25.776  27.441  1.00  0.00    -0.200 F 
ATOM     84  C   UNL A   1      52.053  26.302  25.216  1.00  0.00     0.200 A 
ATOM     85  F   UNL A   1      51.414  26.853  23.011  1.00  0.00    -0.200 F 
ATOM     86  F   UNL A   1      53.313  26.088  24.814  1.00  0.00    -0.200 F 
ENDBRANCH  52  76
BRANCH  64  87
ATOM     87  C   UNL A   1      46.199  32.491  28.413  1.00  0.00     0.064 A 
ATOM     88  C   UNL A   1      46.110  33.482  27.426  1.00  0.00     0.173 A 
ATOM     89  C   UNL A   1      46.712  32.856  29.668  1.00  0.00     0.173 A 
ATOM     90  F   UNL A   1      45.642  33.180  26.206  1.00  0.00    -0.203 F 
ATOM     91  C   UNL A   1      46.538  34.783  27.678  1.00  0.00     0.198 A 
ATOM     92  C   UNL A   1      47.112  34.164  29.925  1.00  0.00     0.198 A 
ATOM     93  F   UNL A   1      46.814  31.946  30.647  1.00  0.00    -0.203 F 
ATOM     94  F   UNL A   1      46.485  35.704  26.706  1.00  0.00    -0.200 F 
ATOM     95  C   UNL A   1      47.031  35.124  28.929  1.00  0.00     0.200 A 
ATOM     96  F   UNL A   1      47.578  34.494  31.137  1.00  0.00    -0.200 F 
ATOM     97  F   UNL A   1      47.436  36.379  29.172  1.00  0.00    -0.200 F 
ENDBRANCH  64  87
ENDBRANCH  38  39
ENDBRANCH  30  33
ENDBRANCH  28  29
ENDBRANCH  27  28
ENDBRANCH   1  27
TORSDOF 14
ENDMDL
