MODEL 1
REMARK VINA RESULT:     -12.2      0.000      0.000
REMARK SMILES CC[NH2+][C@@]1(C(=O)NCCCCNC(=O)c2ccc(-c3c4nc(c(-c5c(F)c(F)c(F)c(F)c5F)c5ccc([nH]5)c(-c5c(F)c(F)c(F)c(F)c5F)c5nc(c(-c6c(F)c(F)c(F)c(F)c6F)c6ccc3[nH]6)C=C5)C=C4)cc2)CC[C@H](Sc2nccc(=O)[nH]2)C1
REMARK SMILES IDX 9 1 8 2 7 3 5 4 6 5 4 7 78 8 89 9 79 10 80 11 3 12 2 15 1 16
REMARK SMILES IDX 81 17 82 18 83 19 88 20 84 21 86 22 85 24 87 25 10 26 11 27
REMARK SMILES IDX 12 28 13 29 14 31 15 32 16 33 77 34 17 35 76 36 18 37 19 38
REMARK SMILES IDX 20 39 70 40 21 41 75 42 69 43 71 44 22 45 74 46 68 47 67 48
REMARK SMILES IDX 23 50 55 51 35 52 54 53 36 54 39 55 53 56 72 57 37 58 38 59
REMARK SMILES IDX 52 61 73 62 40 63 24 64 25 65 33 66 26 67 27 68 31 69 34 70
REMARK SMILES IDX 28 71 29 72 32 73 30 74 56 75 57 76 65 77 58 78 59 79 63 80
REMARK SMILES IDX 66 81 60 82 61 83 64 84 62 85 41 86 42 87 50 88 43 89 44 90
REMARK SMILES IDX 48 91 51 92 45 93 46 94 49 95 47 96
REMARK H PARENT 7 6 3 13 3 14 88 23 12 30 71 49 39 60
REMARK Flexibility Score: inf
ROOT
ATOM      1  C   UNL A   1      32.518  29.721  26.936  1.00  0.00     0.023 C 
ENDROOT
BRANCH   1   2
ATOM      2  C   UNL A   1      33.505  29.299  25.860  1.00  0.00     0.116 C 
BRANCH   2   3
ATOM      3  N   UNL A   1      34.003  27.968  26.043  1.00  0.00    -0.351 N 
ATOM      4  C   UNL A   1      33.826  26.844  25.299  1.00  0.00     0.281 C 
ATOM      5  O   UNL A   1      34.283  25.816  25.822  1.00  0.00    -0.268 OA
ATOM      6  H   UNL A   1      34.566  27.846  26.840  1.00  0.00     0.163 HD
BRANCH   4   7
ATOM      7  C   UNL A   1      33.053  26.789  23.896  1.00  0.00     0.176 C 
ATOM      8  C   UNL A   1      33.630  27.763  22.851  1.00  0.00     0.080 C 
ATOM      9  C   UNL A   1      31.571  27.180  24.073  1.00  0.00     0.094 C 
ATOM     10  C   UNL A   1      32.633  28.909  22.670  1.00  0.00     0.022 C 
ATOM     11  C   UNL A   1      31.279  28.381  23.143  1.00  0.00     0.062 C 
BRANCH   7  12
ATOM     12  N   UNL A   1      33.215  25.375  23.487  1.00  0.00    -0.334 N 
ATOM     13  H   UNL A   1      34.092  25.056  23.899  1.00  0.00     0.347 HD
ATOM     14  H   UNL A   1      32.343  24.954  23.804  1.00  0.00     0.347 HD
BRANCH  12  15
ATOM     15  C   UNL A   1      33.257  24.989  22.093  1.00  0.00     0.257 C 
ATOM     16  C   UNL A   1      33.016  23.484  22.001  1.00  0.00     0.071 C 
ENDBRANCH  12  15
ENDBRANCH   7  12
BRANCH  11  17
ATOM     17  S   UNL A   1      30.059  29.472  23.965  1.00  0.00    -0.084 SA
BRANCH  17  18
ATOM     18  C   UNL A   1      29.279  30.433  22.752  1.00  0.00     0.168 A 
ATOM     19  N   UNL A   1      28.844  29.981  21.625  1.00  0.00    -0.233 NA
ATOM     20  N   UNL A   1      29.148  31.730  23.152  1.00  0.00    -0.301 N 
ATOM     21  C   UNL A   1      28.221  30.895  20.808  1.00  0.00     0.120 A 
ATOM     22  C   UNL A   1      28.532  32.675  22.387  1.00  0.00     0.251 A 
ATOM     23  H   UNL A   1      29.514  31.993  24.028  1.00  0.00     0.172 HD
ATOM     24  C   UNL A   1      28.031  32.187  21.096  1.00  0.00     0.091 A 
ATOM     25  O   UNL A   1      28.403  33.838  22.746  1.00  0.00    -0.269 OA
ENDBRANCH  17  18
ENDBRANCH  11  17
ENDBRANCH   4   7
ENDBRANCH   2   3
ENDBRANCH   1   2
BRANCH   1  26
ATOM     26  C   UNL A   1      32.079  31.174  26.870  1.00  0.00     0.023 C 
BRANCH  26  27
ATOM     27  C   UNL A   1      33.060  32.181  27.455  1.00  0.00     0.116 C 
BRANCH  27  28
ATOM     28  N   UNL A   1      32.536  33.538  27.609  1.00  0.00    -0.352 N 
ATOM     29  C   UNL A   1      33.033  34.558  28.388  1.00  0.00     0.251 C 
ATOM     30  H   UNL A   1      31.727  33.748  27.092  1.00  0.00     0.163 HD
ATOM     31  O   UNL A   1      32.527  35.670  28.389  1.00  0.00    -0.269 OA
BRANCH  29  32
ATOM     32  C   UNL A   1      34.192  34.265  29.247  1.00  0.00     0.039 A 
ATOM     33  C   UNL A   1      33.985  33.685  30.500  1.00  0.00     0.014 A 
ATOM     34  C   UNL A   1      35.479  34.436  28.734  1.00  0.00     0.014 A 
ATOM     35  C   UNL A   1      35.079  33.190  31.209  1.00  0.00     0.010 A 
ATOM     36  C   UNL A   1      36.550  33.855  29.395  1.00  0.00     0.010 A 
ATOM     37  C   UNL A   1      36.362  33.226  30.637  1.00  0.00    -0.014 A 
BRANCH  37  38
ATOM     38  C   UNL A   1      37.544  32.634  31.312  1.00  0.00     0.031 A 
ATOM     39  C   UNL A   1      38.269  31.499  30.648  1.00  0.00     0.074 A 
ATOM     40  C   UNL A   1      37.888  33.030  32.553  1.00  0.00     0.049 A 
ATOM     41  N   UNL A   1      39.195  30.710  31.128  1.00  0.00    -0.248 NA
ATOM     42  C   UNL A   1      37.857  31.174  29.272  1.00  0.00     0.031 C 
ATOM     43  C   UNL A   1      37.227  34.084  33.325  1.00  0.00     0.029 A 
ATOM     44  N   UNL A   1      38.871  32.572  33.393  1.00  0.00    -0.354 N 
ATOM     45  C   UNL A   1      39.441  29.773  30.132  1.00  0.00     0.074 A 
ATOM     46  C   UNL A   1      38.531  30.058  29.044  1.00  0.00     0.031 C 
ATOM     47  C   UNL A   1      37.836  34.204  34.517  1.00  0.00     0.029 A 
ATOM     48  C   UNL A   1      38.901  33.209  34.609  1.00  0.00     0.049 A 
ATOM     49  H   UNL A   1      39.497  31.852  33.148  1.00  0.00     0.167 HD
ATOM     50  C   UNL A   1      40.361  28.781  30.116  1.00  0.00     0.037 A 
ATOM     51  C   UNL A   1      39.693  33.006  35.679  1.00  0.00     0.037 A 
ATOM     52  C   UNL A   1      41.303  28.544  31.175  1.00  0.00     0.049 A 
ATOM     53  C   UNL A   1      40.739  31.927  35.619  1.00  0.00     0.074 A 
ATOM     54  C   UNL A   1      42.327  27.615  31.228  1.00  0.00     0.029 A 
ATOM     55  N   UNL A   1      41.343  29.255  32.366  1.00  0.00    -0.354 N 
ATOM     56  N   UNL A   1      41.000  31.080  34.652  1.00  0.00    -0.248 NA
ATOM     57  C   UNL A   1      41.607  31.779  36.795  1.00  0.00     0.031 C 
ATOM     58  C   UNL A   1      42.971  27.746  32.464  1.00  0.00     0.029 A 
ATOM     59  C   UNL A   1      42.372  28.782  33.163  1.00  0.00     0.049 A 
ATOM     60  H   UNL A   1      40.731  29.987  32.607  1.00  0.00     0.167 HD
ATOM     61  C   UNL A   1      42.075  30.319  35.091  1.00  0.00     0.074 A 
ATOM     62  C   UNL A   1      42.427  30.812  36.406  1.00  0.00     0.031 C 
ATOM     63  C   UNL A   1      42.714  29.301  34.461  1.00  0.00     0.037 A 
BRANCH  50  64
ATOM     64  C   UNL A   1      40.395  27.890  28.910  1.00  0.00     0.064 A 
ATOM     65  C   UNL A   1      41.168  28.208  27.782  1.00  0.00     0.173 A 
ATOM     66  C   UNL A   1      39.657  26.698  28.884  1.00  0.00     0.173 A 
ATOM     67  F   UNL A   1      41.880  29.345  27.750  1.00  0.00    -0.203 F 
ATOM     68  C   UNL A   1      41.171  27.384  26.660  1.00  0.00     0.198 A 
ATOM     69  C   UNL A   1      39.688  25.859  27.773  1.00  0.00     0.198 A 
ATOM     70  F   UNL A   1      38.903  26.345  29.936  1.00  0.00    -0.203 F 
ATOM     71  F   UNL A   1      41.869  27.739  25.573  1.00  0.00    -0.200 F 
ATOM     72  C   UNL A   1      40.437  26.208  26.659  1.00  0.00     0.200 A 
ATOM     73  F   UNL A   1      38.987  24.718  27.776  1.00  0.00    -0.200 F 
ATOM     74  F   UNL A   1      40.444  25.414  25.579  1.00  0.00    -0.200 F 
ENDBRANCH  50  64
BRANCH  51  75
ATOM     75  C   UNL A   1      39.552  33.864  36.885  1.00  0.00     0.064 A 
ATOM     76  C   UNL A   1      38.788  33.436  37.980  1.00  0.00     0.173 A 
ATOM     77  C   UNL A   1      40.168  35.121  36.969  1.00  0.00     0.173 A 
ATOM     78  F   UNL A   1      38.163  32.250  37.937  1.00  0.00    -0.203 F 
ATOM     79  C   UNL A   1      38.630  34.241  39.107  1.00  0.00     0.198 A 
ATOM     80  C   UNL A   1      40.029  35.914  38.107  1.00  0.00     0.198 A 
ATOM     81  F   UNL A   1      40.914  35.573  35.951  1.00  0.00    -0.203 F 
ATOM     82  F   UNL A   1      37.859  33.826  40.120  1.00  0.00    -0.200 F 
ATOM     83  C   UNL A   1      39.254  35.477  39.171  1.00  0.00     0.200 A 
ATOM     84  F   UNL A   1      40.645  37.103  38.171  1.00  0.00    -0.200 F 
ATOM     85  F   UNL A   1      39.103  36.250  40.255  1.00  0.00    -0.200 F 
ENDBRANCH  51  75
BRANCH  63  86
ATOM     86  C   UNL A   1      43.882  28.684  35.168  1.00  0.00     0.064 A 
ATOM     87  C   UNL A   1      43.723  27.600  36.043  1.00  0.00     0.173 A 
ATOM     88  C   UNL A   1      45.183  29.152  34.925  1.00  0.00     0.173 A 
ATOM     89  F   UNL A   1      42.498  27.128  36.316  1.00  0.00    -0.203 F 
ATOM     90  C   UNL A   1      44.824  27.019  36.666  1.00  0.00     0.198 A 
ATOM     91  C   UNL A   1      46.283  28.551  35.530  1.00  0.00     0.198 A 
ATOM     92  F   UNL A   1      45.386  30.182  34.092  1.00  0.00    -0.203 F 
ATOM     93  F   UNL A   1      44.647  26.010  37.529  1.00  0.00    -0.200 F 
ATOM     94  C   UNL A   1      46.102  27.490  36.404  1.00  0.00     0.200 A 
ATOM     95  F   UNL A   1      47.518  28.999  35.265  1.00  0.00    -0.200 F 
ATOM     96  F   UNL A   1      47.161  26.923  36.998  1.00  0.00    -0.200 F 
ENDBRANCH  63  86
ENDBRANCH  37  38
ENDBRANCH  29  32
ENDBRANCH  27  28
ENDBRANCH  26  27
ENDBRANCH   1  26
TORSDOF 15
ENDMDL
MODEL 2
REMARK VINA RESULT:     -12.1      6.238     10.508
REMARK SMILES CC[NH2+][C@@]1(C(=O)NCCCCNC(=O)c2ccc(-c3c4nc(c(-c5c(F)c(F)c(F)c(F)c5F)c5ccc([nH]5)c(-c5c(F)c(F)c(F)c(F)c5F)c5nc(c(-c6c(F)c(F)c(F)c(F)c6F)c6ccc3[nH]6)C=C5)C=C4)cc2)CC[C@H](Sc2nccc(=O)[nH]2)C1
REMARK SMILES IDX 9 1 8 2 7 3 5 4 6 5 4 7 78 8 89 9 79 10 80 11 3 12 2 15 1 16
REMARK SMILES IDX 81 17 82 18 83 19 88 20 84 21 86 22 85 24 87 25 10 26 11 27
REMARK SMILES IDX 12 28 13 29 14 31 15 32 16 33 77 34 17 35 76 36 18 37 19 38
REMARK SMILES IDX 20 39 70 40 21 41 75 42 69 43 71 44 22 45 74 46 68 47 67 48
REMARK SMILES IDX 23 50 55 51 35 52 54 53 36 54 39 55 53 56 72 57 37 58 38 59
REMARK SMILES IDX 52 61 73 62 40 63 24 64 25 65 33 66 26 67 27 68 31 69 34 70
REMARK SMILES IDX 28 71 29 72 32 73 30 74 56 75 57 76 65 77 58 78 59 79 63 80
REMARK SMILES IDX 66 81 60 82 61 83 64 84 62 85 41 86 42 87 50 88 43 89 44 90
REMARK SMILES IDX 48 91 51 92 45 93 46 94 49 95 47 96
REMARK H PARENT 7 6 3 13 3 14 88 23 12 30 71 49 39 60
REMARK Flexibility Score: inf
ROOT
ATOM      1  C   UNL A   1      37.320  21.282  24.551  1.00  0.00     0.023 C 
ENDROOT
BRANCH   1   2
ATOM      2  C   UNL A   1      36.951  22.258  25.656  1.00  0.00     0.116 C 
BRANCH   2   3
ATOM      3  N   UNL A   1      35.970  21.740  26.562  1.00  0.00    -0.351 N 
ATOM      4  C   UNL A   1      34.637  21.988  26.664  1.00  0.00     0.281 C 
ATOM      5  O   UNL A   1      34.104  21.477  27.661  1.00  0.00    -0.268 OA
ATOM      6  H   UNL A   1      36.318  21.099  27.222  1.00  0.00     0.163 HD
BRANCH   4   7
ATOM      7  C   UNL A   1      33.798  22.900  25.648  1.00  0.00     0.176 C 
ATOM      8  C   UNL A   1      32.328  23.082  26.075  1.00  0.00     0.080 C 
ATOM      9  C   UNL A   1      33.760  22.262  24.244  1.00  0.00     0.094 C 
ATOM     10  C   UNL A   1      31.454  22.268  25.120  1.00  0.00     0.022 C 
ATOM     11  C   UNL A   1      32.278  22.064  23.849  1.00  0.00     0.062 C 
BRANCH   7  12
ATOM     12  N   UNL A   1      34.543  24.180  25.664  1.00  0.00    -0.334 N 
ATOM     13  H   UNL A   1      35.164  24.141  26.471  1.00  0.00     0.347 HD
ATOM     14  H   UNL A   1      34.953  24.206  24.730  1.00  0.00     0.347 HD
BRANCH  12  15
ATOM     15  C   UNL A   1      33.861  25.454  25.738  1.00  0.00     0.257 C 
ATOM     16  C   UNL A   1      33.789  26.046  24.332  1.00  0.00     0.071 C 
ENDBRANCH  12  15
ENDBRANCH   7  12
BRANCH  11  17
ATOM     17  S   UNL A   1      32.140  20.532  22.854  1.00  0.00    -0.084 SA
BRANCH  17  18
ATOM     18  C   UNL A   1      32.544  19.184  23.865  1.00  0.00     0.168 A 
ATOM     19  N   UNL A   1      32.268  19.100  25.121  1.00  0.00    -0.233 NA
ATOM     20  N   UNL A   1      33.165  18.199  23.155  1.00  0.00    -0.301 N 
ATOM     21  C   UNL A   1      32.641  17.933  25.745  1.00  0.00     0.120 A 
ATOM     22  C   UNL A   1      33.548  17.019  23.719  1.00  0.00     0.251 A 
ATOM     23  H   UNL A   1      33.344  18.347  22.198  1.00  0.00     0.172 HD
ATOM     24  C   UNL A   1      33.249  16.899  25.152  1.00  0.00     0.091 A 
ATOM     25  O   UNL A   1      34.096  16.127  23.085  1.00  0.00    -0.269 OA
ENDBRANCH  17  18
ENDBRANCH  11  17
ENDBRANCH   4   7
ENDBRANCH   2   3
ENDBRANCH   1   2
BRANCH   1  26
ATOM     26  C   UNL A   1      38.073  20.046  25.010  1.00  0.00     0.023 C 
BRANCH  26  27
ATOM     27  C   UNL A   1      39.346  20.313  25.803  1.00  0.00     0.116 C 
BRANCH  27  28
ATOM     28  N   UNL A   1      40.281  19.191  25.868  1.00  0.00    -0.352 N 
ATOM     29  C   UNL A   1      41.625  19.218  26.167  1.00  0.00     0.251 C 
ATOM     30  H   UNL A   1      39.903  18.303  25.675  1.00  0.00     0.163 HD
ATOM     31  O   UNL A   1      42.288  18.195  26.239  1.00  0.00    -0.269 OA
BRANCH  29  32
ATOM     32  C   UNL A   1      42.254  20.532  26.378  1.00  0.00     0.039 A 
ATOM     33  C   UNL A   1      42.629  21.296  25.271  1.00  0.00     0.014 A 
ATOM     34  C   UNL A   1      42.329  21.049  27.672  1.00  0.00     0.014 A 
ATOM     35  C   UNL A   1      43.001  22.627  25.459  1.00  0.00     0.010 A 
ATOM     36  C   UNL A   1      42.602  22.398  27.843  1.00  0.00     0.010 A 
ATOM     37  C   UNL A   1      42.940  23.200  26.740  1.00  0.00    -0.014 A 
BRANCH  37  38
ATOM     38  C   UNL A   1      43.240  24.634  26.979  1.00  0.00     0.031 A 
ATOM     39  C   UNL A   1      44.626  25.145  26.706  1.00  0.00     0.074 A 
ATOM     40  C   UNL A   1      42.316  25.437  27.542  1.00  0.00     0.049 A 
ATOM     41  N   UNL A   1      45.163  26.296  27.016  1.00  0.00    -0.248 NA
ATOM     42  C   UNL A   1      45.548  24.211  26.040  1.00  0.00     0.031 C 
ATOM     43  C   UNL A   1      40.953  25.044  27.904  1.00  0.00     0.029 A 
ATOM     44  N   UNL A   1      42.395  26.751  27.931  1.00  0.00    -0.354 N 
ATOM     45  C   UNL A   1      46.493  26.205  26.625  1.00  0.00     0.074 A 
ATOM     46  C   UNL A   1      46.694  24.870  26.104  1.00  0.00     0.031 C 
ATOM     47  C   UNL A   1      40.319  26.099  28.443  1.00  0.00     0.029 A 
ATOM     48  C   UNL A   1      41.242  27.229  28.503  1.00  0.00     0.049 A 
ATOM     49  H   UNL A   1      43.204  27.300  27.810  1.00  0.00     0.167 HD
ATOM     50  C   UNL A   1      47.452  27.158  26.670  1.00  0.00     0.037 A 
ATOM     51  C   UNL A   1      40.967  28.439  29.025  1.00  0.00     0.037 A 
ATOM     52  C   UNL A   1      47.229  28.501  27.130  1.00  0.00     0.049 A 
ATOM     53  C   UNL A   1      42.038  29.496  29.022  1.00  0.00     0.074 A 
ATOM     54  C   UNL A   1      48.110  29.566  27.148  1.00  0.00     0.029 A 
ATOM     55  N   UNL A   1      46.026  28.965  27.644  1.00  0.00    -0.354 N 
ATOM     56  N   UNL A   1      43.277  29.418  28.601  1.00  0.00    -0.248 NA
ATOM     57  C   UNL A   1      41.671  30.813  29.561  1.00  0.00     0.031 C 
ATOM     58  C   UNL A   1      47.449  30.670  27.698  1.00  0.00     0.029 A 
ATOM     59  C   UNL A   1      46.145  30.302  27.986  1.00  0.00     0.049 A 
ATOM     60  H   UNL A   1      45.210  28.425  27.749  1.00  0.00     0.167 HD
ATOM     61  C   UNL A   1      43.828  30.677  28.797  1.00  0.00     0.074 A 
ATOM     62  C   UNL A   1      42.784  31.506  29.364  1.00  0.00     0.031 C 
ATOM     63  C   UNL A   1      45.086  31.109  28.533  1.00  0.00     0.037 A 
BRANCH  50  64
ATOM     64  C   UNL A   1      48.825  26.778  26.198  1.00  0.00     0.064 A 
ATOM     65  C   UNL A   1      49.246  27.029  24.883  1.00  0.00     0.173 A 
ATOM     66  C   UNL A   1      49.736  26.169  27.074  1.00  0.00     0.173 A 
ATOM     67  F   UNL A   1      48.407  27.594  24.002  1.00  0.00    -0.203 F 
ATOM     68  C   UNL A   1      50.514  26.649  24.453  1.00  0.00     0.198 A 
ATOM     69  C   UNL A   1      51.015  25.821  26.649  1.00  0.00     0.198 A 
ATOM     70  F   UNL A   1      49.385  25.910  28.343  1.00  0.00    -0.203 F 
ATOM     71  F   UNL A   1      50.872  26.844  23.176  1.00  0.00    -0.200 F 
ATOM     72  C   UNL A   1      51.400  26.052  25.337  1.00  0.00     0.200 A 
ATOM     73  F   UNL A   1      51.874  25.254  27.507  1.00  0.00    -0.200 F 
ATOM     74  F   UNL A   1      52.621  25.691  24.922  1.00  0.00    -0.200 F 
ENDBRANCH  50  64
BRANCH  51  75
ATOM     75  C   UNL A   1      39.612  28.729  29.562  1.00  0.00     0.064 A 
ATOM     76  C   UNL A   1      39.291  28.425  30.892  1.00  0.00     0.173 A 
ATOM     77  C   UNL A   1      38.614  29.309  28.765  1.00  0.00     0.173 A 
ATOM     78  F   UNL A   1      40.207  27.851  31.687  1.00  0.00    -0.203 F 
ATOM     79  C   UNL A   1      38.017  28.671  31.401  1.00  0.00     0.198 A 
ATOM     80  C   UNL A   1      37.348  29.578  29.283  1.00  0.00     0.198 A 
ATOM     81  F   UNL A   1      38.873  29.624  27.488  1.00  0.00    -0.203 F 
ATOM     82  F   UNL A   1      37.725  28.330  32.663  1.00  0.00    -0.200 F 
ATOM     83  C   UNL A   1      37.048  29.251  30.597  1.00  0.00     0.200 A 
ATOM     84  F   UNL A   1      36.417  30.150  28.506  1.00  0.00    -0.200 F 
ATOM     85  F   UNL A   1      35.824  29.490  31.087  1.00  0.00    -0.200 F 
ENDBRANCH  51  75
BRANCH  63  86
ATOM     86  C   UNL A   1      45.389  32.550  28.814  1.00  0.00     0.064 A 
ATOM     87  C   UNL A   1      45.946  32.959  30.034  1.00  0.00     0.173 A 
ATOM     88  C   UNL A   1      45.167  33.524  27.829  1.00  0.00     0.173 A 
ATOM     89  F   UNL A   1      46.163  32.066  31.010  1.00  0.00    -0.203 F 
ATOM     90  C   UNL A   1      46.251  34.298  30.266  1.00  0.00     0.198 A 
ATOM     91  C   UNL A   1      45.497  34.857  28.055  1.00  0.00     0.198 A 
ATOM     92  F   UNL A   1      44.641  33.181  26.644  1.00  0.00    -0.203 F 
ATOM     93  F   UNL A   1      46.745  34.674  31.452  1.00  0.00    -0.200 F 
ATOM     94  C   UNL A   1      46.033  35.244  29.274  1.00  0.00     0.200 A 
ATOM     95  F   UNL A   1      45.297  35.767  27.091  1.00  0.00    -0.200 F 
ATOM     96  F   UNL A   1      46.335  36.530  29.496  1.00  0.00    -0.200 F 
ENDBRANCH  63  86
ENDBRANCH  37  38
ENDBRANCH  29  32
ENDBRANCH  27  28
ENDBRANCH  26  27
ENDBRANCH   1  26
TORSDOF 15
ENDMDL
MODEL 3
REMARK VINA RESULT:     -12.1      6.224     10.503
REMARK SMILES CC[NH2+][C@@]1(C(=O)NCCCCNC(=O)c2ccc(-c3c4nc(c(-c5c(F)c(F)c(F)c(F)c5F)c5ccc([nH]5)c(-c5c(F)c(F)c(F)c(F)c5F)c5nc(c(-c6c(F)c(F)c(F)c(F)c6F)c6ccc3[nH]6)C=C5)C=C4)cc2)CC[C@H](Sc2nccc(=O)[nH]2)C1
REMARK SMILES IDX 9 1 8 2 7 3 5 4 6 5 4 7 78 8 89 9 79 10 80 11 3 12 2 15 1 16
REMARK SMILES IDX 81 17 82 18 83 19 88 20 84 21 86 22 85 24 87 25 10 26 11 27
REMARK SMILES IDX 12 28 13 29 14 31 15 32 16 33 77 34 17 35 76 36 18 37 19 38
REMARK SMILES IDX 20 39 70 40 21 41 75 42 69 43 71 44 22 45 74 46 68 47 67 48
REMARK SMILES IDX 23 50 55 51 35 52 54 53 36 54 39 55 53 56 72 57 37 58 38 59
REMARK SMILES IDX 52 61 73 62 40 63 24 64 25 65 33 66 26 67 27 68 31 69 34 70
REMARK SMILES IDX 28 71 29 72 32 73 30 74 56 75 57 76 65 77 58 78 59 79 63 80
REMARK SMILES IDX 66 81 60 82 61 83 64 84 62 85 41 86 42 87 50 88 43 89 44 90
REMARK SMILES IDX 48 91 51 92 45 93 46 94 49 95 47 96
REMARK H PARENT 7 6 3 13 3 14 88 23 12 30 71 49 39 60
REMARK Flexibility Score: inf
ROOT
ATOM      1  C   UNL A   1      37.413  21.455  24.552  1.00  0.00     0.023 C 
ENDROOT
BRANCH   1   2
ATOM      2  C   UNL A   1      36.985  22.396  25.666  1.00  0.00     0.116 C 
BRANCH   2   3
ATOM      3  N   UNL A   1      36.014  21.821  26.549  1.00  0.00    -0.351 N 
ATOM      4  C   UNL A   1      34.673  22.018  26.643  1.00  0.00     0.281 C 
ATOM      5  O   UNL A   1      34.149  21.463  27.621  1.00  0.00    -0.268 OA
ATOM      6  H   UNL A   1      36.379  21.176  27.196  1.00  0.00     0.163 HD
BRANCH   4   7
ATOM      7  C   UNL A   1      33.811  22.924  25.640  1.00  0.00     0.176 C 
ATOM      8  C   UNL A   1      32.346  23.092  26.089  1.00  0.00     0.080 C 
ATOM      9  C   UNL A   1      33.759  22.288  24.236  1.00  0.00     0.094 C 
ATOM     10  C   UNL A   1      31.465  22.271  25.144  1.00  0.00     0.022 C 
ATOM     11  C   UNL A   1      32.272  22.077  23.862  1.00  0.00     0.062 C 
BRANCH   7  12
ATOM     12  N   UNL A   1      34.544  24.210  25.647  1.00  0.00    -0.334 N 
ATOM     13  H   UNL A   1      34.549  24.533  26.615  1.00  0.00     0.347 HD
ATOM     14  H   UNL A   1      35.431  23.959  25.210  1.00  0.00     0.347 HD
BRANCH  12  15
ATOM     15  C   UNL A   1      34.112  25.334  24.846  1.00  0.00     0.257 C 
ATOM     16  C   UNL A   1      33.711  26.470  25.784  1.00  0.00     0.071 C 
ENDBRANCH  12  15
ENDBRANCH   7  12
BRANCH  11  17
ATOM     17  S   UNL A   1      32.134  20.546  22.866  1.00  0.00    -0.084 SA
BRANCH  17  18
ATOM     18  C   UNL A   1      32.544  19.198  23.874  1.00  0.00     0.168 A 
ATOM     19  N   UNL A   1      32.276  19.114  25.132  1.00  0.00    -0.233 NA
ATOM     20  N   UNL A   1      33.160  18.212  23.161  1.00  0.00    -0.301 N 
ATOM     21  C   UNL A   1      32.653  17.947  25.754  1.00  0.00     0.120 A 
ATOM     22  C   UNL A   1      33.547  17.032  23.723  1.00  0.00     0.251 A 
ATOM     23  H   UNL A   1      33.332  18.360  22.202  1.00  0.00     0.172 HD
ATOM     24  C   UNL A   1      33.256  16.913  25.157  1.00  0.00     0.091 A 
ATOM     25  O   UNL A   1      34.090  16.139  23.085  1.00  0.00    -0.269 OA
ENDBRANCH  17  18
ENDBRANCH  11  17
ENDBRANCH   4   7
ENDBRANCH   2   3
ENDBRANCH   1   2
BRANCH   1  26
ATOM     26  C   UNL A   1      38.082  20.173  25.015  1.00  0.00     0.023 C 
BRANCH  26  27
ATOM     27  C   UNL A   1      39.312  20.357  25.894  1.00  0.00     0.116 C 
BRANCH  27  28
ATOM     28  N   UNL A   1      40.251  19.236  25.889  1.00  0.00    -0.352 N 
ATOM     29  C   UNL A   1      41.605  19.259  26.136  1.00  0.00     0.251 C 
ATOM     30  H   UNL A   1      39.867  18.354  25.683  1.00  0.00     0.163 HD
ATOM     31  O   UNL A   1      42.272  18.235  26.150  1.00  0.00    -0.269 OA
BRANCH  29  32
ATOM     32  C   UNL A   1      42.240  20.567  26.363  1.00  0.00     0.039 A 
ATOM     33  C   UNL A   1      42.618  21.343  25.265  1.00  0.00     0.014 A 
ATOM     34  C   UNL A   1      42.317  21.068  27.663  1.00  0.00     0.014 A 
ATOM     35  C   UNL A   1      42.996  22.670  25.469  1.00  0.00     0.010 A 
ATOM     36  C   UNL A   1      42.595  22.414  27.849  1.00  0.00     0.010 A 
ATOM     37  C   UNL A   1      42.937  23.228  26.757  1.00  0.00    -0.014 A 
BRANCH  37  38
ATOM     38  C   UNL A   1      43.242  24.657  27.013  1.00  0.00     0.031 A 
ATOM     39  C   UNL A   1      44.635  25.161  26.762  1.00  0.00     0.074 A 
ATOM     40  C   UNL A   1      42.317  25.461  27.572  1.00  0.00     0.049 A 
ATOM     41  N   UNL A   1      45.176  26.306  27.089  1.00  0.00    -0.248 NA
ATOM     42  C   UNL A   1      45.560  24.228  26.099  1.00  0.00     0.031 C 
ATOM     43  C   UNL A   1      40.947  25.073  27.913  1.00  0.00     0.029 A 
ATOM     44  N   UNL A   1      42.400  26.770  27.974  1.00  0.00    -0.354 N 
ATOM     45  C   UNL A   1      46.510  26.210  26.714  1.00  0.00     0.074 A 
ATOM     46  C   UNL A   1      46.709  24.880  26.183  1.00  0.00     0.031 C 
ATOM     47  C   UNL A   1      40.313  26.127  28.454  1.00  0.00     0.029 A 
ATOM     48  C   UNL A   1      41.243  27.250  28.536  1.00  0.00     0.049 A 
ATOM     49  H   UNL A   1      43.213  27.315  27.868  1.00  0.00     0.167 HD
ATOM     50  C   UNL A   1      47.475  27.157  26.780  1.00  0.00     0.037 A 
ATOM     51  C   UNL A   1      40.969  28.458  29.066  1.00  0.00     0.037 A 
ATOM     52  C   UNL A   1      47.253  28.496  27.250  1.00  0.00     0.049 A 
ATOM     53  C   UNL A   1      42.046  29.508  29.086  1.00  0.00     0.074 A 
ATOM     54  C   UNL A   1      48.142  29.556  27.289  1.00  0.00     0.029 A 
ATOM     55  N   UNL A   1      46.047  28.964  27.753  1.00  0.00    -0.354 N 
ATOM     56  N   UNL A   1      43.290  29.426  28.680  1.00  0.00    -0.248 NA
ATOM     57  C   UNL A   1      41.680  30.822  29.633  1.00  0.00     0.031 C 
ATOM     58  C   UNL A   1      47.481  30.659  27.841  1.00  0.00     0.029 A 
ATOM     59  C   UNL A   1      46.170  30.297  28.109  1.00  0.00     0.049 A 
ATOM     60  H   UNL A   1      45.227  28.428  27.843  1.00  0.00     0.167 HD
ATOM     61  C   UNL A   1      43.846  30.679  28.895  1.00  0.00     0.074 A 
ATOM     62  C   UNL A   1      42.800  31.509  29.457  1.00  0.00     0.031 C 
ATOM     63  C   UNL A   1      45.110  31.106  28.651  1.00  0.00     0.037 A 
BRANCH  50  64
ATOM     64  C   UNL A   1      48.850  26.773  26.322  1.00  0.00     0.064 A 
ATOM     65  C   UNL A   1      49.784  26.199  27.199  1.00  0.00     0.173 A 
ATOM     66  C   UNL A   1      49.237  26.967  24.988  1.00  0.00     0.173 A 
ATOM     67  F   UNL A   1      49.470  26.006  28.489  1.00  0.00    -0.203 F 
ATOM     68  C   UNL A   1      51.066  25.869  26.766  1.00  0.00     0.198 A 
ATOM     69  C   UNL A   1      50.508  26.605  24.550  1.00  0.00     0.198 A 
ATOM     70  F   UNL A   1      48.382  27.509  24.108  1.00  0.00    -0.203 F 
ATOM     71  F   UNL A   1      51.959  25.378  27.636  1.00  0.00    -0.200 F 
ATOM     72  C   UNL A   1      51.424  26.066  25.441  1.00  0.00     0.200 A 
ATOM     73  F   UNL A   1      50.851  26.787  23.268  1.00  0.00    -0.200 F 
ATOM     74  F   UNL A   1      52.656  25.745  25.025  1.00  0.00    -0.200 F 
ENDBRANCH  50  64
BRANCH  51  75
ATOM     75  C   UNL A   1      39.609  28.752  29.589  1.00  0.00     0.064 A 
ATOM     76  C   UNL A   1      39.275  28.456  30.918  1.00  0.00     0.173 A 
ATOM     77  C   UNL A   1      38.618  29.327  28.779  1.00  0.00     0.173 A 
ATOM     78  F   UNL A   1      40.184  27.886  31.724  1.00  0.00    -0.203 F 
ATOM     79  C   UNL A   1      37.996  28.705  31.413  1.00  0.00     0.198 A 
ATOM     80  C   UNL A   1      37.347  29.598  29.283  1.00  0.00     0.198 A 
ATOM     81  F   UNL A   1      38.888  29.633  27.502  1.00  0.00    -0.203 F 
ATOM     82  F   UNL A   1      37.693  28.372  32.674  1.00  0.00    -0.200 F 
ATOM     83  C   UNL A   1      37.036  29.280  30.596  1.00  0.00     0.200 A 
ATOM     84  F   UNL A   1      36.424  30.166  28.494  1.00  0.00    -0.200 F 
ATOM     85  F   UNL A   1      35.806  29.523  31.074  1.00  0.00    -0.200 F 
ENDBRANCH  51  75
BRANCH  63  86
ATOM     86  C   UNL A   1      45.418  32.542  28.949  1.00  0.00     0.064 A 
ATOM     87  C   UNL A   1      45.958  32.936  30.182  1.00  0.00     0.173 A 
ATOM     88  C   UNL A   1      45.220  33.526  27.969  1.00  0.00     0.173 A 
ATOM     89  F   UNL A   1      46.152  32.033  31.154  1.00  0.00    -0.203 F 
ATOM     90  C   UNL A   1      46.268  34.271  30.430  1.00  0.00     0.198 A 
ATOM     91  C   UNL A   1      45.555  34.854  28.212  1.00  0.00     0.198 A 
ATOM     92  F   UNL A   1      44.712  33.196  26.773  1.00  0.00    -0.203 F 
ATOM     93  F   UNL A   1      46.745  34.634  31.628  1.00  0.00    -0.200 F 
ATOM     94  C   UNL A   1      46.074  35.227  29.443  1.00  0.00     0.200 A 
ATOM     95  F   UNL A   1      45.379  35.774  27.253  1.00  0.00    -0.200 F 
ATOM     96  F   UNL A   1      46.381  36.509  29.680  1.00  0.00    -0.200 F 
ENDBRANCH  63  86
ENDBRANCH  37  38
ENDBRANCH  29  32
ENDBRANCH  27  28
ENDBRANCH  26  27
ENDBRANCH   1  26
TORSDOF 15
ENDMDL
