MODEL 1
REMARK VINA RESULT:     -12.1      0.000      0.000
REMARK SMILES O=C(NCCCCNC(=O)[C@@H](F)Sc1ccccc1O)c1ccc(-c2c3nc(c(-c4c(F)c(F)c(F)c(F)c4F)c4ccc([nH]4)c(-c4c(F)c(F)c(F)c(F)c4F)c4nc(c(-c5c(F)c(F)c(F)c(F)c5F)c5ccc2[nH]5)C=C4)C=C3)cc1
REMARK SMILES IDX 6 1 5 2 4 3 3 4 1 5 2 6 21 8 22 9 83 10 23 11 82 12 24 13
REMARK SMILES IDX 25 14 26 15 76 16 27 17 81 18 75 19 77 20 28 21 80 22 74 23
REMARK SMILES IDX 73 24 29 26 61 27 41 28 60 29 42 30 45 31 59 32 78 33 43 34
REMARK SMILES IDX 44 35 58 37 79 38 46 39 30 40 31 41 39 42 32 43 33 44 37 45
REMARK SMILES IDX 40 46 34 47 35 48 38 49 36 50 62 51 63 52 71 53 64 54 65 55
REMARK SMILES IDX 69 56 72 57 66 58 67 59 70 60 68 61 47 62 48 63 56 64 49 65
REMARK SMILES IDX 50 66 54 67 57 68 51 69 52 70 55 71 53 72 7 73 8 74 9 75
REMARK SMILES IDX 10 77 11 78 12 79 13 80 14 81 15 82 19 83 16 84 18 85 17 86
REMARK SMILES IDX 20 87
REMARK H PARENT 3 7 77 25 45 36 8 76 20 88
REMARK Flexibility Score: inf
ROOT
ATOM      1  C   UNL A   1      31.460  30.947  25.834  1.00  0.00     0.023 C 
ENDROOT
BRANCH   1   2
ATOM      2  C   UNL A   1      31.323  32.047  26.888  1.00  0.00     0.023 C 
BRANCH   2   3
ATOM      3  C   UNL A   1      32.584  32.843  27.209  1.00  0.00     0.116 C 
BRANCH   3   4
ATOM      4  N   UNL A   1      32.327  34.210  27.632  1.00  0.00    -0.352 N 
ATOM      5  O   UNL A   1      32.600  36.112  28.822  1.00  0.00    -0.269 OA
ATOM      6  C   UNL A   1      32.994  34.980  28.556  1.00  0.00     0.251 C 
ATOM      7  H   UNL A   1      31.564  34.649  27.192  1.00  0.00     0.163 HD
BRANCH   6   8
ATOM      8  C   UNL A   1      34.172  34.429  29.257  1.00  0.00     0.039 A 
ATOM      9  C   UNL A   1      35.460  34.624  28.752  1.00  0.00     0.014 A 
ATOM     10  C   UNL A   1      33.980  33.687  30.427  1.00  0.00     0.014 A 
ATOM     11  C   UNL A   1      36.535  33.955  29.330  1.00  0.00     0.010 A 
ATOM     12  C   UNL A   1      35.072  33.071  31.046  1.00  0.00     0.010 A 
ATOM     13  C   UNL A   1      36.352  33.166  30.478  1.00  0.00    -0.014 A 
BRANCH  13  14
ATOM     14  C   UNL A   1      37.515  32.466  31.078  1.00  0.00     0.031 A 
ATOM     15  C   UNL A   1      37.996  32.809  32.461  1.00  0.00     0.074 A 
ATOM     16  C   UNL A   1      38.121  31.489  30.377  1.00  0.00     0.049 A 
ATOM     17  N   UNL A   1      38.982  32.285  33.147  1.00  0.00    -0.248 NA
ATOM     18  C   UNL A   1      37.282  33.883  33.167  1.00  0.00     0.031 C 
ATOM     19  C   UNL A   1      37.749  31.073  29.025  1.00  0.00     0.029 A 
ATOM     20  N   UNL A   1      39.166  30.664  30.706  1.00  0.00    -0.354 N 
ATOM     21  C   UNL A   1      39.016  32.972  34.353  1.00  0.00     0.074 A 
ATOM     22  C   UNL A   1      37.968  33.969  34.299  1.00  0.00     0.031 C 
ATOM     23  C   UNL A   1      38.531  30.049  28.651  1.00  0.00     0.029 A 
ATOM     24  C   UNL A   1      39.489  29.769  29.717  1.00  0.00     0.049 A 
ATOM     25  H   UNL A   1      39.639  30.709  31.569  1.00  0.00     0.167 HD
ATOM     26  C   UNL A   1      39.841  32.780  35.412  1.00  0.00     0.037 A 
ATOM     27  C   UNL A   1      40.457  28.837  29.665  1.00  0.00     0.037 A 
ATOM     28  C   UNL A   1      40.872  31.775  35.469  1.00  0.00     0.049 A 
ATOM     29  C   UNL A   1      41.370  28.661  30.845  1.00  0.00     0.074 A 
ATOM     30  C   UNL A   1      41.729  31.477  36.514  1.00  0.00     0.029 A 
ATOM     31  N   UNL A   1      41.186  30.904  34.436  1.00  0.00    -0.354 N 
ATOM     32  N   UNL A   1      41.368  29.293  31.993  1.00  0.00    -0.248 NA
ATOM     33  C   UNL A   1      42.420  27.641  30.721  1.00  0.00     0.031 C 
ATOM     34  C   UNL A   1      42.591  30.456  36.099  1.00  0.00     0.029 A 
ATOM     35  C   UNL A   1      42.240  30.086  34.810  1.00  0.00     0.049 A 
ATOM     36  H   UNL A   1      40.727  30.873  33.565  1.00  0.00     0.167 HD
ATOM     37  C   UNL A   1      42.403  28.741  32.733  1.00  0.00     0.074 A 
ATOM     38  C   UNL A   1      43.000  27.707  31.911  1.00  0.00     0.031 C 
ATOM     39  C   UNL A   1      42.824  29.064  33.980  1.00  0.00     0.037 A 
BRANCH  26  40
ATOM     40  C   UNL A   1      39.676  33.685  36.598  1.00  0.00     0.064 A 
ATOM     41  C   UNL A   1      40.306  34.936  36.663  1.00  0.00     0.173 A 
ATOM     42  C   UNL A   1      38.830  33.320  37.657  1.00  0.00     0.173 A 
ATOM     43  F   UNL A   1      41.133  35.328  35.681  1.00  0.00    -0.203 F 
ATOM     44  C   UNL A   1      40.111  35.782  37.754  1.00  0.00     0.198 A 
ATOM     45  C   UNL A   1      38.618  34.178  38.734  1.00  0.00     0.198 A 
ATOM     46  F   UNL A   1      38.198  32.138  37.641  1.00  0.00    -0.203 F 
ATOM     47  F   UNL A   1      40.752  36.957  37.812  1.00  0.00    -0.200 F 
ATOM     48  C   UNL A   1      39.262  35.405  38.784  1.00  0.00     0.200 A 
ATOM     49  F   UNL A   1      37.788  33.818  39.723  1.00  0.00    -0.200 F 
ATOM     50  F   UNL A   1      39.069  36.222  39.828  1.00  0.00    -0.200 F 
ENDBRANCH  26  40
BRANCH  27  51
ATOM     51  C   UNL A   1      40.605  28.000  28.448  1.00  0.00     0.064 A 
ATOM     52  C   UNL A   1      41.371  28.438  27.361  1.00  0.00     0.173 A 
ATOM     53  C   UNL A   1      40.000  26.738  28.358  1.00  0.00     0.173 A 
ATOM     54  F   UNL A   1      41.952  29.647  27.395  1.00  0.00    -0.203 F 
ATOM     55  C   UNL A   1      41.520  27.648  26.224  1.00  0.00     0.198 A 
ATOM     56  C   UNL A   1      40.173  25.938  27.232  1.00  0.00     0.198 A 
ATOM     57  F   UNL A   1      39.260  26.273  29.376  1.00  0.00    -0.203 F 
ATOM     58  F   UNL A   1      42.231  28.104  25.182  1.00  0.00    -0.200 F 
ATOM     59  C   UNL A   1      40.928  26.396  26.163  1.00  0.00     0.200 A 
ATOM     60  F   UNL A   1      39.611  24.722  27.185  1.00  0.00    -0.200 F 
ATOM     61  F   UNL A   1      41.080  25.632  25.073  1.00  0.00    -0.200 F 
ENDBRANCH  27  51
BRANCH  39  62
ATOM     62  C   UNL A   1      43.974  28.278  34.537  1.00  0.00     0.064 A 
ATOM     63  C   UNL A   1      43.771  27.072  35.224  1.00  0.00     0.173 A 
ATOM     64  C   UNL A   1      45.292  28.723  34.361  1.00  0.00     0.173 A 
ATOM     65  F   UNL A   1      42.527  26.614  35.433  1.00  0.00    -0.203 F 
ATOM     66  C   UNL A   1      44.847  26.351  35.734  1.00  0.00     0.198 A 
ATOM     67  C   UNL A   1      46.367  27.986  34.850  1.00  0.00     0.198 A 
ATOM     68  F   UNL A   1      45.537  29.869  33.708  1.00  0.00    -0.203 F 
ATOM     69  F   UNL A   1      44.629  25.224  36.426  1.00  0.00    -0.200 F 
ATOM     70  C   UNL A   1      46.143  26.805  35.542  1.00  0.00     0.200 A 
ATOM     71  F   UNL A   1      47.620  28.421  34.655  1.00  0.00    -0.200 F 
ATOM     72  F   UNL A   1      47.178  26.109  36.031  1.00  0.00    -0.200 F 
ENDBRANCH  39  62
ENDBRANCH  13  14
ENDBRANCH   6   8
ENDBRANCH   3   4
ENDBRANCH   2   3
ENDBRANCH   1   2
BRANCH   1  73
ATOM     73  C   UNL A   1      32.649  30.007  26.001  1.00  0.00     0.116 C 
BRANCH  73  74
ATOM     74  N   UNL A   1      33.327  29.701  24.758  1.00  0.00    -0.353 N 
ATOM     75  C   UNL A   1      33.030  28.732  23.837  1.00  0.00     0.265 C 
ATOM     76  H   UNL A   1      34.104  30.267  24.546  1.00  0.00     0.163 HD
ATOM     77  O   UNL A   1      33.637  28.796  22.760  1.00  0.00    -0.271 OA
BRANCH  75  78
ATOM     78  C   UNL A   1      31.994  27.628  24.104  1.00  0.00     0.317 C 
ATOM     79  F   UNL A   1      31.127  27.896  25.120  1.00  0.00    -0.224 F 
BRANCH  78  80
ATOM     80  S   UNL A   1      31.107  27.171  22.579  1.00  0.00    -0.075 SA
BRANCH  80  81
ATOM     81  C   UNL A   1      29.791  28.376  22.586  1.00  0.00     0.052 A 
ATOM     82  C   UNL A   1      28.553  28.007  23.131  1.00  0.00     0.019 A 
ATOM     83  C   UNL A   1      29.950  29.680  22.095  1.00  0.00     0.129 A 
ATOM     84  C   UNL A   1      27.485  28.906  23.137  1.00  0.00     0.001 A 
ATOM     85  C   UNL A   1      28.882  30.580  22.098  1.00  0.00     0.047 A 
ATOM     86  C   UNL A   1      27.646  30.187  22.611  1.00  0.00     0.004 A 
BRANCH  83  87
ATOM     87  O   UNL A   1      31.165  30.080  21.608  1.00  0.00    -0.507 OA
ATOM     88  H   UNL A   1      31.380  29.931  20.708  1.00  0.00     0.293 HD
ENDBRANCH  83  87
ENDBRANCH  80  81
ENDBRANCH  78  80
ENDBRANCH  75  78
ENDBRANCH  73  74
ENDBRANCH   1  73
TORSDOF 14
ENDMDL
MODEL 2
REMARK VINA RESULT:     -12.0      0.482      7.668
REMARK SMILES O=C(NCCCCNC(=O)[C@@H](F)Sc1ccccc1O)c1ccc(-c2c3nc(c(-c4c(F)c(F)c(F)c(F)c4F)c4ccc([nH]4)c(-c4c(F)c(F)c(F)c(F)c4F)c4nc(c(-c5c(F)c(F)c(F)c(F)c5F)c5ccc2[nH]5)C=C4)C=C3)cc1
REMARK SMILES IDX 6 1 5 2 4 3 3 4 1 5 2 6 21 8 22 9 83 10 23 11 82 12 24 13
REMARK SMILES IDX 25 14 26 15 76 16 27 17 81 18 75 19 77 20 28 21 80 22 74 23
REMARK SMILES IDX 73 24 29 26 61 27 41 28 60 29 42 30 45 31 59 32 78 33 43 34
REMARK SMILES IDX 44 35 58 37 79 38 46 39 30 40 31 41 39 42 32 43 33 44 37 45
REMARK SMILES IDX 40 46 34 47 35 48 38 49 36 50 62 51 63 52 71 53 64 54 65 55
REMARK SMILES IDX 69 56 72 57 66 58 67 59 70 60 68 61 47 62 48 63 56 64 49 65
REMARK SMILES IDX 50 66 54 67 57 68 51 69 52 70 55 71 53 72 7 73 8 74 9 75
REMARK SMILES IDX 10 77 11 78 12 79 13 80 14 81 15 82 19 83 16 84 18 85 17 86
REMARK SMILES IDX 20 87
REMARK H PARENT 3 7 77 25 45 36 8 76 20 88
REMARK Flexibility Score: inf
ROOT
ATOM      1  C   UNL A   1      31.537  30.950  25.832  1.00  0.00     0.023 C 
ENDROOT
BRANCH   1   2
ATOM      2  C   UNL A   1      31.411  32.012  26.925  1.00  0.00     0.023 C 
BRANCH   2   3
ATOM      3  C   UNL A   1      32.657  32.841  27.216  1.00  0.00     0.116 C 
BRANCH   3   4
ATOM      4  N   UNL A   1      32.375  34.211  27.614  1.00  0.00    -0.352 N 
ATOM      5  O   UNL A   1      32.584  36.126  28.796  1.00  0.00    -0.269 OA
ATOM      6  C   UNL A   1      32.995  34.993  28.559  1.00  0.00     0.251 C 
ATOM      7  H   UNL A   1      31.631  34.643  27.135  1.00  0.00     0.163 HD
BRANCH   6   8
ATOM      8  C   UNL A   1      34.142  34.454  29.320  1.00  0.00     0.039 A 
ATOM      9  C   UNL A   1      35.441  34.551  28.816  1.00  0.00     0.014 A 
ATOM     10  C   UNL A   1      33.908  33.825  30.546  1.00  0.00     0.014 A 
ATOM     11  C   UNL A   1      36.482  33.888  29.462  1.00  0.00     0.010 A 
ATOM     12  C   UNL A   1      34.967  33.219  31.229  1.00  0.00     0.010 A 
ATOM     13  C   UNL A   1      36.255  33.209  30.671  1.00  0.00    -0.014 A 
BRANCH  13  14
ATOM     14  C   UNL A   1      37.380  32.514  31.342  1.00  0.00     0.031 A 
ATOM     15  C   UNL A   1      38.124  31.402  30.653  1.00  0.00     0.074 A 
ATOM     16  C   UNL A   1      37.753  32.912  32.573  1.00  0.00     0.049 A 
ATOM     17  N   UNL A   1      39.143  30.700  31.083  1.00  0.00    -0.248 NA
ATOM     18  C   UNL A   1      37.664  31.025  29.309  1.00  0.00     0.031 C 
ATOM     19  C   UNL A   1      37.104  33.972  33.343  1.00  0.00     0.029 A 
ATOM     20  N   UNL A   1      38.770  32.482  33.386  1.00  0.00    -0.354 N 
ATOM     21  C   UNL A   1      39.435  29.792  30.074  1.00  0.00     0.074 A 
ATOM     22  C   UNL A   1      38.471  30.014  29.018  1.00  0.00     0.031 C 
ATOM     23  C   UNL A   1      37.758  34.135  34.503  1.00  0.00     0.029 A 
ATOM     24  C   UNL A   1      38.840  33.158  34.579  1.00  0.00     0.049 A 
ATOM     25  H   UNL A   1      39.391  31.759  33.138  1.00  0.00     0.167 HD
ATOM     26  C   UNL A   1      40.424  28.865  30.030  1.00  0.00     0.037 A 
ATOM     27  C   UNL A   1      39.674  33.002  35.623  1.00  0.00     0.037 A 
ATOM     28  C   UNL A   1      41.393  28.659  31.076  1.00  0.00     0.049 A 
ATOM     29  C   UNL A   1      40.747  31.953  35.555  1.00  0.00     0.074 A 
ATOM     30  C   UNL A   1      42.457  27.774  31.104  1.00  0.00     0.029 A 
ATOM     31  N   UNL A   1      41.415  29.347  32.281  1.00  0.00    -0.354 N 
ATOM     32  N   UNL A   1      41.033  31.127  34.580  1.00  0.00    -0.248 NA
ATOM     33  C   UNL A   1      41.611  31.816  36.734  1.00  0.00     0.031 C 
ATOM     34  C   UNL A   1      43.097  27.895  32.343  1.00  0.00     0.029 A 
ATOM     35  C   UNL A   1      42.459  28.887  33.069  1.00  0.00     0.049 A 
ATOM     36  H   UNL A   1      40.783  30.056  32.538  1.00  0.00     0.167 HD
ATOM     37  C   UNL A   1      42.118  30.381  35.019  1.00  0.00     0.074 A 
ATOM     38  C   UNL A   1      42.451  30.868  36.342  1.00  0.00     0.031 C 
ATOM     39  C   UNL A   1      42.776  29.380  34.384  1.00  0.00     0.037 A 
BRANCH  26  40
ATOM     40  C   UNL A   1      40.505  27.988  28.814  1.00  0.00     0.064 A 
ATOM     41  C   UNL A   1      39.796  26.781  28.729  1.00  0.00     0.173 A 
ATOM     42  C   UNL A   1      41.255  28.390  27.698  1.00  0.00     0.173 A 
ATOM     43  F   UNL A   1      39.072  26.348  29.772  1.00  0.00    -0.203 F 
ATOM     44  C   UNL A   1      39.851  25.998  27.578  1.00  0.00     0.198 A 
ATOM     45  C   UNL A   1      41.288  27.616  26.540  1.00  0.00     0.198 A 
ATOM     46  F   UNL A   1      41.946  29.539  27.725  1.00  0.00    -0.203 F 
ATOM     47  F   UNL A   1      39.196  24.830  27.532  1.00  0.00    -0.200 F 
ATOM     48  C   UNL A   1      40.591  26.419  26.483  1.00  0.00     0.200 A 
ATOM     49  F   UNL A   1      41.994  28.030  25.479  1.00  0.00    -0.200 F 
ATOM     50  F   UNL A   1      40.636  25.668  25.374  1.00  0.00    -0.200 F 
ENDBRANCH  26  40
BRANCH  27  51
ATOM     51  C   UNL A   1      39.519  33.866  36.819  1.00  0.00     0.064 A 
ATOM     52  C   UNL A   1      40.106  35.137  36.871  1.00  0.00     0.173 A 
ATOM     53  C   UNL A   1      38.762  33.448  37.923  1.00  0.00     0.173 A 
ATOM     54  F   UNL A   1      40.854  35.571  35.846  1.00  0.00    -0.203 F 
ATOM     55  C   UNL A   1      39.950  35.954  37.989  1.00  0.00     0.198 A 
ATOM     56  C   UNL A   1      38.585  34.276  39.028  1.00  0.00     0.198 A 
ATOM     57  F   UNL A   1      38.177  32.241  37.918  1.00  0.00    -0.203 F 
ATOM     58  F   UNL A   1      40.551  37.152  38.029  1.00  0.00    -0.200 F 
ATOM     59  C   UNL A   1      39.184  35.527  39.063  1.00  0.00     0.200 A 
ATOM     60  F   UNL A   1      37.830  33.865  40.056  1.00  0.00    -0.200 F 
ATOM     61  F   UNL A   1      39.026  36.317  40.133  1.00  0.00    -0.200 F 
ENDBRANCH  27  51
BRANCH  39  62
ATOM     62  C   UNL A   1      43.934  28.760  35.108  1.00  0.00     0.064 A 
ATOM     63  C   UNL A   1      45.237  29.258  34.966  1.00  0.00     0.173 A 
ATOM     64  C   UNL A   1      43.734  27.672  35.970  1.00  0.00     0.173 A 
ATOM     65  F   UNL A   1      45.482  30.286  34.139  1.00  0.00    -0.203 F 
ATOM     66  C   UNL A   1      46.303  28.673  35.645  1.00  0.00     0.198 A 
ATOM     67  C   UNL A   1      44.798  27.107  36.667  1.00  0.00     0.198 A 
ATOM     68  F   UNL A   1      42.505  27.162  36.141  1.00  0.00    -0.203 F 
ATOM     69  F   UNL A   1      47.547  29.136  35.461  1.00  0.00    -0.200 F 
ATOM     70  C   UNL A   1      46.082  27.602  36.498  1.00  0.00     0.200 A 
ATOM     71  F   UNL A   1      44.581  26.078  37.498  1.00  0.00    -0.200 F 
ATOM     72  F   UNL A   1      47.108  27.043  37.153  1.00  0.00    -0.200 F 
ENDBRANCH  39  62
ENDBRANCH  13  14
ENDBRANCH   6   8
ENDBRANCH   3   4
ENDBRANCH   2   3
ENDBRANCH   1   2
BRANCH   1  73
ATOM     73  C   UNL A   1      32.694  29.969  25.984  1.00  0.00     0.116 C 
BRANCH  73  74
ATOM     74  N   UNL A   1      33.354  29.650  24.735  1.00  0.00    -0.353 N 
ATOM     75  C   UNL A   1      33.020  28.696  23.810  1.00  0.00     0.265 C 
ATOM     76  H   UNL A   1      34.148  30.191  24.523  1.00  0.00     0.163 HD
ATOM     77  O   UNL A   1      33.622  28.748  22.729  1.00  0.00    -0.271 OA
BRANCH  75  78
ATOM     78  C   UNL A   1      31.950  27.625  24.077  1.00  0.00     0.317 C 
ATOM     79  F   UNL A   1      31.088  27.923  25.088  1.00  0.00    -0.224 F 
BRANCH  78  80
ATOM     80  S   UNL A   1      31.056  27.189  22.550  1.00  0.00    -0.075 SA
BRANCH  80  81
ATOM     81  C   UNL A   1      29.752  28.407  22.568  1.00  0.00     0.052 A 
ATOM     82  C   UNL A   1      28.516  28.050  23.124  1.00  0.00     0.019 A 
ATOM     83  C   UNL A   1      29.921  29.711  22.078  1.00  0.00     0.129 A 
ATOM     84  C   UNL A   1      27.456  28.961  23.139  1.00  0.00     0.001 A 
ATOM     85  C   UNL A   1      28.862  30.621  22.090  1.00  0.00     0.047 A 
ATOM     86  C   UNL A   1      27.626  30.241  22.613  1.00  0.00     0.004 A 
BRANCH  83  87
ATOM     87  O   UNL A   1      31.135  30.099  21.582  1.00  0.00    -0.507 OA
ATOM     88  H   UNL A   1      31.236  30.261  20.664  1.00  0.00     0.293 HD
ENDBRANCH  83  87
ENDBRANCH  80  81
ENDBRANCH  78  80
ENDBRANCH  75  78
ENDBRANCH  73  74
ENDBRANCH   1  73
TORSDOF 14
ENDMDL
MODEL 3
REMARK VINA RESULT:     -11.9      0.240      1.666
REMARK SMILES O=C(NCCCCNC(=O)[C@@H](F)Sc1ccccc1O)c1ccc(-c2c3nc(c(-c4c(F)c(F)c(F)c(F)c4F)c4ccc([nH]4)c(-c4c(F)c(F)c(F)c(F)c4F)c4nc(c(-c5c(F)c(F)c(F)c(F)c5F)c5ccc2[nH]5)C=C4)C=C3)cc1
REMARK SMILES IDX 6 1 5 2 4 3 3 4 1 5 2 6 21 8 22 9 83 10 23 11 82 12 24 13
REMARK SMILES IDX 25 14 26 15 76 16 27 17 81 18 75 19 77 20 28 21 80 22 74 23
REMARK SMILES IDX 73 24 29 26 61 27 41 28 60 29 42 30 45 31 59 32 78 33 43 34
REMARK SMILES IDX 44 35 58 37 79 38 46 39 30 40 31 41 39 42 32 43 33 44 37 45
REMARK SMILES IDX 40 46 34 47 35 48 38 49 36 50 62 51 63 52 71 53 64 54 65 55
REMARK SMILES IDX 69 56 72 57 66 58 67 59 70 60 68 61 47 62 48 63 56 64 49 65
REMARK SMILES IDX 50 66 54 67 57 68 51 69 52 70 55 71 53 72 7 73 8 74 9 75
REMARK SMILES IDX 10 77 11 78 12 79 13 80 14 81 15 82 19 83 16 84 18 85 17 86
REMARK SMILES IDX 20 87
REMARK H PARENT 3 7 77 25 45 36 8 76 20 88
REMARK Flexibility Score: inf
ROOT
ATOM      1  C   UNL A   1      31.272  30.760  26.494  1.00  0.00     0.023 C 
ENDROOT
BRANCH   1   2
ATOM      2  C   UNL A   1      31.485  32.270  26.388  1.00  0.00     0.023 C 
BRANCH   2   3
ATOM      3  C   UNL A   1      32.568  32.869  27.280  1.00  0.00     0.116 C 
BRANCH   3   4
ATOM      4  N   UNL A   1      32.302  34.239  27.692  1.00  0.00    -0.352 N 
ATOM      5  O   UNL A   1      32.559  36.150  28.869  1.00  0.00    -0.269 OA
ATOM      6  C   UNL A   1      32.960  35.018  28.614  1.00  0.00     0.251 C 
ATOM      7  H   UNL A   1      31.540  34.671  27.244  1.00  0.00     0.163 HD
BRANCH   6   8
ATOM      8  C   UNL A   1      34.136  34.477  29.327  1.00  0.00     0.039 A 
ATOM      9  C   UNL A   1      35.427  34.687  28.837  1.00  0.00     0.014 A 
ATOM     10  C   UNL A   1      33.938  33.731  30.493  1.00  0.00     0.014 A 
ATOM     11  C   UNL A   1      36.503  34.028  29.425  1.00  0.00     0.010 A 
ATOM     12  C   UNL A   1      35.030  33.125  31.122  1.00  0.00     0.010 A 
ATOM     13  C   UNL A   1      36.315  33.234  30.569  1.00  0.00    -0.014 A 
BRANCH  13  14
ATOM     14  C   UNL A   1      37.478  32.544  31.180  1.00  0.00     0.031 A 
ATOM     15  C   UNL A   1      37.959  32.910  32.557  1.00  0.00     0.074 A 
ATOM     16  C   UNL A   1      38.084  31.556  30.495  1.00  0.00     0.049 A 
ATOM     17  N   UNL A   1      38.945  32.398  33.251  1.00  0.00    -0.248 NA
ATOM     18  C   UNL A   1      37.245  33.995  33.246  1.00  0.00     0.031 C 
ATOM     19  C   UNL A   1      37.712  31.118  29.150  1.00  0.00     0.029 A 
ATOM     20  N   UNL A   1      39.130  30.737  30.837  1.00  0.00    -0.354 N 
ATOM     21  C   UNL A   1      38.980  33.104  34.446  1.00  0.00     0.074 A 
ATOM     22  C   UNL A   1      37.931  34.100  34.376  1.00  0.00     0.031 C 
ATOM     23  C   UNL A   1      38.495  30.088  28.793  1.00  0.00     0.029 A 
ATOM     24  C   UNL A   1      39.453  29.827  29.862  1.00  0.00     0.049 A 
ATOM     25  H   UNL A   1      39.603  30.797  31.699  1.00  0.00     0.167 HD
ATOM     26  C   UNL A   1      39.805  32.930  35.508  1.00  0.00     0.037 A 
ATOM     27  C   UNL A   1      40.422  28.894  29.826  1.00  0.00     0.037 A 
ATOM     28  C   UNL A   1      40.836  31.927  35.581  1.00  0.00     0.049 A 
ATOM     29  C   UNL A   1      41.335  28.738  31.009  1.00  0.00     0.074 A 
ATOM     30  C   UNL A   1      41.694  31.646  36.631  1.00  0.00     0.029 A 
ATOM     31  N   UNL A   1      41.150  31.039  34.562  1.00  0.00    -0.354 N 
ATOM     32  N   UNL A   1      41.333  29.388  32.145  1.00  0.00    -0.248 NA
ATOM     33  C   UNL A   1      42.386  27.717  30.901  1.00  0.00     0.031 C 
ATOM     34  C   UNL A   1      42.556  30.619  36.232  1.00  0.00     0.029 A 
ATOM     35  C   UNL A   1      42.205  30.228  34.950  1.00  0.00     0.049 A 
ATOM     36  H   UNL A   1      40.692  30.993  33.692  1.00  0.00     0.167 HD
ATOM     37  C   UNL A   1      42.369  28.849  32.894  1.00  0.00     0.074 A 
ATOM     38  C   UNL A   1      42.965  27.802  32.089  1.00  0.00     0.031 C 
ATOM     39  C   UNL A   1      42.790  29.193  34.136  1.00  0.00     0.037 A 
BRANCH  26  40
ATOM     40  C   UNL A   1      39.639  33.854  36.679  1.00  0.00     0.064 A 
ATOM     41  C   UNL A   1      38.862  33.501  37.791  1.00  0.00     0.173 A 
ATOM     42  C   UNL A   1      40.314  35.084  36.713  1.00  0.00     0.173 A 
ATOM     43  F   UNL A   1      38.189  32.341  37.804  1.00  0.00    -0.203 F 
ATOM     44  C   UNL A   1      38.750  34.354  38.888  1.00  0.00     0.198 A 
ATOM     45  C   UNL A   1      40.220  35.924  37.821  1.00  0.00     0.198 A 
ATOM     46  F   UNL A   1      41.076  35.467  35.678  1.00  0.00    -0.203 F 
ATOM     47  F   UNL A   1      37.973  34.013  39.924  1.00  0.00    -0.200 F 
ATOM     48  C   UNL A   1      39.434  35.561  38.905  1.00  0.00     0.200 A 
ATOM     49  F   UNL A   1      40.891  37.084  37.840  1.00  0.00    -0.200 F 
ATOM     50  F   UNL A   1      39.332  36.376  39.963  1.00  0.00    -0.200 F 
ENDBRANCH  26  40
BRANCH  27  51
ATOM     51  C   UNL A   1      40.570  28.038  28.623  1.00  0.00     0.064 A 
ATOM     52  C   UNL A   1      39.919  26.800  28.535  1.00  0.00     0.173 A 
ATOM     53  C   UNL A   1      41.345  28.451  27.530  1.00  0.00     0.173 A 
ATOM     54  F   UNL A   1      39.183  26.356  29.563  1.00  0.00    -0.203 F 
ATOM     55  C   UNL A   1      40.047  26.002  27.400  1.00  0.00     0.198 A 
ATOM     56  C   UNL A   1      41.450  27.664  26.385  1.00  0.00     0.198 A 
ATOM     57  F   UNL A   1      41.983  29.630  27.566  1.00  0.00    -0.203 F 
ATOM     58  F   UNL A   1      39.443  24.807  27.353  1.00  0.00    -0.200 F 
ATOM     59  C   UNL A   1      40.805  26.438  26.324  1.00  0.00     0.200 A 
ATOM     60  F   UNL A   1      42.171  28.097  25.342  1.00  0.00    -0.200 F 
ATOM     61  F   UNL A   1      40.919  25.674  25.229  1.00  0.00    -0.200 F 
ENDBRANCH  27  51
BRANCH  39  62
ATOM     62  C   UNL A   1      43.940  28.416  34.706  1.00  0.00     0.064 A 
ATOM     63  C   UNL A   1      43.738  27.223  35.413  1.00  0.00     0.173 A 
ATOM     64  C   UNL A   1      45.258  28.858  34.520  1.00  0.00     0.173 A 
ATOM     65  F   UNL A   1      42.493  26.769  35.632  1.00  0.00    -0.203 F 
ATOM     66  C   UNL A   1      44.814  26.510  35.935  1.00  0.00     0.198 A 
ATOM     67  C   UNL A   1      46.333  28.130  35.021  1.00  0.00     0.198 A 
ATOM     68  F   UNL A   1      45.502  29.992  33.846  1.00  0.00    -0.203 F 
ATOM     69  F   UNL A   1      44.596  25.396  36.647  1.00  0.00    -0.200 F 
ATOM     70  C   UNL A   1      46.110  26.961  35.734  1.00  0.00     0.200 A 
ATOM     71  F   UNL A   1      47.586  28.561  34.817  1.00  0.00    -0.200 F 
ATOM     72  F   UNL A   1      47.145  26.274  36.234  1.00  0.00    -0.200 F 
ENDBRANCH  39  62
ENDBRANCH  13  14
ENDBRANCH   6   8
ENDBRANCH   3   4
ENDBRANCH   2   3
ENDBRANCH   1   2
BRANCH   1  73
ATOM     73  C   UNL A   1      32.531  29.901  26.424  1.00  0.00     0.116 C 
BRANCH  73  74
ATOM     74  N   UNL A   1      33.144  29.875  25.112  1.00  0.00    -0.353 N 
ATOM     75  C   UNL A   1      32.913  29.010  24.076  1.00  0.00     0.265 C 
ATOM     76  H   UNL A   1      33.816  30.574  24.942  1.00  0.00     0.163 HD
ATOM     77  O   UNL A   1      33.418  29.312  22.987  1.00  0.00    -0.271 OA
BRANCH  75  78
ATOM     78  C   UNL A   1      32.065  27.738  24.236  1.00  0.00     0.317 C 
ATOM     79  F   UNL A   1      31.133  27.797  25.227  1.00  0.00    -0.224 F 
BRANCH  78  80
ATOM     80  S   UNL A   1      31.316  27.239  22.651  1.00  0.00    -0.075 SA
BRANCH  80  81
ATOM     81  C   UNL A   1      29.883  28.302  22.611  1.00  0.00     0.052 A 
ATOM     82  C   UNL A   1      28.701  27.848  23.212  1.00  0.00     0.019 A 
ATOM     83  C   UNL A   1      29.898  29.579  22.030  1.00  0.00     0.129 A 
ATOM     84  C   UNL A   1      27.546  28.633  23.186  1.00  0.00     0.001 A 
ATOM     85  C   UNL A   1      28.743  30.363  22.000  1.00  0.00     0.047 A 
ATOM     86  C   UNL A   1      27.564  29.884  22.570  1.00  0.00     0.004 A 
BRANCH  83  87
ATOM     87  O   UNL A   1      31.055  30.064  21.486  1.00  0.00    -0.507 OA
ATOM     88  H   UNL A   1      31.699  29.472  21.149  1.00  0.00     0.293 HD
ENDBRANCH  83  87
ENDBRANCH  80  81
ENDBRANCH  78  80
ENDBRANCH  75  78
ENDBRANCH  73  74
ENDBRANCH   1  73
TORSDOF 14
ENDMDL
