MODEL 1
REMARK VINA RESULT:     -12.2      0.000      0.000
REMARK SMILES CC[C@H]1CC[C@](NC(=O)C[NH2+]CC(F)(F)F)(C(=O)NCCCCNC(=O)c2ccc(-c3c4nc(c(-c5c(F)c(F)c(F)c(F)c5F)c5ccc([nH]5)c(-c5c(F)c(F)c(F)c(F)c5F)c5nc(c(-c6c(F)c(F)c(F)c(F)c6F)c6ccc3[nH]6)C=C5)C=C4)cc2)CC1
REMARK SMILES IDX 20 1 19 2 17 3 18 4 6 6 3 7 91 8 4 9 90 10 5 11 2 12 1 13
REMARK SMILES IDX 7 14 8 15 9 17 10 18 11 19 12 22 13 23 14 24 15 25 16 26
REMARK SMILES IDX 21 27 22 28 23 29 24 30 25 31 26 33 27 34 28 35 89 36 29 37
REMARK SMILES IDX 88 38 30 39 31 40 32 41 82 42 33 43 87 44 81 45 83 46 34 47
REMARK SMILES IDX 86 48 80 49 79 50 35 52 67 53 47 54 66 55 48 56 51 57 65 58
REMARK SMILES IDX 84 59 49 60 50 61 64 63 85 64 52 65 36 66 37 67 45 68 38 69
REMARK SMILES IDX 39 70 43 71 46 72 40 73 41 74 44 75 42 76 68 77 69 78 77 79
REMARK SMILES IDX 70 80 71 81 75 82 78 83 72 84 73 85 76 86 74 87 53 88 54 89
REMARK SMILES IDX 62 90 55 91 56 92 60 93 63 94 57 95 58 96 61 97 59 98
REMARK H PARENT 19 5 7 16 11 20 11 21 24 32 83 51 51 62
REMARK Flexibility Score: inf
ROOT
ATOM      1  C   UNL A   1      31.576  29.454  25.760  1.00  0.00     0.116 C 
ENDROOT
BRANCH   1   2
ATOM      2  N   UNL A   1      32.310  29.686  24.522  1.00  0.00    -0.354 N 
ATOM      3  C   UNL A   1      32.749  28.791  23.583  1.00  0.00     0.245 C 
ATOM      4  O   UNL A   1      33.246  29.244  22.549  1.00  0.00    -0.272 OA
ATOM      5  H   UNL A   1      32.521  30.630  24.332  1.00  0.00     0.163 HD
BRANCH   3   6
ATOM      6  C   UNL A   1      32.718  27.265  23.887  1.00  0.00     0.119 C 
ATOM      7  C   UNL A   1      34.563  24.890  24.316  1.00  0.00    -0.011 C 
ATOM      8  C   UNL A   1      33.579  24.945  23.132  1.00  0.00     0.006 C 
ATOM      9  C   UNL A   1      33.996  25.690  25.483  1.00  0.00     0.006 C 
ATOM     10  C   UNL A   1      33.229  26.391  22.713  1.00  0.00     0.039 C 
ATOM     11  C   UNL A   1      33.733  27.118  25.055  1.00  0.00     0.039 C 
BRANCH   7  12
ATOM     12  C   UNL A   1      34.891  23.448  24.742  1.00  0.00    -0.000 C 
ATOM     13  C   UNL A   1      35.992  22.812  23.895  1.00  0.00     0.004 C 
ENDBRANCH   7  12
BRANCH   6  14
ATOM     14  N   UNL A   1      31.352  26.833  24.267  1.00  0.00    -0.337 N 
ATOM     15  C   UNL A   1      30.156  27.006  23.617  1.00  0.00     0.275 C 
ATOM     16  H   UNL A   1      31.293  26.346  25.121  1.00  0.00     0.164 HD
ATOM     17  O   UNL A   1      29.199  26.318  23.986  1.00  0.00    -0.268 OA
BRANCH  15  18
ATOM     18  C   UNL A   1      29.962  28.105  22.555  1.00  0.00     0.362 C 
BRANCH  18  19
ATOM     19  N   UNL A   1      28.974  29.073  23.063  1.00  0.00    -0.331 N 
ATOM     20  H   UNL A   1      29.081  29.142  24.075  1.00  0.00     0.346 HD
ATOM     21  H   UNL A   1      28.053  28.727  22.792  1.00  0.00     0.346 HD
BRANCH  19  22
ATOM     22  C   UNL A   1      29.114  30.428  22.485  1.00  0.00     0.378 C 
BRANCH  22  23
ATOM     23  C   UNL A   1      28.694  31.607  23.385  1.00  0.00     0.438 C 
ATOM     24  F   UNL A   1      28.766  32.783  22.720  1.00  0.00    -0.165 F 
ATOM     25  F   UNL A   1      27.422  31.462  23.814  1.00  0.00    -0.165 F 
ATOM     26  F   UNL A   1      29.493  31.698  24.471  1.00  0.00    -0.165 F 
ENDBRANCH  22  23
ENDBRANCH  19  22
ENDBRANCH  18  19
ENDBRANCH  15  18
ENDBRANCH   6  14
ENDBRANCH   3   6
ENDBRANCH   1   2
BRANCH   1  27
ATOM     27  C   UNL A   1      32.183  30.226  26.922  1.00  0.00     0.023 C 
BRANCH  27  28
ATOM     28  C   UNL A   1      31.870  31.720  26.892  1.00  0.00     0.023 C 
BRANCH  28  29
ATOM     29  C   UNL A   1      32.988  32.610  27.424  1.00  0.00     0.116 C 
BRANCH  29  30
ATOM     30  N   UNL A   1      32.551  33.979  27.657  1.00  0.00    -0.352 N 
ATOM     31  C   UNL A   1      33.025  34.868  28.591  1.00  0.00     0.251 C 
ATOM     32  H   UNL A   1      31.830  34.308  27.073  1.00  0.00     0.163 HD
ATOM     33  O   UNL A   1      32.473  35.947  28.781  1.00  0.00    -0.269 OA
BRANCH  31  34
ATOM     34  C   UNL A   1      34.197  34.478  29.395  1.00  0.00     0.039 A 
ATOM     35  C   UNL A   1      34.000  33.888  30.644  1.00  0.00     0.014 A 
ATOM     36  C   UNL A   1      35.482  34.617  28.862  1.00  0.00     0.014 A 
ATOM     37  C   UNL A   1      35.095  33.368  31.335  1.00  0.00     0.010 A 
ATOM     38  C   UNL A   1      36.559  34.037  29.518  1.00  0.00     0.010 A 
ATOM     39  C   UNL A   1      36.375  33.403  30.759  1.00  0.00    -0.014 A 
BRANCH  39  40
ATOM     40  C   UNL A   1      37.544  32.786  31.430  1.00  0.00     0.031 A 
ATOM     41  C   UNL A   1      38.235  31.615  30.795  1.00  0.00     0.074 A 
ATOM     42  C   UNL A   1      37.922  33.214  32.649  1.00  0.00     0.049 A 
ATOM     43  N   UNL A   1      39.186  30.853  31.272  1.00  0.00    -0.248 NA
ATOM     44  C   UNL A   1      37.771  31.233  29.453  1.00  0.00     0.031 C 
ATOM     45  C   UNL A   1      37.304  34.314  33.389  1.00  0.00     0.029 A 
ATOM     46  N   UNL A   1      38.904  32.755  33.493  1.00  0.00    -0.354 N 
ATOM     47  C   UNL A   1      39.417  29.890  30.300  1.00  0.00     0.074 A 
ATOM     48  C   UNL A   1      38.476  30.134  29.229  1.00  0.00     0.031 C 
ATOM     49  C   UNL A   1      37.919  34.446  34.574  1.00  0.00     0.029 A 
ATOM     50  C   UNL A   1      38.948  33.417  34.695  1.00  0.00     0.049 A 
ATOM     51  H   UNL A   1      39.517  32.022  33.258  1.00  0.00     0.167 HD
ATOM     52  C   UNL A   1      40.344  28.902  30.294  1.00  0.00     0.037 A 
ATOM     53  C   UNL A   1      39.717  33.204  35.780  1.00  0.00     0.037 A 
ATOM     54  C   UNL A   1      41.289  28.674  31.354  1.00  0.00     0.049 A 
ATOM     55  C   UNL A   1      40.737  32.100  35.754  1.00  0.00     0.074 A 
ATOM     56  C   UNL A   1      42.305  27.738  31.419  1.00  0.00     0.029 A 
ATOM     57  N   UNL A   1      41.328  29.390  32.544  1.00  0.00    -0.354 N 
ATOM     58  N   UNL A   1      40.993  31.232  34.806  1.00  0.00    -0.248 NA
ATOM     59  C   UNL A   1      41.582  31.950  36.948  1.00  0.00     0.031 C 
ATOM     60  C   UNL A   1      42.930  27.856  32.666  1.00  0.00     0.029 A 
ATOM     61  C   UNL A   1      42.337  28.901  33.357  1.00  0.00     0.049 A 
ATOM     62  H   UNL A   1      40.726  30.133  32.775  1.00  0.00     0.167 HD
ATOM     63  C   UNL A   1      42.040  30.451  35.273  1.00  0.00     0.074 A 
ATOM     64  C   UNL A   1      42.380  30.953  36.588  1.00  0.00     0.031 C 
ATOM     65  C   UNL A   1      42.667  29.416  34.663  1.00  0.00     0.037 A 
BRANCH  52  66
ATOM     66  C   UNL A   1      40.365  27.991  29.101  1.00  0.00     0.064 A 
ATOM     67  C   UNL A   1      41.126  28.289  27.960  1.00  0.00     0.173 A 
ATOM     68  C   UNL A   1      39.614  26.806  29.098  1.00  0.00     0.173 A 
ATOM     69  F   UNL A   1      41.852  29.416  27.907  1.00  0.00    -0.203 F 
ATOM     70  C   UNL A   1      41.099  27.456  26.844  1.00  0.00     0.198 A 
ATOM     71  C   UNL A   1      39.616  25.959  27.993  1.00  0.00     0.198 A 
ATOM     72  F   UNL A   1      38.874  26.469  30.166  1.00  0.00    -0.203 F 
ATOM     73  F   UNL A   1      41.782  27.794  25.741  1.00  0.00    -0.200 F 
ATOM     74  C   UNL A   1      40.348  26.291  26.863  1.00  0.00     0.200 A 
ATOM     75  F   UNL A   1      38.901  24.826  28.018  1.00  0.00    -0.200 F 
ATOM     76  F   UNL A   1      40.322  25.491  25.788  1.00  0.00    -0.200 F 
ENDBRANCH  52  66
BRANCH  53  77
ATOM     77  C   UNL A   1      39.553  34.073  36.972  1.00  0.00     0.064 A 
ATOM     78  C   UNL A   1      38.775  33.661  38.062  1.00  0.00     0.173 A 
ATOM     79  C   UNL A   1      40.196  35.317  37.061  1.00  0.00     0.173 A 
ATOM     80  F   UNL A   1      38.126  32.489  38.015  1.00  0.00    -0.203 F 
ATOM     81  C   UNL A   1      38.640  34.464  39.194  1.00  0.00     0.198 A 
ATOM     82  C   UNL A   1      40.080  36.107  38.202  1.00  0.00     0.198 A 
ATOM     83  F   UNL A   1      40.957  35.752  36.046  1.00  0.00    -0.203 F 
ATOM     84  F   UNL A   1      37.866  34.059  40.211  1.00  0.00    -0.200 F 
ATOM     85  C   UNL A   1      39.300  35.682  39.266  1.00  0.00     0.200 A 
ATOM     86  F   UNL A   1      40.732  37.276  38.275  1.00  0.00    -0.200 F 
ATOM     87  F   UNL A   1      39.180  36.446  40.360  1.00  0.00    -0.200 F 
ENDBRANCH  53  77
BRANCH  65  88
ATOM     88  C   UNL A   1      43.812  28.773  35.392  1.00  0.00     0.064 A 
ATOM     89  C   UNL A   1      45.133  29.213  35.225  1.00  0.00     0.173 A 
ATOM     90  C   UNL A   1      43.572  27.743  36.314  1.00  0.00     0.173 A 
ATOM     91  F   UNL A   1      45.415  30.185  34.344  1.00  0.00    -0.203 F 
ATOM     92  C   UNL A   1      46.175  28.631  35.941  1.00  0.00     0.198 A 
ATOM     93  C   UNL A   1      44.613  27.182  37.049  1.00  0.00     0.198 A 
ATOM     94  F   UNL A   1      42.325  27.290  36.515  1.00  0.00    -0.203 F 
ATOM     95  F   UNL A   1      47.435  29.040  35.739  1.00  0.00    -0.200 F 
ATOM     96  C   UNL A   1      45.913  27.624  36.860  1.00  0.00     0.200 A 
ATOM     97  F   UNL A   1      44.357  26.219  37.944  1.00  0.00    -0.200 F 
ATOM     98  F   UNL A   1      46.917  27.075  37.557  1.00  0.00    -0.200 F 
ENDBRANCH  65  88
ENDBRANCH  39  40
ENDBRANCH  31  34
ENDBRANCH  29  30
ENDBRANCH  28  29
ENDBRANCH  27  28
ENDBRANCH   1  27
TORSDOF 17
ENDMDL
MODEL 2
REMARK VINA RESULT:     -12.2      6.246     11.731
REMARK SMILES CC[C@H]1CC[C@](NC(=O)C[NH2+]CC(F)(F)F)(C(=O)NCCCCNC(=O)c2ccc(-c3c4nc(c(-c5c(F)c(F)c(F)c(F)c5F)c5ccc([nH]5)c(-c5c(F)c(F)c(F)c(F)c5F)c5nc(c(-c6c(F)c(F)c(F)c(F)c6F)c6ccc3[nH]6)C=C5)C=C4)cc2)CC1
REMARK SMILES IDX 20 1 19 2 17 3 18 4 6 6 3 7 91 8 4 9 90 10 5 11 2 12 1 13
REMARK SMILES IDX 7 14 8 15 9 17 10 18 11 19 12 22 13 23 14 24 15 25 16 26
REMARK SMILES IDX 21 27 22 28 23 29 24 30 25 31 26 33 27 34 28 35 89 36 29 37
REMARK SMILES IDX 88 38 30 39 31 40 32 41 82 42 33 43 87 44 81 45 83 46 34 47
REMARK SMILES IDX 86 48 80 49 79 50 35 52 67 53 47 54 66 55 48 56 51 57 65 58
REMARK SMILES IDX 84 59 49 60 50 61 64 63 85 64 52 65 36 66 37 67 45 68 38 69
REMARK SMILES IDX 39 70 43 71 46 72 40 73 41 74 44 75 42 76 68 77 69 78 77 79
REMARK SMILES IDX 70 80 71 81 75 82 78 83 72 84 73 85 76 86 74 87 53 88 54 89
REMARK SMILES IDX 62 90 55 91 56 92 60 93 63 94 57 95 58 96 61 97 59 98
REMARK H PARENT 19 5 7 16 11 20 11 21 24 32 83 51 51 62
REMARK Flexibility Score: inf
ROOT
ATOM      1  C   UNL A   1      35.960  21.289  24.658  1.00  0.00     0.116 C 
ENDROOT
BRANCH   1   2
ATOM      2  N   UNL A   1      35.391  21.131  25.990  1.00  0.00    -0.354 N 
ATOM      3  C   UNL A   1      34.282  21.715  26.544  1.00  0.00     0.245 C 
ATOM      4  O   UNL A   1      33.929  21.327  27.660  1.00  0.00    -0.272 OA
ATOM      5  H   UNL A   1      35.877  20.512  26.582  1.00  0.00     0.163 HD
BRANCH   3   6
ATOM      6  C   UNL A   1      33.583  22.902  25.821  1.00  0.00     0.119 C 
ATOM      7  C   UNL A   1      32.940  25.851  26.173  1.00  0.00    -0.011 C 
ATOM      8  C   UNL A   1      31.830  24.788  26.071  1.00  0.00     0.006 C 
ATOM      9  C   UNL A   1      34.163  25.380  25.392  1.00  0.00     0.006 C 
ATOM     10  C   UNL A   1      32.297  23.390  26.535  1.00  0.00     0.039 C 
ATOM     11  C   UNL A   1      34.635  24.044  25.922  1.00  0.00     0.039 C 
BRANCH   7  12
ATOM     12  C   UNL A   1      32.475  27.236  25.689  1.00  0.00    -0.000 C 
ATOM     13  C   UNL A   1      31.077  27.214  25.074  1.00  0.00     0.004 C 
ENDBRANCH   7  12
BRANCH   6  14
ATOM     14  N   UNL A   1      33.265  22.549  24.416  1.00  0.00    -0.337 N 
ATOM     15  C   UNL A   1      32.514  21.518  23.912  1.00  0.00     0.275 C 
ATOM     16  H   UNL A   1      33.655  23.148  23.739  1.00  0.00     0.164 HD
ATOM     17  O   UNL A   1      32.162  21.590  22.730  1.00  0.00    -0.268 OA
BRANCH  15  18
ATOM     18  C   UNL A   1      32.226  20.247  24.735  1.00  0.00     0.362 C 
BRANCH  18  19
ATOM     19  N   UNL A   1      32.724  19.083  23.982  1.00  0.00    -0.331 N 
ATOM     20  H   UNL A   1      33.437  19.403  23.326  1.00  0.00     0.346 HD
ATOM     21  H   UNL A   1      31.920  18.668  23.510  1.00  0.00     0.346 HD
BRANCH  19  22
ATOM     22  C   UNL A   1      33.315  18.029  24.835  1.00  0.00     0.378 C 
BRANCH  22  23
ATOM     23  C   UNL A   1      34.571  17.323  24.287  1.00  0.00     0.438 C 
ATOM     24  F   UNL A   1      34.439  17.034  22.971  1.00  0.00    -0.165 F 
ATOM     25  F   UNL A   1      35.665  18.102  24.421  1.00  0.00    -0.165 F 
ATOM     26  F   UNL A   1      34.801  16.164  24.942  1.00  0.00    -0.165 F 
ENDBRANCH  22  23
ENDBRANCH  19  22
ENDBRANCH  18  19
ENDBRANCH  15  18
ENDBRANCH   6  14
ENDBRANCH   3   6
ENDBRANCH   1   2
BRANCH   1  27
ATOM     27  C   UNL A   1      37.466  21.499  24.714  1.00  0.00     0.023 C 
BRANCH  27  28
ATOM     28  C   UNL A   1      38.250  20.218  24.988  1.00  0.00     0.023 C 
BRANCH  28  29
ATOM     29  C   UNL A   1      39.438  20.394  25.927  1.00  0.00     0.116 C 
BRANCH  29  30
ATOM     30  N   UNL A   1      40.311  19.230  25.950  1.00  0.00    -0.352 N 
ATOM     31  C   UNL A   1      41.674  19.201  26.124  1.00  0.00     0.251 C 
ATOM     32  H   UNL A   1      39.872  18.357  25.826  1.00  0.00     0.163 HD
ATOM     33  O   UNL A   1      42.313  18.164  25.979  1.00  0.00    -0.269 OA
BRANCH  31  34
ATOM     34  C   UNL A   1      42.363  20.462  26.454  1.00  0.00     0.039 A 
ATOM     35  C   UNL A   1      42.941  21.209  25.427  1.00  0.00     0.014 A 
ATOM     36  C   UNL A   1      42.349  20.938  27.767  1.00  0.00     0.014 A 
ATOM     37  C   UNL A   1      43.448  22.479  25.707  1.00  0.00     0.010 A 
ATOM     38  C   UNL A   1      42.789  22.229  28.030  1.00  0.00     0.010 A 
ATOM     39  C   UNL A   1      43.338  23.013  27.002  1.00  0.00    -0.014 A 
BRANCH  39  40
ATOM     40  C   UNL A   1      43.792  24.390  27.314  1.00  0.00     0.031 A 
ATOM     41  C   UNL A   1      42.805  25.402  27.818  1.00  0.00     0.074 A 
ATOM     42  C   UNL A   1      45.062  24.754  27.053  1.00  0.00     0.049 A 
ATOM     43  N   UNL A   1      42.964  26.684  28.026  1.00  0.00    -0.248 NA
ATOM     44  C   UNL A   1      41.449  24.909  28.096  1.00  0.00     0.031 C 
ATOM     45  C   UNL A   1      46.103  23.874  26.523  1.00  0.00     0.029 A 
ATOM     46  N   UNL A   1      45.685  25.971  27.177  1.00  0.00    -0.354 N 
ATOM     47  C   UNL A   1      41.725  27.154  28.437  1.00  0.00     0.074 A 
ATOM     48  C   UNL A   1      40.814  26.030  28.402  1.00  0.00     0.031 C 
ATOM     49  C   UNL A   1      47.234  24.578  26.366  1.00  0.00     0.029 A 
ATOM     50  C   UNL A   1      46.989  25.966  26.748  1.00  0.00     0.049 A 
ATOM     51  H   UNL A   1      45.239  26.771  27.538  1.00  0.00     0.167 HD
ATOM     52  C   UNL A   1      41.383  28.405  28.825  1.00  0.00     0.037 A 
ATOM     53  C   UNL A   1      47.880  26.972  26.653  1.00  0.00     0.037 A 
ATOM     54  C   UNL A   1      42.296  29.515  28.873  1.00  0.00     0.049 A 
ATOM     55  C   UNL A   1      47.479  28.354  27.086  1.00  0.00     0.074 A 
ATOM     56  C   UNL A   1      42.063  30.808  29.306  1.00  0.00     0.029 A 
ATOM     57  N   UNL A   1      43.622  29.463  28.465  1.00  0.00    -0.354 N 
ATOM     58  N   UNL A   1      46.322  28.777  27.533  1.00  0.00    -0.248 NA
ATOM     59  C   UNL A   1      48.510  29.399  27.008  1.00  0.00     0.031 C 
ATOM     60  C   UNL A   1      43.235  31.550  29.119  1.00  0.00     0.029 A 
ATOM     61  C   UNL A   1      44.213  30.707  28.616  1.00  0.00     0.049 A 
ATOM     62  H   UNL A   1      44.075  28.660  28.118  1.00  0.00     0.167 HD
ATOM     63  C   UNL A   1      46.489  30.126  27.814  1.00  0.00     0.074 A 
ATOM     64  C   UNL A   1      47.865  30.450  27.494  1.00  0.00     0.031 C 
ATOM     65  C   UNL A   1      45.586  31.013  28.299  1.00  0.00     0.037 A 
BRANCH  52  66
ATOM     66  C   UNL A   1      39.951  28.632  29.217  1.00  0.00     0.064 A 
ATOM     67  C   UNL A   1      39.002  29.105  28.297  1.00  0.00     0.173 A 
ATOM     68  C   UNL A   1      39.523  28.377  30.528  1.00  0.00     0.173 A 
ATOM     69  F   UNL A   1      39.362  29.377  27.034  1.00  0.00    -0.203 F 
ATOM     70  C   UNL A   1      37.689  29.354  28.688  1.00  0.00     0.198 A 
ATOM     71  C   UNL A   1      38.201  28.595  30.906  1.00  0.00     0.198 A 
ATOM     72  F   UNL A   1      40.388  27.917  31.446  1.00  0.00    -0.203 F 
ATOM     73  F   UNL A   1      36.816  29.867  27.809  1.00  0.00    -0.200 F 
ATOM     74  C   UNL A   1      37.288  29.095  29.990  1.00  0.00     0.200 A 
ATOM     75  F   UNL A   1      37.812  28.331  32.161  1.00  0.00    -0.200 F 
ATOM     76  F   UNL A   1      36.025  29.337  30.364  1.00  0.00    -0.200 F 
ENDBRANCH  52  66
BRANCH  53  77
ATOM     77  C   UNL A   1      49.244  26.692  26.138  1.00  0.00     0.064 A 
ATOM     78  C   UNL A   1      49.582  26.969  24.807  1.00  0.00     0.173 A 
ATOM     79  C   UNL A   1      50.245  26.173  26.973  1.00  0.00     0.173 A 
ATOM     80  F   UNL A   1      48.654  27.447  23.967  1.00  0.00    -0.203 F 
ATOM     81  C   UNL A   1      50.870  26.731  24.327  1.00  0.00     0.198 A 
ATOM     82  C   UNL A   1      51.537  25.958  26.499  1.00  0.00     0.198 A 
ATOM     83  F   UNL A   1      49.972  25.897  28.257  1.00  0.00    -0.203 F 
ATOM     84  F   UNL A   1      51.160  26.977  23.043  1.00  0.00    -0.200 F 
ATOM     85  C   UNL A   1      51.848  26.234  25.177  1.00  0.00     0.200 A 
ATOM     86  F   UNL A   1      52.484  25.494  27.326  1.00  0.00    -0.200 F 
ATOM     87  F   UNL A   1      53.088  26.019  24.719  1.00  0.00    -0.200 F 
ENDBRANCH  53  77
BRANCH  65  88
ATOM     88  C   UNL A   1      46.060  32.415  28.551  1.00  0.00     0.064 A 
ATOM     89  C   UNL A   1      46.638  32.790  29.772  1.00  0.00     0.173 A 
ATOM     90  C   UNL A   1      45.985  33.379  27.533  1.00  0.00     0.173 A 
ATOM     91  F   UNL A   1      46.717  31.909  30.780  1.00  0.00    -0.203 F 
ATOM     92  C   UNL A   1      47.108  34.085  29.972  1.00  0.00     0.198 A 
ATOM     93  C   UNL A   1      46.482  34.665  27.727  1.00  0.00     0.198 A 
ATOM     94  F   UNL A   1      45.446  33.068  26.345  1.00  0.00    -0.203 F 
ATOM     95  F   UNL A   1      47.623  34.433  31.159  1.00  0.00    -0.200 F 
ATOM     96  C   UNL A   1      47.039  35.018  28.946  1.00  0.00     0.200 A 
ATOM     97  F   UNL A   1      46.426  35.560  26.732  1.00  0.00    -0.200 F 
ATOM     98  F   UNL A   1      47.505  36.260  29.137  1.00  0.00    -0.200 F 
ENDBRANCH  65  88
ENDBRANCH  39  40
ENDBRANCH  31  34
ENDBRANCH  29  30
ENDBRANCH  28  29
ENDBRANCH  27  28
ENDBRANCH   1  27
TORSDOF 17
ENDMDL
MODEL 3
REMARK VINA RESULT:     -12.2      0.618      2.076
REMARK SMILES CC[C@H]1CC[C@](NC(=O)C[NH2+]CC(F)(F)F)(C(=O)NCCCCNC(=O)c2ccc(-c3c4nc(c(-c5c(F)c(F)c(F)c(F)c5F)c5ccc([nH]5)c(-c5c(F)c(F)c(F)c(F)c5F)c5nc(c(-c6c(F)c(F)c(F)c(F)c6F)c6ccc3[nH]6)C=C5)C=C4)cc2)CC1
REMARK SMILES IDX 20 1 19 2 17 3 18 4 6 6 3 7 91 8 4 9 90 10 5 11 2 12 1 13
REMARK SMILES IDX 7 14 8 15 9 17 10 18 11 19 12 22 13 23 14 24 15 25 16 26
REMARK SMILES IDX 21 27 22 28 23 29 24 30 25 31 26 33 27 34 28 35 89 36 29 37
REMARK SMILES IDX 88 38 30 39 31 40 32 41 82 42 33 43 87 44 81 45 83 46 34 47
REMARK SMILES IDX 86 48 80 49 79 50 35 52 67 53 47 54 66 55 48 56 51 57 65 58
REMARK SMILES IDX 84 59 49 60 50 61 64 63 85 64 52 65 36 66 37 67 45 68 38 69
REMARK SMILES IDX 39 70 43 71 46 72 40 73 41 74 44 75 42 76 68 77 69 78 77 79
REMARK SMILES IDX 70 80 71 81 75 82 78 83 72 84 73 85 76 86 74 87 53 88 54 89
REMARK SMILES IDX 62 90 55 91 56 92 60 93 63 94 57 95 58 96 61 97 59 98
REMARK H PARENT 19 5 7 16 11 20 11 21 24 32 83 51 51 62
REMARK Flexibility Score: inf
ROOT
ATOM      1  C   UNL A   1      32.836  29.724  25.985  1.00  0.00     0.116 C 
ENDROOT
BRANCH   1   2
ATOM      2  N   UNL A   1      33.555  29.660  24.718  1.00  0.00    -0.354 N 
ATOM      3  C   UNL A   1      33.628  28.644  23.803  1.00  0.00     0.245 C 
ATOM      4  O   UNL A   1      34.207  28.873  22.739  1.00  0.00    -0.272 OA
ATOM      5  H   UNL A   1      34.067  30.470  24.486  1.00  0.00     0.163 HD
BRANCH   3   6
ATOM      6  C   UNL A   1      33.092  27.228  24.165  1.00  0.00     0.119 C 
ATOM      7  C   UNL A   1      34.054  24.423  24.828  1.00  0.00    -0.011 C 
ATOM      8  C   UNL A   1      33.209  24.713  23.573  1.00  0.00     0.006 C 
ATOM      9  C   UNL A   1      33.706  25.434  25.916  1.00  0.00     0.006 C 
ATOM     10  C   UNL A   1      33.364  26.166  23.070  1.00  0.00     0.039 C 
ATOM     11  C   UNL A   1      33.939  26.841  25.412  1.00  0.00     0.039 C 
BRANCH   7  12
ATOM     12  C   UNL A   1      33.879  22.982  25.336  1.00  0.00    -0.000 C 
ATOM     13  C   UNL A   1      34.545  22.741  26.689  1.00  0.00     0.004 C 
ENDBRANCH   7  12
BRANCH   6  14
ATOM     14  N   UNL A   1      31.640  27.275  24.460  1.00  0.00    -0.337 N 
ATOM     15  C   UNL A   1      30.579  27.561  23.639  1.00  0.00     0.275 C 
ATOM     16  H   UNL A   1      31.399  27.069  25.392  1.00  0.00     0.164 HD
ATOM     17  O   UNL A   1      29.449  27.264  24.039  1.00  0.00    -0.268 OA
BRANCH  15  18
ATOM     18  C   UNL A   1      30.761  28.343  22.324  1.00  0.00     0.362 C 
BRANCH  18  19
ATOM     19  N   UNL A   1      30.605  29.779  22.612  1.00  0.00    -0.331 N 
ATOM     20  H   UNL A   1      31.396  30.278  22.205  1.00  0.00     0.346 HD
ATOM     21  H   UNL A   1      30.564  29.876  23.627  1.00  0.00     0.346 HD
BRANCH  19  22
ATOM     22  C   UNL A   1      29.358  30.365  22.072  1.00  0.00     0.378 C 
BRANCH  22  23
ATOM     23  C   UNL A   1      28.327  30.863  23.104  1.00  0.00     0.438 C 
ATOM     24  F   UNL A   1      27.512  29.862  23.509  1.00  0.00    -0.165 F 
ATOM     25  F   UNL A   1      28.938  31.356  24.203  1.00  0.00    -0.165 F 
ATOM     26  F   UNL A   1      27.553  31.841  22.584  1.00  0.00    -0.165 F 
ENDBRANCH  22  23
ENDBRANCH  19  22
ENDBRANCH  18  19
ENDBRANCH  15  18
ENDBRANCH   6  14
ENDBRANCH   3   6
ENDBRANCH   1   2
BRANCH   1  27
ATOM     27  C   UNL A   1      31.764  30.803  25.965  1.00  0.00     0.023 C 
BRANCH  27  28
ATOM     28  C   UNL A   1      31.741  31.663  27.226  1.00  0.00     0.023 C 
BRANCH  28  29
ATOM     29  C   UNL A   1      32.919  32.623  27.357  1.00  0.00     0.116 C 
BRANCH  29  30
ATOM     30  N   UNL A   1      32.500  33.996  27.590  1.00  0.00    -0.352 N 
ATOM     31  C   UNL A   1      32.997  34.885  28.513  1.00  0.00     0.251 C 
ATOM     32  H   UNL A   1      31.772  34.330  27.017  1.00  0.00     0.163 HD
ATOM     33  O   UNL A   1      32.459  35.970  28.707  1.00  0.00    -0.269 OA
BRANCH  31  34
ATOM     34  C   UNL A   1      34.179  34.487  29.299  1.00  0.00     0.039 A 
ATOM     35  C   UNL A   1      33.997  33.877  30.540  1.00  0.00     0.014 A 
ATOM     36  C   UNL A   1      35.458  34.640  28.756  1.00  0.00     0.014 A 
ATOM     37  C   UNL A   1      35.100  33.350  31.212  1.00  0.00     0.010 A 
ATOM     38  C   UNL A   1      36.544  34.054  29.392  1.00  0.00     0.010 A 
ATOM     39  C   UNL A   1      36.375  33.400  30.624  1.00  0.00    -0.014 A 
BRANCH  39  40
ATOM     40  C   UNL A   1      37.553  32.777  31.274  1.00  0.00     0.031 A 
ATOM     41  C   UNL A   1      38.254  31.632  30.603  1.00  0.00     0.074 A 
ATOM     42  C   UNL A   1      37.931  33.175  32.503  1.00  0.00     0.049 A 
ATOM     43  N   UNL A   1      39.215  30.867  31.056  1.00  0.00    -0.248 NA
ATOM     44  C   UNL A   1      37.789  31.281  29.254  1.00  0.00     0.031 C 
ATOM     45  C   UNL A   1      37.304  34.248  33.275  1.00  0.00     0.029 A 
ATOM     46  N   UNL A   1      38.922  32.704  33.330  1.00  0.00    -0.354 N 
ATOM     47  C   UNL A   1      39.453  29.934  30.057  1.00  0.00     0.074 A 
ATOM     48  C   UNL A   1      38.504  30.197  28.996  1.00  0.00     0.031 C 
ATOM     49  C   UNL A   1      37.922  34.354  34.461  1.00  0.00     0.029 A 
ATOM     50  C   UNL A   1      38.963  33.333  34.550  1.00  0.00     0.049 A 
ATOM     51  H   UNL A   1      39.541  31.984  33.072  1.00  0.00     0.167 HD
ATOM     52  C   UNL A   1      40.390  28.957  30.021  1.00  0.00     0.037 A 
ATOM     53  C   UNL A   1      39.738  33.098  35.625  1.00  0.00     0.037 A 
ATOM     54  C   UNL A   1      41.341  28.709  31.070  1.00  0.00     0.049 A 
ATOM     55  C   UNL A   1      40.770  32.006  35.566  1.00  0.00     0.074 A 
ATOM     56  C   UNL A   1      42.368  27.782  31.106  1.00  0.00     0.029 A 
ATOM     57  N   UNL A   1      41.377  29.392  32.279  1.00  0.00    -0.354 N 
ATOM     58  N   UNL A   1      41.031  31.168  34.592  1.00  0.00    -0.248 NA
ATOM     59  C   UNL A   1      41.621  31.832  36.752  1.00  0.00     0.031 C 
ATOM     60  C   UNL A   1      42.996  27.873  32.353  1.00  0.00     0.029 A 
ATOM     61  C   UNL A   1      42.395  28.892  33.075  1.00  0.00     0.049 A 
ATOM     62  H   UNL A   1      40.768  30.123  32.533  1.00  0.00     0.167 HD
ATOM     63  C   UNL A   1      42.089  30.385  35.034  1.00  0.00     0.074 A 
ATOM     64  C   UNL A   1      42.428  30.855  36.362  1.00  0.00     0.031 C 
ATOM     65  C   UNL A   1      42.724  29.374  34.393  1.00  0.00     0.037 A 
BRANCH  52  66
ATOM     66  C   UNL A   1      40.416  28.078  28.803  1.00  0.00     0.064 A 
ATOM     67  C   UNL A   1      39.716  26.862  28.757  1.00  0.00     0.173 A 
ATOM     68  C   UNL A   1      41.149  28.455  27.669  1.00  0.00     0.173 A 
ATOM     69  F   UNL A   1      39.009  26.449  29.820  1.00  0.00    -0.203 F 
ATOM     70  C   UNL A   1      39.787  26.037  27.638  1.00  0.00     0.198 A 
ATOM     71  C   UNL A   1      41.190  27.643  26.539  1.00  0.00     0.198 A 
ATOM     72  F   UNL A   1      41.831  29.611  27.656  1.00  0.00    -0.203 F 
ATOM     73  F   UNL A   1      39.164  24.850  27.642  1.00  0.00    -0.200 F 
ATOM     74  C   UNL A   1      40.520  26.430  26.528  1.00  0.00     0.200 A 
ATOM     75  F   UNL A   1      41.888  28.031  25.462  1.00  0.00    -0.200 F 
ATOM     76  F   UNL A   1      40.588  25.634  25.453  1.00  0.00    -0.200 F 
ENDBRANCH  52  66
BRANCH  53  77
ATOM     77  C   UNL A   1      39.570  33.932  36.842  1.00  0.00     0.064 A 
ATOM     78  C   UNL A   1      40.185  35.186  36.946  1.00  0.00     0.173 A 
ATOM     79  C   UNL A   1      38.766  33.507  37.910  1.00  0.00     0.173 A 
ATOM     80  F   UNL A   1      40.979  35.626  35.959  1.00  0.00    -0.203 F 
ATOM     81  C   UNL A   1      40.008  35.983  38.076  1.00  0.00     0.198 A 
ATOM     82  C   UNL A   1      38.569  34.314  39.028  1.00  0.00     0.198 A 
ATOM     83  F   UNL A   1      38.150  32.317  37.855  1.00  0.00    -0.203 F 
ATOM     84  F   UNL A   1      40.631  37.166  38.163  1.00  0.00    -0.200 F 
ATOM     85  C   UNL A   1      39.193  35.550  39.112  1.00  0.00     0.200 A 
ATOM     86  F   UNL A   1      37.770  33.900  40.020  1.00  0.00    -0.200 F 
ATOM     87  F   UNL A   1      39.013  36.322  40.192  1.00  0.00    -0.200 F 
ENDBRANCH  53  77
BRANCH  65  88
ATOM     88  C   UNL A   1      43.879  28.724  35.101  1.00  0.00     0.064 A 
ATOM     89  C   UNL A   1      43.703  27.597  35.916  1.00  0.00     0.173 A 
ATOM     90  C   UNL A   1      45.184  29.204  34.912  1.00  0.00     0.173 A 
ATOM     91  F   UNL A   1      42.473  27.109  36.140  1.00  0.00    -0.203 F 
ATOM     92  C   UNL A   1      44.792  26.984  36.531  1.00  0.00     0.198 A 
ATOM     93  C   UNL A   1      46.272  28.572  35.505  1.00  0.00     0.198 A 
ATOM     94  F   UNL A   1      45.404  30.276  34.136  1.00  0.00    -0.203 F 
ATOM     95  F   UNL A   1      44.599  25.930  37.336  1.00  0.00    -0.200 F 
ATOM     96  C   UNL A   1      46.076  27.466  36.317  1.00  0.00     0.200 A 
ATOM     97  F   UNL A   1      47.512  29.031  35.288  1.00  0.00    -0.200 F 
ATOM     98  F   UNL A   1      47.123  26.866  36.900  1.00  0.00    -0.200 F 
ENDBRANCH  65  88
ENDBRANCH  39  40
ENDBRANCH  31  34
ENDBRANCH  29  30
ENDBRANCH  28  29
ENDBRANCH  27  28
ENDBRANCH   1  27
TORSDOF 17
ENDMDL
