MODEL 1
REMARK VINA RESULT:     -12.8      0.000      0.000
REMARK SMILES C[C@@H](C(=O)NCCCCNC(=O)c1ccc(-c2c3nc(c(-c4c(F)c(F)c(F)c(F)c4F)c4ccc([nH]4)c(-c4c(F)c(F)c(F)c(F)c4F)c4nc(c(-c5c(F)c(F)c(F)c(F)c5F)c5ccc2[nH]5)C=C4)C=C3)cc1)c1ccc2c3cc(Cl)ccc3n(C(=O)c3ccc(Cl)cc3)c2c1
REMARK SMILES IDX 7 1 6 2 5 3 3 4 4 5 2 7 1 8 76 9 77 10 98 11 78 12 97 13
REMARK SMILES IDX 79 14 87 15 80 16 86 17 81 18 85 19 82 20 84 21 83 22 88 23
REMARK SMILES IDX 89 24 90 25 91 26 96 27 92 28 95 29 93 30 94 31 8 32 9 33
REMARK SMILES IDX 10 34 11 35 12 37 13 38 14 39 75 40 15 41 74 42 16 43 17 44
REMARK SMILES IDX 18 45 68 46 19 47 73 48 67 49 69 50 20 51 72 52 66 53 65 54
REMARK SMILES IDX 21 56 53 57 33 58 52 59 34 60 37 61 51 62 70 63 35 64 36 65
REMARK SMILES IDX 50 67 71 68 38 69 22 70 23 71 31 72 24 73 25 74 29 75 32 76
REMARK SMILES IDX 26 77 27 78 30 79 28 80 54 81 55 82 63 83 56 84 57 85 61 86
REMARK SMILES IDX 64 87 58 88 59 89 62 90 60 91 39 92 40 93 48 94 41 95 42 96
REMARK SMILES IDX 46 97 49 98 43 99 44 100 47 101 45 102
REMARK H PARENT 5 6 10 36 69 55 37 66
REMARK Flexibility Score: inf
ROOT
ATOM      1  C   UNL A   1      34.392  34.537  28.032  1.00  0.00     0.023 C 
ENDROOT
BRANCH   1   2
ATOM      2  C   UNL A   1      35.109  33.451  28.838  1.00  0.00     0.116 C 
BRANCH   2   3
ATOM      3  N   UNL A   1      36.039  32.725  28.000  1.00  0.00    -0.356 N 
ATOM      4  C   UNL A   1      36.224  31.382  27.845  1.00  0.00     0.227 C 
ATOM      5  O   UNL A   1      37.262  31.065  27.264  1.00  0.00    -0.274 OA
ATOM      6  H   UNL A   1      36.631  33.290  27.453  1.00  0.00     0.163 HD
BRANCH   4   7
ATOM      7  C   UNL A   1      35.157  30.403  28.360  1.00  0.00     0.105 C 
ATOM      8  C   UNL A   1      35.728  29.000  28.603  1.00  0.00     0.023 C 
BRANCH   7   9
ATOM      9  C   UNL A   1      33.895  30.226  27.511  1.00  0.00    -0.034 A 
ATOM     10  C   UNL A   1      32.881  31.177  27.417  1.00  0.00     0.005 A 
ATOM     11  C   UNL A   1      33.837  29.093  26.674  1.00  0.00     0.032 A 
ATOM     12  C   UNL A   1      31.858  31.051  26.475  1.00  0.00     0.011 A 
ATOM     13  C   UNL A   1      32.798  28.955  25.730  1.00  0.00     0.057 A 
ATOM     14  C   UNL A   1      31.841  29.952  25.597  1.00  0.00     0.008 A 
ATOM     15  N   UNL A   1      32.537  27.955  24.773  1.00  0.00    -0.276 N 
ATOM     16  C   UNL A   1      30.992  29.591  24.525  1.00  0.00     0.009 A 
ATOM     17  C   UNL A   1      31.357  28.307  24.097  1.00  0.00     0.057 A 
ATOM     18  C   UNL A   1      29.898  30.257  23.937  1.00  0.00     0.031 A 
ATOM     19  C   UNL A   1      30.524  27.611  23.198  1.00  0.00     0.029 A 
ATOM     20  C   UNL A   1      29.121  29.591  22.999  1.00  0.00     0.041 A 
ATOM     21  C   UNL A   1      29.409  28.275  22.658  1.00  0.00     0.023 A 
ATOM     22  Cl  UNL A   1      27.771  30.395  22.300  1.00  0.00    -0.084 Cl
BRANCH  15  23
ATOM     23  C   UNL A   1      33.357  26.799  24.624  1.00  0.00     0.262 C 
ATOM     24  O   UNL A   1      34.080  26.782  23.623  1.00  0.00    -0.268 OA
BRANCH  23  25
ATOM     25  C   UNL A   1      33.448  25.567  25.465  1.00  0.00     0.040 A 
ATOM     26  C   UNL A   1      34.685  24.884  25.449  1.00  0.00     0.015 A 
ATOM     27  C   UNL A   1      32.373  24.969  26.128  1.00  0.00     0.015 A 
ATOM     28  C   UNL A   1      34.852  23.652  26.083  1.00  0.00     0.021 A 
ATOM     29  C   UNL A   1      32.550  23.743  26.795  1.00  0.00     0.021 A 
ATOM     30  C   UNL A   1      33.782  23.088  26.762  1.00  0.00     0.041 A 
ATOM     31  Cl  UNL A   1      33.973  21.563  27.534  1.00  0.00    -0.084 Cl
ENDBRANCH  23  25
ENDBRANCH  15  23
ENDBRANCH   7   9
ENDBRANCH   4   7
ENDBRANCH   2   3
ENDBRANCH   1   2
BRANCH   1  32
ATOM     32  C   UNL A   1      33.176  35.152  28.730  1.00  0.00     0.023 C 
BRANCH  32  33
ATOM     33  C   UNL A   1      33.509  36.179  29.800  1.00  0.00     0.116 C 
BRANCH  33  34
ATOM     34  N   UNL A   1      32.496  36.241  30.840  1.00  0.00    -0.352 N 
ATOM     35  C   UNL A   1      32.503  35.670  32.089  1.00  0.00     0.251 C 
ATOM     36  H   UNL A   1      31.692  36.765  30.619  1.00  0.00     0.163 HD
ATOM     37  O   UNL A   1      31.499  35.686  32.784  1.00  0.00    -0.269 OA
BRANCH  35  38
ATOM     38  C   UNL A   1      33.734  35.007  32.572  1.00  0.00     0.039 A 
ATOM     39  C   UNL A   1      33.641  33.709  33.074  1.00  0.00     0.014 A 
ATOM     40  C   UNL A   1      34.970  35.656  32.506  1.00  0.00     0.014 A 
ATOM     41  C   UNL A   1      34.802  33.036  33.456  1.00  0.00     0.010 A 
ATOM     42  C   UNL A   1      36.132  34.956  32.811  1.00  0.00     0.010 A 
ATOM     43  C   UNL A   1      36.060  33.641  33.294  1.00  0.00    -0.014 A 
BRANCH  43  44
ATOM     44  C   UNL A   1      37.308  32.911  33.625  1.00  0.00     0.031 A 
ATOM     45  C   UNL A   1      38.048  33.217  34.896  1.00  0.00     0.074 A 
ATOM     46  C   UNL A   1      37.804  32.012  32.752  1.00  0.00     0.049 A 
ATOM     47  N   UNL A   1      39.179  32.726  35.336  1.00  0.00    -0.248 NA
ATOM     48  C   UNL A   1      37.452  34.231  35.781  1.00  0.00     0.031 C 
ATOM     49  C   UNL A   1      37.202  31.663  31.465  1.00  0.00     0.029 A 
ATOM     50  N   UNL A   1      38.932  31.233  32.813  1.00  0.00    -0.354 N 
ATOM     51  C   UNL A   1      39.432  33.376  36.536  1.00  0.00     0.074 A 
ATOM     52  C   UNL A   1      38.371  34.339  36.728  1.00  0.00     0.031 C 
ATOM     53  C   UNL A   1      37.952  30.722  30.869  1.00  0.00     0.029 A 
ATOM     54  C   UNL A   1      39.109  30.433  31.711  1.00  0.00     0.049 A 
ATOM     55  H   UNL A   1      39.556  31.247  33.575  1.00  0.00     0.167 HD
ATOM     56  C   UNL A   1      40.446  33.169  37.411  1.00  0.00     0.037 A 
ATOM     57  C   UNL A   1      40.098  29.571  31.409  1.00  0.00     0.037 A 
ATOM     58  C   UNL A   1      41.490  32.198  37.221  1.00  0.00     0.049 A 
ATOM     59  C   UNL A   1      41.225  29.377  32.389  1.00  0.00     0.074 A 
ATOM     60  C   UNL A   1      42.530  31.871  38.076  1.00  0.00     0.029 A 
ATOM     61  N   UNL A   1      41.634  31.401  36.094  1.00  0.00    -0.354 N 
ATOM     62  N   UNL A   1      41.413  29.941  33.558  1.00  0.00    -0.248 NA
ATOM     63  C   UNL A   1      42.273  28.419  32.010  1.00  0.00     0.031 C 
ATOM     64  C   UNL A   1      43.334  30.920  37.441  1.00  0.00     0.029 A 
ATOM     65  C   UNL A   1      42.762  30.606  36.218  1.00  0.00     0.049 A 
ATOM     66  H   UNL A   1      41.025  31.402  35.321  1.00  0.00     0.167 HD
ATOM     67  C   UNL A   1      42.581  29.388  34.065  1.00  0.00     0.074 A 
ATOM     68  C   UNL A   1      43.048  28.430  33.084  1.00  0.00     0.031 C 
ATOM     69  C   UNL A   1      43.212  29.651  35.235  1.00  0.00     0.037 A 
BRANCH  56  70
ATOM     70  C   UNL A   1      40.473  34.012  38.654  1.00  0.00     0.064 A 
ATOM     71  C   UNL A   1      39.784  33.634  39.818  1.00  0.00     0.173 A 
ATOM     72  C   UNL A   1      41.228  35.195  38.695  1.00  0.00     0.173 A 
ATOM     73  F   UNL A   1      39.038  32.520  39.829  1.00  0.00    -0.203 F 
ATOM     74  C   UNL A   1      39.823  34.425  40.963  1.00  0.00     0.198 A 
ATOM     75  C   UNL A   1      41.292  35.965  39.855  1.00  0.00     0.198 A 
ATOM     76  F   UNL A   1      41.911  35.600  37.615  1.00  0.00    -0.203 F 
ATOM     77  F   UNL A   1      39.112  34.072  42.043  1.00  0.00    -0.200 F 
ATOM     78  C   UNL A   1      40.583  35.584  40.984  1.00  0.00     0.200 A 
ATOM     79  F   UNL A   1      42.040  37.076  39.877  1.00  0.00    -0.200 F 
ATOM     80  F   UNL A   1      40.627  36.339  42.090  1.00  0.00    -0.200 F 
ENDBRANCH  56  70
BRANCH  57  81
ATOM     81  C   UNL A   1      40.062  28.814  30.130  1.00  0.00     0.064 A 
ATOM     82  C   UNL A   1      39.439  27.560  30.052  1.00  0.00     0.173 A 
ATOM     83  C   UNL A   1      40.655  29.319  28.964  1.00  0.00     0.173 A 
ATOM     84  F   UNL A   1      38.874  27.025  31.145  1.00  0.00    -0.203 F 
ATOM     85  C   UNL A   1      39.433  26.829  28.865  1.00  0.00     0.198 A 
ATOM     86  C   UNL A   1      40.620  28.602  27.769  1.00  0.00     0.198 A 
ATOM     87  F   UNL A   1      41.259  30.515  28.982  1.00  0.00    -0.203 F 
ATOM     88  F   UNL A   1      38.876  25.611  28.835  1.00  0.00    -0.200 F 
ATOM     89  C   UNL A   1      40.019  27.354  27.724  1.00  0.00     0.200 A 
ATOM     90  F   UNL A   1      41.173  29.119  26.664  1.00  0.00    -0.200 F 
ATOM     91  F   UNL A   1      40.011  26.653  26.582  1.00  0.00    -0.200 F 
ENDBRANCH  57  81
BRANCH  69  92
ATOM     92  C   UNL A   1      44.456  28.867  35.540  1.00  0.00     0.064 A 
ATOM     93  C   UNL A   1      45.727  29.320  35.158  1.00  0.00     0.173 A 
ATOM     94  C   UNL A   1      44.377  27.664  36.260  1.00  0.00     0.173 A 
ATOM     95  F   UNL A   1      45.857  30.456  34.456  1.00  0.00    -0.203 F 
ATOM     96  C   UNL A   1      46.871  28.582  35.458  1.00  0.00     0.198 A 
ATOM     97  C   UNL A   1      45.525  26.948  36.588  1.00  0.00     0.198 A 
ATOM     98  F   UNL A   1      43.187  27.190  36.657  1.00  0.00    -0.203 F 
ATOM     99  F   UNL A   1      48.069  29.006  35.034  1.00  0.00    -0.200 F 
ATOM    100  C   UNL A   1      46.768  27.402  36.180  1.00  0.00     0.200 A 
ATOM    101  F   UNL A   1      45.425  25.817  37.300  1.00  0.00    -0.200 F 
ATOM    102  F   UNL A   1      47.871  26.699  36.475  1.00  0.00    -0.200 F 
ENDBRANCH  69  92
ENDBRANCH  43  44
ENDBRANCH  35  38
ENDBRANCH  33  34
ENDBRANCH  32  33
ENDBRANCH   1  32
TORSDOF 14
ENDMDL
MODEL 2
REMARK VINA RESULT:     -12.5      6.218     10.939
REMARK SMILES C[C@@H](C(=O)NCCCCNC(=O)c1ccc(-c2c3nc(c(-c4c(F)c(F)c(F)c(F)c4F)c4ccc([nH]4)c(-c4c(F)c(F)c(F)c(F)c4F)c4nc(c(-c5c(F)c(F)c(F)c(F)c5F)c5ccc2[nH]5)C=C4)C=C3)cc1)c1ccc2c3cc(Cl)ccc3n(C(=O)c3ccc(Cl)cc3)c2c1
REMARK SMILES IDX 7 1 6 2 5 3 3 4 4 5 2 7 1 8 76 9 77 10 98 11 78 12 97 13
REMARK SMILES IDX 79 14 87 15 80 16 86 17 81 18 85 19 82 20 84 21 83 22 88 23
REMARK SMILES IDX 89 24 90 25 91 26 96 27 92 28 95 29 93 30 94 31 8 32 9 33
REMARK SMILES IDX 10 34 11 35 12 37 13 38 14 39 75 40 15 41 74 42 16 43 17 44
REMARK SMILES IDX 18 45 68 46 19 47 73 48 67 49 69 50 20 51 72 52 66 53 65 54
REMARK SMILES IDX 21 56 53 57 33 58 52 59 34 60 37 61 51 62 70 63 35 64 36 65
REMARK SMILES IDX 50 67 71 68 38 69 22 70 23 71 31 72 24 73 25 74 29 75 32 76
REMARK SMILES IDX 26 77 27 78 30 79 28 80 54 81 55 82 63 83 56 84 57 85 61 86
REMARK SMILES IDX 64 87 58 88 59 89 62 90 60 91 39 92 40 93 48 94 41 95 42 96
REMARK SMILES IDX 46 97 49 98 43 99 44 100 47 101 45 102
REMARK H PARENT 5 6 10 36 69 55 37 66
REMARK Flexibility Score: inf
ROOT
ATOM      1  C   UNL A   1      37.326  21.128  24.252  1.00  0.00     0.023 C 
ENDROOT
BRANCH   1   2
ATOM      2  C   UNL A   1      36.230  21.879  25.013  1.00  0.00     0.116 C 
BRANCH   2   3
ATOM      3  N   UNL A   1      35.006  21.108  25.036  1.00  0.00    -0.356 N 
ATOM      4  C   UNL A   1      33.730  21.468  24.711  1.00  0.00     0.227 C 
ATOM      5  O   UNL A   1      32.859  20.681  25.081  1.00  0.00    -0.274 OA
ATOM      6  H   UNL A   1      35.110  20.175  25.333  1.00  0.00     0.163 HD
BRANCH   4   7
ATOM      7  C   UNL A   1      33.484  22.759  23.914  1.00  0.00     0.105 C 
ATOM      8  C   UNL A   1      34.515  22.953  22.795  1.00  0.00     0.023 C 
BRANCH   7   9
ATOM      9  C   UNL A   1      33.429  24.072  24.699  1.00  0.00    -0.034 A 
ATOM     10  C   UNL A   1      34.431  24.503  25.565  1.00  0.00     0.005 A 
ATOM     11  C   UNL A   1      32.363  24.949  24.410  1.00  0.00     0.032 A 
ATOM     12  C   UNL A   1      34.423  25.795  26.093  1.00  0.00     0.011 A 
ATOM     13  C   UNL A   1      32.344  26.252  24.951  1.00  0.00     0.057 A 
ATOM     14  C   UNL A   1      33.393  26.690  25.750  1.00  0.00     0.008 A 
ATOM     15  N   UNL A   1      31.429  27.311  24.794  1.00  0.00    -0.276 N 
ATOM     16  C   UNL A   1      33.151  28.046  26.068  1.00  0.00     0.009 A 
ATOM     17  C   UNL A   1      31.885  28.389  25.572  1.00  0.00     0.057 A 
ATOM     18  C   UNL A   1      33.909  28.981  26.801  1.00  0.00     0.031 A 
ATOM     19  C   UNL A   1      31.297  29.611  25.953  1.00  0.00     0.029 A 
ATOM     20  C   UNL A   1      33.351  30.213  27.114  1.00  0.00     0.041 A 
ATOM     21  C   UNL A   1      32.051  30.512  26.726  1.00  0.00     0.023 A 
ATOM     22  Cl  UNL A   1      34.267  31.344  28.031  1.00  0.00    -0.084 Cl
BRANCH  15  23
ATOM     23  C   UNL A   1      30.250  27.199  24.004  1.00  0.00     0.262 C 
ATOM     24  O   UNL A   1      29.717  26.084  23.993  1.00  0.00    -0.268 OA
BRANCH  23  25
ATOM     25  C   UNL A   1      29.572  28.208  23.134  1.00  0.00     0.040 A 
ATOM     26  C   UNL A   1      30.413  29.044  22.367  1.00  0.00     0.015 A 
ATOM     27  C   UNL A   1      28.201  28.480  23.144  1.00  0.00     0.015 A 
ATOM     28  C   UNL A   1      29.907  30.112  21.623  1.00  0.00     0.021 A 
ATOM     29  C   UNL A   1      27.687  29.534  22.368  1.00  0.00     0.021 A 
ATOM     30  C   UNL A   1      28.540  30.348  21.621  1.00  0.00     0.041 A 
ATOM     31  Cl  UNL A   1      27.907  31.669  20.719  1.00  0.00    -0.084 Cl
ENDBRANCH  23  25
ENDBRANCH  15  23
ENDBRANCH   7   9
ENDBRANCH   4   7
ENDBRANCH   2   3
ENDBRANCH   1   2
BRANCH   1  32
ATOM     32  C   UNL A   1      37.922  19.935  25.002  1.00  0.00     0.023 C 
BRANCH  32  33
ATOM     33  C   UNL A   1      39.122  20.266  25.875  1.00  0.00     0.116 C 
BRANCH  33  34
ATOM     34  N   UNL A   1      40.087  19.182  25.922  1.00  0.00    -0.352 N 
ATOM     35  C   UNL A   1      41.453  19.245  26.053  1.00  0.00     0.251 C 
ATOM     36  H   UNL A   1      39.711  18.275  25.849  1.00  0.00     0.163 HD
ATOM     37  O   UNL A   1      42.136  18.243  25.913  1.00  0.00    -0.269 OA
BRANCH  35  38
ATOM     38  C   UNL A   1      42.090  20.549  26.336  1.00  0.00     0.039 A 
ATOM     39  C   UNL A   1      42.465  21.356  25.261  1.00  0.00     0.014 A 
ATOM     40  C   UNL A   1      42.294  20.978  27.650  1.00  0.00     0.014 A 
ATOM     41  C   UNL A   1      42.991  22.625  25.507  1.00  0.00     0.010 A 
ATOM     42  C   UNL A   1      42.742  22.272  27.891  1.00  0.00     0.010 A 
ATOM     43  C   UNL A   1      43.100  23.107  26.823  1.00  0.00    -0.014 A 
BRANCH  43  44
ATOM     44  C   UNL A   1      43.587  24.482  27.096  1.00  0.00     0.031 A 
ATOM     45  C   UNL A   1      42.639  25.530  27.605  1.00  0.00     0.074 A 
ATOM     46  C   UNL A   1      44.870  24.798  26.831  1.00  0.00     0.049 A 
ATOM     47  N   UNL A   1      42.861  26.797  27.853  1.00  0.00    -0.248 NA
ATOM     48  C   UNL A   1      41.250  25.108  27.843  1.00  0.00     0.031 C 
ATOM     49  C   UNL A   1      45.872  23.880  26.290  1.00  0.00     0.029 A 
ATOM     50  N   UNL A   1      45.547  25.983  26.973  1.00  0.00    -0.354 N 
ATOM     51  C   UNL A   1      41.642  27.319  28.264  1.00  0.00     0.074 A 
ATOM     52  C   UNL A   1      40.671  26.252  28.175  1.00  0.00     0.031 C 
ATOM     53  C   UNL A   1      47.042  24.527  26.170  1.00  0.00     0.029 A 
ATOM     54  C   UNL A   1      46.862  25.915  26.584  1.00  0.00     0.049 A 
ATOM     55  H   UNL A   1      45.130  26.804  27.321  1.00  0.00     0.167 HD
ATOM     56  C   UNL A   1      41.364  28.572  28.701  1.00  0.00     0.037 A 
ATOM     57  C   UNL A   1      47.814  26.868  26.556  1.00  0.00     0.037 A 
ATOM     58  C   UNL A   1      42.339  29.626  28.801  1.00  0.00     0.049 A 
ATOM     59  C   UNL A   1      47.472  28.257  27.025  1.00  0.00     0.074 A 
ATOM     60  C   UNL A   1      42.171  30.912  29.286  1.00  0.00     0.029 A 
ATOM     61  N   UNL A   1      43.664  29.519  28.402  1.00  0.00    -0.354 N 
ATOM     62  N   UNL A   1      46.335  28.721  27.485  1.00  0.00    -0.248 NA
ATOM     63  C   UNL A   1      48.550  29.254  26.977  1.00  0.00     0.031 C 
ATOM     64  C   UNL A   1      43.377  31.600  29.126  1.00  0.00     0.029 A 
ATOM     65  C   UNL A   1      44.316  30.725  28.602  1.00  0.00     0.049 A 
ATOM     66  H   UNL A   1      44.078  28.706  28.033  1.00  0.00     0.167 HD
ATOM     67  C   UNL A   1      46.567  30.051  27.807  1.00  0.00     0.074 A 
ATOM     68  C   UNL A   1      47.959  30.315  27.507  1.00  0.00     0.031 C 
ATOM     69  C   UNL A   1      45.705  30.972  28.304  1.00  0.00     0.037 A 
BRANCH  56  70
ATOM     70  C   UNL A   1      39.947  28.870  29.100  1.00  0.00     0.064 A 
ATOM     71  C   UNL A   1      39.517  28.757  30.432  1.00  0.00     0.173 A 
ATOM     72  C   UNL A   1      39.016  29.309  28.147  1.00  0.00     0.173 A 
ATOM     73  F   UNL A   1      40.363  28.331  31.382  1.00  0.00    -0.203 F 
ATOM     74  C   UNL A   1      38.201  29.041  30.788  1.00  0.00     0.198 A 
ATOM     75  C   UNL A   1      37.709  29.625  28.513  1.00  0.00     0.198 A 
ATOM     76  F   UNL A   1      39.374  29.441  26.861  1.00  0.00    -0.203 F 
ATOM     77  F   UNL A   1      37.801  28.874  32.055  1.00  0.00    -0.200 F 
ATOM     78  C   UNL A   1      37.302  29.483  29.830  1.00  0.00     0.200 A 
ATOM     79  F   UNL A   1      36.846  30.067  27.588  1.00  0.00    -0.200 F 
ATOM     80  F   UNL A   1      36.037  29.765  30.175  1.00  0.00    -0.200 F 
ENDBRANCH  56  70
BRANCH  57  81
ATOM     81  C   UNL A   1      49.183  26.539  26.081  1.00  0.00     0.064 A 
ATOM     82  C   UNL A   1      50.131  25.978  26.948  1.00  0.00     0.173 A 
ATOM     83  C   UNL A   1      49.578  26.787  24.758  1.00  0.00     0.173 A 
ATOM     84  F   UNL A   1      49.809  25.740  28.229  1.00  0.00    -0.203 F 
ATOM     85  C   UNL A   1      51.428  25.701  26.519  1.00  0.00     0.198 A 
ATOM     86  C   UNL A   1      50.865  26.479  24.320  1.00  0.00     0.198 A 
ATOM     87  F   UNL A   1      48.709  27.316  23.886  1.00  0.00    -0.203 F 
ATOM     88  F   UNL A   1      52.328  25.214  27.384  1.00  0.00    -0.200 F 
ATOM     89  C   UNL A   1      51.791  25.947  25.203  1.00  0.00     0.200 A 
ATOM     90  F   UNL A   1      51.207  26.702  23.045  1.00  0.00    -0.200 F 
ATOM     91  F   UNL A   1      53.037  25.678  24.790  1.00  0.00    -0.200 F 
ENDBRANCH  57  81
BRANCH  69  92
ATOM     92  C   UNL A   1      46.250  32.342  28.592  1.00  0.00     0.064 A 
ATOM     93  C   UNL A   1      46.240  33.358  27.625  1.00  0.00     0.173 A 
ATOM     94  C   UNL A   1      46.753  32.652  29.865  1.00  0.00     0.173 A 
ATOM     95  F   UNL A   1      45.784  33.110  26.388  1.00  0.00    -0.203 F 
ATOM     96  C   UNL A   1      46.742  34.626  27.914  1.00  0.00     0.198 A 
ATOM     97  C   UNL A   1      47.220  33.929  30.160  1.00  0.00     0.198 A 
ATOM     98  F   UNL A   1      46.778  31.719  30.828  1.00  0.00    -0.203 F 
ATOM     99  F   UNL A   1      46.773  35.565  26.959  1.00  0.00    -0.200 F 
ATOM    100  C   UNL A   1      47.223  34.912  29.183  1.00  0.00     0.200 A 
ATOM    101  F   UNL A   1      47.670  34.208  31.392  1.00  0.00    -0.200 F 
ATOM    102  F   UNL A   1      47.697  36.135  29.461  1.00  0.00    -0.200 F 
ENDBRANCH  69  92
ENDBRANCH  43  44
ENDBRANCH  35  38
ENDBRANCH  33  34
ENDBRANCH  32  33
ENDBRANCH   1  32
TORSDOF 14
ENDMDL
MODEL 3
REMARK VINA RESULT:     -12.4      5.146     10.847
REMARK SMILES C[C@@H](C(=O)NCCCCNC(=O)c1ccc(-c2c3nc(c(-c4c(F)c(F)c(F)c(F)c4F)c4ccc([nH]4)c(-c4c(F)c(F)c(F)c(F)c4F)c4nc(c(-c5c(F)c(F)c(F)c(F)c5F)c5ccc2[nH]5)C=C4)C=C3)cc1)c1ccc2c3cc(Cl)ccc3n(C(=O)c3ccc(Cl)cc3)c2c1
REMARK SMILES IDX 7 1 6 2 5 3 3 4 4 5 2 7 1 8 76 9 77 10 98 11 78 12 97 13
REMARK SMILES IDX 79 14 87 15 80 16 86 17 81 18 85 19 82 20 84 21 83 22 88 23
REMARK SMILES IDX 89 24 90 25 91 26 96 27 92 28 95 29 93 30 94 31 8 32 9 33
REMARK SMILES IDX 10 34 11 35 12 37 13 38 14 39 75 40 15 41 74 42 16 43 17 44
REMARK SMILES IDX 18 45 68 46 19 47 73 48 67 49 69 50 20 51 72 52 66 53 65 54
REMARK SMILES IDX 21 56 53 57 33 58 52 59 34 60 37 61 51 62 70 63 35 64 36 65
REMARK SMILES IDX 50 67 71 68 38 69 22 70 23 71 31 72 24 73 25 74 29 75 32 76
REMARK SMILES IDX 26 77 27 78 30 79 28 80 54 81 55 82 63 83 56 84 57 85 61 86
REMARK SMILES IDX 64 87 58 88 59 89 62 90 60 91 39 92 40 93 48 94 41 95 42 96
REMARK SMILES IDX 46 97 49 98 43 99 44 100 47 101 45 102
REMARK H PARENT 5 6 10 36 69 55 37 66
REMARK Flexibility Score: inf
ROOT
ATOM      1  C   UNL A   1      35.450  21.956  24.256  1.00  0.00     0.023 C 
ENDROOT
BRANCH   1   2
ATOM      2  C   UNL A   1      34.685  23.088  24.949  1.00  0.00     0.116 C 
BRANCH   2   3
ATOM      3  N   UNL A   1      34.357  22.723  26.310  1.00  0.00    -0.356 N 
ATOM      4  C   UNL A   1      33.146  22.632  26.931  1.00  0.00     0.227 C 
ATOM      5  O   UNL A   1      33.197  22.556  28.159  1.00  0.00    -0.274 OA
ATOM      6  H   UNL A   1      35.131  22.504  26.877  1.00  0.00     0.163 HD
BRANCH   4   7
ATOM      7  C   UNL A   1      31.860  22.603  26.090  1.00  0.00     0.105 C 
ATOM      8  C   UNL A   1      31.840  21.428  25.104  1.00  0.00     0.023 C 
BRANCH   7   9
ATOM      9  C   UNL A   1      31.514  23.859  25.287  1.00  0.00    -0.034 A 
ATOM     10  C   UNL A   1      30.901  23.839  24.037  1.00  0.00     0.005 A 
ATOM     11  C   UNL A   1      31.705  25.102  25.925  1.00  0.00     0.032 A 
ATOM     12  C   UNL A   1      30.427  25.012  23.446  1.00  0.00     0.011 A 
ATOM     13  C   UNL A   1      31.238  26.291  25.326  1.00  0.00     0.057 A 
ATOM     14  C   UNL A   1      30.560  26.241  24.115  1.00  0.00     0.008 A 
ATOM     15  N   UNL A   1      31.274  27.629  25.764  1.00  0.00    -0.276 N 
ATOM     16  C   UNL A   1      30.136  27.555  23.808  1.00  0.00     0.009 A 
ATOM     17  C   UNL A   1      30.676  28.421  24.768  1.00  0.00     0.057 A 
ATOM     18  C   UNL A   1      29.375  28.062  22.735  1.00  0.00     0.031 A 
ATOM     19  C   UNL A   1      30.605  29.814  24.566  1.00  0.00     0.029 A 
ATOM     20  C   UNL A   1      29.249  29.436  22.581  1.00  0.00     0.041 A 
ATOM     21  C   UNL A   1      29.883  30.301  23.463  1.00  0.00     0.023 A 
ATOM     22  Cl  UNL A   1      28.342  30.055  21.257  1.00  0.00    -0.084 Cl
BRANCH  15  23
ATOM     23  C   UNL A   1      31.876  28.022  26.994  1.00  0.00     0.262 C 
ATOM     24  O   UNL A   1      31.461  27.440  28.002  1.00  0.00    -0.268 OA
BRANCH  23  25
ATOM     25  C   UNL A   1      32.905  29.069  27.273  1.00  0.00     0.040 A 
ATOM     26  C   UNL A   1      32.445  30.404  27.325  1.00  0.00     0.015 A 
ATOM     27  C   UNL A   1      34.283  28.842  27.331  1.00  0.00     0.015 A 
ATOM     28  C   UNL A   1      33.327  31.480  27.443  1.00  0.00     0.021 A 
ATOM     29  C   UNL A   1      35.169  29.924  27.483  1.00  0.00     0.021 A 
ATOM     30  C   UNL A   1      34.690  31.234  27.529  1.00  0.00     0.041 A 
ATOM     31  Cl  UNL A   1      35.785  32.553  27.660  1.00  0.00    -0.084 Cl
ENDBRANCH  23  25
ENDBRANCH  15  23
ENDBRANCH   7   9
ENDBRANCH   4   7
ENDBRANCH   2   3
ENDBRANCH   1   2
BRANCH   1  32
ATOM     32  C   UNL A   1      36.348  21.133  25.182  1.00  0.00     0.023 C 
BRANCH  32  33
ATOM     33  C   UNL A   1      37.783  21.625  25.280  1.00  0.00     0.116 C 
BRANCH  33  34
ATOM     34  N   UNL A   1      38.677  20.618  25.824  1.00  0.00    -0.352 N 
ATOM     35  C   UNL A   1      39.869  20.786  26.486  1.00  0.00     0.251 C 
ATOM     36  H   UNL A   1      38.390  19.684  25.701  1.00  0.00     0.163 HD
ATOM     37  O   UNL A   1      40.579  19.825  26.738  1.00  0.00    -0.269 OA
BRANCH  35  38
ATOM     38  C   UNL A   1      40.297  22.150  26.864  1.00  0.00     0.039 A 
ATOM     39  C   UNL A   1      41.339  22.294  27.780  1.00  0.00     0.014 A 
ATOM     40  C   UNL A   1      39.688  23.274  26.299  1.00  0.00     0.014 A 
ATOM     41  C   UNL A   1      41.814  23.570  28.086  1.00  0.00     0.010 A 
ATOM     42  C   UNL A   1      40.214  24.538  26.543  1.00  0.00     0.010 A 
ATOM     43  C   UNL A   1      41.278  24.699  27.442  1.00  0.00    -0.014 A 
BRANCH  43  44
ATOM     44  C   UNL A   1      41.823  26.056  27.700  1.00  0.00     0.031 A 
ATOM     45  C   UNL A   1      43.182  26.434  27.184  1.00  0.00     0.074 A 
ATOM     46  C   UNL A   1      41.115  26.925  28.448  1.00  0.00     0.049 A 
ATOM     47  N   UNL A   1      43.850  27.548  27.350  1.00  0.00    -0.248 NA
ATOM     48  C   UNL A   1      43.899  25.417  26.399  1.00  0.00     0.031 C 
ATOM     49  C   UNL A   1      39.806  26.657  29.044  1.00  0.00     0.029 A 
ATOM     50  N   UNL A   1      41.402  28.208  28.841  1.00  0.00    -0.354 N 
ATOM     51  C   UNL A   1      45.063  27.360  26.701  1.00  0.00     0.074 A 
ATOM     52  C   UNL A   1      45.066  26.007  26.191  1.00  0.00     0.031 C 
ATOM     53  C   UNL A   1      39.391  27.750  29.705  1.00  0.00     0.029 A 
ATOM     54  C   UNL A   1      40.422  28.779  29.616  1.00  0.00     0.049 A 
ATOM     55  H   UNL A   1      42.232  28.675  28.591  1.00  0.00     0.167 HD
ATOM     56  C   UNL A   1      46.073  28.247  26.525  1.00  0.00     0.037 A 
ATOM     57  C   UNL A   1      40.366  29.992  30.197  1.00  0.00     0.037 A 
ATOM     58  C   UNL A   1      46.057  29.597  27.023  1.00  0.00     0.049 A 
ATOM     59  C   UNL A   1      41.513  30.949  30.005  1.00  0.00     0.074 A 
ATOM     60  C   UNL A   1      47.005  30.591  26.848  1.00  0.00     0.029 A 
ATOM     61  N   UNL A   1      45.045  30.142  27.800  1.00  0.00    -0.354 N 
ATOM     62  N   UNL A   1      42.621  30.789  29.324  1.00  0.00    -0.248 NA
ATOM     63  C   UNL A   1      41.394  32.261  30.657  1.00  0.00     0.031 C 
ATOM     64  C   UNL A   1      46.594  31.717  27.567  1.00  0.00     0.029 A 
ATOM     65  C   UNL A   1      45.360  31.448  28.138  1.00  0.00     0.049 A 
ATOM     66  H   UNL A   1      44.225  29.670  28.070  1.00  0.00     0.167 HD
ATOM     67  C   UNL A   1      43.319  31.983  29.442  1.00  0.00     0.074 A 
ATOM     68  C   UNL A   1      42.498  32.866  30.243  1.00  0.00     0.031 C 
ATOM     69  C   UNL A   1      44.530  32.319  28.933  1.00  0.00     0.037 A 
BRANCH  56  70
ATOM     70  C   UNL A   1      47.282  27.781  25.765  1.00  0.00     0.064 A 
ATOM     71  C   UNL A   1      47.311  27.772  24.361  1.00  0.00     0.173 A 
ATOM     72  C   UNL A   1      48.438  27.372  26.446  1.00  0.00     0.173 A 
ATOM     73  F   UNL A   1      46.229  28.141  23.660  1.00  0.00    -0.203 F 
ATOM     74  C   UNL A   1      48.441  27.341  23.670  1.00  0.00     0.198 A 
ATOM     75  C   UNL A   1      49.578  26.975  25.751  1.00  0.00     0.198 A 
ATOM     76  F   UNL A   1      48.468  27.367  27.787  1.00  0.00    -0.203 F 
ATOM     77  F   UNL A   1      48.426  27.289  22.331  1.00  0.00    -0.200 F 
ATOM     78  C   UNL A   1      49.576  26.952  24.365  1.00  0.00     0.200 A 
ATOM     79  F   UNL A   1      50.679  26.614  26.425  1.00  0.00    -0.200 F 
ATOM     80  F   UNL A   1      50.666  26.546  23.698  1.00  0.00    -0.200 F 
ENDBRANCH  56  70
BRANCH  57  81
ATOM     81  C   UNL A   1      39.178  30.378  31.003  1.00  0.00     0.064 A 
ATOM     82  C   UNL A   1      38.044  30.935  30.394  1.00  0.00     0.173 A 
ATOM     83  C   UNL A   1      39.152  30.210  32.395  1.00  0.00     0.173 A 
ATOM     84  F   UNL A   1      38.027  31.134  29.067  1.00  0.00    -0.203 F 
ATOM     85  C   UNL A   1      36.941  31.331  31.148  1.00  0.00     0.198 A 
ATOM     86  C   UNL A   1      38.036  30.577  33.145  1.00  0.00     0.198 A 
ATOM     87  F   UNL A   1      40.208  29.677  33.027  1.00  0.00    -0.203 F 
ATOM     88  F   UNL A   1      35.893  31.909  30.545  1.00  0.00    -0.200 F 
ATOM     89  C   UNL A   1      36.937  31.147  32.522  1.00  0.00     0.200 A 
ATOM     90  F   UNL A   1      38.029  30.383  34.470  1.00  0.00    -0.200 F 
ATOM     91  F   UNL A   1      35.875  31.527  33.246  1.00  0.00    -0.200 F 
ENDBRANCH  57  81
BRANCH  69  92
ATOM     92  C   UNL A   1      45.026  33.712  29.196  1.00  0.00     0.064 A 
ATOM     93  C   UNL A   1      45.877  34.001  30.273  1.00  0.00     0.173 A 
ATOM     94  C   UNL A   1      44.678  34.763  28.335  1.00  0.00     0.173 A 
ATOM     95  F   UNL A   1      46.230  33.035  31.134  1.00  0.00    -0.203 F 
ATOM     96  C   UNL A   1      46.335  35.298  30.495  1.00  0.00     0.198 A 
ATOM     97  C   UNL A   1      45.165  36.051  28.540  1.00  0.00     0.198 A 
ATOM     98  F   UNL A   1      43.873  34.540  27.285  1.00  0.00    -0.203 F 
ATOM     99  F   UNL A   1      47.102  35.561  31.562  1.00  0.00    -0.200 F 
ATOM    100  C   UNL A   1      45.986  36.319  29.624  1.00  0.00     0.200 A 
ATOM    101  F   UNL A   1      44.840  37.032  27.687  1.00  0.00    -0.200 F 
ATOM    102  F   UNL A   1      46.435  37.564  29.835  1.00  0.00    -0.200 F 
ENDBRANCH  69  92
ENDBRANCH  43  44
ENDBRANCH  35  38
ENDBRANCH  33  34
ENDBRANCH  32  33
ENDBRANCH   1  32
TORSDOF 14
ENDMDL
