MODEL 1
REMARK VINA RESULT:     -11.8      0.000      0.000
REMARK SMILES CCC(CC)(CC(=O)Nc1cccc(OC)c1)C(=O)NCCCCNC(=O)c1ccc(-c2c3nc(c(-c4c(F)c(F)c(F)c(F)c4F)c4ccc([nH]4)c(-c4c(F)c(F)c(F)c(F)c4F)c4nc(c(-c5c(F)c(F)c(F)c(F)c5F)c5ccc2[nH]5)C=C4)C=C3)cc1
REMARK SMILES IDX 21 1 20 2 18 3 19 4 3 6 2 7 1 8 4 9 5 10 6 11 7 12 8 13 9 14
REMARK SMILES IDX 10 16 11 17 17 18 12 19 14 20 13 21 15 22 16 23 22 24 23 25
REMARK SMILES IDX 24 26 25 27 26 28 27 30 28 31 29 32 90 33 30 34 89 35 31 36
REMARK SMILES IDX 32 37 33 38 83 39 34 40 88 41 82 42 84 43 35 44 87 45 81 46
REMARK SMILES IDX 80 47 36 49 68 50 48 51 67 52 49 53 52 54 66 55 85 56 50 57
REMARK SMILES IDX 51 58 65 60 86 61 53 62 37 63 38 64 46 65 39 66 40 67 44 68
REMARK SMILES IDX 47 69 41 70 42 71 45 72 43 73 69 74 70 75 78 76 71 77 72 78
REMARK SMILES IDX 76 79 79 80 73 81 74 82 77 83 75 84 54 85 55 86 63 87 56 88
REMARK SMILES IDX 57 89 61 90 64 91 58 92 59 93 62 94 60 95
REMARK H PARENT 20 5 9 15 25 29 84 48 52 59
REMARK Flexibility Score: inf
ROOT
ATOM      1  C   UNL A   1      33.175  29.888  26.058  1.00  0.00     0.116 C 
ENDROOT
BRANCH   1   2
ATOM      2  N   UNL A   1      33.135  29.763  24.618  1.00  0.00    -0.356 N 
ATOM      3  C   UNL A   1      33.429  28.696  23.844  1.00  0.00     0.226 C 
ATOM      4  O   UNL A   1      34.010  28.954  22.787  1.00  0.00    -0.274 OA
ATOM      5  H   UNL A   1      32.854  30.572  24.133  1.00  0.00     0.163 HD
BRANCH   3   6
ATOM      6  C   UNL A   1      32.983  27.273  24.215  1.00  0.00     0.057 C 
BRANCH   6   7
ATOM      7  C   UNL A   1      31.468  27.394  24.490  1.00  0.00     0.014 C 
ATOM      8  C   UNL A   1      30.834  26.712  25.697  1.00  0.00     0.005 C 
ENDBRANCH   6   7
BRANCH   6   9
ATOM      9  C   UNL A   1      33.658  26.749  25.543  1.00  0.00     0.014 C 
ATOM     10  C   UNL A   1      34.076  25.279  25.569  1.00  0.00     0.005 C 
ENDBRANCH   6   9
BRANCH   6  11
ATOM     11  C   UNL A   1      33.206  26.278  23.032  1.00  0.00     0.117 C 
BRANCH  11  12
ATOM     12  C   UNL A   1      32.009  25.791  22.213  1.00  0.00     0.225 C 
ATOM     13  O   UNL A   1      31.525  26.519  21.341  1.00  0.00    -0.275 OA
ATOM     14  N   UNL A   1      31.611  24.470  22.255  1.00  0.00    -0.326 N 
ATOM     15  H   UNL A   1      31.082  24.193  21.472  1.00  0.00     0.169 HD
BRANCH  14  16
ATOM     16  C   UNL A   1      31.813  23.440  23.198  1.00  0.00     0.044 A 
ATOM     17  C   UNL A   1      32.710  22.416  22.897  1.00  0.00     0.026 A 
ATOM     18  C   UNL A   1      31.053  23.306  24.359  1.00  0.00     0.072 A 
ATOM     19  C   UNL A   1      32.922  21.367  23.803  1.00  0.00     0.006 A 
ATOM     20  C   UNL A   1      31.309  22.317  25.311  1.00  0.00     0.120 A 
ATOM     21  C   UNL A   1      32.241  21.334  25.020  1.00  0.00     0.046 A 
BRANCH  20  22
ATOM     22  O   UNL A   1      30.623  22.181  26.487  1.00  0.00    -0.497 OA
ATOM     23  C   UNL A   1      29.882  23.334  26.883  1.00  0.00     0.278 C 
ENDBRANCH  20  22
ENDBRANCH  14  16
ENDBRANCH  11  12
ENDBRANCH   6  11
ENDBRANCH   3   6
ENDBRANCH   1   2
BRANCH   1  24
ATOM     24  C   UNL A   1      31.815  30.349  26.574  1.00  0.00     0.023 C 
BRANCH  24  25
ATOM     25  C   UNL A   1      31.637  31.870  26.635  1.00  0.00     0.023 C 
BRANCH  25  26
ATOM     26  C   UNL A   1      32.774  32.636  27.300  1.00  0.00     0.116 C 
BRANCH  26  27
ATOM     27  N   UNL A   1      32.428  34.014  27.603  1.00  0.00    -0.352 N 
ATOM     28  C   UNL A   1      32.992  34.847  28.534  1.00  0.00     0.251 C 
ATOM     29  H   UNL A   1      31.694  34.399  27.072  1.00  0.00     0.163 HD
ATOM     30  O   UNL A   1      32.525  35.962  28.746  1.00  0.00    -0.269 OA
BRANCH  28  31
ATOM     31  C   UNL A   1      34.146  34.362  29.309  1.00  0.00     0.039 A 
ATOM     32  C   UNL A   1      33.910  33.707  30.518  1.00  0.00     0.014 A 
ATOM     33  C   UNL A   1      35.443  34.491  28.804  1.00  0.00     0.014 A 
ATOM     34  C   UNL A   1      34.977  33.127  31.200  1.00  0.00     0.010 A 
ATOM     35  C   UNL A   1      36.493  33.843  29.445  1.00  0.00     0.010 A 
ATOM     36  C   UNL A   1      36.270  33.161  30.652  1.00  0.00    -0.014 A 
BRANCH  36  37
ATOM     37  C   UNL A   1      37.404  32.493  31.336  1.00  0.00     0.031 A 
ATOM     38  C   UNL A   1      38.102  31.340  30.674  1.00  0.00     0.074 A 
ATOM     39  C   UNL A   1      37.769  32.895  32.568  1.00  0.00     0.049 A 
ATOM     40  N   UNL A   1      39.080  30.596  31.123  1.00  0.00    -0.248 NA
ATOM     41  C   UNL A   1      37.616  30.951  29.340  1.00  0.00     0.031 C 
ATOM     42  C   UNL A   1      37.130  33.968  33.331  1.00  0.00     0.029 A 
ATOM     43  N   UNL A   1      38.761  32.441  33.399  1.00  0.00    -0.354 N 
ATOM     44  C   UNL A   1      39.319  29.651  30.135  1.00  0.00     0.074 A 
ATOM     45  C   UNL A   1      38.341  29.872  29.092  1.00  0.00     0.031 C 
ATOM     46  C   UNL A   1      37.761  34.107  34.508  1.00  0.00     0.029 A 
ATOM     47  C   UNL A   1      38.823  33.109  34.598  1.00  0.00     0.049 A 
ATOM     48  H   UNL A   1      39.371  31.707  33.160  1.00  0.00     0.167 HD
ATOM     49  C   UNL A   1      40.285  28.705  30.087  1.00  0.00     0.037 A 
ATOM     50  C   UNL A   1      39.641  32.930  35.653  1.00  0.00     0.037 A 
ATOM     51  C   UNL A   1      41.264  28.502  31.123  1.00  0.00     0.049 A 
ATOM     52  C   UNL A   1      40.700  31.862  35.581  1.00  0.00     0.074 A 
ATOM     53  C   UNL A   1      42.316  27.605  31.152  1.00  0.00     0.029 A 
ATOM     54  N   UNL A   1      41.307  29.209  32.317  1.00  0.00    -0.354 N 
ATOM     55  N   UNL A   1      40.964  31.021  34.610  1.00  0.00    -0.248 NA
ATOM     56  C   UNL A   1      41.581  31.725  36.748  1.00  0.00     0.031 C 
ATOM     57  C   UNL A   1      42.965  27.733  32.385  1.00  0.00     0.029 A 
ATOM     58  C   UNL A   1      42.353  28.751  33.099  1.00  0.00     0.049 A 
ATOM     59  H   UNL A   1      40.684  29.928  32.570  1.00  0.00     0.167 HD
ATOM     60  C   UNL A   1      42.055  30.276  35.035  1.00  0.00     0.074 A 
ATOM     61  C   UNL A   1      42.415  30.777  36.346  1.00  0.00     0.031 C 
ATOM     62  C   UNL A   1      42.700  29.267  34.400  1.00  0.00     0.037 A 
BRANCH  49  63
ATOM     63  C   UNL A   1      40.328  27.820  28.875  1.00  0.00     0.064 A 
ATOM     64  C   UNL A   1      39.620  26.609  28.821  1.00  0.00     0.173 A 
ATOM     65  C   UNL A   1      41.067  28.195  27.743  1.00  0.00     0.173 A 
ATOM     66  F   UNL A   1      38.908  26.196  29.881  1.00  0.00    -0.203 F 
ATOM     67  C   UNL A   1      39.678  25.793  27.695  1.00  0.00     0.198 A 
ATOM     68  C   UNL A   1      41.095  27.393  26.606  1.00  0.00     0.198 A 
ATOM     69  F   UNL A   1      41.760  29.344  27.737  1.00  0.00    -0.203 F 
ATOM     70  F   UNL A   1      39.040  24.614  27.690  1.00  0.00    -0.200 F 
ATOM     71  C   UNL A   1      40.409  26.188  26.586  1.00  0.00     0.200 A 
ATOM     72  F   UNL A   1      41.791  27.783  25.529  1.00  0.00    -0.200 F 
ATOM     73  F   UNL A   1      40.459  25.405  25.500  1.00  0.00    -0.200 F 
ENDBRANCH  49  63
BRANCH  50  74
ATOM     74  C   UNL A   1      39.503  33.792  36.855  1.00  0.00     0.064 A 
ATOM     75  C   UNL A   1      38.726  33.388  37.950  1.00  0.00     0.173 A 
ATOM     76  C   UNL A   1      40.141  35.039  36.935  1.00  0.00     0.173 A 
ATOM     77  F   UNL A   1      38.081  32.213  37.914  1.00  0.00    -0.203 F 
ATOM     78  C   UNL A   1      38.575  34.205  39.068  1.00  0.00     0.198 A 
ATOM     79  C   UNL A   1      40.013  35.843  38.066  1.00  0.00     0.198 A 
ATOM     80  F   UNL A   1      40.900  35.471  35.917  1.00  0.00    -0.203 F 
ATOM     81  F   UNL A   1      37.788  33.814  40.079  1.00  0.00    -0.200 F 
ATOM     82  C   UNL A   1      39.224  35.430  39.128  1.00  0.00     0.200 A 
ATOM     83  F   UNL A   1      40.655  37.018  38.126  1.00  0.00    -0.200 F 
ATOM     84  F   UNL A   1      39.081  36.214  40.204  1.00  0.00    -0.200 F 
ENDBRANCH  50  74
BRANCH  62  85
ATOM     85  C   UNL A   1      43.885  28.661  35.096  1.00  0.00     0.064 A 
ATOM     86  C   UNL A   1      43.758  27.543  35.932  1.00  0.00     0.173 A 
ATOM     87  C   UNL A   1      45.171  29.183  34.888  1.00  0.00     0.173 A 
ATOM     88  F   UNL A   1      42.549  27.015  36.174  1.00  0.00    -0.203 F 
ATOM     89  C   UNL A   1      44.871  26.986  36.557  1.00  0.00     0.198 A 
ATOM     90  C   UNL A   1      46.286  28.603  35.487  1.00  0.00     0.198 A 
ATOM     91  F   UNL A   1      45.349  30.248  34.091  1.00  0.00    -0.203 F 
ATOM     92  F   UNL A   1      44.719  25.949  37.391  1.00  0.00    -0.200 F 
ATOM     93  C   UNL A   1      46.134  27.511  36.326  1.00  0.00     0.200 A 
ATOM     94  F   UNL A   1      47.507  29.102  35.250  1.00  0.00    -0.200 F 
ATOM     95  F   UNL A   1      47.205  26.967  36.921  1.00  0.00    -0.200 F 
ENDBRANCH  62  85
ENDBRANCH  36  37
ENDBRANCH  28  31
ENDBRANCH  26  27
ENDBRANCH  25  26
ENDBRANCH  24  25
ENDBRANCH   1  24
TORSDOF 17
ENDMDL
MODEL 2
REMARK VINA RESULT:     -11.5      0.941      2.275
REMARK SMILES CCC(CC)(CC(=O)Nc1cccc(OC)c1)C(=O)NCCCCNC(=O)c1ccc(-c2c3nc(c(-c4c(F)c(F)c(F)c(F)c4F)c4ccc([nH]4)c(-c4c(F)c(F)c(F)c(F)c4F)c4nc(c(-c5c(F)c(F)c(F)c(F)c5F)c5ccc2[nH]5)C=C4)C=C3)cc1
REMARK SMILES IDX 21 1 20 2 18 3 19 4 3 6 2 7 1 8 4 9 5 10 6 11 7 12 8 13 9 14
REMARK SMILES IDX 10 16 11 17 17 18 12 19 14 20 13 21 15 22 16 23 22 24 23 25
REMARK SMILES IDX 24 26 25 27 26 28 27 30 28 31 29 32 90 33 30 34 89 35 31 36
REMARK SMILES IDX 32 37 33 38 83 39 34 40 88 41 82 42 84 43 35 44 87 45 81 46
REMARK SMILES IDX 80 47 36 49 68 50 48 51 67 52 49 53 52 54 66 55 85 56 50 57
REMARK SMILES IDX 51 58 65 60 86 61 53 62 37 63 38 64 46 65 39 66 40 67 44 68
REMARK SMILES IDX 47 69 41 70 42 71 45 72 43 73 69 74 70 75 78 76 71 77 72 78
REMARK SMILES IDX 76 79 79 80 73 81 74 82 77 83 75 84 54 85 55 86 63 87 56 88
REMARK SMILES IDX 57 89 61 90 64 91 58 92 59 93 62 94 60 95
REMARK H PARENT 20 5 9 15 25 29 84 48 52 59
REMARK Flexibility Score: inf
ROOT
ATOM      1  C   UNL A   1      32.372  30.025  25.261  1.00  0.00     0.116 C 
ENDROOT
BRANCH   1   2
ATOM      2  N   UNL A   1      31.287  29.689  24.367  1.00  0.00    -0.356 N 
ATOM      3  C   UNL A   1      31.119  28.589  23.602  1.00  0.00     0.226 C 
ATOM      4  O   UNL A   1      30.621  28.789  22.491  1.00  0.00    -0.274 OA
ATOM      5  H   UNL A   1      30.567  30.359  24.308  1.00  0.00     0.163 HD
BRANCH   3   6
ATOM      6  C   UNL A   1      31.439  27.179  24.122  1.00  0.00     0.057 C 
BRANCH   6   7
ATOM      7  C   UNL A   1      30.640  26.228  23.203  1.00  0.00     0.014 C 
ATOM      8  C   UNL A   1      30.200  24.853  23.692  1.00  0.00     0.005 C 
ENDBRANCH   6   7
BRANCH   6   9
ATOM      9  C   UNL A   1      30.929  26.942  25.597  1.00  0.00     0.014 C 
ATOM     10  C   UNL A   1      31.982  26.569  26.640  1.00  0.00     0.005 C 
ENDBRANCH   6   9
BRANCH   6  11
ATOM     11  C   UNL A   1      32.961  26.853  23.988  1.00  0.00     0.117 C 
BRANCH  11  12
ATOM     12  C   UNL A   1      33.526  26.399  22.640  1.00  0.00     0.225 C 
ATOM     13  O   UNL A   1      33.744  27.233  21.755  1.00  0.00    -0.275 OA
ATOM     14  N   UNL A   1      34.024  25.124  22.473  1.00  0.00    -0.326 N 
ATOM     15  H   UNL A   1      34.649  25.041  21.716  1.00  0.00     0.169 HD
BRANCH  14  16
ATOM     16  C   UNL A   1      33.813  23.916  23.171  1.00  0.00     0.044 A 
ATOM     17  C   UNL A   1      32.953  22.963  22.626  1.00  0.00     0.026 A 
ATOM     18  C   UNL A   1      34.303  23.678  24.454  1.00  0.00     0.072 A 
ATOM     19  C   UNL A   1      32.707  21.759  23.302  1.00  0.00     0.006 A 
ATOM     20  C   UNL A   1      34.137  22.453  25.104  1.00  0.00     0.120 A 
ATOM     21  C   UNL A   1      33.321  21.495  24.527  1.00  0.00     0.046 A 
BRANCH  20  22
ATOM     22  O   UNL A   1      34.646  22.160  26.340  1.00  0.00    -0.497 OA
ATOM     23  C   UNL A   1      33.823  22.560  27.435  1.00  0.00     0.278 C 
ENDBRANCH  20  22
ENDBRANCH  14  16
ENDBRANCH  11  12
ENDBRANCH   6  11
ENDBRANCH   3   6
ENDBRANCH   1   2
BRANCH   1  24
ATOM     24  C   UNL A   1      31.813  30.471  26.608  1.00  0.00     0.023 C 
BRANCH  24  25
ATOM     25  C   UNL A   1      31.603  31.984  26.744  1.00  0.00     0.023 C 
BRANCH  25  26
ATOM     26  C   UNL A   1      32.746  32.747  27.402  1.00  0.00     0.116 C 
BRANCH  26  27
ATOM     27  N   UNL A   1      32.418  34.136  27.673  1.00  0.00    -0.352 N 
ATOM     28  C   UNL A   1      33.005  34.988  28.573  1.00  0.00     0.251 C 
ATOM     29  H   UNL A   1      31.680  34.514  27.144  1.00  0.00     0.163 HD
ATOM     30  O   UNL A   1      32.553  36.113  28.763  1.00  0.00    -0.269 OA
BRANCH  28  31
ATOM     31  C   UNL A   1      34.167  34.511  29.342  1.00  0.00     0.039 A 
ATOM     32  C   UNL A   1      33.946  33.923  30.587  1.00  0.00     0.014 A 
ATOM     33  C   UNL A   1      35.454  34.582  28.800  1.00  0.00     0.014 A 
ATOM     34  C   UNL A   1      35.017  33.349  31.270  1.00  0.00     0.010 A 
ATOM     35  C   UNL A   1      36.503  33.940  29.445  1.00  0.00     0.010 A 
ATOM     36  C   UNL A   1      36.296  33.323  30.689  1.00  0.00    -0.014 A 
BRANCH  36  37
ATOM     37  C   UNL A   1      37.430  32.661  31.377  1.00  0.00     0.031 A 
ATOM     38  C   UNL A   1      38.143  31.518  30.712  1.00  0.00     0.074 A 
ATOM     39  C   UNL A   1      37.782  33.058  32.615  1.00  0.00     0.049 A 
ATOM     40  N   UNL A   1      39.125  30.780  31.164  1.00  0.00    -0.248 NA
ATOM     41  C   UNL A   1      37.671  31.135  29.373  1.00  0.00     0.031 C 
ATOM     42  C   UNL A   1      37.129  34.120  33.380  1.00  0.00     0.029 A 
ATOM     43  N   UNL A   1      38.773  32.606  33.450  1.00  0.00    -0.354 N 
ATOM     44  C   UNL A   1      39.379  29.845  30.171  1.00  0.00     0.074 A 
ATOM     45  C   UNL A   1      38.407  30.064  29.123  1.00  0.00     0.031 C 
ATOM     46  C   UNL A   1      37.750  34.256  34.563  1.00  0.00     0.029 A 
ATOM     47  C   UNL A   1      38.820  33.267  34.654  1.00  0.00     0.049 A 
ATOM     48  H   UNL A   1      39.391  31.879  33.211  1.00  0.00     0.167 HD
ATOM     49  C   UNL A   1      40.354  28.907  30.124  1.00  0.00     0.037 A 
ATOM     50  C   UNL A   1      39.631  33.088  35.714  1.00  0.00     0.037 A 
ATOM     51  C   UNL A   1      41.327  28.706  31.166  1.00  0.00     0.049 A 
ATOM     52  C   UNL A   1      40.700  32.030  35.642  1.00  0.00     0.074 A 
ATOM     53  C   UNL A   1      42.387  27.818  31.196  1.00  0.00     0.029 A 
ATOM     54  N   UNL A   1      41.355  29.405  32.365  1.00  0.00    -0.354 N 
ATOM     55  N   UNL A   1      40.979  31.198  34.668  1.00  0.00    -0.248 NA
ATOM     56  C   UNL A   1      41.574  31.893  36.815  1.00  0.00     0.031 C 
ATOM     57  C   UNL A   1      43.026  27.943  32.435  1.00  0.00     0.029 A 
ATOM     58  C   UNL A   1      42.399  28.951  33.152  1.00  0.00     0.049 A 
ATOM     59  H   UNL A   1      40.723  30.117  32.618  1.00  0.00     0.167 HD
ATOM     60  C   UNL A   1      42.074  30.460  35.096  1.00  0.00     0.074 A 
ATOM     61  C   UNL A   1      42.419  30.955  36.413  1.00  0.00     0.031 C 
ATOM     62  C   UNL A   1      42.733  29.461  34.458  1.00  0.00     0.037 A 
BRANCH  49  63
ATOM     63  C   UNL A   1      40.414  28.031  28.906  1.00  0.00     0.064 A 
ATOM     64  C   UNL A   1      41.162  28.393  27.776  1.00  0.00     0.173 A 
ATOM     65  C   UNL A   1      39.735  26.804  28.875  1.00  0.00     0.173 A 
ATOM     66  F   UNL A   1      41.821  29.561  27.747  1.00  0.00    -0.203 F 
ATOM     67  C   UNL A   1      41.201  27.576  26.648  1.00  0.00     0.198 A 
ATOM     68  C   UNL A   1      39.803  25.974  27.759  1.00  0.00     0.198 A 
ATOM     69  F   UNL A   1      39.007  26.406  29.930  1.00  0.00    -0.203 F 
ATOM     70  F   UNL A   1      41.876  27.971  25.559  1.00  0.00    -0.200 F 
ATOM     71  C   UNL A   1      40.528  26.365  26.643  1.00  0.00     0.200 A 
ATOM     72  F   UNL A   1      39.162  24.796  27.761  1.00  0.00    -0.200 F 
ATOM     73  F   UNL A   1      40.570  25.577  25.561  1.00  0.00    -0.200 F 
ENDBRANCH  49  63
BRANCH  50  74
ATOM     74  C   UNL A   1      39.477  33.941  36.921  1.00  0.00     0.064 A 
ATOM     75  C   UNL A   1      40.076  35.206  36.992  1.00  0.00     0.173 A 
ATOM     76  C   UNL A   1      38.732  33.511  38.028  1.00  0.00     0.173 A 
ATOM     77  F   UNL A   1      40.815  35.655  35.967  1.00  0.00    -0.203 F 
ATOM     78  C   UNL A   1      39.955  35.999  38.131  1.00  0.00     0.198 A 
ATOM     79  C   UNL A   1      38.585  34.316  39.156  1.00  0.00     0.198 A 
ATOM     80  F   UNL A   1      38.133  32.311  38.010  1.00  0.00    -0.203 F 
ATOM     81  F   UNL A   1      40.577  37.183  38.191  1.00  0.00    -0.200 F 
ATOM     82  C   UNL A   1      39.204  35.555  39.210  1.00  0.00     0.200 A 
ATOM     83  F   UNL A   1      37.846  33.891  40.189  1.00  0.00    -0.200 F 
ATOM     84  F   UNL A   1      39.084  36.319  40.304  1.00  0.00    -0.200 F 
ENDBRANCH  50  74
BRANCH  62  85
ATOM     85  C   UNL A   1      43.918  28.861  35.159  1.00  0.00     0.064 A 
ATOM     86  C   UNL A   1      45.213  29.370  34.988  1.00  0.00     0.173 A 
ATOM     87  C   UNL A   1      43.746  27.787  36.046  1.00  0.00     0.173 A 
ATOM     88  F   UNL A   1      45.432  30.387  34.141  1.00  0.00    -0.203 F 
ATOM     89  C   UNL A   1      46.297  28.809  35.658  1.00  0.00     0.198 A 
ATOM     90  C   UNL A   1      44.826  27.251  36.740  1.00  0.00     0.198 A 
ATOM     91  F   UNL A   1      42.526  27.267  36.251  1.00  0.00    -0.203 F 
ATOM     92  F   UNL A   1      47.532  29.280  35.442  1.00  0.00    -0.200 F 
ATOM     93  C   UNL A   1      46.101  27.757  36.540  1.00  0.00     0.200 A 
ATOM     94  F   UNL A   1      44.633  26.244  37.603  1.00  0.00    -0.200 F 
ATOM     95  F   UNL A   1      47.144  27.225  37.191  1.00  0.00    -0.200 F 
ENDBRANCH  62  85
ENDBRANCH  36  37
ENDBRANCH  28  31
ENDBRANCH  26  27
ENDBRANCH  25  26
ENDBRANCH  24  25
ENDBRANCH   1  24
TORSDOF 17
ENDMDL
MODEL 3
REMARK VINA RESULT:     -11.5      1.038      7.388
REMARK SMILES CCC(CC)(CC(=O)Nc1cccc(OC)c1)C(=O)NCCCCNC(=O)c1ccc(-c2c3nc(c(-c4c(F)c(F)c(F)c(F)c4F)c4ccc([nH]4)c(-c4c(F)c(F)c(F)c(F)c4F)c4nc(c(-c5c(F)c(F)c(F)c(F)c5F)c5ccc2[nH]5)C=C4)C=C3)cc1
REMARK SMILES IDX 21 1 20 2 18 3 19 4 3 6 2 7 1 8 4 9 5 10 6 11 7 12 8 13 9 14
REMARK SMILES IDX 10 16 11 17 17 18 12 19 14 20 13 21 15 22 16 23 22 24 23 25
REMARK SMILES IDX 24 26 25 27 26 28 27 30 28 31 29 32 90 33 30 34 89 35 31 36
REMARK SMILES IDX 32 37 33 38 83 39 34 40 88 41 82 42 84 43 35 44 87 45 81 46
REMARK SMILES IDX 80 47 36 49 68 50 48 51 67 52 49 53 52 54 66 55 85 56 50 57
REMARK SMILES IDX 51 58 65 60 86 61 53 62 37 63 38 64 46 65 39 66 40 67 44 68
REMARK SMILES IDX 47 69 41 70 42 71 45 72 43 73 69 74 70 75 78 76 71 77 72 78
REMARK SMILES IDX 76 79 79 80 73 81 74 82 77 83 75 84 54 85 55 86 63 87 56 88
REMARK SMILES IDX 57 89 61 90 64 91 58 92 59 93 62 94 60 95
REMARK H PARENT 20 5 9 15 25 29 84 48 52 59
REMARK Flexibility Score: inf
ROOT
ATOM      1  C   UNL A   1      31.236  29.523  24.870  1.00  0.00     0.116 C 
ENDROOT
BRANCH   1   2
ATOM      2  N   UNL A   1      32.102  29.540  23.712  1.00  0.00    -0.356 N 
ATOM      3  C   UNL A   1      32.949  28.587  23.264  1.00  0.00     0.226 C 
ATOM      4  O   UNL A   1      34.013  29.004  22.799  1.00  0.00    -0.274 OA
ATOM      5  H   UNL A   1      32.068  30.363  23.173  1.00  0.00     0.163 HD
BRANCH   3   6
ATOM      6  C   UNL A   1      32.567  27.099  23.250  1.00  0.00     0.057 C 
BRANCH   6   7
ATOM      7  C   UNL A   1      31.133  27.064  22.678  1.00  0.00     0.014 C 
ATOM      8  C   UNL A   1      29.974  26.517  23.502  1.00  0.00     0.005 C 
ENDBRANCH   6   7
BRANCH   6   9
ATOM      9  C   UNL A   1      32.508  26.472  24.698  1.00  0.00     0.014 C 
ATOM     10  C   UNL A   1      33.845  26.144  25.362  1.00  0.00     0.005 C 
ENDBRANCH   6   9
BRANCH   6  11
ATOM     11  C   UNL A   1      33.508  26.277  22.312  1.00  0.00     0.117 C 
BRANCH  11  12
ATOM     12  C   UNL A   1      32.907  25.286  21.313  1.00  0.00     0.225 C 
ATOM     13  O   UNL A   1      32.745  25.624  20.137  1.00  0.00    -0.275 OA
ATOM     14  N   UNL A   1      32.770  23.951  21.634  1.00  0.00    -0.326 N 
ATOM     15  H   UNL A   1      32.703  23.362  20.849  1.00  0.00     0.169 HD
BRANCH  14  16
ATOM     16  C   UNL A   1      32.706  23.266  22.866  1.00  0.00     0.044 A 
ATOM     17  C   UNL A   1      31.492  23.219  23.550  1.00  0.00     0.026 A 
ATOM     18  C   UNL A   1      33.828  22.754  23.516  1.00  0.00     0.072 A 
ATOM     19  C   UNL A   1      31.397  22.562  24.786  1.00  0.00     0.006 A 
ATOM     20  C   UNL A   1      33.737  22.024  24.703  1.00  0.00     0.120 A 
ATOM     21  C   UNL A   1      32.513  21.942  25.346  1.00  0.00     0.046 A 
BRANCH  20  22
ATOM     22  O   UNL A   1      34.805  21.460  25.346  1.00  0.00    -0.497 OA
ATOM     23  C   UNL A   1      35.060  20.099  25.001  1.00  0.00     0.278 C 
ENDBRANCH  20  22
ENDBRANCH  14  16
ENDBRANCH  11  12
ENDBRANCH   6  11
ENDBRANCH   3   6
ENDBRANCH   1   2
BRANCH   1  24
ATOM     24  C   UNL A   1      32.004  30.009  26.096  1.00  0.00     0.023 C 
BRANCH  24  25
ATOM     25  C   UNL A   1      31.694  31.452  26.512  1.00  0.00     0.023 C 
BRANCH  25  26
ATOM     26  C   UNL A   1      32.885  32.256  27.020  1.00  0.00     0.116 C 
BRANCH  26  27
ATOM     27  N   UNL A   1      32.530  33.610  27.409  1.00  0.00    -0.352 N 
ATOM     28  C   UNL A   1      33.091  34.388  28.388  1.00  0.00     0.251 C 
ATOM     29  H   UNL A   1      31.792  34.022  26.905  1.00  0.00     0.163 HD
ATOM     30  O   UNL A   1      32.618  35.485  28.670  1.00  0.00    -0.269 OA
BRANCH  28  31
ATOM     31  C   UNL A   1      34.251  33.864  29.129  1.00  0.00     0.039 A 
ATOM     32  C   UNL A   1      34.027  32.955  30.163  1.00  0.00     0.014 A 
ATOM     33  C   UNL A   1      35.551  34.215  28.751  1.00  0.00     0.014 A 
ATOM     34  C   UNL A   1      35.115  32.350  30.787  1.00  0.00     0.010 A 
ATOM     35  C   UNL A   1      36.630  33.551  29.320  1.00  0.00     0.010 A 
ATOM     36  C   UNL A   1      36.423  32.617  30.348  1.00  0.00    -0.014 A 
BRANCH  36  37
ATOM     37  C   UNL A   1      37.586  31.932  30.962  1.00  0.00     0.031 A 
ATOM     38  C   UNL A   1      38.049  32.330  32.334  1.00  0.00     0.074 A 
ATOM     39  C   UNL A   1      38.250  30.991  30.263  1.00  0.00     0.049 A 
ATOM     40  N   UNL A   1      39.069  31.886  33.025  1.00  0.00    -0.248 NA
ATOM     41  C   UNL A   1      37.281  33.387  33.009  1.00  0.00     0.031 C 
ATOM     42  C   UNL A   1      37.924  30.560  28.903  1.00  0.00     0.029 A 
ATOM     43  N   UNL A   1      39.343  30.232  30.600  1.00  0.00    -0.354 N 
ATOM     44  C   UNL A   1      39.067  32.615  34.206  1.00  0.00     0.074 A 
ATOM     45  C   UNL A   1      37.989  33.574  34.112  1.00  0.00     0.031 C 
ATOM     46  C   UNL A   1      38.783  29.598  28.529  1.00  0.00     0.029 A 
ATOM     47  C   UNL A   1      39.740  29.370  29.608  1.00  0.00     0.049 A 
ATOM     48  H   UNL A   1      39.798  30.299  31.470  1.00  0.00     0.167 HD
ATOM     49  C   UNL A   1      39.874  32.476  35.284  1.00  0.00     0.037 A 
ATOM     50  C   UNL A   1      40.767  28.499  29.571  1.00  0.00     0.037 A 
ATOM     51  C   UNL A   1      40.935  31.508  35.375  1.00  0.00     0.049 A 
ATOM     52  C   UNL A   1      41.658  28.372  30.779  1.00  0.00     0.074 A 
ATOM     53  C   UNL A   1      41.779  31.251  36.440  1.00  0.00     0.029 A 
ATOM     54  N   UNL A   1      41.300  30.639  34.356  1.00  0.00    -0.354 N 
ATOM     55  N   UNL A   1      41.603  29.015  31.920  1.00  0.00    -0.248 NA
ATOM     56  C   UNL A   1      42.747  27.390  30.696  1.00  0.00     0.031 C 
ATOM     57  C   UNL A   1      42.687  30.261  36.048  1.00  0.00     0.029 A 
ATOM     58  C   UNL A   1      42.371  29.861  34.759  1.00  0.00     0.049 A 
ATOM     59  H   UNL A   1      40.861  30.585  33.475  1.00  0.00     0.167 HD
ATOM     60  C   UNL A   1      42.629  28.499  32.700  1.00  0.00     0.074 A 
ATOM     61  C   UNL A   1      43.280  27.476  31.906  1.00  0.00     0.031 C 
ATOM     62  C   UNL A   1      43.001  28.841  33.957  1.00  0.00     0.037 A 
BRANCH  49  63
ATOM     63  C   UNL A   1      39.636  33.393  36.449  1.00  0.00     0.064 A 
ATOM     64  C   UNL A   1      40.249  34.652  36.533  1.00  0.00     0.173 A 
ATOM     65  C   UNL A   1      38.767  33.019  37.485  1.00  0.00     0.173 A 
ATOM     66  F   UNL A   1      41.100  35.054  35.576  1.00  0.00    -0.203 F 
ATOM     67  C   UNL A   1      40.028  35.488  37.625  1.00  0.00     0.198 A 
ATOM     68  C   UNL A   1      38.522  33.871  38.558  1.00  0.00     0.198 A 
ATOM     69  F   UNL A   1      38.150  31.828  37.455  1.00  0.00    -0.203 F 
ATOM     70  F   UNL A   1      40.671  36.661  37.709  1.00  0.00    -0.200 F 
ATOM     71  C   UNL A   1      39.160  35.100  38.632  1.00  0.00     0.200 A 
ATOM     72  F   UNL A   1      37.671  33.501  39.526  1.00  0.00    -0.200 F 
ATOM     73  F   UNL A   1      38.943  35.908  39.679  1.00  0.00    -0.200 F 
ENDBRANCH  49  63
BRANCH  50  74
ATOM     74  C   UNL A   1      40.994  27.668  28.361  1.00  0.00     0.064 A 
ATOM     75  C   UNL A   1      40.374  26.420  28.215  1.00  0.00     0.173 A 
ATOM     76  C   UNL A   1      41.836  28.101  27.325  1.00  0.00     0.173 A 
ATOM     77  F   UNL A   1      39.575  25.952  29.186  1.00  0.00    -0.203 F 
ATOM     78  C   UNL A   1      40.604  25.626  27.093  1.00  0.00     0.198 A 
ATOM     79  C   UNL A   1      42.042  27.321  26.189  1.00  0.00     0.198 A 
ATOM     80  F   UNL A   1      42.449  29.291  27.412  1.00  0.00    -0.203 F 
ATOM     81  F   UNL A   1      40.036  24.417  27.002  1.00  0.00    -0.200 F 
ATOM     82  C   UNL A   1      41.433  26.081  26.078  1.00  0.00     0.200 A 
ATOM     83  F   UNL A   1      42.831  27.771  25.204  1.00  0.00    -0.200 F 
ATOM     84  F   UNL A   1      41.650  25.320  24.997  1.00  0.00    -0.200 F 
ENDBRANCH  50  74
BRANCH  62  85
ATOM     85  C   UNL A   1      44.141  28.079  34.570  1.00  0.00     0.064 A 
ATOM     86  C   UNL A   1      43.937  26.877  35.263  1.00  0.00     0.173 A 
ATOM     87  C   UNL A   1      45.459  28.538  34.424  1.00  0.00     0.173 A 
ATOM     88  F   UNL A   1      42.696  26.402  35.441  1.00  0.00    -0.203 F 
ATOM     89  C   UNL A   1      45.009  26.177  35.811  1.00  0.00     0.198 A 
ATOM     90  C   UNL A   1      46.531  27.818  34.944  1.00  0.00     0.198 A 
ATOM     91  F   UNL A   1      45.709  29.679  33.764  1.00  0.00    -0.203 F 
ATOM     92  F   UNL A   1      44.787  25.057  36.512  1.00  0.00    -0.200 F 
ATOM     93  C   UNL A   1      46.304  26.644  35.643  1.00  0.00     0.200 A 
ATOM     94  F   UNL A   1      47.782  28.263  34.767  1.00  0.00    -0.200 F 
ATOM     95  F   UNL A   1      47.335  25.963  36.163  1.00  0.00    -0.200 F 
ENDBRANCH  62  85
ENDBRANCH  36  37
ENDBRANCH  28  31
ENDBRANCH  26  27
ENDBRANCH  25  26
ENDBRANCH  24  25
ENDBRANCH   1  24
TORSDOF 17
ENDMDL
