MODEL 1
REMARK VINA RESULT:     -12.1      0.000      0.000
REMARK SMILES CCCN1CCC[C@@]2(CCN(c3ccc(C(=O)NCCCCNC(=O)c4ccc(-c5c6nc(c(-c7c(F)c(F)c(F)c(F)c7F)c7ccc([nH]7)c(-c7c(F)c(F)c(F)c(F)c7F)c7nc(c(-c8c(F)c(F)c(F)c(F)c8F)c8ccc5[nH]8)C=C7)C=C6)cc4)cn3)C2)C1=O
REMARK SMILES IDX 20 1 19 2 18 3 16 4 17 5 15 7 12 8 13 9 90 10 14 11 89 12
REMARK SMILES IDX 11 13 4 14 5 15 92 16 6 17 8 18 93 19 7 20 9 21 91 22 10 23
REMARK SMILES IDX 3 24 2 25 1 26 21 27 22 28 23 29 24 30 25 32 26 33 27 34
REMARK SMILES IDX 88 35 28 36 87 37 29 38 30 39 31 40 81 41 32 42 86 43 80 44
REMARK SMILES IDX 82 45 33 46 85 47 79 48 78 49 34 51 66 52 46 53 65 54 47 55
REMARK SMILES IDX 50 56 64 57 83 58 48 59 49 60 63 62 84 63 51 64 35 65 36 66
REMARK SMILES IDX 44 67 37 68 38 69 42 70 45 71 39 72 40 73 43 74 41 75 67 76
REMARK SMILES IDX 68 77 76 78 69 79 70 80 74 81 77 82 71 83 72 84 75 85 73 86
REMARK SMILES IDX 52 87 53 88 61 89 54 90 55 91 59 92 62 93 56 94 57 95 60 96
REMARK SMILES IDX 58 97
REMARK H PARENT 18 6 23 31 82 50 50 61
REMARK Flexibility Score: inf
ROOT
ATOM      1  C   UNL A   1      34.279  33.361  29.163  1.00  0.00     0.023 C 
ENDROOT
BRANCH   1   2
ATOM      2  C   UNL A   1      34.893  32.647  27.955  1.00  0.00     0.116 C 
BRANCH   2   3
ATOM      3  N   UNL A   1      35.602  31.451  28.361  1.00  0.00    -0.352 N 
ATOM      4  C   UNL A   1      35.448  30.128  28.027  1.00  0.00     0.252 C 
ATOM      5  O   UNL A   1      36.252  29.330  28.511  1.00  0.00    -0.269 OA
ATOM      6  H   UNL A   1      36.334  31.618  28.998  1.00  0.00     0.163 HD
BRANCH   4   7
ATOM      7  C   UNL A   1      34.397  29.620  27.107  1.00  0.00     0.058 A 
ATOM      8  C   UNL A   1      32.606  28.456  25.321  1.00  0.00     0.128 A 
ATOM      9  C   UNL A   1      32.335  29.702  25.867  1.00  0.00     0.048 A 
ATOM     10  N   UNL A   1      33.711  27.771  25.667  1.00  0.00    -0.239 NA
ATOM     11  C   UNL A   1      33.210  30.265  26.788  1.00  0.00     0.019 A 
ATOM     12  C   UNL A   1      34.583  28.367  26.528  1.00  0.00     0.127 A 
BRANCH   8  13
ATOM     13  N   UNL A   1      31.700  27.934  24.432  1.00  0.00    -0.356 N 
ATOM     14  N   UNL A   1      28.191  29.777  22.627  1.00  0.00    -0.342 N 
ATOM     15  C   UNL A   1      26.997  28.962  22.785  1.00  0.00     0.119 C 
ATOM     16  C   UNL A   1      29.392  29.128  22.340  1.00  0.00     0.230 C 
ATOM     17  C   UNL A   1      27.223  27.933  23.877  1.00  0.00     0.023 C 
ATOM     18  C   UNL A   1      29.668  27.882  23.190  1.00  0.00     0.069 C 
ATOM     19  O   UNL A   1      30.240  29.620  21.596  1.00  0.00    -0.274 OA
ATOM     20  C   UNL A   1      28.404  27.054  23.477  1.00  0.00     0.021 C 
ATOM     21  C   UNL A   1      30.772  27.010  22.552  1.00  0.00     0.040 C 
ATOM     22  C   UNL A   1      30.317  28.394  24.503  1.00  0.00     0.135 C 
ATOM     23  C   UNL A   1      32.074  27.624  23.069  1.00  0.00     0.119 C 
BRANCH  14  24
ATOM     24  C   UNL A   1      28.169  31.232  22.479  1.00  0.00     0.119 C 
BRANCH  24  25
ATOM     25  C   UNL A   1      28.773  32.104  23.576  1.00  0.00     0.018 C 
ATOM     26  C   UNL A   1      29.131  33.514  23.127  1.00  0.00     0.006 C 
ENDBRANCH  24  25
ENDBRANCH  14  24
ENDBRANCH   8  13
ENDBRANCH   4   7
ENDBRANCH   2   3
ENDBRANCH   1   2
BRANCH   1  27
ATOM     27  C   UNL A   1      33.324  34.500  28.804  1.00  0.00     0.023 C 
BRANCH  27  28
ATOM     28  C   UNL A   1      33.548  35.790  29.582  1.00  0.00     0.116 C 
BRANCH  28  29
ATOM     29  N   UNL A   1      32.527  36.049  30.586  1.00  0.00    -0.352 N 
ATOM     30  C   UNL A   1      32.539  35.708  31.916  1.00  0.00     0.251 C 
ATOM     31  H   UNL A   1      31.726  36.527  30.272  1.00  0.00     0.163 HD
ATOM     32  O   UNL A   1      31.558  35.911  32.625  1.00  0.00    -0.269 OA
BRANCH  30  33
ATOM     33  C   UNL A   1      33.735  35.048  32.474  1.00  0.00     0.039 A 
ATOM     34  C   UNL A   1      33.605  33.764  33.009  1.00  0.00     0.014 A 
ATOM     35  C   UNL A   1      34.984  35.673  32.421  1.00  0.00     0.014 A 
ATOM     36  C   UNL A   1      34.745  33.077  33.429  1.00  0.00     0.010 A 
ATOM     37  C   UNL A   1      36.124  34.961  32.775  1.00  0.00     0.010 A 
ATOM     38  C   UNL A   1      36.015  33.655  33.280  1.00  0.00    -0.014 A 
BRANCH  38  39
ATOM     39  C   UNL A   1      37.246  32.910  33.640  1.00  0.00     0.031 A 
ATOM     40  C   UNL A   1      37.954  33.205  34.931  1.00  0.00     0.074 A 
ATOM     41  C   UNL A   1      37.762  32.022  32.770  1.00  0.00     0.049 A 
ATOM     42  N   UNL A   1      39.078  32.717  35.389  1.00  0.00    -0.248 NA
ATOM     43  C   UNL A   1      37.329  34.206  35.812  1.00  0.00     0.031 C 
ATOM     44  C   UNL A   1      37.195  31.690  31.462  1.00  0.00     0.029 A 
ATOM     45  N   UNL A   1      38.891  31.245  32.849  1.00  0.00    -0.354 N 
ATOM     46  C   UNL A   1      39.302  33.361  36.599  1.00  0.00     0.074 A 
ATOM     47  C   UNL A   1      38.227  34.312  36.779  1.00  0.00     0.031 C 
ATOM     48  C   UNL A   1      37.966  30.762  30.871  1.00  0.00     0.029 A 
ATOM     49  C   UNL A   1      39.098  30.460  31.741  1.00  0.00     0.049 A 
ATOM     50  H   UNL A   1      39.494  31.248  33.628  1.00  0.00     0.167 HD
ATOM     51  C   UNL A   1      40.301  33.158  37.489  1.00  0.00     0.037 A 
ATOM     52  C   UNL A   1      40.093  29.598  31.459  1.00  0.00     0.037 A 
ATOM     53  C   UNL A   1      41.353  32.191  37.318  1.00  0.00     0.049 A 
ATOM     54  C   UNL A   1      41.189  29.388  32.468  1.00  0.00     0.074 A 
ATOM     55  C   UNL A   1      42.376  31.864  38.191  1.00  0.00     0.029 A 
ATOM     56  N   UNL A   1      41.515  31.395  36.194  1.00  0.00    -0.354 N 
ATOM     57  N   UNL A   1      41.352  29.948  33.642  1.00  0.00    -0.248 NA
ATOM     58  C   UNL A   1      42.235  28.417  32.117  1.00  0.00     0.031 C 
ATOM     59  C   UNL A   1      43.182  30.899  37.578  1.00  0.00     0.029 A 
ATOM     60  C   UNL A   1      42.634  30.589  36.343  1.00  0.00     0.049 A 
ATOM     61  H   UNL A   1      40.924  31.400  35.407  1.00  0.00     0.167 HD
ATOM     62  C   UNL A   1      42.499  29.382  34.180  1.00  0.00     0.074 A 
ATOM     63  C   UNL A   1      42.985  28.422  33.210  1.00  0.00     0.031 C 
ATOM     64  C   UNL A   1      43.097  29.633  35.370  1.00  0.00     0.037 A 
BRANCH  51  65
ATOM     65  C   UNL A   1      40.301  33.997  38.734  1.00  0.00     0.064 A 
ATOM     66  C   UNL A   1      40.986  35.220  38.794  1.00  0.00     0.173 A 
ATOM     67  C   UNL A   1      39.583  33.591  39.868  1.00  0.00     0.173 A 
ATOM     68  F   UNL A   1      41.699  35.648  37.741  1.00  0.00    -0.203 F 
ATOM     69  C   UNL A   1      40.978  35.990  39.954  1.00  0.00     0.198 A 
ATOM     70  C   UNL A   1      39.552  34.377  41.016  1.00  0.00     0.198 A 
ATOM     71  F   UNL A   1      38.907  32.432  39.862  1.00  0.00    -0.203 F 
ATOM     72  F   UNL A   1      41.682  37.130  40.005  1.00  0.00    -0.200 F 
ATOM     73  C   UNL A   1      40.256  35.572  41.061  1.00  0.00     0.200 A 
ATOM     74  F   UNL A   1      38.845  33.977  42.082  1.00  0.00    -0.200 F 
ATOM     75  F   UNL A   1      40.243  36.317  42.176  1.00  0.00    -0.200 F 
ENDBRANCH  51  65
BRANCH  52  76
ATOM     76  C   UNL A   1      40.084  28.848  30.177  1.00  0.00     0.064 A 
ATOM     77  C   UNL A   1      39.462  27.595  30.083  1.00  0.00     0.173 A 
ATOM     78  C   UNL A   1      40.695  29.362  29.024  1.00  0.00     0.173 A 
ATOM     79  F   UNL A   1      38.882  27.055  31.164  1.00  0.00    -0.203 F 
ATOM     80  C   UNL A   1      39.469  26.876  28.890  1.00  0.00     0.198 A 
ATOM     81  C   UNL A   1      40.678  28.653  27.825  1.00  0.00     0.198 A 
ATOM     82  F   UNL A   1      41.298  30.559  29.060  1.00  0.00    -0.203 F 
ATOM     83  F   UNL A   1      38.906  25.661  28.840  1.00  0.00    -0.200 F 
ATOM     84  C   UNL A   1      40.072  27.407  27.761  1.00  0.00     0.200 A 
ATOM     85  F   UNL A   1      41.250  29.176  26.732  1.00  0.00    -0.200 F 
ATOM     86  F   UNL A   1      40.076  26.716  26.613  1.00  0.00    -0.200 F 
ENDBRANCH  52  76
BRANCH  64  87
ATOM     87  C   UNL A   1      44.323  28.835  35.706  1.00  0.00     0.064 A 
ATOM     88  C   UNL A   1      44.239  27.601  36.364  1.00  0.00     0.173 A 
ATOM     89  C   UNL A   1      45.593  29.295  35.325  1.00  0.00     0.173 A 
ATOM     90  F   UNL A   1      43.049  27.127  36.762  1.00  0.00    -0.203 F 
ATOM     91  C   UNL A   1      45.386  26.865  36.651  1.00  0.00     0.198 A 
ATOM     92  C   UNL A   1      46.734  28.543  35.587  1.00  0.00     0.198 A 
ATOM     93  F   UNL A   1      45.725  30.467  34.687  1.00  0.00    -0.203 F 
ATOM     94  F   UNL A   1      45.287  25.709  37.321  1.00  0.00    -0.200 F 
ATOM     95  C   UNL A   1      46.631  27.332  36.255  1.00  0.00     0.200 A 
ATOM     96  F   UNL A   1      47.934  28.990  35.193  1.00  0.00    -0.200 F 
ATOM     97  F   UNL A   1      47.733  26.619  36.525  1.00  0.00    -0.200 F 
ENDBRANCH  64  87
ENDBRANCH  38  39
ENDBRANCH  30  33
ENDBRANCH  28  29
ENDBRANCH  27  28
ENDBRANCH   1  27
TORSDOF 14
ENDMDL
MODEL 2
REMARK VINA RESULT:     -12.0      6.313     10.891
REMARK SMILES CCCN1CCC[C@@]2(CCN(c3ccc(C(=O)NCCCCNC(=O)c4ccc(-c5c6nc(c(-c7c(F)c(F)c(F)c(F)c7F)c7ccc([nH]7)c(-c7c(F)c(F)c(F)c(F)c7F)c7nc(c(-c8c(F)c(F)c(F)c(F)c8F)c8ccc5[nH]8)C=C7)C=C6)cc4)cn3)C2)C1=O
REMARK SMILES IDX 20 1 19 2 18 3 16 4 17 5 15 7 12 8 13 9 90 10 14 11 89 12
REMARK SMILES IDX 11 13 4 14 5 15 92 16 6 17 8 18 93 19 7 20 9 21 91 22 10 23
REMARK SMILES IDX 3 24 2 25 1 26 21 27 22 28 23 29 24 30 25 32 26 33 27 34
REMARK SMILES IDX 88 35 28 36 87 37 29 38 30 39 31 40 81 41 32 42 86 43 80 44
REMARK SMILES IDX 82 45 33 46 85 47 79 48 78 49 34 51 66 52 46 53 65 54 47 55
REMARK SMILES IDX 50 56 64 57 83 58 48 59 49 60 63 62 84 63 51 64 35 65 36 66
REMARK SMILES IDX 44 67 37 68 38 69 42 70 45 71 39 72 40 73 43 74 41 75 67 76
REMARK SMILES IDX 68 77 76 78 69 79 70 80 74 81 77 82 71 83 72 84 75 85 73 86
REMARK SMILES IDX 52 87 53 88 61 89 54 90 55 91 59 92 62 93 56 94 57 95 60 96
REMARK SMILES IDX 58 97
REMARK H PARENT 18 6 23 31 82 50 50 61
REMARK Flexibility Score: inf
ROOT
ATOM      1  C   UNL A   1      37.014  20.972  25.035  1.00  0.00     0.023 C 
ENDROOT
BRANCH   1   2
ATOM      2  C   UNL A   1      35.614  20.363  24.913  1.00  0.00     0.116 C 
BRANCH   2   3
ATOM      3  N   UNL A   1      34.865  20.528  26.142  1.00  0.00    -0.352 N 
ATOM      4  C   UNL A   1      33.992  21.501  26.568  1.00  0.00     0.252 C 
ATOM      5  O   UNL A   1      33.466  21.338  27.669  1.00  0.00    -0.269 OA
ATOM      6  H   UNL A   1      35.007  19.807  26.797  1.00  0.00     0.163 HD
BRANCH   4   7
ATOM      7  C   UNL A   1      33.637  22.704  25.772  1.00  0.00     0.058 A 
ATOM      8  C   UNL A   1      32.760  24.803  24.166  1.00  0.00     0.128 A 
ATOM      9  C   UNL A   1      33.939  24.923  24.887  1.00  0.00     0.048 A 
ATOM     10  N   UNL A   1      32.001  23.696  24.254  1.00  0.00    -0.239 NA
ATOM     11  C   UNL A   1      34.356  23.890  25.719  1.00  0.00     0.019 A 
ATOM     12  C   UNL A   1      32.458  22.674  25.030  1.00  0.00     0.127 A 
BRANCH   8  13
ATOM     13  N   UNL A   1      32.381  25.860  23.376  1.00  0.00    -0.356 N 
ATOM     14  N   UNL A   1      31.164  29.886  24.505  1.00  0.00    -0.342 N 
ATOM     15  C   UNL A   1      29.902  30.272  23.896  1.00  0.00     0.119 C 
ATOM     16  C   UNL A   1      32.071  29.163  23.729  1.00  0.00     0.230 C 
ATOM     17  C   UNL A   1      29.177  29.035  23.398  1.00  0.00     0.023 C 
ATOM     18  C   UNL A   1      31.453  28.007  22.931  1.00  0.00     0.069 C 
ATOM     19  O   UNL A   1      33.287  29.323  23.822  1.00  0.00    -0.274 OA
ATOM     20  C   UNL A   1      30.061  28.339  22.367  1.00  0.00     0.021 C 
ATOM     21  C   UNL A   1      32.408  27.534  21.813  1.00  0.00     0.040 C 
ATOM     22  C   UNL A   1      31.395  26.798  23.901  1.00  0.00     0.135 C 
ATOM     23  C   UNL A   1      33.328  26.532  22.511  1.00  0.00     0.119 C 
BRANCH  14  24
ATOM     24  C   UNL A   1      31.659  30.433  25.768  1.00  0.00     0.119 C 
BRANCH  24  25
ATOM     25  C   UNL A   1      31.782  29.516  26.982  1.00  0.00     0.018 C 
ATOM     26  C   UNL A   1      33.194  29.009  27.242  1.00  0.00     0.006 C 
ENDBRANCH  24  25
ENDBRANCH  14  24
ENDBRANCH   8  13
ENDBRANCH   4   7
ENDBRANCH   2   3
ENDBRANCH   1   2
BRANCH   1  27
ATOM     27  C   UNL A   1      38.153  19.958  24.920  1.00  0.00     0.023 C 
BRANCH  27  28
ATOM     28  C   UNL A   1      39.369  20.263  25.787  1.00  0.00     0.116 C 
BRANCH  28  29
ATOM     29  N   UNL A   1      40.301  19.150  25.892  1.00  0.00    -0.352 N 
ATOM     30  C   UNL A   1      41.649  19.194  26.151  1.00  0.00     0.251 C 
ATOM     31  H   UNL A   1      39.918  18.253  25.761  1.00  0.00     0.163 HD
ATOM     32  O   UNL A   1      42.328  18.173  26.118  1.00  0.00    -0.269 OA
BRANCH  30  33
ATOM     33  C   UNL A   1      42.282  20.499  26.426  1.00  0.00     0.039 A 
ATOM     34  C   UNL A   1      42.707  21.278  25.347  1.00  0.00     0.014 A 
ATOM     35  C   UNL A   1      42.407  20.969  27.735  1.00  0.00     0.014 A 
ATOM     36  C   UNL A   1      43.195  22.564  25.580  1.00  0.00     0.010 A 
ATOM     37  C   UNL A   1      42.828  22.274  27.960  1.00  0.00     0.010 A 
ATOM     38  C   UNL A   1      43.224  23.085  26.884  1.00  0.00    -0.014 A 
BRANCH  38  39
ATOM     39  C   UNL A   1      43.659  24.478  27.145  1.00  0.00     0.031 A 
ATOM     40  C   UNL A   1      42.674  25.492  27.652  1.00  0.00     0.074 A 
ATOM     41  C   UNL A   1      44.922  24.844  26.856  1.00  0.00     0.049 A 
ATOM     42  N   UNL A   1      42.840  26.771  27.870  1.00  0.00    -0.248 NA
ATOM     43  C   UNL A   1      41.310  25.009  27.921  1.00  0.00     0.031 C 
ATOM     44  C   UNL A   1      45.955  23.963  26.309  1.00  0.00     0.029 A 
ATOM     45  N   UNL A   1      45.549  26.060  26.969  1.00  0.00    -0.354 N 
ATOM     46  C   UNL A   1      41.604  27.247  28.285  1.00  0.00     0.074 A 
ATOM     47  C   UNL A   1      40.683  26.131  28.238  1.00  0.00     0.031 C 
ATOM     48  C   UNL A   1      47.091  24.661  26.153  1.00  0.00     0.029 A 
ATOM     49  C   UNL A   1      46.859  26.044  26.557  1.00  0.00     0.049 A 
ATOM     50  H   UNL A   1      45.102  26.867  27.315  1.00  0.00     0.167 HD
ATOM     51  C   UNL A   1      41.272  28.495  28.692  1.00  0.00     0.037 A 
ATOM     52  C   UNL A   1      47.768  27.037  26.506  1.00  0.00     0.037 A 
ATOM     53  C   UNL A   1      42.199  29.594  28.763  1.00  0.00     0.049 A 
ATOM     54  C   UNL A   1      47.376  28.413  26.970  1.00  0.00     0.074 A 
ATOM     55  C   UNL A   1      41.978  30.880  29.223  1.00  0.00     0.029 A 
ATOM     56  N   UNL A   1      43.526  29.533  28.363  1.00  0.00    -0.354 N 
ATOM     57  N   UNL A   1      46.223  28.836  27.430  1.00  0.00    -0.248 NA
ATOM     58  C   UNL A   1      48.414  29.451  26.915  1.00  0.00     0.031 C 
ATOM     59  C   UNL A   1      43.160  31.610  29.062  1.00  0.00     0.029 A 
ATOM     60  C   UNL A   1      44.131  30.767  28.547  1.00  0.00     0.049 A 
ATOM     61  H   UNL A   1      43.971  28.733  28.001  1.00  0.00     0.167 HD
ATOM     62  C   UNL A   1      46.403  30.175  27.743  1.00  0.00     0.074 A 
ATOM     63  C   UNL A   1      47.782  30.494  27.436  1.00  0.00     0.031 C 
ATOM     64  C   UNL A   1      45.508  31.062  28.242  1.00  0.00     0.037 A 
BRANCH  51  65
ATOM     65  C   UNL A   1      39.848  28.736  29.096  1.00  0.00     0.064 A 
ATOM     66  C   UNL A   1      38.884  29.162  28.170  1.00  0.00     0.173 A 
ATOM     67  C   UNL A   1      39.433  28.511  30.417  1.00  0.00     0.173 A 
ATOM     68  F   UNL A   1      39.231  29.405  26.897  1.00  0.00    -0.203 F 
ATOM     69  C   UNL A   1      37.565  29.382  28.557  1.00  0.00     0.198 A 
ATOM     70  C   UNL A   1      38.107  28.703  30.795  1.00  0.00     0.198 A 
ATOM     71  F   UNL A   1      40.313  28.099  31.342  1.00  0.00    -0.203 F 
ATOM     72  F   UNL A   1      36.673  29.838  27.665  1.00  0.00    -0.200 F 
ATOM     73  C   UNL A   1      37.176  29.146  29.867  1.00  0.00     0.200 A 
ATOM     74  F   UNL A   1      37.730  28.464  32.058  1.00  0.00    -0.200 F 
ATOM     75  F   UNL A   1      35.905  29.353  30.237  1.00  0.00    -0.200 F 
ENDBRANCH  51  65
BRANCH  52  76
ATOM     76  C   UNL A   1      49.145  26.759  26.026  1.00  0.00     0.064 A 
ATOM     77  C   UNL A   1      49.499  26.986  24.689  1.00  0.00     0.173 A 
ATOM     78  C   UNL A   1      50.133  26.260  26.888  1.00  0.00     0.173 A 
ATOM     79  F   UNL A   1      48.582  27.443  23.824  1.00  0.00    -0.203 F 
ATOM     80  C   UNL A   1      50.782  26.705  24.226  1.00  0.00     0.198 A 
ATOM     81  C   UNL A   1      51.424  26.006  26.429  1.00  0.00     0.198 A 
ATOM     82  F   UNL A   1      49.848  26.032  28.178  1.00  0.00    -0.203 F 
ATOM     83  F   UNL A   1      51.081  26.889  22.932  1.00  0.00    -0.200 F 
ATOM     84  C   UNL A   1      51.746  26.221  25.097  1.00  0.00     0.200 A 
ATOM     85  F   UNL A   1      52.357  25.551  27.277  1.00  0.00    -0.200 F 
ATOM     86  F   UNL A   1      52.981  25.955  24.653  1.00  0.00    -0.200 F 
ENDBRANCH  52  76
BRANCH  64  87
ATOM     87  C   UNL A   1      45.999  32.453  28.518  1.00  0.00     0.064 A 
ATOM     88  C   UNL A   1      46.577  32.798  29.748  1.00  0.00     0.173 A 
ATOM     89  C   UNL A   1      45.927  33.440  27.523  1.00  0.00     0.173 A 
ATOM     90  F   UNL A   1      46.653  31.894  30.736  1.00  0.00    -0.203 F 
ATOM     91  C   UNL A   1      47.045  34.089  29.980  1.00  0.00     0.198 A 
ATOM     92  C   UNL A   1      46.423  34.721  27.749  1.00  0.00     0.198 A 
ATOM     93  F   UNL A   1      45.389  33.157  26.328  1.00  0.00    -0.203 F 
ATOM     94  F   UNL A   1      47.553  34.409  31.178  1.00  0.00    -0.200 F 
ATOM     95  C   UNL A   1      46.975  35.046  28.979  1.00  0.00     0.200 A 
ATOM     96  F   UNL A   1      46.366  35.640  26.776  1.00  0.00    -0.200 F 
ATOM     97  F   UNL A   1      47.433  36.286  29.202  1.00  0.00    -0.200 F 
ENDBRANCH  64  87
ENDBRANCH  38  39
ENDBRANCH  30  33
ENDBRANCH  28  29
ENDBRANCH  27  28
ENDBRANCH   1  27
TORSDOF 14
ENDMDL
MODEL 3
REMARK VINA RESULT:     -12.0      3.056      8.533
REMARK SMILES CCCN1CCC[C@@]2(CCN(c3ccc(C(=O)NCCCCNC(=O)c4ccc(-c5c6nc(c(-c7c(F)c(F)c(F)c(F)c7F)c7ccc([nH]7)c(-c7c(F)c(F)c(F)c(F)c7F)c7nc(c(-c8c(F)c(F)c(F)c(F)c8F)c8ccc5[nH]8)C=C7)C=C6)cc4)cn3)C2)C1=O
REMARK SMILES IDX 20 1 19 2 18 3 16 4 17 5 15 7 12 8 13 9 90 10 14 11 89 12
REMARK SMILES IDX 11 13 4 14 5 15 92 16 6 17 8 18 93 19 7 20 9 21 91 22 10 23
REMARK SMILES IDX 3 24 2 25 1 26 21 27 22 28 23 29 24 30 25 32 26 33 27 34
REMARK SMILES IDX 88 35 28 36 87 37 29 38 30 39 31 40 81 41 32 42 86 43 80 44
REMARK SMILES IDX 82 45 33 46 85 47 79 48 78 49 34 51 66 52 46 53 65 54 47 55
REMARK SMILES IDX 50 56 64 57 83 58 48 59 49 60 63 62 84 63 51 64 35 65 36 66
REMARK SMILES IDX 44 67 37 68 38 69 42 70 45 71 39 72 40 73 43 74 41 75 67 76
REMARK SMILES IDX 68 77 76 78 69 79 70 80 74 81 77 82 71 83 72 84 75 85 73 86
REMARK SMILES IDX 52 87 53 88 61 89 54 90 55 91 59 92 62 93 56 94 57 95 60 96
REMARK SMILES IDX 58 97
REMARK H PARENT 18 6 23 31 82 50 50 61
REMARK Flexibility Score: inf
ROOT
ATOM      1  C   UNL A   1      31.821  30.545  26.730  1.00  0.00     0.023 C 
ENDROOT
BRANCH   1   2
ATOM      2  C   UNL A   1      32.636  29.968  25.568  1.00  0.00     0.116 C 
BRANCH   2   3
ATOM      3  N   UNL A   1      31.818  29.818  24.382  1.00  0.00    -0.352 N 
ATOM      4  C   UNL A   1      31.309  28.712  23.746  1.00  0.00     0.252 C 
ATOM      5  O   UNL A   1      30.595  28.910  22.763  1.00  0.00    -0.269 OA
ATOM      6  H   UNL A   1      31.583  30.670  23.949  1.00  0.00     0.163 HD
BRANCH   4   7
ATOM      7  C   UNL A   1      31.548  27.314  24.191  1.00  0.00     0.058 A 
ATOM      8  C   UNL A   1      31.770  24.726  25.195  1.00  0.00     0.128 A 
ATOM      9  C   UNL A   1      32.761  25.243  24.374  1.00  0.00     0.048 A 
ATOM     10  N   UNL A   1      30.671  25.442  25.492  1.00  0.00    -0.239 NA
ATOM     11  C   UNL A   1      32.631  26.520  23.841  1.00  0.00     0.019 A 
ATOM     12  C   UNL A   1      30.591  26.713  25.006  1.00  0.00     0.127 A 
BRANCH   8  13
ATOM     13  N   UNL A   1      31.935  23.452  25.678  1.00  0.00    -0.356 N 
ATOM     14  N   UNL A   1      35.247  20.677  25.134  1.00  0.00    -0.342 N 
ATOM     15  C   UNL A   1      34.804  19.371  24.674  1.00  0.00     0.119 C 
ATOM     16  C   UNL A   1      34.474  21.329  26.096  1.00  0.00     0.230 C 
ATOM     17  C   UNL A   1      33.395  19.478  24.118  1.00  0.00     0.023 C 
ATOM     18  C   UNL A   1      32.965  21.309  25.826  1.00  0.00     0.069 C 
ATOM     19  O   UNL A   1      34.976  22.016  26.983  1.00  0.00    -0.274 OA
ATOM     20  C   UNL A   1      32.475  19.980  25.227  1.00  0.00     0.021 C 
ATOM     21  C   UNL A   1      32.170  21.672  27.100  1.00  0.00     0.040 C 
ATOM     22  C   UNL A   1      32.685  22.497  24.868  1.00  0.00     0.135 C 
ATOM     23  C   UNL A   1      32.131  23.201  27.090  1.00  0.00     0.119 C 
BRANCH  14  24
ATOM     24  C   UNL A   1      36.576  21.225  24.866  1.00  0.00     0.119 C 
BRANCH  24  25
ATOM     25  C   UNL A   1      36.700  22.593  24.202  1.00  0.00     0.018 C 
ATOM     26  C   UNL A   1      37.218  23.690  25.123  1.00  0.00     0.006 C 
ENDBRANCH  24  25
ENDBRANCH  14  24
ENDBRANCH   8  13
ENDBRANCH   4   7
ENDBRANCH   2   3
ENDBRANCH   1   2
BRANCH   1  27
ATOM     27  C   UNL A   1      31.662  32.065  26.693  1.00  0.00     0.023 C 
BRANCH  27  28
ATOM     28  C   UNL A   1      32.767  32.841  27.399  1.00  0.00     0.116 C 
BRANCH  28  29
ATOM     29  N   UNL A   1      32.404  34.215  27.711  1.00  0.00    -0.352 N 
ATOM     30  C   UNL A   1      32.977  35.056  28.634  1.00  0.00     0.251 C 
ATOM     31  H   UNL A   1      31.653  34.590  27.196  1.00  0.00     0.163 HD
ATOM     32  O   UNL A   1      32.501  36.165  28.853  1.00  0.00    -0.269 OA
BRANCH  30  33
ATOM     33  C   UNL A   1      34.150  34.587  29.397  1.00  0.00     0.039 A 
ATOM     34  C   UNL A   1      33.952  34.063  30.677  1.00  0.00     0.014 A 
ATOM     35  C   UNL A   1      35.426  34.617  28.831  1.00  0.00     0.014 A 
ATOM     36  C   UNL A   1      35.030  33.504  31.363  1.00  0.00     0.010 A 
ATOM     37  C   UNL A   1      36.484  33.998  29.487  1.00  0.00     0.010 A 
ATOM     38  C   UNL A   1      36.295  33.433  30.758  1.00  0.00    -0.014 A 
BRANCH  38  39
ATOM     39  C   UNL A   1      37.435  32.767  31.434  1.00  0.00     0.031 A 
ATOM     40  C   UNL A   1      38.131  31.612  30.774  1.00  0.00     0.074 A 
ATOM     41  C   UNL A   1      37.791  33.158  32.672  1.00  0.00     0.049 A 
ATOM     42  N   UNL A   1      39.094  30.855  31.233  1.00  0.00    -0.248 NA
ATOM     43  C   UNL A   1      37.661  31.240  29.430  1.00  0.00     0.031 C 
ATOM     44  C   UNL A   1      37.156  34.232  33.437  1.00  0.00     0.029 A 
ATOM     45  N   UNL A   1      38.770  32.686  33.512  1.00  0.00    -0.354 N 
ATOM     46  C   UNL A   1      39.333  29.910  30.244  1.00  0.00     0.074 A 
ATOM     47  C   UNL A   1      38.380  30.155  29.183  1.00  0.00     0.031 C 
ATOM     48  C   UNL A   1      37.772  34.351  34.625  1.00  0.00     0.029 A 
ATOM     49  C   UNL A   1      38.822  33.342  34.718  1.00  0.00     0.049 A 
ATOM     50  H   UNL A   1      39.376  31.949  33.272  1.00  0.00     0.167 HD
ATOM     51  C   UNL A   1      40.278  28.941  30.214  1.00  0.00     0.037 A 
ATOM     52  C   UNL A   1      39.626  33.145  35.781  1.00  0.00     0.037 A 
ATOM     53  C   UNL A   1      41.242  28.719  31.260  1.00  0.00     0.049 A 
ATOM     54  C   UNL A   1      40.672  32.066  35.719  1.00  0.00     0.074 A 
ATOM     55  C   UNL A   1      42.282  27.806  31.296  1.00  0.00     0.029 A 
ATOM     56  N   UNL A   1      41.282  29.421  32.456  1.00  0.00    -0.354 N 
ATOM     57  N   UNL A   1      40.938  31.225  34.749  1.00  0.00    -0.248 NA
ATOM     58  C   UNL A   1      41.536  31.913  36.897  1.00  0.00     0.031 C 
ATOM     59  C   UNL A   1      42.926  27.927  32.532  1.00  0.00     0.029 A 
ATOM     60  C   UNL A   1      42.319  28.947  33.246  1.00  0.00     0.049 A 
ATOM     61  H   UNL A   1      40.667  30.147  32.706  1.00  0.00     0.167 HD
ATOM     62  C   UNL A   1      42.013  30.464  35.186  1.00  0.00     0.074 A 
ATOM     63  C   UNL A   1      42.361  30.952  36.504  1.00  0.00     0.031 C 
ATOM     64  C   UNL A   1      42.655  29.452  34.553  1.00  0.00     0.037 A 
BRANCH  51  65
ATOM     65  C   UNL A   1      40.319  28.051  29.007  1.00  0.00     0.064 A 
ATOM     66  C   UNL A   1      39.606  26.842  28.962  1.00  0.00     0.173 A 
ATOM     67  C   UNL A   1      41.053  28.422  27.871  1.00  0.00     0.173 A 
ATOM     68  F   UNL A   1      38.899  26.435  30.027  1.00  0.00    -0.203 F 
ATOM     69  C   UNL A   1      39.652  26.025  27.836  1.00  0.00     0.198 A 
ATOM     70  C   UNL A   1      41.072  27.617  26.735  1.00  0.00     0.198 A 
ATOM     71  F   UNL A   1      41.749  29.569  27.859  1.00  0.00    -0.203 F 
ATOM     72  F   UNL A   1      39.004  24.851  27.835  1.00  0.00    -0.200 F 
ATOM     73  C   UNL A   1      40.378  26.416  26.721  1.00  0.00     0.200 A 
ATOM     74  F   UNL A   1      41.766  28.001  25.655  1.00  0.00    -0.200 F 
ATOM     75  F   UNL A   1      40.416  25.631  25.635  1.00  0.00    -0.200 F 
ENDBRANCH  51  65
BRANCH  52  76
ATOM     76  C   UNL A   1      39.493  34.009  36.982  1.00  0.00     0.064 A 
ATOM     77  C   UNL A   1      40.120  35.260  37.039  1.00  0.00     0.173 A 
ATOM     78  C   UNL A   1      38.741  33.603  38.094  1.00  0.00     0.173 A 
ATOM     79  F   UNL A   1      40.867  35.681  36.008  1.00  0.00    -0.203 F 
ATOM     80  C   UNL A   1      40.019  36.065  38.172  1.00  0.00     0.198 A 
ATOM     81  C   UNL A   1      38.617  34.422  39.215  1.00  0.00     0.198 A 
ATOM     82  F   UNL A   1      38.115  32.418  38.087  1.00  0.00    -0.203 F 
ATOM     83  F   UNL A   1      40.666  37.238  38.217  1.00  0.00    -0.200 F 
ATOM     84  C   UNL A   1      39.263  35.649  39.256  1.00  0.00     0.200 A 
ATOM     85  F   UNL A   1      37.875  34.021  40.256  1.00  0.00    -0.200 F 
ATOM     86  F   UNL A   1      39.163  36.425  40.344  1.00  0.00    -0.200 F 
ENDBRANCH  52  76
BRANCH  64  87
ATOM     87  C   UNL A   1      43.820  28.827  35.262  1.00  0.00     0.064 A 
ATOM     88  C   UNL A   1      43.656  27.730  36.119  1.00  0.00     0.173 A 
ATOM     89  C   UNL A   1      45.121  29.308  35.047  1.00  0.00     0.173 A 
ATOM     90  F   UNL A   1      42.431  27.245  36.369  1.00  0.00    -0.203 F 
ATOM     91  C   UNL A   1      44.751  27.150  36.755  1.00  0.00     0.198 A 
ATOM     92  C   UNL A   1      46.216  28.707  35.661  1.00  0.00     0.198 A 
ATOM     93  F   UNL A   1      45.330  30.351  34.231  1.00  0.00    -0.203 F 
ATOM     94  F   UNL A   1      44.567  26.130  37.605  1.00  0.00    -0.200 F 
ATOM     95  C   UNL A   1      46.030  27.633  36.519  1.00  0.00     0.200 A 
ATOM     96  F   UNL A   1      47.451  29.167  35.423  1.00  0.00    -0.200 F 
ATOM     97  F   UNL A   1      47.083  27.069  37.126  1.00  0.00    -0.200 F 
ENDBRANCH  64  87
ENDBRANCH  38  39
ENDBRANCH  30  33
ENDBRANCH  28  29
ENDBRANCH  27  28
ENDBRANCH   1  27
TORSDOF 14
ENDMDL
