MODEL 1
REMARK VINA RESULT:     -12.9      0.000      0.000
REMARK SMILES O=C(NCCCCNC(=O)c1csc(CNc2ccc(-n3cccn3)nc2)c1)c1ccc(-c2c3nc(c(-c4c(F)c(F)c(F)c(F)c4F)c4ccc([nH]4)c(-c4c(F)c(F)c(F)c(F)c4F)c4nc(c(-c5c(F)c(F)c(F)c(F)c5F)c5ccc2[nH]5)C=C4)C=C3)cc1
REMARK SMILES IDX 6 1 5 2 4 3 3 4 1 5 2 6 29 8 30 9 91 10 31 11 90 12 32 13
REMARK SMILES IDX 33 14 34 15 84 16 35 17 89 18 83 19 85 20 36 21 88 22 82 23
REMARK SMILES IDX 81 24 37 26 69 27 49 28 68 29 50 30 53 31 67 32 86 33 51 34
REMARK SMILES IDX 52 35 66 37 87 38 54 39 38 40 39 41 47 42 40 43 41 44 45 45
REMARK SMILES IDX 48 46 42 47 43 48 46 49 44 50 70 51 71 52 79 53 72 54 73 55
REMARK SMILES IDX 77 56 80 57 74 58 75 59 78 60 76 61 55 62 56 63 64 64 57 65
REMARK SMILES IDX 58 66 62 67 65 68 59 69 60 70 63 71 61 72 7 73 8 74 9 75
REMARK SMILES IDX 10 77 11 78 12 79 28 80 13 81 14 82 15 83 16 84 17 86 18 87
REMARK SMILES IDX 27 88 19 89 26 90 20 91 21 92 22 93 25 94 23 95 24 96
REMARK H PARENT 3 7 85 25 53 36 8 76 16 85
REMARK Flexibility Score: inf
ROOT
ATOM      1  C   UNL A   1      37.696  23.402  25.766  1.00  0.00     0.023 C 
ENDROOT
BRANCH   1   2
ATOM      2  C   UNL A   1      38.310  22.000  25.647  1.00  0.00     0.023 C 
BRANCH   2   3
ATOM      3  C   UNL A   1      39.544  21.747  26.513  1.00  0.00     0.116 C 
BRANCH   3   4
ATOM      4  N   UNL A   1      40.799  22.047  25.857  1.00  0.00    -0.352 N 
ATOM      5  O   UNL A   1      42.764  22.882  25.314  1.00  0.00    -0.269 OA
ATOM      6  C   UNL A   1      41.702  23.072  25.913  1.00  0.00     0.251 C 
ATOM      7  H   UNL A   1      41.067  21.345  25.219  1.00  0.00     0.163 HD
BRANCH   6   8
ATOM      8  C   UNL A   1      41.486  24.388  26.576  1.00  0.00     0.039 A 
ATOM      9  C   UNL A   1      40.654  25.412  26.123  1.00  0.00     0.014 A 
ATOM     10  C   UNL A   1      42.242  24.610  27.746  1.00  0.00     0.014 A 
ATOM     11  C   UNL A   1      40.631  26.645  26.777  1.00  0.00     0.010 A 
ATOM     12  C   UNL A   1      42.217  25.834  28.406  1.00  0.00     0.010 A 
ATOM     13  C   UNL A   1      41.436  26.866  27.897  1.00  0.00    -0.014 A 
BRANCH  13  14
ATOM     14  C   UNL A   1      41.342  28.157  28.579  1.00  0.00     0.031 A 
ATOM     15  C   UNL A   1      42.443  29.121  28.279  1.00  0.00     0.074 A 
ATOM     16  C   UNL A   1      40.273  28.534  29.310  1.00  0.00     0.049 A 
ATOM     17  N   UNL A   1      43.239  29.725  29.104  1.00  0.00    -0.248 NA
ATOM     18  C   UNL A   1      42.735  29.398  26.863  1.00  0.00     0.031 C 
ATOM     19  C   UNL A   1      38.987  27.845  29.455  1.00  0.00     0.029 A 
ATOM     20  N   UNL A   1      40.080  29.690  30.009  1.00  0.00    -0.354 N 
ATOM     21  C   UNL A   1      44.039  30.567  28.330  1.00  0.00     0.074 A 
ATOM     22  C   UNL A   1      43.758  30.248  26.955  1.00  0.00     0.031 C 
ATOM     23  C   UNL A   1      38.087  28.690  30.007  1.00  0.00     0.029 A 
ATOM     24  C   UNL A   1      38.761  29.923  30.375  1.00  0.00     0.049 A 
ATOM     25  H   UNL A   1      40.813  30.307  30.234  1.00  0.00     0.167 HD
ATOM     26  C   UNL A   1      44.752  31.592  28.878  1.00  0.00     0.037 A 
ATOM     27  C   UNL A   1      38.250  31.073  30.882  1.00  0.00     0.037 A 
ATOM     28  C   UNL A   1      44.956  31.398  30.287  1.00  0.00     0.049 A 
ATOM     29  C   UNL A   1      39.378  31.870  31.422  1.00  0.00     0.074 A 
ATOM     30  C   UNL A   1      45.605  30.452  31.054  1.00  0.00     0.029 A 
ATOM     31  N   UNL A   1      44.180  32.110  31.165  1.00  0.00    -0.354 N 
ATOM     32  N   UNL A   1      40.072  31.539  32.473  1.00  0.00    -0.248 NA
ATOM     33  C   UNL A   1      40.002  32.839  30.535  1.00  0.00     0.031 C 
ATOM     34  C   UNL A   1      44.807  30.320  32.229  1.00  0.00     0.029 A 
ATOM     35  C   UNL A   1      43.752  31.226  32.120  1.00  0.00     0.049 A 
ATOM     36  H   UNL A   1      43.971  33.071  31.118  1.00  0.00     0.167 HD
ATOM     37  C   UNL A   1      41.370  31.917  32.167  1.00  0.00     0.074 A 
ATOM     38  C   UNL A   1      41.251  32.793  31.005  1.00  0.00     0.031 C 
ATOM     39  C   UNL A   1      42.438  31.266  32.710  1.00  0.00     0.037 A 
BRANCH  26  40
ATOM     40  C   UNL A   1      44.981  32.932  28.216  1.00  0.00     0.064 A 
ATOM     41  C   UNL A   1      46.300  33.339  27.923  1.00  0.00     0.173 A 
ATOM     42  C   UNL A   1      44.006  33.950  28.158  1.00  0.00     0.173 A 
ATOM     43  F   UNL A   1      47.312  32.459  27.952  1.00  0.00    -0.203 F 
ATOM     44  C   UNL A   1      46.627  34.678  27.694  1.00  0.00     0.198 A 
ATOM     45  C   UNL A   1      44.329  35.277  27.878  1.00  0.00     0.198 A 
ATOM     46  F   UNL A   1      42.725  33.727  28.477  1.00  0.00    -0.203 F 
ATOM     47  F   UNL A   1      47.911  35.036  27.558  1.00  0.00    -0.200 F 
ATOM     48  C   UNL A   1      45.643  35.648  27.683  1.00  0.00     0.200 A 
ATOM     49  F   UNL A   1      43.362  36.205  27.885  1.00  0.00    -0.200 F 
ATOM     50  F   UNL A   1      45.962  36.941  27.536  1.00  0.00    -0.200 F 
ENDBRANCH  26  40
BRANCH  27  51
ATOM     51  C   UNL A   1      36.912  31.664  30.643  1.00  0.00     0.064 A 
ATOM     52  C   UNL A   1      35.999  31.857  31.693  1.00  0.00     0.173 A 
ATOM     53  C   UNL A   1      36.614  32.312  29.429  1.00  0.00     0.173 A 
ATOM     54  F   UNL A   1      36.234  31.318  32.899  1.00  0.00    -0.203 F 
ATOM     55  C   UNL A   1      34.866  32.664  31.542  1.00  0.00     0.198 A 
ATOM     56  C   UNL A   1      35.481  33.112  29.277  1.00  0.00     0.198 A 
ATOM     57  F   UNL A   1      37.468  32.264  28.396  1.00  0.00    -0.203 F 
ATOM     58  F   UNL A   1      34.049  32.874  32.584  1.00  0.00    -0.200 F 
ATOM     59  C   UNL A   1      34.613  33.299  30.336  1.00  0.00     0.200 A 
ATOM     60  F   UNL A   1      35.270  33.752  28.117  1.00  0.00    -0.200 F 
ATOM     61  F   UNL A   1      33.562  34.120  30.209  1.00  0.00    -0.200 F 
ENDBRANCH  27  51
BRANCH  39  62
ATOM     62  C   UNL A   1      42.183  30.314  33.842  1.00  0.00     0.064 A 
ATOM     63  C   UNL A   1      41.765  28.984  33.663  1.00  0.00     0.173 A 
ATOM     64  C   UNL A   1      42.541  30.712  35.136  1.00  0.00     0.173 A 
ATOM     65  F   UNL A   1      41.501  28.501  32.443  1.00  0.00    -0.203 F 
ATOM     66  C   UNL A   1      41.678  28.105  34.741  1.00  0.00     0.198 A 
ATOM     67  C   UNL A   1      42.489  29.822  36.204  1.00  0.00     0.198 A 
ATOM     68  F   UNL A   1      43.003  31.953  35.354  1.00  0.00    -0.203 F 
ATOM     69  F   UNL A   1      41.276  26.840  34.547  1.00  0.00    -0.200 F 
ATOM     70  C   UNL A   1      42.050  28.522  36.009  1.00  0.00     0.200 A 
ATOM     71  F   UNL A   1      42.899  30.214  37.418  1.00  0.00    -0.200 F 
ATOM     72  F   UNL A   1      42.017  27.663  37.036  1.00  0.00    -0.200 F 
ENDBRANCH  39  62
ENDBRANCH  13  14
ENDBRANCH   6   8
ENDBRANCH   3   4
ENDBRANCH   2   3
ENDBRANCH   1   2
BRANCH   1  73
ATOM     73  C   UNL A   1      36.170  23.473  25.709  1.00  0.00     0.116 C 
BRANCH  73  74
ATOM     74  N   UNL A   1      35.541  22.593  26.677  1.00  0.00    -0.352 N 
ATOM     75  C   UNL A   1      34.285  22.036  26.672  1.00  0.00     0.252 C 
ATOM     76  H   UNL A   1      36.099  22.359  27.454  1.00  0.00     0.163 HD
ATOM     77  O   UNL A   1      33.876  21.499  27.697  1.00  0.00    -0.269 OA
BRANCH  75  78
ATOM     78  C   UNL A   1      33.464  22.118  25.471  1.00  0.00     0.050 A 
ATOM     79  C   UNL A   1      33.509  21.221  24.420  1.00  0.00     0.079 A 
ATOM     80  C   UNL A   1      32.427  23.090  25.257  1.00  0.00     0.031 A 
ATOM     81  S   UNL A   1      32.400  21.595  23.179  1.00  0.00    -0.146 S 
ATOM     82  C   UNL A   1      31.796  22.949  24.037  1.00  0.00     0.024 A 
BRANCH  82  83
ATOM     83  C   UNL A   1      30.719  23.806  23.427  1.00  0.00     0.159 C 
BRANCH  83  84
ATOM     84  N   UNL A   1      30.228  24.821  24.351  1.00  0.00    -0.379 N 
ATOM     85  H   UNL A   1      30.171  24.616  25.312  1.00  0.00     0.160 HD
BRANCH  84  86
ATOM     86  C   UNL A   1      29.839  26.069  23.896  1.00  0.00     0.053 A 
ATOM     87  C   UNL A   1      28.515  26.499  23.915  1.00  0.00     0.031 A 
ATOM     88  C   UNL A   1      30.760  26.947  23.323  1.00  0.00     0.139 A 
ATOM     89  C   UNL A   1      28.176  27.770  23.441  1.00  0.00     0.051 A 
ATOM     90  N   UNL A   1      30.464  28.160  22.801  1.00  0.00    -0.235 NA
ATOM     91  C   UNL A   1      29.175  28.571  22.891  1.00  0.00     0.153 A 
BRANCH  91  92
ATOM     92  N   UNL A   1      28.835  29.872  22.411  1.00  0.00    -0.223 N 
ATOM     93  C   UNL A   1      28.940  31.068  23.099  1.00  0.00     0.117 A 
ATOM     94  N   UNL A   1      28.345  30.073  21.158  1.00  0.00    -0.175 NA
ATOM     95  C   UNL A   1      28.461  32.055  22.272  1.00  0.00     0.042 A 
ATOM     96  C   UNL A   1      28.074  31.378  21.107  1.00  0.00     0.135 A 
ENDBRANCH  91  92
ENDBRANCH  84  86
ENDBRANCH  83  84
ENDBRANCH  82  83
ENDBRANCH  75  78
ENDBRANCH  73  74
ENDBRANCH   1  73
TORSDOF 15
ENDMDL
MODEL 2
REMARK VINA RESULT:     -12.9      3.672      9.414
REMARK SMILES O=C(NCCCCNC(=O)c1csc(CNc2ccc(-n3cccn3)nc2)c1)c1ccc(-c2c3nc(c(-c4c(F)c(F)c(F)c(F)c4F)c4ccc([nH]4)c(-c4c(F)c(F)c(F)c(F)c4F)c4nc(c(-c5c(F)c(F)c(F)c(F)c5F)c5ccc2[nH]5)C=C4)C=C3)cc1
REMARK SMILES IDX 6 1 5 2 4 3 3 4 1 5 2 6 29 8 30 9 91 10 31 11 90 12 32 13
REMARK SMILES IDX 33 14 34 15 84 16 35 17 89 18 83 19 85 20 36 21 88 22 82 23
REMARK SMILES IDX 81 24 37 26 69 27 49 28 68 29 50 30 53 31 67 32 86 33 51 34
REMARK SMILES IDX 52 35 66 37 87 38 54 39 38 40 39 41 47 42 40 43 41 44 45 45
REMARK SMILES IDX 48 46 42 47 43 48 46 49 44 50 70 51 71 52 79 53 72 54 73 55
REMARK SMILES IDX 77 56 80 57 74 58 75 59 78 60 76 61 55 62 56 63 64 64 57 65
REMARK SMILES IDX 58 66 62 67 65 68 59 69 60 70 63 71 61 72 7 73 8 74 9 75
REMARK SMILES IDX 10 77 11 78 12 79 28 80 13 81 14 82 15 83 16 84 17 86 18 87
REMARK SMILES IDX 27 88 19 89 26 90 20 91 21 92 22 93 25 94 23 95 24 96
REMARK H PARENT 3 7 85 25 53 36 8 76 16 85
REMARK Flexibility Score: inf
ROOT
ATOM      1  C   UNL A   1      31.777  29.317  26.018  1.00  0.00     0.023 C 
ENDROOT
BRANCH   1   2
ATOM      2  C   UNL A   1      32.122  30.514  26.914  1.00  0.00     0.023 C 
BRANCH   2   3
ATOM      3  C   UNL A   1      33.606  30.689  27.233  1.00  0.00     0.116 C 
BRANCH   3   4
ATOM      4  N   UNL A   1      33.872  31.570  28.351  1.00  0.00    -0.352 N 
ATOM      5  O   UNL A   1      34.841  32.811  29.892  1.00  0.00    -0.269 OA
ATOM      6  C   UNL A   1      34.963  31.852  29.125  1.00  0.00     0.251 C 
ATOM      7  H   UNL A   1      33.078  32.090  28.617  1.00  0.00     0.163 HD
BRANCH   6   8
ATOM      8  C   UNL A   1      36.234  31.076  29.155  1.00  0.00     0.039 A 
ATOM      9  C   UNL A   1      36.354  29.688  29.089  1.00  0.00     0.014 A 
ATOM     10  C   UNL A   1      37.409  31.841  29.311  1.00  0.00     0.014 A 
ATOM     11  C   UNL A   1      37.600  29.078  29.246  1.00  0.00     0.010 A 
ATOM     12  C   UNL A   1      38.654  31.239  29.460  1.00  0.00     0.010 A 
ATOM     13  C   UNL A   1      38.743  29.851  29.463  1.00  0.00    -0.014 A 
BRANCH  13  14
ATOM     14  C   UNL A   1      40.033  29.172  29.573  1.00  0.00     0.031 A 
ATOM     15  C   UNL A   1      40.563  29.023  30.963  1.00  0.00     0.074 A 
ATOM     16  C   UNL A   1      40.649  28.577  28.531  1.00  0.00     0.049 A 
ATOM     17  N   UNL A   1      41.706  29.405  31.439  1.00  0.00    -0.248 NA
ATOM     18  C   UNL A   1      39.670  28.425  31.968  1.00  0.00     0.031 C 
ATOM     19  C   UNL A   1      40.132  28.361  27.177  1.00  0.00     0.029 A 
ATOM     20  N   UNL A   1      41.856  27.940  28.501  1.00  0.00    -0.354 N 
ATOM     21  C   UNL A   1      41.740  28.972  32.766  1.00  0.00     0.074 A 
ATOM     22  C   UNL A   1      40.426  28.470  33.066  1.00  0.00     0.031 C 
ATOM     23  C   UNL A   1      40.917  27.466  26.536  1.00  0.00     0.029 A 
ATOM     24  C   UNL A   1      42.058  27.150  27.377  1.00  0.00     0.049 A 
ATOM     25  H   UNL A   1      42.526  28.032  29.216  1.00  0.00     0.167 HD
ATOM     26  C   UNL A   1      42.904  28.897  33.472  1.00  0.00     0.037 A 
ATOM     27  C   UNL A   1      43.057  26.253  27.184  1.00  0.00     0.037 A 
ATOM     28  C   UNL A   1      43.925  29.726  32.894  1.00  0.00     0.049 A 
ATOM     29  C   UNL A   1      44.148  26.578  28.133  1.00  0.00     0.074 A 
ATOM     30  C   UNL A   1      44.069  31.082  32.676  1.00  0.00     0.029 A 
ATOM     31  N   UNL A   1      44.907  29.130  32.145  1.00  0.00    -0.354 N 
ATOM     32  N   UNL A   1      44.891  27.646  28.058  1.00  0.00    -0.248 NA
ATOM     33  C   UNL A   1      44.141  25.907  29.423  1.00  0.00     0.031 C 
ATOM     34  C   UNL A   1      44.774  31.183  31.441  1.00  0.00     0.029 A 
ATOM     35  C   UNL A   1      45.052  29.885  31.012  1.00  0.00     0.049 A 
ATOM     36  H   UNL A   1      45.410  28.317  32.378  1.00  0.00     0.167 HD
ATOM     37  C   UNL A   1      45.098  28.021  29.376  1.00  0.00     0.074 A 
ATOM     38  C   UNL A   1      44.693  26.865  30.172  1.00  0.00     0.031 C 
ATOM     39  C   UNL A   1      45.315  29.325  29.711  1.00  0.00     0.037 A 
BRANCH  26  40
ATOM     40  C   UNL A   1      43.227  27.826  34.489  1.00  0.00     0.064 A 
ATOM     41  C   UNL A   1      43.458  28.197  35.831  1.00  0.00     0.173 A 
ATOM     42  C   UNL A   1      43.633  26.520  34.143  1.00  0.00     0.173 A 
ATOM     43  F   UNL A   1      43.117  29.417  36.274  1.00  0.00    -0.203 F 
ATOM     44  C   UNL A   1      44.135  27.362  36.724  1.00  0.00     0.198 A 
ATOM     45  C   UNL A   1      44.263  25.671  35.051  1.00  0.00     0.198 A 
ATOM     46  F   UNL A   1      43.541  26.054  32.892  1.00  0.00    -0.203 F 
ATOM     47  F   UNL A   1      44.453  27.812  37.945  1.00  0.00    -0.200 F 
ATOM     48  C   UNL A   1      44.548  26.103  36.330  1.00  0.00     0.200 A 
ATOM     49  F   UNL A   1      44.668  24.458  34.647  1.00  0.00    -0.200 F 
ATOM     50  F   UNL A   1      45.261  25.330  37.159  1.00  0.00    -0.200 F 
ENDBRANCH  26  40
BRANCH  27  51
ATOM     51  C   UNL A   1      42.997  24.955  26.470  1.00  0.00     0.064 A 
ATOM     52  C   UNL A   1      43.794  24.703  25.341  1.00  0.00     0.173 A 
ATOM     53  C   UNL A   1      42.365  23.838  27.050  1.00  0.00     0.173 A 
ATOM     54  F   UNL A   1      44.472  25.703  24.758  1.00  0.00    -0.203 F 
ATOM     55  C   UNL A   1      43.963  23.410  24.836  1.00  0.00     0.198 A 
ATOM     56  C   UNL A   1      42.529  22.549  26.542  1.00  0.00     0.198 A 
ATOM     57  F   UNL A   1      41.656  23.962  28.182  1.00  0.00    -0.203 F 
ATOM     58  F   UNL A   1      44.780  23.199  23.794  1.00  0.00    -0.200 F 
ATOM     59  C   UNL A   1      43.338  22.332  25.442  1.00  0.00     0.200 A 
ATOM     60  F   UNL A   1      41.951  21.512  27.164  1.00  0.00    -0.200 F 
ATOM     61  F   UNL A   1      43.548  21.086  24.997  1.00  0.00    -0.200 F 
ENDBRANCH  27  51
BRANCH  39  62
ATOM     62  C   UNL A   1      45.587  30.301  28.604  1.00  0.00     0.064 A 
ATOM     63  C   UNL A   1      44.579  30.972  27.890  1.00  0.00     0.173 A 
ATOM     64  C   UNL A   1      46.912  30.695  28.379  1.00  0.00     0.173 A 
ATOM     65  F   UNL A   1      43.285  30.722  28.122  1.00  0.00    -0.203 F 
ATOM     66  C   UNL A   1      44.892  31.970  26.969  1.00  0.00     0.198 A 
ATOM     67  C   UNL A   1      47.218  31.717  27.486  1.00  0.00     0.198 A 
ATOM     68  F   UNL A   1      47.909  30.128  29.075  1.00  0.00    -0.203 F 
ATOM     69  F   UNL A   1      43.913  32.597  26.300  1.00  0.00    -0.200 F 
ATOM     70  C   UNL A   1      46.210  32.349  26.775  1.00  0.00     0.200 A 
ATOM     71  F   UNL A   1      48.490  32.115  27.341  1.00  0.00    -0.200 F 
ATOM     72  F   UNL A   1      46.506  33.344  25.929  1.00  0.00    -0.200 F 
ENDBRANCH  39  62
ENDBRANCH  13  14
ENDBRANCH   6   8
ENDBRANCH   3   4
ENDBRANCH   2   3
ENDBRANCH   1   2
BRANCH   1  73
ATOM     73  C   UNL A   1      32.295  29.382  24.582  1.00  0.00     0.116 C 
BRANCH  73  74
ATOM     74  N   UNL A   1      31.225  29.575  23.618  1.00  0.00    -0.352 N 
ATOM     75  C   UNL A   1      30.605  28.662  22.800  1.00  0.00     0.252 C 
ATOM     76  H   UNL A   1      30.894  30.498  23.540  1.00  0.00     0.163 HD
ATOM     77  O   UNL A   1      29.876  29.075  21.904  1.00  0.00    -0.269 OA
BRANCH  75  78
ATOM     78  C   UNL A   1      30.844  27.238  22.995  1.00  0.00     0.050 A 
ATOM     79  C   UNL A   1      30.040  26.396  23.740  1.00  0.00     0.079 A 
ATOM     80  C   UNL A   1      31.899  26.494  22.362  1.00  0.00     0.031 A 
ATOM     81  S   UNL A   1      30.593  24.781  23.747  1.00  0.00    -0.146 S 
ATOM     82  C   UNL A   1      31.906  25.158  22.712  1.00  0.00     0.024 A 
BRANCH  82  83
ATOM     83  C   UNL A   1      32.883  24.084  22.316  1.00  0.00     0.159 C 
BRANCH  83  84
ATOM     84  N   UNL A   1      33.643  23.579  23.452  1.00  0.00    -0.379 N 
ATOM     85  H   UNL A   1      34.203  24.196  23.975  1.00  0.00     0.160 HD
BRANCH  84  86
ATOM     86  C   UNL A   1      33.590  22.241  23.805  1.00  0.00     0.053 A 
ATOM     87  C   UNL A   1      34.588  21.617  24.547  1.00  0.00     0.031 A 
ATOM     88  C   UNL A   1      32.547  21.422  23.369  1.00  0.00     0.139 A 
ATOM     89  C   UNL A   1      34.486  20.262  24.874  1.00  0.00     0.051 A 
ATOM     90  N   UNL A   1      32.440  20.095  23.615  1.00  0.00    -0.235 NA
ATOM     91  C   UNL A   1      33.400  19.533  24.391  1.00  0.00     0.153 A 
BRANCH  91  92
ATOM     92  N   UNL A   1      33.287  18.150  24.728  1.00  0.00    -0.223 N 
ATOM     93  C   UNL A   1      34.046  17.106  24.229  1.00  0.00     0.117 A 
ATOM     94  N   UNL A   1      32.368  17.699  25.624  1.00  0.00    -0.175 NA
ATOM     95  C   UNL A   1      33.566  15.950  24.793  1.00  0.00     0.042 A 
ATOM     96  C   UNL A   1      32.510  16.373  25.613  1.00  0.00     0.135 A 
ENDBRANCH  91  92
ENDBRANCH  84  86
ENDBRANCH  83  84
ENDBRANCH  82  83
ENDBRANCH  75  78
ENDBRANCH  73  74
ENDBRANCH   1  73
TORSDOF 15
ENDMDL
MODEL 3
REMARK VINA RESULT:     -12.8      1.120      1.622
REMARK SMILES O=C(NCCCCNC(=O)c1csc(CNc2ccc(-n3cccn3)nc2)c1)c1ccc(-c2c3nc(c(-c4c(F)c(F)c(F)c(F)c4F)c4ccc([nH]4)c(-c4c(F)c(F)c(F)c(F)c4F)c4nc(c(-c5c(F)c(F)c(F)c(F)c5F)c5ccc2[nH]5)C=C4)C=C3)cc1
REMARK SMILES IDX 6 1 5 2 4 3 3 4 1 5 2 6 29 8 30 9 91 10 31 11 90 12 32 13
REMARK SMILES IDX 33 14 34 15 84 16 35 17 89 18 83 19 85 20 36 21 88 22 82 23
REMARK SMILES IDX 81 24 37 26 69 27 49 28 68 29 50 30 53 31 67 32 86 33 51 34
REMARK SMILES IDX 52 35 66 37 87 38 54 39 38 40 39 41 47 42 40 43 41 44 45 45
REMARK SMILES IDX 48 46 42 47 43 48 46 49 44 50 70 51 71 52 79 53 72 54 73 55
REMARK SMILES IDX 77 56 80 57 74 58 75 59 78 60 76 61 55 62 56 63 64 64 57 65
REMARK SMILES IDX 58 66 62 67 65 68 59 69 60 70 63 71 61 72 7 73 8 74 9 75
REMARK SMILES IDX 10 77 11 78 12 79 28 80 13 81 14 82 15 83 16 84 17 86 18 87
REMARK SMILES IDX 27 88 19 89 26 90 20 91 21 92 22 93 25 94 23 95 24 96
REMARK H PARENT 3 7 85 25 53 36 8 76 16 85
REMARK Flexibility Score: inf
ROOT
ATOM      1  C   UNL A   1      38.477  23.132  26.524  1.00  0.00     0.023 C 
ENDROOT
BRANCH   1   2
ATOM      2  C   UNL A   1      38.943  21.778  25.971  1.00  0.00     0.023 C 
BRANCH   2   3
ATOM      3  C   UNL A   1      40.247  21.242  26.561  1.00  0.00     0.116 C 
BRANCH   3   4
ATOM      4  N   UNL A   1      41.430  21.600  25.806  1.00  0.00    -0.352 N 
ATOM      5  O   UNL A   1      43.292  22.539  25.098  1.00  0.00    -0.269 OA
ATOM      6  C   UNL A   1      42.267  22.680  25.769  1.00  0.00     0.251 C 
ATOM      7  H   UNL A   1      41.695  20.897  25.167  1.00  0.00     0.163 HD
BRANCH   6   8
ATOM      8  C   UNL A   1      42.016  23.999  26.414  1.00  0.00     0.039 A 
ATOM      9  C   UNL A   1      41.432  25.113  25.811  1.00  0.00     0.014 A 
ATOM     10  C   UNL A   1      42.461  24.118  27.747  1.00  0.00     0.014 A 
ATOM     11  C   UNL A   1      41.360  26.330  26.492  1.00  0.00     0.010 A 
ATOM     12  C   UNL A   1      42.386  25.325  28.433  1.00  0.00     0.010 A 
ATOM     13  C   UNL A   1      41.866  26.444  27.790  1.00  0.00    -0.014 A 
BRANCH  13  14
ATOM     14  C   UNL A   1      41.725  27.724  28.483  1.00  0.00     0.031 A 
ATOM     15  C   UNL A   1      42.819  28.711  28.233  1.00  0.00     0.074 A 
ATOM     16  C   UNL A   1      40.624  28.073  29.179  1.00  0.00     0.049 A 
ATOM     17  N   UNL A   1      43.574  29.319  29.093  1.00  0.00    -0.248 NA
ATOM     18  C   UNL A   1      43.156  29.010  26.832  1.00  0.00     0.031 C 
ATOM     19  C   UNL A   1      39.347  27.361  29.270  1.00  0.00     0.029 A 
ATOM     20  N   UNL A   1      40.385  29.217  29.884  1.00  0.00    -0.354 N 
ATOM     21  C   UNL A   1      44.386  30.184  28.359  1.00  0.00     0.074 A 
ATOM     22  C   UNL A   1      44.160  29.877  26.971  1.00  0.00     0.031 C 
ATOM     23  C   UNL A   1      38.412  28.183  29.799  1.00  0.00     0.029 A 
ATOM     24  C   UNL A   1      39.050  29.423  30.204  1.00  0.00     0.049 A 
ATOM     25  H   UNL A   1      41.099  29.844  30.142  1.00  0.00     0.167 HD
ATOM     26  C   UNL A   1      45.060  31.214  28.943  1.00  0.00     0.037 A 
ATOM     27  C   UNL A   1      38.501  30.557  30.707  1.00  0.00     0.037 A 
ATOM     28  C   UNL A   1      45.217  31.007  30.356  1.00  0.00     0.049 A 
ATOM     29  C   UNL A   1      39.594  31.368  31.296  1.00  0.00     0.074 A 
ATOM     30  C   UNL A   1      45.855  30.063  31.136  1.00  0.00     0.029 A 
ATOM     31  N   UNL A   1      44.397  31.694  31.214  1.00  0.00    -0.354 N 
ATOM     32  N   UNL A   1      40.257  31.036  32.367  1.00  0.00    -0.248 NA
ATOM     33  C   UNL A   1      40.233  32.358  30.443  1.00  0.00     0.031 C 
ATOM     34  C   UNL A   1      45.018  29.903  32.279  1.00  0.00     0.029 A 
ATOM     35  C   UNL A   1      43.952  30.792  32.143  1.00  0.00     0.049 A 
ATOM     36  H   UNL A   1      44.173  32.652  31.171  1.00  0.00     0.167 HD
ATOM     37  C   UNL A   1      41.558  31.440  32.112  1.00  0.00     0.074 A 
ATOM     38  C   UNL A   1      41.465  32.328  30.957  1.00  0.00     0.031 C 
ATOM     39  C   UNL A   1      42.618  30.801  32.686  1.00  0.00     0.037 A 
BRANCH  26  40
ATOM     40  C   UNL A   1      45.289  32.566  28.305  1.00  0.00     0.064 A 
ATOM     41  C   UNL A   1      44.180  33.394  28.027  1.00  0.00     0.173 A 
ATOM     42  C   UNL A   1      46.494  32.935  27.671  1.00  0.00     0.173 A 
ATOM     43  F   UNL A   1      42.979  33.138  28.570  1.00  0.00    -0.203 F 
ATOM     44  C   UNL A   1      44.252  34.442  27.106  1.00  0.00     0.198 A 
ATOM     45  C   UNL A   1      46.574  34.013  26.792  1.00  0.00     0.198 A 
ATOM     46  F   UNL A   1      47.610  32.206  27.787  1.00  0.00    -0.203 F 
ATOM     47  F   UNL A   1      43.140  35.110  26.770  1.00  0.00    -0.200 F 
ATOM     48  C   UNL A   1      45.446  34.744  26.480  1.00  0.00     0.200 A 
ATOM     49  F   UNL A   1      47.738  34.283  26.185  1.00  0.00    -0.200 F 
ATOM     50  F   UNL A   1      45.502  35.700  25.544  1.00  0.00    -0.200 F 
ENDBRANCH  26  40
BRANCH  27  51
ATOM     51  C   UNL A   1      37.163  31.129  30.427  1.00  0.00     0.064 A 
ATOM     52  C   UNL A   1      36.281  31.472  31.466  1.00  0.00     0.173 A 
ATOM     53  C   UNL A   1      36.835  31.612  29.145  1.00  0.00     0.173 A 
ATOM     54  F   UNL A   1      36.546  31.095  32.726  1.00  0.00    -0.203 F 
ATOM     55  C   UNL A   1      35.152  32.265  31.238  1.00  0.00     0.198 A 
ATOM     56  C   UNL A   1      35.705  32.398  28.918  1.00  0.00     0.198 A 
ATOM     57  F   UNL A   1      37.660  31.415  28.106  1.00  0.00    -0.203 F 
ATOM     58  F   UNL A   1      34.366  32.623  32.264  1.00  0.00    -0.200 F 
ATOM     59  C   UNL A   1      34.869  32.736  29.966  1.00  0.00     0.200 A 
ATOM     60  F   UNL A   1      35.468  32.880  27.689  1.00  0.00    -0.200 F 
ATOM     61  F   UNL A   1      33.823  33.546  29.758  1.00  0.00    -0.200 F 
ENDBRANCH  27  51
BRANCH  39  62
ATOM     62  C   UNL A   1      42.339  29.831  33.797  1.00  0.00     0.064 A 
ATOM     63  C   UNL A   1      42.026  28.477  33.589  1.00  0.00     0.173 A 
ATOM     64  C   UNL A   1      42.568  30.249  35.113  1.00  0.00     0.173 A 
ATOM     65  F   UNL A   1      41.891  27.981  32.353  1.00  0.00    -0.203 F 
ATOM     66  C   UNL A   1      41.914  27.591  34.659  1.00  0.00     0.198 A 
ATOM     67  C   UNL A   1      42.493  29.354  36.177  1.00  0.00     0.198 A 
ATOM     68  F   UNL A   1      42.927  31.517  35.364  1.00  0.00    -0.203 F 
ATOM     69  F   UNL A   1      41.613  26.303  34.437  1.00  0.00    -0.200 F 
ATOM     70  C   UNL A   1      42.158  28.028  35.951  1.00  0.00     0.200 A 
ATOM     71  F   UNL A   1      42.780  29.770  37.418  1.00  0.00    -0.200 F 
ATOM     72  F   UNL A   1      42.102  27.166  36.974  1.00  0.00    -0.200 F 
ENDBRANCH  39  62
ENDBRANCH  13  14
ENDBRANCH   6   8
ENDBRANCH   3   4
ENDBRANCH   2   3
ENDBRANCH   1   2
BRANCH   1  73
ATOM     73  C   UNL A   1      37.249  23.745  25.851  1.00  0.00     0.116 C 
BRANCH  73  74
ATOM     74  N   UNL A   1      37.284  23.602  24.406  1.00  0.00    -0.352 N 
ATOM     75  C   UNL A   1      36.313  23.154  23.545  1.00  0.00     0.252 C 
ATOM     76  H   UNL A   1      38.131  23.867  23.981  1.00  0.00     0.163 HD
ATOM     77  O   UNL A   1      36.626  22.905  22.384  1.00  0.00    -0.269 OA
BRANCH  75  78
ATOM     78  C   UNL A   1      34.952  22.959  24.027  1.00  0.00     0.050 A 
ATOM     79  C   UNL A   1      34.455  21.773  24.536  1.00  0.00     0.079 A 
ATOM     80  C   UNL A   1      33.967  24.001  24.129  1.00  0.00     0.031 A 
ATOM     81  S   UNL A   1      32.827  21.893  25.032  1.00  0.00    -0.146 S 
ATOM     82  C   UNL A   1      32.755  23.554  24.619  1.00  0.00     0.024 A 
BRANCH  82  83
ATOM     83  C   UNL A   1      31.472  24.320  24.803  1.00  0.00     0.159 C 
BRANCH  83  84
ATOM     84  N   UNL A   1      30.837  24.651  23.534  1.00  0.00    -0.379 N 
ATOM     85  H   UNL A   1      30.779  23.969  22.828  1.00  0.00     0.160 HD
BRANCH  84  86
ATOM     86  C   UNL A   1      30.316  25.914  23.308  1.00  0.00     0.053 A 
ATOM     87  C   UNL A   1      29.108  26.340  23.854  1.00  0.00     0.031 A 
ATOM     88  C   UNL A   1      30.953  26.814  22.452  1.00  0.00     0.139 A 
ATOM     89  C   UNL A   1      28.627  27.626  23.591  1.00  0.00     0.051 A 
ATOM     90  N   UNL A   1      30.492  28.044  22.127  1.00  0.00    -0.235 NA
ATOM     91  C   UNL A   1      29.343  28.449  22.724  1.00  0.00     0.153 A 
BRANCH  91  92
ATOM     92  N   UNL A   1      28.859  29.765  22.457  1.00  0.00    -0.223 N 
ATOM     93  C   UNL A   1      28.423  30.696  23.384  1.00  0.00     0.117 A 
ATOM     94  N   UNL A   1      28.773  30.259  21.193  1.00  0.00    -0.175 NA
ATOM     95  C   UNL A   1      28.007  31.801  22.683  1.00  0.00     0.042 A 
ATOM     96  C   UNL A   1      28.210  31.460  21.337  1.00  0.00     0.135 A 
ENDBRANCH  91  92
ENDBRANCH  84  86
ENDBRANCH  83  84
ENDBRANCH  82  83
ENDBRANCH  75  78
ENDBRANCH  73  74
ENDBRANCH   1  73
TORSDOF 15
ENDMDL
