MODEL 1
REMARK VINA RESULT:     -11.8      0.000      0.000
REMARK SMILES C[C@@H]1SC[C@H](C(=O)NCCCCNC(=O)c2ccc(-c3c4nc(c(-c5c(F)c(F)c(F)c(F)c5F)c5ccc([nH]5)c(-c5c(F)c(F)c(F)c(F)c5F)c5nc(c(-c6c(F)c(F)c(F)c(F)c6F)c6ccc3[nH]6)C=C5)C=C4)cc2)N1C(=O)C[NH2+]CC(F)(F)F
REMARK SMILES IDX 9 1 8 2 6 3 7 4 5 6 1 7 2 8 3 9 79 10 4 11 80 12 81 13 82 14
REMARK SMILES IDX 83 15 84 18 85 19 86 20 87 21 88 22 10 23 11 24 12 25 13 26
REMARK SMILES IDX 14 27 15 29 16 30 17 31 78 32 18 33 77 34 19 35 20 36 21 37
REMARK SMILES IDX 71 38 22 39 76 40 70 41 72 42 23 43 75 44 69 45 68 46 24 48
REMARK SMILES IDX 56 49 36 50 55 51 37 52 40 53 54 54 73 55 38 56 39 57 53 59
REMARK SMILES IDX 74 60 41 61 25 62 26 63 34 64 27 65 28 66 32 67 35 68 29 69
REMARK SMILES IDX 30 70 33 71 31 72 57 73 58 74 66 75 59 76 60 77 64 78 67 79
REMARK SMILES IDX 61 80 62 81 65 82 63 83 42 84 43 85 51 86 44 87 45 88 49 89
REMARK SMILES IDX 52 90 46 91 47 92 50 93 48 94
REMARK H PARENT 8 5 83 16 83 17 13 28 72 47 40 58
REMARK Flexibility Score: inf
ROOT
ATOM      1  C   UNL A   1      32.638  29.860  26.914  1.00  0.00     0.116 C 
ENDROOT
BRANCH   1   2
ATOM      2  N   UNL A   1      31.912  28.676  27.322  1.00  0.00    -0.354 N 
ATOM      3  C   UNL A   1      31.780  27.470  26.701  1.00  0.00     0.243 C 
ATOM      4  O   UNL A   1      30.867  26.737  27.097  1.00  0.00    -0.273 OA
ATOM      5  H   UNL A   1      31.442  28.753  28.183  1.00  0.00     0.163 HD
BRANCH   3   6
ATOM      6  C   UNL A   1      32.578  27.111  25.432  1.00  0.00     0.185 C 
ATOM      7  C   UNL A   1      31.850  24.584  22.830  1.00  0.00     0.043 C 
ATOM      8  C   UNL A   1      32.568  25.834  23.329  1.00  0.00     0.141 C 
ATOM      9  S   UNL A   1      34.059  25.285  24.237  1.00  0.00    -0.135 SA
ATOM     10  N   UNL A   1      31.813  26.701  24.239  1.00  0.00    -0.313 N 
ATOM     11  C   UNL A   1      33.548  25.999  25.808  1.00  0.00     0.107 C 
BRANCH  10  12
ATOM     12  C   UNL A   1      30.815  27.575  23.818  1.00  0.00     0.279 C 
ATOM     13  O   UNL A   1      29.619  27.283  23.908  1.00  0.00    -0.268 OA
BRANCH  12  14
ATOM     14  C   UNL A   1      31.198  28.905  23.167  1.00  0.00     0.362 C 
BRANCH  14  15
ATOM     15  N   UNL A   1      30.063  29.430  22.392  1.00  0.00    -0.331 N 
ATOM     16  H   UNL A   1      29.465  28.654  22.111  1.00  0.00     0.346 HD
ATOM     17  H   UNL A   1      30.432  29.918  21.576  1.00  0.00     0.346 HD
BRANCH  15  18
ATOM     18  C   UNL A   1      29.259  30.395  23.189  1.00  0.00     0.378 C 
BRANCH  18  19
ATOM     19  C   UNL A   1      27.747  30.525  22.913  1.00  0.00     0.438 C 
ATOM     20  F   UNL A   1      27.498  30.551  21.586  1.00  0.00    -0.165 F 
ATOM     21  F   UNL A   1      27.072  29.483  23.445  1.00  0.00    -0.165 F 
ATOM     22  F   UNL A   1      27.245  31.658  23.456  1.00  0.00    -0.165 F 
ENDBRANCH  18  19
ENDBRANCH  15  18
ENDBRANCH  14  15
ENDBRANCH  12  14
ENDBRANCH  10  12
ENDBRANCH   3   6
ENDBRANCH   1   2
BRANCH   1  23
ATOM     23  C   UNL A   1      31.744  30.786  26.092  1.00  0.00     0.023 C 
BRANCH  23  24
ATOM     24  C   UNL A   1      31.440  32.133  26.754  1.00  0.00     0.023 C 
BRANCH  24  25
ATOM     25  C   UNL A   1      32.647  32.840  27.357  1.00  0.00     0.116 C 
BRANCH  25  26
ATOM     26  N   UNL A   1      32.388  34.241  27.653  1.00  0.00    -0.352 N 
ATOM     27  C   UNL A   1      32.984  35.053  28.585  1.00  0.00     0.251 C 
ATOM     28  H   UNL A   1      31.687  34.666  27.107  1.00  0.00     0.163 HD
ATOM     29  O   UNL A   1      32.537  36.175  28.805  1.00  0.00    -0.269 OA
BRANCH  27  30
ATOM     30  C   UNL A   1      34.146  34.557  29.348  1.00  0.00     0.039 A 
ATOM     31  C   UNL A   1      33.936  33.990  30.607  1.00  0.00     0.014 A 
ATOM     32  C   UNL A   1      35.435  34.627  28.811  1.00  0.00     0.014 A 
ATOM     33  C   UNL A   1      35.011  33.429  31.298  1.00  0.00     0.010 A 
ATOM     34  C   UNL A   1      36.488  33.997  29.464  1.00  0.00     0.010 A 
ATOM     35  C   UNL A   1      36.289  33.393  30.714  1.00  0.00    -0.014 A 
BRANCH  35  36
ATOM     36  C   UNL A   1      37.428  32.725  31.394  1.00  0.00     0.031 A 
ATOM     37  C   UNL A   1      38.123  31.566  30.739  1.00  0.00     0.074 A 
ATOM     38  C   UNL A   1      37.790  33.121  32.631  1.00  0.00     0.049 A 
ATOM     39  N   UNL A   1      39.092  30.814  31.198  1.00  0.00    -0.248 NA
ATOM     40  C   UNL A   1      37.650  31.182  29.400  1.00  0.00     0.031 C 
ATOM     41  C   UNL A   1      37.161  34.202  33.391  1.00  0.00     0.029 A 
ATOM     42  N   UNL A   1      38.769  32.652  33.470  1.00  0.00    -0.354 N 
ATOM     43  C   UNL A   1      39.327  29.861  30.216  1.00  0.00     0.074 A 
ATOM     44  C   UNL A   1      38.368  30.094  29.159  1.00  0.00     0.031 C 
ATOM     45  C   UNL A   1      37.787  34.332  34.572  1.00  0.00     0.029 A 
ATOM     46  C   UNL A   1      38.832  33.318  34.670  1.00  0.00     0.049 A 
ATOM     47  H   UNL A   1      39.370  31.908  33.234  1.00  0.00     0.167 HD
ATOM     48  C   UNL A   1      40.275  28.894  30.187  1.00  0.00     0.037 A 
ATOM     49  C   UNL A   1      39.639  33.128  35.730  1.00  0.00     0.037 A 
ATOM     50  C   UNL A   1      41.245  28.682  31.230  1.00  0.00     0.049 A 
ATOM     51  C   UNL A   1      40.676  32.037  35.678  1.00  0.00     0.074 A 
ATOM     52  C   UNL A   1      42.291  27.777  31.263  1.00  0.00     0.029 A 
ATOM     53  N   UNL A   1      41.285  29.384  32.426  1.00  0.00    -0.354 N 
ATOM     54  N   UNL A   1      40.943  31.194  34.709  1.00  0.00    -0.248 NA
ATOM     55  C   UNL A   1      41.526  31.875  36.865  1.00  0.00     0.031 C 
ATOM     56  C   UNL A   1      42.928  27.891  32.503  1.00  0.00     0.029 A 
ATOM     57  C   UNL A   1      42.318  28.908  33.218  1.00  0.00     0.049 A 
ATOM     58  H   UNL A   1      40.669  30.110  32.676  1.00  0.00     0.167 HD
ATOM     59  C   UNL A   1      42.010  30.426  35.156  1.00  0.00     0.074 A 
ATOM     60  C   UNL A   1      42.350  30.913  36.477  1.00  0.00     0.031 C 
ATOM     61  C   UNL A   1      42.651  29.410  34.528  1.00  0.00     0.037 A 
BRANCH  48  62
ATOM     62  C   UNL A   1      40.308  27.986  28.992  1.00  0.00     0.064 A 
ATOM     63  C   UNL A   1      41.054  28.300  27.845  1.00  0.00     0.173 A 
ATOM     64  C   UNL A   1      39.612  26.767  29.005  1.00  0.00     0.173 A 
ATOM     65  F   UNL A   1      41.729  29.458  27.775  1.00  0.00    -0.203 F 
ATOM     66  C   UNL A   1      41.078  27.444  26.747  1.00  0.00     0.198 A 
ATOM     67  C   UNL A   1      39.666  25.898  27.919  1.00  0.00     0.198 A 
ATOM     68  F   UNL A   1      38.888  26.413  30.077  1.00  0.00    -0.203 F 
ATOM     69  F   UNL A   1      41.755  27.791  25.644  1.00  0.00    -0.200 F 
ATOM     70  C   UNL A   1      40.390  26.241  26.788  1.00  0.00     0.200 A 
ATOM     71  F   UNL A   1      39.012  24.729  27.965  1.00  0.00    -0.200 F 
ATOM     72  F   UNL A   1      40.421  25.415  25.733  1.00  0.00    -0.200 F 
ENDBRANCH  48  62
BRANCH  49  73
ATOM     73  C   UNL A   1      39.522  34.006  36.924  1.00  0.00     0.064 A 
ATOM     74  C   UNL A   1      40.184  35.241  36.975  1.00  0.00     0.173 A 
ATOM     75  C   UNL A   1      38.761  33.629  38.040  1.00  0.00     0.173 A 
ATOM     76  F   UNL A   1      40.942  35.637  35.941  1.00  0.00    -0.203 F 
ATOM     77  C   UNL A   1      40.107  36.054  38.104  1.00  0.00     0.198 A 
ATOM     78  C   UNL A   1      38.660  34.457  39.157  1.00  0.00     0.198 A 
ATOM     79  F   UNL A   1      38.103  32.460  38.042  1.00  0.00    -0.203 F 
ATOM     80  F   UNL A   1      40.791  37.206  38.144  1.00  0.00    -0.200 F 
ATOM     81  C   UNL A   1      39.341  35.665  39.191  1.00  0.00     0.200 A 
ATOM     82  F   UNL A   1      37.906  34.084  40.199  1.00  0.00    -0.200 F 
ATOM     83  F   UNL A   1      39.266  36.448  40.276  1.00  0.00    -0.200 F 
ENDBRANCH  49  73
BRANCH  61  84
ATOM     84  C   UNL A   1      43.815  28.783  35.241  1.00  0.00     0.064 A 
ATOM     85  C   UNL A   1      43.649  27.701  36.118  1.00  0.00     0.173 A 
ATOM     86  C   UNL A   1      45.119  29.246  35.011  1.00  0.00     0.173 A 
ATOM     87  F   UNL A   1      42.420  27.230  36.383  1.00  0.00    -0.203 F 
ATOM     88  C   UNL A   1      44.741  27.124  36.759  1.00  0.00     0.198 A 
ATOM     89  C   UNL A   1      46.214  28.646  35.628  1.00  0.00     0.198 A 
ATOM     90  F   UNL A   1      45.335  30.274  34.175  1.00  0.00    -0.203 F 
ATOM     91  F   UNL A   1      44.554  26.126  37.633  1.00  0.00    -0.200 F 
ATOM     92  C   UNL A   1      46.023  27.592  36.507  1.00  0.00     0.200 A 
ATOM     93  F   UNL A   1      47.452  29.088  35.370  1.00  0.00    -0.200 F 
ATOM     94  F   UNL A   1      47.075  27.029  37.118  1.00  0.00    -0.200 F 
ENDBRANCH  61  84
ENDBRANCH  35  36
ENDBRANCH  27  30
ENDBRANCH  25  26
ENDBRANCH  24  25
ENDBRANCH  23  24
ENDBRANCH   1  23
TORSDOF 16
ENDMDL
MODEL 2
REMARK VINA RESULT:     -11.7      0.779      7.481
REMARK SMILES C[C@@H]1SC[C@H](C(=O)NCCCCNC(=O)c2ccc(-c3c4nc(c(-c5c(F)c(F)c(F)c(F)c5F)c5ccc([nH]5)c(-c5c(F)c(F)c(F)c(F)c5F)c5nc(c(-c6c(F)c(F)c(F)c(F)c6F)c6ccc3[nH]6)C=C5)C=C4)cc2)N1C(=O)C[NH2+]CC(F)(F)F
REMARK SMILES IDX 9 1 8 2 6 3 7 4 5 6 1 7 2 8 3 9 79 10 4 11 80 12 81 13 82 14
REMARK SMILES IDX 83 15 84 18 85 19 86 20 87 21 88 22 10 23 11 24 12 25 13 26
REMARK SMILES IDX 14 27 15 29 16 30 17 31 78 32 18 33 77 34 19 35 20 36 21 37
REMARK SMILES IDX 71 38 22 39 76 40 70 41 72 42 23 43 75 44 69 45 68 46 24 48
REMARK SMILES IDX 56 49 36 50 55 51 37 52 40 53 54 54 73 55 38 56 39 57 53 59
REMARK SMILES IDX 74 60 41 61 25 62 26 63 34 64 27 65 28 66 32 67 35 68 29 69
REMARK SMILES IDX 30 70 33 71 31 72 57 73 58 74 66 75 59 76 60 77 64 78 67 79
REMARK SMILES IDX 61 80 62 81 65 82 63 83 42 84 43 85 51 86 44 87 45 88 49 89
REMARK SMILES IDX 52 90 46 91 47 92 50 93 48 94
REMARK H PARENT 8 5 83 16 83 17 13 28 72 47 40 58
REMARK Flexibility Score: inf
ROOT
ATOM      1  C   UNL A   1      32.417  29.806  26.894  1.00  0.00     0.116 C 
ENDROOT
BRANCH   1   2
ATOM      2  N   UNL A   1      31.640  28.618  27.173  1.00  0.00    -0.354 N 
ATOM      3  C   UNL A   1      31.648  27.400  26.562  1.00  0.00     0.243 C 
ATOM      4  O   UNL A   1      30.684  26.659  26.784  1.00  0.00    -0.273 OA
ATOM      5  H   UNL A   1      31.008  28.702  27.922  1.00  0.00     0.163 HD
BRANCH   3   6
ATOM      6  C   UNL A   1      32.686  27.032  25.483  1.00  0.00     0.185 C 
ATOM      7  C   UNL A   1      32.282  24.985  22.429  1.00  0.00     0.043 C 
ATOM      8  C   UNL A   1      33.031  26.014  23.271  1.00  0.00     0.141 C 
ATOM      9  S   UNL A   1      34.122  25.094  24.417  1.00  0.00    -0.135 SA
ATOM     10  N   UNL A   1      32.209  26.907  24.093  1.00  0.00    -0.313 N 
ATOM     11  C   UNL A   1      33.333  25.722  25.908  1.00  0.00     0.107 C 
BRANCH  10  12
ATOM     12  C   UNL A   1      31.509  27.996  23.582  1.00  0.00     0.279 C 
ATOM     13  O   UNL A   1      32.072  29.062  23.320  1.00  0.00    -0.268 OA
BRANCH  12  14
ATOM     14  C   UNL A   1      29.993  27.903  23.399  1.00  0.00     0.362 C 
BRANCH  14  15
ATOM     15  N   UNL A   1      29.516  29.028  22.579  1.00  0.00    -0.331 N 
ATOM     16  H   UNL A   1      29.391  28.709  21.619  1.00  0.00     0.346 HD
ATOM     17  H   UNL A   1      30.210  29.774  22.626  1.00  0.00     0.346 HD
BRANCH  15  18
ATOM     18  C   UNL A   1      28.222  29.560  23.085  1.00  0.00     0.378 C 
BRANCH  18  19
ATOM     19  C   UNL A   1      28.072  31.077  23.319  1.00  0.00     0.438 C 
ATOM     20  F   UNL A   1      27.903  31.733  22.151  1.00  0.00    -0.165 F 
ATOM     21  F   UNL A   1      27.001  31.338  24.102  1.00  0.00    -0.165 F 
ATOM     22  F   UNL A   1      29.162  31.590  23.933  1.00  0.00    -0.165 F 
ENDBRANCH  18  19
ENDBRANCH  15  18
ENDBRANCH  14  15
ENDBRANCH  12  14
ENDBRANCH  10  12
ENDBRANCH   3   6
ENDBRANCH   1   2
BRANCH   1  23
ATOM     23  C   UNL A   1      31.597  30.815  26.093  1.00  0.00     0.023 C 
BRANCH  23  24
ATOM     24  C   UNL A   1      31.384  32.162  26.789  1.00  0.00     0.023 C 
BRANCH  24  25
ATOM     25  C   UNL A   1      32.663  32.883  27.195  1.00  0.00     0.116 C 
BRANCH  25  26
ATOM     26  N   UNL A   1      32.423  34.251  27.630  1.00  0.00    -0.352 N 
ATOM     27  C   UNL A   1      33.033  34.960  28.634  1.00  0.00     0.251 C 
ATOM     28  H   UNL A   1      31.723  34.736  27.135  1.00  0.00     0.163 HD
ATOM     29  O   UNL A   1      32.601  36.060  28.967  1.00  0.00    -0.269 OA
BRANCH  27  30
ATOM     30  C   UNL A   1      34.194  34.377  29.336  1.00  0.00     0.039 A 
ATOM     31  C   UNL A   1      33.976  33.619  30.488  1.00  0.00     0.014 A 
ATOM     32  C   UNL A   1      35.490  34.557  28.842  1.00  0.00     0.014 A 
ATOM     33  C   UNL A   1      35.053  32.982  31.107  1.00  0.00     0.010 A 
ATOM     34  C   UNL A   1      36.546  33.858  29.413  1.00  0.00     0.010 A 
ATOM     35  C   UNL A   1      36.341  33.064  30.552  1.00  0.00    -0.014 A 
BRANCH  35  36
ATOM     36  C   UNL A   1      37.484  32.325  31.144  1.00  0.00     0.031 A 
ATOM     37  C   UNL A   1      37.992  32.690  32.510  1.00  0.00     0.074 A 
ATOM     38  C   UNL A   1      38.106  31.371  30.423  1.00  0.00     0.049 A 
ATOM     39  N   UNL A   1      39.015  32.207  33.170  1.00  0.00    -0.248 NA
ATOM     40  C   UNL A   1      37.273  33.759  33.219  1.00  0.00     0.031 C 
ATOM     41  C   UNL A   1      37.737  30.959  29.068  1.00  0.00     0.029 A 
ATOM     42  N   UNL A   1      39.187  30.582  30.726  1.00  0.00    -0.354 N 
ATOM     43  C   UNL A   1      39.071  32.926  34.357  1.00  0.00     0.074 A 
ATOM     44  C   UNL A   1      38.015  33.912  34.306  1.00  0.00     0.031 C 
ATOM     45  C   UNL A   1      38.558  29.975  28.668  1.00  0.00     0.029 A 
ATOM     46  C   UNL A   1      39.537  29.715  29.719  1.00  0.00     0.049 A 
ATOM     47  H   UNL A   1      39.666  30.631  31.586  1.00  0.00     0.167 HD
ATOM     48  C   UNL A   1      39.914  32.761  35.405  1.00  0.00     0.037 A 
ATOM     49  C   UNL A   1      40.538  28.817  29.650  1.00  0.00     0.037 A 
ATOM     50  C   UNL A   1      40.946  31.760  35.461  1.00  0.00     0.049 A 
ATOM     51  C   UNL A   1      41.467  28.663  30.824  1.00  0.00     0.074 A 
ATOM     52  C   UNL A   1      41.805  31.465  36.506  1.00  0.00     0.029 A 
ATOM     53  N   UNL A   1      41.265  30.894  34.425  1.00  0.00    -0.354 N 
ATOM     54  N   UNL A   1      41.461  29.292  31.975  1.00  0.00    -0.248 NA
ATOM     55  C   UNL A   1      42.542  27.670  30.691  1.00  0.00     0.031 C 
ATOM     56  C   UNL A   1      42.679  30.459  36.083  1.00  0.00     0.029 A 
ATOM     57  C   UNL A   1      42.328  30.085  34.796  1.00  0.00     0.049 A 
ATOM     58  H   UNL A   1      40.805  30.860  33.556  1.00  0.00     0.167 HD
ATOM     59  C   UNL A   1      42.504  28.750  32.713  1.00  0.00     0.074 A 
ATOM     60  C   UNL A   1      43.114  27.730  31.885  1.00  0.00     0.031 C 
ATOM     61  C   UNL A   1      42.919  29.067  33.964  1.00  0.00     0.037 A 
BRANCH  48  62
ATOM     62  C   UNL A   1      39.756  33.686  36.577  1.00  0.00     0.064 A 
ATOM     63  C   UNL A   1      40.435  34.913  36.647  1.00  0.00     0.173 A 
ATOM     64  C   UNL A   1      38.885  33.360  37.628  1.00  0.00     0.173 A 
ATOM     65  F   UNL A   1      41.288  35.269  35.674  1.00  0.00    -0.203 F 
ATOM     66  C   UNL A   1      40.273  35.762  37.739  1.00  0.00     0.198 A 
ATOM     67  C   UNL A   1      38.700  34.227  38.701  1.00  0.00     0.198 A 
ATOM     68  F   UNL A   1      38.206  32.204  37.610  1.00  0.00    -0.203 F 
ATOM     69  F   UNL A   1      40.973  36.902  37.807  1.00  0.00    -0.200 F 
ATOM     70  C   UNL A   1      39.399  35.422  38.761  1.00  0.00     0.200 A 
ATOM     71  F   UNL A   1      37.844  33.904  39.682  1.00  0.00    -0.200 F 
ATOM     72  F   UNL A   1      39.239  36.244  39.807  1.00  0.00    -0.200 F 
ENDBRANCH  48  62
BRANCH  49  73
ATOM     73  C   UNL A   1      40.700  27.971  28.438  1.00  0.00     0.064 A 
ATOM     74  C   UNL A   1      40.095  26.709  28.357  1.00  0.00     0.173 A 
ATOM     75  C   UNL A   1      41.468  28.397  27.345  1.00  0.00     0.173 A 
ATOM     76  F   UNL A   1      39.367  26.250  29.386  1.00  0.00    -0.203 F 
ATOM     77  C   UNL A   1      40.270  25.897  27.239  1.00  0.00     0.198 A 
ATOM     78  C   UNL A   1      41.618  27.596  26.214  1.00  0.00     0.198 A 
ATOM     79  F   UNL A   1      42.065  29.598  27.368  1.00  0.00    -0.203 F 
ATOM     80  F   UNL A   1      39.721  24.675  27.210  1.00  0.00    -0.200 F 
ATOM     81  C   UNL A   1      41.026  26.342  26.167  1.00  0.00     0.200 A 
ATOM     82  F   UNL A   1      42.337  28.036  25.173  1.00  0.00    -0.200 F 
ATOM     83  F   UNL A   1      41.193  25.561  25.090  1.00  0.00    -0.200 F 
ENDBRANCH  49  73
BRANCH  61  84
ATOM     84  C   UNL A   1      44.060  28.275  34.534  1.00  0.00     0.064 A 
ATOM     85  C   UNL A   1      45.387  28.721  34.446  1.00  0.00     0.173 A 
ATOM     86  C   UNL A   1      43.816  27.071  35.214  1.00  0.00     0.173 A 
ATOM     87  F   UNL A   1      45.675  29.859  33.794  1.00  0.00    -0.203 F 
ATOM     88  C   UNL A   1      46.430  27.979  34.993  1.00  0.00     0.198 A 
ATOM     89  C   UNL A   1      44.858  26.348  35.788  1.00  0.00     0.198 A 
ATOM     90  F   UNL A   1      42.565  26.603  35.333  1.00  0.00    -0.203 F 
ATOM     91  F   UNL A   1      47.695  28.398  34.852  1.00  0.00    -0.200 F 
ATOM     92  C   UNL A   1      46.164  26.797  35.670  1.00  0.00     0.200 A 
ATOM     93  F   UNL A   1      44.597  25.216  36.456  1.00  0.00    -0.200 F 
ATOM     94  F   UNL A   1      47.168  26.089  36.204  1.00  0.00    -0.200 F 
ENDBRANCH  61  84
ENDBRANCH  35  36
ENDBRANCH  27  30
ENDBRANCH  25  26
ENDBRANCH  24  25
ENDBRANCH  23  24
ENDBRANCH   1  23
TORSDOF 16
ENDMDL
MODEL 3
REMARK VINA RESULT:     -11.7      6.479     11.775
REMARK SMILES C[C@@H]1SC[C@H](C(=O)NCCCCNC(=O)c2ccc(-c3c4nc(c(-c5c(F)c(F)c(F)c(F)c5F)c5ccc([nH]5)c(-c5c(F)c(F)c(F)c(F)c5F)c5nc(c(-c6c(F)c(F)c(F)c(F)c6F)c6ccc3[nH]6)C=C5)C=C4)cc2)N1C(=O)C[NH2+]CC(F)(F)F
REMARK SMILES IDX 9 1 8 2 6 3 7 4 5 6 1 7 2 8 3 9 79 10 4 11 80 12 81 13 82 14
REMARK SMILES IDX 83 15 84 18 85 19 86 20 87 21 88 22 10 23 11 24 12 25 13 26
REMARK SMILES IDX 14 27 15 29 16 30 17 31 78 32 18 33 77 34 19 35 20 36 21 37
REMARK SMILES IDX 71 38 22 39 76 40 70 41 72 42 23 43 75 44 69 45 68 46 24 48
REMARK SMILES IDX 56 49 36 50 55 51 37 52 40 53 54 54 73 55 38 56 39 57 53 59
REMARK SMILES IDX 74 60 41 61 25 62 26 63 34 64 27 65 28 66 32 67 35 68 29 69
REMARK SMILES IDX 30 70 33 71 31 72 57 73 58 74 66 75 59 76 60 77 64 78 67 79
REMARK SMILES IDX 61 80 62 81 65 82 63 83 42 84 43 85 51 86 44 87 45 88 49 89
REMARK SMILES IDX 52 90 46 91 47 92 50 93 48 94
REMARK H PARENT 8 5 83 16 83 17 13 28 72 47 40 58
REMARK Flexibility Score: inf
ROOT
ATOM      1  C   UNL A   1      36.647  22.089  24.955  1.00  0.00     0.116 C 
ENDROOT
BRANCH   1   2
ATOM      2  N   UNL A   1      35.720  22.335  23.872  1.00  0.00    -0.354 N 
ATOM      3  C   UNL A   1      34.455  22.842  23.897  1.00  0.00     0.243 C 
ATOM      4  O   UNL A   1      33.765  22.668  22.886  1.00  0.00    -0.273 OA
ATOM      5  H   UNL A   1      36.055  22.101  22.977  1.00  0.00     0.163 HD
BRANCH   3   6
ATOM      6  C   UNL A   1      33.829  23.417  25.182  1.00  0.00     0.185 C 
ATOM      7  C   UNL A   1      30.418  22.969  26.543  1.00  0.00     0.043 C 
ATOM      8  C   UNL A   1      31.888  23.351  26.692  1.00  0.00     0.141 C 
ATOM      9  S   UNL A   1      32.056  25.098  26.175  1.00  0.00    -0.135 SA
ATOM     10  N   UNL A   1      32.846  22.579  25.896  1.00  0.00    -0.313 N 
ATOM     11  C   UNL A   1      33.178  24.742  24.813  1.00  0.00     0.107 C 
BRANCH  10  12
ATOM     12  C   UNL A   1      33.260  21.291  26.225  1.00  0.00     0.279 C 
ATOM     13  O   UNL A   1      34.040  21.081  27.158  1.00  0.00    -0.268 OA
BRANCH  12  14
ATOM     14  C   UNL A   1      32.796  20.107  25.376  1.00  0.00     0.362 C 
BRANCH  14  15
ATOM     15  N   UNL A   1      32.899  18.861  26.152  1.00  0.00    -0.331 N 
ATOM     16  H   UNL A   1      32.191  18.869  26.886  1.00  0.00     0.346 HD
ATOM     17  H   UNL A   1      33.836  18.810  26.551  1.00  0.00     0.346 HD
BRANCH  15  18
ATOM     18  C   UNL A   1      32.691  17.665  25.292  1.00  0.00     0.378 C 
BRANCH  18  19
ATOM     19  C   UNL A   1      33.759  17.298  24.242  1.00  0.00     0.438 C 
ATOM     20  F   UNL A   1      33.389  17.712  23.010  1.00  0.00    -0.165 F 
ATOM     21  F   UNL A   1      34.943  17.877  24.539  1.00  0.00    -0.165 F 
ATOM     22  F   UNL A   1      33.957  15.962  24.191  1.00  0.00    -0.165 F 
ENDBRANCH  18  19
ENDBRANCH  15  18
ENDBRANCH  14  15
ENDBRANCH  12  14
ENDBRANCH  10  12
ENDBRANCH   3   6
ENDBRANCH   1   2
BRANCH   1  23
ATOM     23  C   UNL A   1      36.764  20.593  25.239  1.00  0.00     0.023 C 
BRANCH  23  24
ATOM     24  C   UNL A   1      38.134  19.988  24.922  1.00  0.00     0.023 C 
BRANCH  24  25
ATOM     25  C   UNL A   1      39.190  20.189  26.002  1.00  0.00     0.116 C 
BRANCH  25  26
ATOM     26  N   UNL A   1      40.184  19.127  26.020  1.00  0.00    -0.352 N 
ATOM     27  C   UNL A   1      41.549  19.221  26.134  1.00  0.00     0.251 C 
ATOM     28  H   UNL A   1      39.829  18.212  25.939  1.00  0.00     0.163 HD
ATOM     29  O   UNL A   1      42.253  18.228  25.979  1.00  0.00    -0.269 OA
BRANCH  27  30
ATOM     30  C   UNL A   1      42.169  20.532  26.411  1.00  0.00     0.039 A 
ATOM     31  C   UNL A   1      42.625  21.304  25.340  1.00  0.00     0.014 A 
ATOM     32  C   UNL A   1      42.275  21.008  27.721  1.00  0.00     0.014 A 
ATOM     33  C   UNL A   1      43.124  22.586  25.578  1.00  0.00     0.010 A 
ATOM     34  C   UNL A   1      42.697  22.313  27.947  1.00  0.00     0.010 A 
ATOM     35  C   UNL A   1      43.127  23.116  26.879  1.00  0.00    -0.014 A 
BRANCH  35  36
ATOM     36  C   UNL A   1      43.573  24.507  27.143  1.00  0.00     0.031 A 
ATOM     37  C   UNL A   1      42.601  25.525  27.664  1.00  0.00     0.074 A 
ATOM     38  C   UNL A   1      44.839  24.868  26.848  1.00  0.00     0.049 A 
ATOM     39  N   UNL A   1      42.781  26.802  27.896  1.00  0.00    -0.248 NA
ATOM     40  C   UNL A   1      41.233  25.055  27.935  1.00  0.00     0.031 C 
ATOM     41  C   UNL A   1      45.863  23.983  26.292  1.00  0.00     0.029 A 
ATOM     42  N   UNL A   1      45.474  26.078  26.965  1.00  0.00    -0.354 N 
ATOM     43  C   UNL A   1      41.550  27.286  28.319  1.00  0.00     0.074 A 
ATOM     44  C   UNL A   1      40.618  26.182  28.263  1.00  0.00     0.031 C 
ATOM     45  C   UNL A   1      47.006  24.671  26.144  1.00  0.00     0.029 A 
ATOM     46  C   UNL A   1      46.784  26.055  26.552  1.00  0.00     0.049 A 
ATOM     47  H   UNL A   1      45.033  26.887  27.313  1.00  0.00     0.167 HD
ATOM     48  C   UNL A   1      41.234  28.534  28.740  1.00  0.00     0.037 A 
ATOM     49  C   UNL A   1      47.701  27.040  26.504  1.00  0.00     0.037 A 
ATOM     50  C   UNL A   1      42.172  29.622  28.819  1.00  0.00     0.049 A 
ATOM     51  C   UNL A   1      47.318  28.421  26.966  1.00  0.00     0.074 A 
ATOM     52  C   UNL A   1      41.967  30.904  29.300  1.00  0.00     0.029 A 
ATOM     53  N   UNL A   1      43.493  29.558  28.402  1.00  0.00    -0.354 N 
ATOM     54  N   UNL A   1      46.173  28.848  27.442  1.00  0.00    -0.248 NA
ATOM     55  C   UNL A   1      48.359  29.456  26.888  1.00  0.00     0.031 C 
ATOM     56  C   UNL A   1      43.148  31.632  29.120  1.00  0.00     0.029 A 
ATOM     57  C   UNL A   1      44.107  30.788  28.584  1.00  0.00     0.049 A 
ATOM     58  H   UNL A   1      43.931  28.759  28.029  1.00  0.00     0.167 HD
ATOM     59  C   UNL A   1      46.365  30.188  27.750  1.00  0.00     0.074 A 
ATOM     60  C   UNL A   1      47.740  30.500  27.420  1.00  0.00     0.031 C 
ATOM     61  C   UNL A   1      45.480  31.081  28.261  1.00  0.00     0.037 A 
BRANCH  48  62
ATOM     62  C   UNL A   1      39.811  28.792  29.145  1.00  0.00     0.064 A 
ATOM     63  C   UNL A   1      39.375  28.617  30.468  1.00  0.00     0.173 A 
ATOM     64  C   UNL A   1      38.877  29.255  28.205  1.00  0.00     0.173 A 
ATOM     65  F   UNL A   1      40.224  28.166  31.405  1.00  0.00    -0.203 F 
ATOM     66  C   UNL A   1      38.053  28.866  30.828  1.00  0.00     0.198 A 
ATOM     67  C   UNL A   1      37.565  29.535  28.576  1.00  0.00     0.198 A 
ATOM     68  F   UNL A   1      39.240  29.445  26.928  1.00  0.00    -0.203 F 
ATOM     69  F   UNL A   1      37.649  28.641  32.085  1.00  0.00    -0.200 F 
ATOM     70  C   UNL A   1      37.151  29.332  29.883  1.00  0.00     0.200 A 
ATOM     71  F   UNL A   1      36.697  29.999  27.665  1.00  0.00    -0.200 F 
ATOM     72  F   UNL A   1      35.881  29.578  30.233  1.00  0.00    -0.200 F 
ENDBRANCH  48  62
BRANCH  49  73
ATOM     73  C   UNL A   1      49.080  26.754  26.027  1.00  0.00     0.064 A 
ATOM     74  C   UNL A   1      49.443  26.998  24.695  1.00  0.00     0.173 A 
ATOM     75  C   UNL A   1      50.057  26.224  26.883  1.00  0.00     0.173 A 
ATOM     76  F   UNL A   1      48.538  27.485  23.833  1.00  0.00    -0.203 F 
ATOM     77  C   UNL A   1      50.723  26.700  24.232  1.00  0.00     0.198 A 
ATOM     78  C   UNL A   1      51.345  25.955  26.425  1.00  0.00     0.198 A 
ATOM     79  F   UNL A   1      49.763  25.977  28.167  1.00  0.00    -0.203 F 
ATOM     80  F   UNL A   1      51.028  26.897  22.942  1.00  0.00    -0.200 F 
ATOM     81  C   UNL A   1      51.675  26.185  25.098  1.00  0.00     0.200 A 
ATOM     82  F   UNL A   1      52.267  25.472  27.269  1.00  0.00    -0.200 F 
ATOM     83  F   UNL A   1      52.907  25.901  24.652  1.00  0.00    -0.200 F 
ENDBRANCH  49  73
BRANCH  61  84
ATOM     84  C   UNL A   1      45.983  32.468  28.538  1.00  0.00     0.064 A 
ATOM     85  C   UNL A   1      46.588  32.807  29.757  1.00  0.00     0.173 A 
ATOM     86  C   UNL A   1      45.895  33.463  27.551  1.00  0.00     0.173 A 
ATOM     87  F   UNL A   1      46.683  31.896  30.739  1.00  0.00    -0.203 F 
ATOM     88  C   UNL A   1      47.061  34.095  29.989  1.00  0.00     0.198 A 
ATOM     89  C   UNL A   1      46.399  34.741  27.773  1.00  0.00     0.198 A 
ATOM     90  F   UNL A   1      45.333  33.190  26.364  1.00  0.00    -0.203 F 
ATOM     91  F   UNL A   1      47.588  34.410  31.180  1.00  0.00    -0.200 F 
ATOM     92  C   UNL A   1      46.973  35.059  28.994  1.00  0.00     0.200 A 
ATOM     93  F   UNL A   1      46.329  35.665  26.806  1.00  0.00    -0.200 F 
ATOM     94  F   UNL A   1      47.437  36.297  29.216  1.00  0.00    -0.200 F 
ENDBRANCH  61  84
ENDBRANCH  35  36
ENDBRANCH  27  30
ENDBRANCH  25  26
ENDBRANCH  24  25
ENDBRANCH  23  24
ENDBRANCH   1  23
TORSDOF 16
ENDMDL
