MODEL 1
REMARK VINA RESULT:     -10.8      0.000      0.000
REMARK SMILES C=CCN(CC(=O)NCCCCNC(=O)c1ccc(-c2c3nc(c(-c4c(F)c(F)c(F)c(F)c4F)c4ccc([nH]4)c(-c4c(F)c(F)c(F)c(F)c4F)c4nc(c(-c5c(F)c(F)c(F)c(F)c5F)c5ccc2[nH]5)C=C4)C=C3)cc1)C(=O)N1CCC[C@@H]1C(=O)OCC
REMARK SMILES IDX 6 1 7 2 8 3 5 5 4 6 3 7 2 8 1 9 79 10 80 11 81 12 82 13
REMARK SMILES IDX 85 14 83 15 84 16 86 17 87 18 88 19 89 20 90 21 9 22 10 23
REMARK SMILES IDX 11 24 12 25 13 26 14 27 15 29 16 30 17 31 78 32 18 33 77 34
REMARK SMILES IDX 19 35 20 36 21 37 71 38 22 39 76 40 70 41 72 42 23 43 75 44
REMARK SMILES IDX 69 45 68 46 24 48 56 49 36 50 55 51 37 52 40 53 54 54 73 55
REMARK SMILES IDX 38 56 39 57 53 59 74 60 41 61 25 62 26 63 34 64 27 65 28 66
REMARK SMILES IDX 32 67 35 68 29 69 30 70 33 71 31 72 57 73 58 74 66 75 59 76
REMARK SMILES IDX 60 77 64 78 67 79 61 80 62 81 65 82 63 83 42 84 43 85 51 86
REMARK SMILES IDX 44 87 45 88 49 89 52 90 46 91 47 92 50 93 48 94
REMARK H PARENT 8 4 13 28 72 47 40 58
REMARK Flexibility Score: inf
ROOT
ATOM      1  C   UNL A   1      32.876  28.975  24.194  1.00  0.00     0.239 C 
ATOM      2  O   UNL A   1      33.494  28.903  23.124  1.00  0.00    -0.273 OA
ATOM      3  N   UNL A   1      33.491  29.663  25.200  1.00  0.00    -0.355 N 
ATOM      4  H   UNL A   1      34.467  29.754  25.109  1.00  0.00     0.163 HD
ENDROOT
BRANCH   1   5
ATOM      5  C   UNL A   1      31.444  28.415  24.300  1.00  0.00     0.221 C 
BRANCH   5   6
ATOM      6  N   UNL A   1      31.297  27.053  24.828  1.00  0.00    -0.312 N 
BRANCH   6   7
ATOM      7  C   UNL A   1      30.476  26.117  24.064  1.00  0.00     0.149 C 
BRANCH   7   8
ATOM      8  C   UNL A   1      29.026  26.253  24.420  1.00  0.00    -0.013 C 
ATOM      9  C   UNL A   1      28.153  26.934  23.663  1.00  0.00     0.006 C 
ENDBRANCH   7   8
ENDBRANCH   6   7
BRANCH   6  10
ATOM     10  C   UNL A   1      32.024  26.544  25.896  1.00  0.00     0.321 C 
ATOM     11  O   UNL A   1      31.799  26.867  27.062  1.00  0.00    -0.248 OA
BRANCH  10  12
ATOM     12  N   UNL A   1      32.910  25.530  25.609  1.00  0.00    -0.311 N 
ATOM     13  C   UNL A   1      34.260  25.777  25.151  1.00  0.00     0.122 C 
ATOM     14  C   UNL A   1      32.968  24.388  26.526  1.00  0.00     0.197 C 
ATOM     15  C   UNL A   1      34.766  24.380  24.877  1.00  0.00     0.024 C 
ATOM     16  C   UNL A   1      34.182  23.571  26.039  1.00  0.00     0.039 C 
BRANCH  14  17
ATOM     17  C   UNL A   1      31.720  23.508  26.575  1.00  0.00     0.328 C 
ATOM     18  O   UNL A   1      31.172  23.192  27.625  1.00  0.00    -0.250 OA
BRANCH  17  19
ATOM     19  O   UNL A   1      31.400  23.002  25.351  1.00  0.00    -0.464 OA
BRANCH  19  20
ATOM     20  C   UNL A   1      31.827  21.654  25.091  1.00  0.00     0.229 C 
ATOM     21  C   UNL A   1      32.355  21.451  23.679  1.00  0.00     0.049 C 
ENDBRANCH  19  20
ENDBRANCH  17  19
ENDBRANCH  14  17
ENDBRANCH  10  12
ENDBRANCH   6  10
ENDBRANCH   5   6
ENDBRANCH   1   5
BRANCH   3  22
ATOM     22  C   UNL A   1      32.922  30.275  26.378  1.00  0.00     0.116 C 
BRANCH  22  23
ATOM     23  C   UNL A   1      31.575  30.954  26.141  1.00  0.00     0.023 C 
BRANCH  23  24
ATOM     24  C   UNL A   1      31.348  32.261  26.899  1.00  0.00     0.023 C 
BRANCH  24  25
ATOM     25  C   UNL A   1      32.604  32.999  27.339  1.00  0.00     0.116 C 
BRANCH  25  26
ATOM     26  N   UNL A   1      32.366  34.371  27.750  1.00  0.00    -0.352 N 
ATOM     27  C   UNL A   1      33.041  35.124  28.688  1.00  0.00     0.251 C 
ATOM     28  H   UNL A   1      31.621  34.827  27.296  1.00  0.00     0.163 HD
ATOM     29  O   UNL A   1      32.658  36.252  28.966  1.00  0.00    -0.269 OA
BRANCH  27  30
ATOM     30  C   UNL A   1      34.204  34.541  29.390  1.00  0.00     0.039 A 
ATOM     31  C   UNL A   1      33.991  33.891  30.609  1.00  0.00     0.014 A 
ATOM     32  C   UNL A   1      35.486  34.605  28.843  1.00  0.00     0.014 A 
ATOM     33  C   UNL A   1      35.053  33.241  31.242  1.00  0.00     0.010 A 
ATOM     34  C   UNL A   1      36.527  33.894  29.433  1.00  0.00     0.010 A 
ATOM     35  C   UNL A   1      36.320  33.203  30.637  1.00  0.00    -0.014 A 
BRANCH  35  36
ATOM     36  C   UNL A   1      37.442  32.443  31.246  1.00  0.00     0.031 A 
ATOM     37  C   UNL A   1      37.949  32.811  32.611  1.00  0.00     0.074 A 
ATOM     38  C   UNL A   1      38.049  31.469  30.539  1.00  0.00     0.049 A 
ATOM     39  N   UNL A   1      38.965  32.324  33.277  1.00  0.00    -0.248 NA
ATOM     40  C   UNL A   1      37.235  33.891  33.311  1.00  0.00     0.031 C 
ATOM     41  C   UNL A   1      37.680  31.048  29.187  1.00  0.00     0.029 A 
ATOM     42  N   UNL A   1      39.112  30.662  30.859  1.00  0.00    -0.354 N 
ATOM     43  C   UNL A   1      39.018  33.042  34.465  1.00  0.00     0.074 A 
ATOM     44  C   UNL A   1      37.970  34.038  34.403  1.00  0.00     0.031 C 
ATOM     45  C   UNL A   1      38.488  30.046  28.802  1.00  0.00     0.029 A 
ATOM     46  C   UNL A   1      39.456  29.781  29.862  1.00  0.00     0.049 A 
ATOM     47  H   UNL A   1      39.584  30.710  31.722  1.00  0.00     0.167 HD
ATOM     48  C   UNL A   1      39.849  32.871  35.520  1.00  0.00     0.037 A 
ATOM     49  C   UNL A   1      40.444  28.868  29.808  1.00  0.00     0.037 A 
ATOM     50  C   UNL A   1      40.877  31.866  35.587  1.00  0.00     0.049 A 
ATOM     51  C   UNL A   1      41.362  28.708  30.990  1.00  0.00     0.074 A 
ATOM     52  C   UNL A   1      41.737  31.580  36.633  1.00  0.00     0.029 A 
ATOM     53  N   UNL A   1      41.183  30.981  34.564  1.00  0.00    -0.354 N 
ATOM     54  N   UNL A   1      41.362  29.351  32.132  1.00  0.00    -0.248 NA
ATOM     55  C   UNL A   1      42.415  27.689  30.875  1.00  0.00     0.031 C 
ATOM     56  C   UNL A   1      42.594  30.551  36.226  1.00  0.00     0.029 A 
ATOM     57  C   UNL A   1      42.232  30.161  34.947  1.00  0.00     0.049 A 
ATOM     58  H   UNL A   1      40.722  30.942  33.694  1.00  0.00     0.167 HD
ATOM     59  C   UNL A   1      42.389  28.795  32.883  1.00  0.00     0.074 A 
ATOM     60  C   UNL A   1      42.982  27.753  32.071  1.00  0.00     0.031 C 
ATOM     61  C   UNL A   1      42.803  29.119  34.133  1.00  0.00     0.037 A 
BRANCH  48  62
ATOM     62  C   UNL A   1      39.673  33.790  36.696  1.00  0.00     0.064 A 
ATOM     63  C   UNL A   1      40.296  35.047  36.744  1.00  0.00     0.173 A 
ATOM     64  C   UNL A   1      38.848  33.425  37.769  1.00  0.00     0.173 A 
ATOM     65  F   UNL A   1      41.105  35.439  35.749  1.00  0.00    -0.203 F 
ATOM     66  C   UNL A   1      40.123  35.890  37.838  1.00  0.00     0.198 A 
ATOM     67  C   UNL A   1      38.652  34.285  38.847  1.00  0.00     0.198 A 
ATOM     68  F   UNL A   1      38.225  32.237  37.771  1.00  0.00    -0.203 F 
ATOM     69  F   UNL A   1      40.768  37.064  37.886  1.00  0.00    -0.200 F 
ATOM     70  C   UNL A   1      39.295  35.513  38.885  1.00  0.00     0.200 A 
ATOM     71  F   UNL A   1      37.842  33.924  39.851  1.00  0.00    -0.200 F 
ATOM     72  F   UNL A   1      39.125  36.329  39.933  1.00  0.00    -0.200 F 
ENDBRANCH  48  62
BRANCH  49  73
ATOM     73  C   UNL A   1      40.603  28.014  28.601  1.00  0.00     0.064 A 
ATOM     74  C   UNL A   1      41.415  28.424  27.535  1.00  0.00     0.173 A 
ATOM     75  C   UNL A   1      39.943  26.783  28.482  1.00  0.00     0.173 A 
ATOM     76  F   UNL A   1      42.051  29.604  27.593  1.00  0.00    -0.203 F 
ATOM     77  C   UNL A   1      41.540  27.649  26.383  1.00  0.00     0.198 A 
ATOM     78  C   UNL A   1      40.091  25.994  27.343  1.00  0.00     0.198 A 
ATOM     79  F   UNL A   1      39.158  26.342  29.476  1.00  0.00    -0.203 F 
ATOM     80  F   UNL A   1      42.282  28.090  25.358  1.00  0.00    -0.200 F 
ATOM     81  C   UNL A   1      40.882  26.432  26.291  1.00  0.00     0.200 A 
ATOM     82  F   UNL A   1      39.464  24.813  27.262  1.00  0.00    -0.200 F 
ATOM     83  F   UNL A   1      41.002  25.686  25.184  1.00  0.00    -0.200 F 
ENDBRANCH  49  73
BRANCH  61  84
ATOM     84  C   UNL A   1      43.924  28.310  34.717  1.00  0.00     0.064 A 
ATOM     85  C   UNL A   1      45.264  28.701  34.584  1.00  0.00     0.173 A 
ATOM     86  C   UNL A   1      43.648  27.148  35.455  1.00  0.00     0.173 A 
ATOM     87  F   UNL A   1      45.581  29.796  33.876  1.00  0.00    -0.203 F 
ATOM     88  C   UNL A   1      46.289  27.944  35.146  1.00  0.00     0.198 A 
ATOM     89  C   UNL A   1      44.673  26.412  36.042  1.00  0.00     0.198 A 
ATOM     90  F   UNL A   1      42.383  26.734  35.617  1.00  0.00    -0.203 F 
ATOM     91  F   UNL A   1      47.565  28.311  34.966  1.00  0.00    -0.200 F 
ATOM     92  C   UNL A   1      45.992  26.806  35.881  1.00  0.00     0.200 A 
ATOM     93  F   UNL A   1      44.384  25.319  36.763  1.00  0.00    -0.200 F 
ATOM     94  F   UNL A   1      46.980  26.084  36.428  1.00  0.00    -0.200 F 
ENDBRANCH  61  84
ENDBRANCH  35  36
ENDBRANCH  27  30
ENDBRANCH  25  26
ENDBRANCH  24  25
ENDBRANCH  23  24
ENDBRANCH  22  23
ENDBRANCH   3  22
TORSDOF 19
ENDMDL
MODEL 2
REMARK VINA RESULT:     -10.8      1.157      2.074
REMARK SMILES C=CCN(CC(=O)NCCCCNC(=O)c1ccc(-c2c3nc(c(-c4c(F)c(F)c(F)c(F)c4F)c4ccc([nH]4)c(-c4c(F)c(F)c(F)c(F)c4F)c4nc(c(-c5c(F)c(F)c(F)c(F)c5F)c5ccc2[nH]5)C=C4)C=C3)cc1)C(=O)N1CCC[C@@H]1C(=O)OCC
REMARK SMILES IDX 6 1 7 2 8 3 5 5 4 6 3 7 2 8 1 9 79 10 80 11 81 12 82 13
REMARK SMILES IDX 85 14 83 15 84 16 86 17 87 18 88 19 89 20 90 21 9 22 10 23
REMARK SMILES IDX 11 24 12 25 13 26 14 27 15 29 16 30 17 31 78 32 18 33 77 34
REMARK SMILES IDX 19 35 20 36 21 37 71 38 22 39 76 40 70 41 72 42 23 43 75 44
REMARK SMILES IDX 69 45 68 46 24 48 56 49 36 50 55 51 37 52 40 53 54 54 73 55
REMARK SMILES IDX 38 56 39 57 53 59 74 60 41 61 25 62 26 63 34 64 27 65 28 66
REMARK SMILES IDX 32 67 35 68 29 69 30 70 33 71 31 72 57 73 58 74 66 75 59 76
REMARK SMILES IDX 60 77 64 78 67 79 61 80 62 81 65 82 63 83 42 84 43 85 51 86
REMARK SMILES IDX 44 87 45 88 49 89 52 90 46 91 47 92 50 93 48 94
REMARK H PARENT 8 4 13 28 72 47 40 58
REMARK Flexibility Score: inf
ROOT
ATOM      1  C   UNL A   1      33.656  28.767  24.336  1.00  0.00     0.239 C 
ATOM      2  O   UNL A   1      34.491  28.970  23.446  1.00  0.00    -0.273 OA
ATOM      3  N   UNL A   1      33.727  29.585  25.427  1.00  0.00    -0.355 N 
ATOM      4  H   UNL A   1      34.596  30.025  25.564  1.00  0.00     0.163 HD
ENDROOT
BRANCH   1   5
ATOM      5  C   UNL A   1      32.540  27.725  24.127  1.00  0.00     0.221 C 
BRANCH   5   6
ATOM      6  N   UNL A   1      32.920  26.311  24.224  1.00  0.00    -0.312 N 
BRANCH   6   7
ATOM      7  C   UNL A   1      32.937  25.705  25.553  1.00  0.00     0.149 C 
BRANCH   7   8
ATOM      8  C   UNL A   1      31.750  26.137  26.361  1.00  0.00    -0.013 C 
ATOM      9  C   UNL A   1      30.513  25.667  26.142  1.00  0.00     0.006 C 
ENDBRANCH   7   8
ENDBRANCH   6   7
BRANCH   6  10
ATOM     10  C   UNL A   1      33.086  25.467  23.134  1.00  0.00     0.321 C 
ATOM     11  O   UNL A   1      33.662  25.821  22.106  1.00  0.00    -0.248 OA
BRANCH  10  12
ATOM     12  N   UNL A   1      32.716  24.152  23.311  1.00  0.00    -0.311 N 
ATOM     13  C   UNL A   1      31.343  23.706  23.220  1.00  0.00     0.122 C 
ATOM     14  C   UNL A   1      33.549  23.116  22.694  1.00  0.00     0.197 C 
ATOM     15  C   UNL A   1      31.455  22.247  23.596  1.00  0.00     0.024 C 
ATOM     16  C   UNL A   1      32.749  21.813  22.902  1.00  0.00     0.039 C 
BRANCH  14  17
ATOM     17  C   UNL A   1      34.960  22.969  23.260  1.00  0.00     0.328 C 
ATOM     18  O   UNL A   1      35.952  23.417  22.695  1.00  0.00    -0.250 OA
BRANCH  17  19
ATOM     19  O   UNL A   1      34.993  22.159  24.356  1.00  0.00    -0.464 OA
BRANCH  19  20
ATOM     20  C   UNL A   1      34.957  22.819  25.632  1.00  0.00     0.229 C 
ATOM     21  C   UNL A   1      36.299  23.405  26.045  1.00  0.00     0.049 C 
ENDBRANCH  19  20
ENDBRANCH  17  19
ENDBRANCH  14  17
ENDBRANCH  10  12
ENDBRANCH   6  10
ENDBRANCH   5   6
ENDBRANCH   1   5
BRANCH   3  22
ATOM     22  C   UNL A   1      32.716  29.897  26.409  1.00  0.00     0.116 C 
BRANCH  22  23
ATOM     23  C   UNL A   1      31.591  30.787  25.887  1.00  0.00     0.023 C 
BRANCH  23  24
ATOM     24  C   UNL A   1      31.322  32.059  26.690  1.00  0.00     0.023 C 
BRANCH  24  25
ATOM     25  C   UNL A   1      32.551  32.767  27.242  1.00  0.00     0.116 C 
BRANCH  25  26
ATOM     26  N   UNL A   1      32.314  34.148  27.621  1.00  0.00    -0.352 N 
ATOM     27  C   UNL A   1      32.986  34.921  28.545  1.00  0.00     0.251 C 
ATOM     28  H   UNL A   1      31.570  34.594  27.155  1.00  0.00     0.163 HD
ATOM     29  O   UNL A   1      32.603  36.055  28.796  1.00  0.00    -0.269 OA
BRANCH  27  30
ATOM     30  C   UNL A   1      34.146  34.352  29.264  1.00  0.00     0.039 A 
ATOM     31  C   UNL A   1      33.912  33.597  30.416  1.00  0.00     0.014 A 
ATOM     32  C   UNL A   1      35.448  34.534  28.795  1.00  0.00     0.014 A 
ATOM     33  C   UNL A   1      34.979  32.961  31.056  1.00  0.00     0.010 A 
ATOM     34  C   UNL A   1      36.499  33.840  29.386  1.00  0.00     0.010 A 
ATOM     35  C   UNL A   1      36.275  33.045  30.521  1.00  0.00    -0.014 A 
BRANCH  35  36
ATOM     36  C   UNL A   1      37.410  32.306  31.131  1.00  0.00     0.031 A 
ATOM     37  C   UNL A   1      37.914  32.689  32.493  1.00  0.00     0.074 A 
ATOM     38  C   UNL A   1      38.029  31.336  30.429  1.00  0.00     0.049 A 
ATOM     39  N   UNL A   1      38.939  32.221  33.159  1.00  0.00    -0.248 NA
ATOM     40  C   UNL A   1      37.186  33.762  33.189  1.00  0.00     0.031 C 
ATOM     41  C   UNL A   1      37.664  30.902  29.080  1.00  0.00     0.029 A 
ATOM     42  N   UNL A   1      39.106  30.547  30.751  1.00  0.00    -0.354 N 
ATOM     43  C   UNL A   1      38.984  32.947  34.343  1.00  0.00     0.074 A 
ATOM     44  C   UNL A   1      37.921  33.927  34.278  1.00  0.00     0.031 C 
ATOM     45  C   UNL A   1      38.486  29.910  28.699  1.00  0.00     0.029 A 
ATOM     46  C   UNL A   1      39.460  29.666  29.758  1.00  0.00     0.049 A 
ATOM     47  H   UNL A   1      39.579  30.607  31.612  1.00  0.00     0.167 HD
ATOM     48  C   UNL A   1      39.820  32.794  35.397  1.00  0.00     0.037 A 
ATOM     49  C   UNL A   1      40.461  28.767  29.706  1.00  0.00     0.037 A 
ATOM     50  C   UNL A   1      40.863  31.806  35.467  1.00  0.00     0.049 A 
ATOM     51  C   UNL A   1      41.385  28.628  30.887  1.00  0.00     0.074 A 
ATOM     52  C   UNL A   1      41.730  31.539  36.512  1.00  0.00     0.029 A 
ATOM     53  N   UNL A   1      41.180  30.919  34.449  1.00  0.00    -0.354 N 
ATOM     54  N   UNL A   1      41.378  29.278  32.025  1.00  0.00    -0.248 NA
ATOM     55  C   UNL A   1      42.453  27.624  30.776  1.00  0.00     0.031 C 
ATOM     56  C   UNL A   1      42.601  30.520  36.109  1.00  0.00     0.029 A 
ATOM     57  C   UNL A   1      42.242  30.117  34.833  1.00  0.00     0.049 A 
ATOM     58  H   UNL A   1      40.718  30.868  33.580  1.00  0.00     0.167 HD
ATOM     59  C   UNL A   1      42.415  28.742  32.777  1.00  0.00     0.074 A 
ATOM     60  C   UNL A   1      43.022  27.704  31.970  1.00  0.00     0.031 C 
ATOM     61  C   UNL A   1      42.827  29.079  34.024  1.00  0.00     0.037 A 
BRANCH  48  62
ATOM     62  C   UNL A   1      39.634  33.717  36.567  1.00  0.00     0.064 A 
ATOM     63  C   UNL A   1      38.834  33.359  37.664  1.00  0.00     0.173 A 
ATOM     64  C   UNL A   1      40.287  34.958  36.609  1.00  0.00     0.173 A 
ATOM     65  F   UNL A   1      38.179  32.189  37.669  1.00  0.00    -0.203 F 
ATOM     66  C   UNL A   1      38.673  34.222  38.744  1.00  0.00     0.198 A 
ATOM     67  C   UNL A   1      40.147  35.805  37.706  1.00  0.00     0.198 A 
ATOM     68  F   UNL A   1      41.066  35.348  35.589  1.00  0.00    -0.203 F 
ATOM     69  F   UNL A   1      37.864  33.880  39.757  1.00  0.00    -0.200 F 
ATOM     70  C   UNL A   1      39.335  35.440  38.769  1.00  0.00     0.200 A 
ATOM     71  F   UNL A   1      40.798  36.976  37.733  1.00  0.00    -0.200 F 
ATOM     72  F   UNL A   1      39.182  36.266  39.812  1.00  0.00    -0.200 F 
ENDBRANCH  48  62
BRANCH  49  73
ATOM     73  C   UNL A   1      40.631  27.909  28.505  1.00  0.00     0.064 A 
ATOM     74  C   UNL A   1      41.390  28.348  27.411  1.00  0.00     0.173 A 
ATOM     75  C   UNL A   1      40.031  26.644  28.416  1.00  0.00     0.173 A 
ATOM     76  F   UNL A   1      41.967  29.559  27.439  1.00  0.00    -0.203 F 
ATOM     77  C   UNL A   1      41.523  27.567  26.265  1.00  0.00     0.198 A 
ATOM     78  C   UNL A   1      40.188  25.851  27.281  1.00  0.00     0.198 A 
ATOM     79  F   UNL A   1      39.298  26.176  29.436  1.00  0.00    -0.203 F 
ATOM     80  F   UNL A   1      42.212  28.033  25.215  1.00  0.00    -0.200 F 
ATOM     81  C   UNL A   1      40.926  26.317  26.203  1.00  0.00     0.200 A 
ATOM     82  F   UNL A   1      39.621  24.639  27.230  1.00  0.00    -0.200 F 
ATOM     83  F   UNL A   1      41.053  25.565  25.101  1.00  0.00    -0.200 F 
ENDBRANCH  49  73
BRANCH  61  84
ATOM     84  C   UNL A   1      43.962  28.290  34.611  1.00  0.00     0.064 A 
ATOM     85  C   UNL A   1      45.290  28.728  34.517  1.00  0.00     0.173 A 
ATOM     86  C   UNL A   1      43.708  27.100  35.310  1.00  0.00     0.173 A 
ATOM     87  F   UNL A   1      45.586  29.852  33.846  1.00  0.00    -0.203 F 
ATOM     88  C   UNL A   1      46.328  27.989  35.081  1.00  0.00     0.198 A 
ATOM     89  C   UNL A   1      44.745  26.381  35.898  1.00  0.00     0.198 A 
ATOM     90  F   UNL A   1      42.454  26.641  35.433  1.00  0.00    -0.203 F 
ATOM     91  F   UNL A   1      47.595  28.401  34.939  1.00  0.00    -0.200 F 
ATOM     92  C   UNL A   1      46.053  26.821  35.777  1.00  0.00     0.200 A 
ATOM     93  F   UNL A   1      44.476  25.260  36.583  1.00  0.00    -0.200 F 
ATOM     94  F   UNL A   1      47.053  26.116  36.325  1.00  0.00    -0.200 F 
ENDBRANCH  61  84
ENDBRANCH  35  36
ENDBRANCH  27  30
ENDBRANCH  25  26
ENDBRANCH  24  25
ENDBRANCH  23  24
ENDBRANCH  22  23
ENDBRANCH   3  22
TORSDOF 19
ENDMDL
MODEL 3
REMARK VINA RESULT:     -10.4      1.090      7.738
REMARK SMILES C=CCN(CC(=O)NCCCCNC(=O)c1ccc(-c2c3nc(c(-c4c(F)c(F)c(F)c(F)c4F)c4ccc([nH]4)c(-c4c(F)c(F)c(F)c(F)c4F)c4nc(c(-c5c(F)c(F)c(F)c(F)c5F)c5ccc2[nH]5)C=C4)C=C3)cc1)C(=O)N1CCC[C@@H]1C(=O)OCC
REMARK SMILES IDX 6 1 7 2 8 3 5 5 4 6 3 7 2 8 1 9 79 10 80 11 81 12 82 13
REMARK SMILES IDX 85 14 83 15 84 16 86 17 87 18 88 19 89 20 90 21 9 22 10 23
REMARK SMILES IDX 11 24 12 25 13 26 14 27 15 29 16 30 17 31 78 32 18 33 77 34
REMARK SMILES IDX 19 35 20 36 21 37 71 38 22 39 76 40 70 41 72 42 23 43 75 44
REMARK SMILES IDX 69 45 68 46 24 48 56 49 36 50 55 51 37 52 40 53 54 54 73 55
REMARK SMILES IDX 38 56 39 57 53 59 74 60 41 61 25 62 26 63 34 64 27 65 28 66
REMARK SMILES IDX 32 67 35 68 29 69 30 70 33 71 31 72 57 73 58 74 66 75 59 76
REMARK SMILES IDX 60 77 64 78 67 79 61 80 62 81 65 82 63 83 42 84 43 85 51 86
REMARK SMILES IDX 44 87 45 88 49 89 52 90 46 91 47 92 50 93 48 94
REMARK H PARENT 8 4 13 28 72 47 40 58
REMARK Flexibility Score: inf
ROOT
ATOM      1  C   UNL A   1      32.169  27.886  27.192  1.00  0.00     0.239 C 
ATOM      2  O   UNL A   1      31.059  27.653  27.687  1.00  0.00    -0.273 OA
ATOM      3  N   UNL A   1      32.744  29.075  27.534  1.00  0.00    -0.355 N 
ATOM      4  H   UNL A   1      32.120  29.764  27.859  1.00  0.00     0.163 HD
ENDROOT
BRANCH   1   5
ATOM      5  C   UNL A   1      32.881  26.812  26.346  1.00  0.00     0.221 C 
BRANCH   5   6
ATOM      6  N   UNL A   1      32.097  25.629  25.970  1.00  0.00    -0.312 N 
BRANCH   6   7
ATOM      7  C   UNL A   1      32.148  24.473  26.861  1.00  0.00     0.149 C 
BRANCH   7   8
ATOM      8  C   UNL A   1      33.357  23.630  26.585  1.00  0.00    -0.013 C 
ATOM      9  C   UNL A   1      33.324  22.550  25.791  1.00  0.00     0.006 C 
ENDBRANCH   7   8
ENDBRANCH   6   7
BRANCH   6  10
ATOM     10  C   UNL A   1      31.174  25.598  24.932  1.00  0.00     0.321 C 
ATOM     11  O   UNL A   1      29.960  25.584  25.128  1.00  0.00    -0.248 OA
BRANCH  10  12
ATOM     12  N   UNL A   1      31.676  25.745  23.658  1.00  0.00    -0.311 N 
ATOM     13  C   UNL A   1      32.262  24.649  22.917  1.00  0.00     0.122 C 
ATOM     14  C   UNL A   1      30.906  26.548  22.705  1.00  0.00     0.197 C 
ATOM     15  C   UNL A   1      32.748  25.335  21.661  1.00  0.00     0.024 C 
ATOM     16  C   UNL A   1      31.622  26.327  21.357  1.00  0.00     0.039 C 
BRANCH  14  17
ATOM     17  C   UNL A   1      30.806  28.040  23.017  1.00  0.00     0.328 C 
ATOM     18  O   UNL A   1      29.822  28.543  23.547  1.00  0.00    -0.250 OA
BRANCH  17  19
ATOM     19  O   UNL A   1      31.851  28.745  22.497  1.00  0.00    -0.464 OA
BRANCH  19  20
ATOM     20  C   UNL A   1      32.922  29.052  23.405  1.00  0.00     0.229 C 
ATOM     21  C   UNL A   1      34.278  28.556  22.927  1.00  0.00     0.049 C 
ENDBRANCH  19  20
ENDBRANCH  17  19
ENDBRANCH  14  17
ENDBRANCH  10  12
ENDBRANCH   6  10
ENDBRANCH   5   6
ENDBRANCH   1   5
BRANCH   3  22
ATOM     22  C   UNL A   1      34.131  29.475  27.489  1.00  0.00     0.116 C 
BRANCH  22  23
ATOM     23  C   UNL A   1      34.377  30.927  27.891  1.00  0.00     0.023 C 
BRANCH  23  24
ATOM     24  C   UNL A   1      33.140  31.822  27.942  1.00  0.00     0.023 C 
BRANCH  24  25
ATOM     25  C   UNL A   1      33.149  33.020  27.002  1.00  0.00     0.116 C 
BRANCH  25  26
ATOM     26  N   UNL A   1      32.606  34.231  27.589  1.00  0.00    -0.352 N 
ATOM     27  C   UNL A   1      33.034  34.922  28.703  1.00  0.00     0.251 C 
ATOM     28  H   UNL A   1      31.824  34.612  27.127  1.00  0.00     0.163 HD
ATOM     29  O   UNL A   1      32.409  35.894  29.105  1.00  0.00    -0.269 OA
BRANCH  27  30
ATOM     30  C   UNL A   1      34.228  34.451  29.437  1.00  0.00     0.039 A 
ATOM     31  C   UNL A   1      34.049  33.830  30.676  1.00  0.00     0.014 A 
ATOM     32  C   UNL A   1      35.509  34.592  28.900  1.00  0.00     0.014 A 
ATOM     33  C   UNL A   1      35.148  33.283  31.341  1.00  0.00     0.010 A 
ATOM     34  C   UNL A   1      36.592  33.982  29.525  1.00  0.00     0.010 A 
ATOM     35  C   UNL A   1      36.423  33.319  30.751  1.00  0.00    -0.014 A 
BRANCH  35  36
ATOM     36  C   UNL A   1      37.590  32.666  31.396  1.00  0.00     0.031 A 
ATOM     37  C   UNL A   1      38.287  31.523  30.715  1.00  0.00     0.074 A 
ATOM     38  C   UNL A   1      37.978  33.058  32.626  1.00  0.00     0.049 A 
ATOM     39  N   UNL A   1      39.269  30.774  31.149  1.00  0.00    -0.248 NA
ATOM     40  C   UNL A   1      37.796  31.154  29.377  1.00  0.00     0.031 C 
ATOM     41  C   UNL A   1      37.356  34.125  33.411  1.00  0.00     0.029 A 
ATOM     42  N   UNL A   1      38.985  32.595  33.436  1.00  0.00    -0.354 N 
ATOM     43  C   UNL A   1      39.505  29.842  30.145  1.00  0.00     0.074 A 
ATOM     44  C   UNL A   1      38.525  30.082  29.107  1.00  0.00     0.031 C 
ATOM     45  C   UNL A   1      38.007  34.250  34.579  1.00  0.00     0.029 A 
ATOM     46  C   UNL A   1      39.067  33.248  34.642  1.00  0.00     0.049 A 
ATOM     47  H   UNL A   1      39.592  31.864  33.177  1.00  0.00     0.167 HD
ATOM     48  C   UNL A   1      40.465  28.890  30.085  1.00  0.00     0.037 A 
ATOM     49  C   UNL A   1      39.900  33.055  35.683  1.00  0.00     0.037 A 
ATOM     50  C   UNL A   1      41.451  28.668  31.109  1.00  0.00     0.049 A 
ATOM     51  C   UNL A   1      40.949  31.980  35.595  1.00  0.00     0.074 A 
ATOM     52  C   UNL A   1      42.497  27.761  31.119  1.00  0.00     0.029 A 
ATOM     53  N   UNL A   1      41.513  29.361  32.309  1.00  0.00    -0.354 N 
ATOM     54  N   UNL A   1      41.202  31.147  34.615  1.00  0.00    -0.248 NA
ATOM     55  C   UNL A   1      41.834  31.824  36.758  1.00  0.00     0.031 C 
ATOM     56  C   UNL A   1      43.164  27.876  32.343  1.00  0.00     0.029 A 
ATOM     57  C   UNL A   1      42.567  28.889  33.074  1.00  0.00     0.049 A 
ATOM     58  H   UNL A   1      40.898  30.083  32.577  1.00  0.00     0.167 HD
ATOM     59  C   UNL A   1      42.292  30.392  35.027  1.00  0.00     0.074 A 
ATOM     60  C   UNL A   1      42.660  30.875  36.342  1.00  0.00     0.031 C 
ATOM     61  C   UNL A   1      42.930  29.389  34.375  1.00  0.00     0.037 A 
BRANCH  48  62
ATOM     62  C   UNL A   1      40.501  28.020  28.861  1.00  0.00     0.064 A 
ATOM     63  C   UNL A   1      41.264  28.367  27.735  1.00  0.00     0.173 A 
ATOM     64  C   UNL A   1      39.793  26.809  28.826  1.00  0.00     0.173 A 
ATOM     65  F   UNL A   1      41.950  29.519  27.713  1.00  0.00    -0.203 F 
ATOM     66  C   UNL A   1      41.291  27.550  26.609  1.00  0.00     0.198 A 
ATOM     67  C   UNL A   1      39.848  25.979  27.708  1.00  0.00     0.198 A 
ATOM     68  F   UNL A   1      39.052  26.427  29.876  1.00  0.00    -0.203 F 
ATOM     69  F   UNL A   1      41.986  27.927  25.526  1.00  0.00    -0.200 F 
ATOM     70  C   UNL A   1      40.590  26.353  26.598  1.00  0.00     0.200 A 
ATOM     71  F   UNL A   1      39.180  24.818  27.706  1.00  0.00    -0.200 F 
ATOM     72  F   UNL A   1      40.623  25.565  25.516  1.00  0.00    -0.200 F 
ENDBRANCH  48  62
BRANCH  49  73
ATOM     73  C   UNL A   1      39.793  33.915  36.891  1.00  0.00     0.064 A 
ATOM     74  C   UNL A   1      38.995  33.530  37.977  1.00  0.00     0.173 A 
ATOM     75  C   UNL A   1      40.470  35.139  36.982  1.00  0.00     0.173 A 
ATOM     76  F   UNL A   1      38.310  32.377  37.929  1.00  0.00    -0.203 F 
ATOM     77  C   UNL A   1      38.857  34.347  39.097  1.00  0.00     0.198 A 
ATOM     78  C   UNL A   1      40.356  35.942  38.115  1.00  0.00     0.198 A 
ATOM     79  F   UNL A   1      41.249  35.552  35.972  1.00  0.00    -0.203 F 
ATOM     80  F   UNL A   1      38.048  33.977  40.099  1.00  0.00    -0.200 F 
ATOM     81  C   UNL A   1      39.543  35.550  39.167  1.00  0.00     0.200 A 
ATOM     82  F   UNL A   1      41.029  37.099  38.185  1.00  0.00    -0.200 F 
ATOM     83  F   UNL A   1      39.411  36.336  40.245  1.00  0.00    -0.200 F 
ENDBRANCH  49  73
BRANCH  61  84
ATOM     84  C   UNL A   1      44.119  28.774  35.054  1.00  0.00     0.064 A 
ATOM     85  C   UNL A   1      43.994  27.655  35.890  1.00  0.00     0.173 A 
ATOM     86  C   UNL A   1      45.406  29.289  34.832  1.00  0.00     0.173 A 
ATOM     87  F   UNL A   1      42.784  27.135  36.147  1.00  0.00    -0.203 F 
ATOM     88  C   UNL A   1      45.112  27.090  36.500  1.00  0.00     0.198 A 
ATOM     89  C   UNL A   1      46.523  28.702  35.418  1.00  0.00     0.198 A 
ATOM     90  F   UNL A   1      45.579  30.354  34.035  1.00  0.00    -0.203 F 
ATOM     91  F   UNL A   1      44.964  26.051  37.333  1.00  0.00    -0.200 F 
ATOM     92  C   UNL A   1      46.375  27.609  36.256  1.00  0.00     0.200 A 
ATOM     93  F   UNL A   1      47.745  29.196  35.171  1.00  0.00    -0.200 F 
ATOM     94  F   UNL A   1      47.450  27.058  36.838  1.00  0.00    -0.200 F 
ENDBRANCH  61  84
ENDBRANCH  35  36
ENDBRANCH  27  30
ENDBRANCH  25  26
ENDBRANCH  24  25
ENDBRANCH  23  24
ENDBRANCH  22  23
ENDBRANCH   3  22
TORSDOF 19
ENDMDL
