MODEL 1
REMARK VINA RESULT:     -13.3      0.000      0.000
REMARK SMILES CC1=C(C(=O)NCCCCNC(=O)c2ccc(-c3c4nc(c(-c5c(F)c(F)c(F)c(F)c5F)c5ccc([nH]5)c(-c5c(F)c(F)c(F)c(F)c5F)c5nc(c(-c6c(F)c(F)c(F)c(F)c6F)c6ccc3[nH]6)C=C5)C=C4)cc2)N2C(=O)[C@H](NC(=O)c3cc(C(F)(F)F)nn3C)[C@@H]2SC1
REMARK SMILES IDX 8 1 7 2 6 3 4 4 5 5 3 7 1 8 2 9 96 10 77 11 95 12 78 13
REMARK SMILES IDX 94 14 79 15 80 16 81 17 82 18 83 20 84 21 85 22 92 23 86 24
REMARK SMILES IDX 91 25 93 26 87 27 88 28 89 29 90 30 9 31 10 32 11 33 12 34
REMARK SMILES IDX 13 36 14 37 15 38 76 39 16 40 75 41 17 42 18 43 19 44 69 45
REMARK SMILES IDX 20 46 74 47 68 48 70 49 21 50 73 51 67 52 66 53 22 55 54 56
REMARK SMILES IDX 34 57 53 58 35 59 38 60 52 61 71 62 36 63 37 64 51 66 72 67
REMARK SMILES IDX 39 68 23 69 24 70 32 71 25 72 26 73 30 74 33 75 27 76 28 77
REMARK SMILES IDX 31 78 29 79 55 80 56 81 64 82 57 83 58 84 62 85 65 86 59 87
REMARK SMILES IDX 60 88 63 89 61 90 40 91 41 92 49 93 42 94 43 95 47 96 50 97
REMARK SMILES IDX 44 98 45 99 48 100 46 101
REMARK H PARENT 6 6 81 19 11 35 70 54 38 65
REMARK Flexibility Score: inf
ROOT
ATOM      1  C   UNL A   1      31.743  30.781  25.897  1.00  0.00     0.023 C 
ENDROOT
BRANCH   1   2
ATOM      2  C   UNL A   1      32.952  29.870  26.087  1.00  0.00     0.116 C 
BRANCH   2   3
ATOM      3  N   UNL A   1      33.632  29.433  24.881  1.00  0.00    -0.351 N 
ATOM      4  C   UNL A   1      33.160  28.694  23.819  1.00  0.00     0.268 C 
ATOM      5  O   UNL A   1      33.797  28.729  22.770  1.00  0.00    -0.268 OA
ATOM      6  H   UNL A   1      34.575  29.707  24.811  1.00  0.00     0.163 HD
BRANCH   4   7
ATOM      7  C   UNL A   1      31.935  27.809  23.974  1.00  0.00     0.110 C 
ATOM      8  C   UNL A   1      30.425  29.397  22.702  1.00  0.00     0.043 C 
ATOM      9  C   UNL A   1      30.698  28.194  23.568  1.00  0.00    -0.034 C 
ATOM     10  C   UNL A   1      29.449  27.381  23.827  1.00  0.00     0.104 C 
ATOM     11  N   UNL A   1      32.132  26.517  24.396  1.00  0.00    -0.290 N 
ATOM     12  S   UNL A   1      29.727  25.618  23.586  1.00  0.00    -0.129 SA
ATOM     13  C   UNL A   1      33.155  25.630  24.396  1.00  0.00     0.253 C 
ATOM     14  C   UNL A   1      31.098  25.571  24.769  1.00  0.00     0.181 C 
ATOM     15  O   UNL A   1      34.350  25.702  24.223  1.00  0.00    -0.272 OA
ATOM     16  C   UNL A   1      32.151  24.441  24.555  1.00  0.00     0.206 C 
BRANCH  16  17
ATOM     17  N   UNL A   1      31.967  23.585  23.346  1.00  0.00    -0.336 N 
ATOM     18  C   UNL A   1      32.634  22.451  22.958  1.00  0.00     0.270 C 
ATOM     19  H   UNL A   1      31.256  23.881  22.731  1.00  0.00     0.164 HD
ATOM     20  O   UNL A   1      32.309  21.915  21.900  1.00  0.00    -0.268 OA
BRANCH  18  21
ATOM     21  C   UNL A   1      33.709  21.962  23.782  1.00  0.00     0.126 A 
ATOM     22  C   UNL A   1      35.033  22.355  23.862  1.00  0.00     0.069 A 
ATOM     23  N   UNL A   1      33.579  20.982  24.735  1.00  0.00    -0.262 N 
ATOM     24  C   UNL A   1      35.657  21.469  24.778  1.00  0.00     0.167 A 
ATOM     25  N   UNL A   1      34.749  20.630  25.309  1.00  0.00    -0.168 NA
ATOM     26  C   UNL A   1      32.393  20.247  25.117  1.00  0.00     0.174 C 
BRANCH  24  27
ATOM     27  C   UNL A   1      37.123  21.412  25.116  1.00  0.00     0.435 C 
ATOM     28  F   UNL A   1      37.600  20.144  25.207  1.00  0.00    -0.164 F 
ATOM     29  F   UNL A   1      37.890  22.068  24.205  1.00  0.00    -0.164 F 
ATOM     30  F   UNL A   1      37.376  22.006  26.319  1.00  0.00    -0.164 F 
ENDBRANCH  24  27
ENDBRANCH  18  21
ENDBRANCH  16  17
ENDBRANCH   4   7
ENDBRANCH   2   3
ENDBRANCH   1   2
BRANCH   1  31
ATOM     31  C   UNL A   1      31.528  31.895  26.926  1.00  0.00     0.023 C 
BRANCH  31  32
ATOM     32  C   UNL A   1      32.729  32.766  27.292  1.00  0.00     0.116 C 
BRANCH  32  33
ATOM     33  N   UNL A   1      32.396  34.128  27.688  1.00  0.00    -0.352 N 
ATOM     34  C   UNL A   1      32.986  34.984  28.590  1.00  0.00     0.251 C 
ATOM     35  H   UNL A   1      31.608  34.501  27.231  1.00  0.00     0.163 HD
ATOM     36  O   UNL A   1      32.489  36.091  28.787  1.00  0.00    -0.269 OA
BRANCH  34  37
ATOM     37  C   UNL A   1      34.171  34.572  29.377  1.00  0.00     0.039 A 
ATOM     38  C   UNL A   1      33.983  34.184  30.708  1.00  0.00     0.014 A 
ATOM     39  C   UNL A   1      35.450  34.542  28.822  1.00  0.00     0.014 A 
ATOM     40  C   UNL A   1      35.045  33.634  31.431  1.00  0.00     0.010 A 
ATOM     41  C   UNL A   1      36.490  33.921  29.514  1.00  0.00     0.010 A 
ATOM     42  C   UNL A   1      36.287  33.425  30.811  1.00  0.00    -0.014 A 
BRANCH  42  43
ATOM     43  C   UNL A   1      37.347  32.605  31.458  1.00  0.00     0.031 A 
ATOM     44  C   UNL A   1      37.876  32.959  32.818  1.00  0.00     0.074 A 
ATOM     45  C   UNL A   1      37.912  31.598  30.760  1.00  0.00     0.049 A 
ATOM     46  N   UNL A   1      38.880  32.436  33.476  1.00  0.00    -0.248 NA
ATOM     47  C   UNL A   1      37.206  34.063  33.520  1.00  0.00     0.031 C 
ATOM     48  C   UNL A   1      37.527  31.186  29.409  1.00  0.00     0.029 A 
ATOM     49  N   UNL A   1      38.944  30.751  31.081  1.00  0.00    -0.354 N 
ATOM     50  C   UNL A   1      38.973  33.155  34.659  1.00  0.00     0.074 A 
ATOM     51  C   UNL A   1      37.949  34.179  34.612  1.00  0.00     0.031 C 
ATOM     52  C   UNL A   1      38.300  30.159  29.022  1.00  0.00     0.029 A 
ATOM     53  C   UNL A   1      39.266  29.870  30.076  1.00  0.00     0.049 A 
ATOM     54  H   UNL A   1      39.410  30.773  31.948  1.00  0.00     0.167 HD
ATOM     55  C   UNL A   1      39.822  32.967  35.698  1.00  0.00     0.037 A 
ATOM     56  C   UNL A   1      40.242  28.945  30.000  1.00  0.00     0.037 A 
ATOM     57  C   UNL A   1      40.825  31.934  35.755  1.00  0.00     0.049 A 
ATOM     58  C   UNL A   1      41.183  28.771  31.160  1.00  0.00     0.074 A 
ATOM     59  C   UNL A   1      41.675  31.614  36.799  1.00  0.00     0.029 A 
ATOM     60  N   UNL A   1      41.116  31.057  34.720  1.00  0.00    -0.354 N 
ATOM     61  N   UNL A   1      41.213  29.410  32.303  1.00  0.00    -0.248 NA
ATOM     62  C   UNL A   1      42.231  27.749  31.014  1.00  0.00     0.031 C 
ATOM     63  C   UNL A   1      42.514  30.574  36.379  1.00  0.00     0.029 A 
ATOM     64  C   UNL A   1      42.155  30.217  35.090  1.00  0.00     0.049 A 
ATOM     65  H   UNL A   1      40.653  31.035  33.851  1.00  0.00     0.167 HD
ATOM     66  C   UNL A   1      42.267  28.861  33.019  1.00  0.00     0.074 A 
ATOM     67  C   UNL A   1      42.840  27.821  32.189  1.00  0.00     0.031 C 
ATOM     68  C   UNL A   1      42.722  29.192  34.252  1.00  0.00     0.037 A 
BRANCH  55  69
ATOM     69  C   UNL A   1      39.704  33.898  36.869  1.00  0.00     0.064 A 
ATOM     70  C   UNL A   1      40.343  35.147  36.882  1.00  0.00     0.173 A 
ATOM     71  C   UNL A   1      38.906  33.558  37.973  1.00  0.00     0.173 A 
ATOM     72  F   UNL A   1      41.124  35.515  35.856  1.00  0.00    -0.203 F 
ATOM     73  C   UNL A   1      40.209  36.010  37.967  1.00  0.00     0.198 A 
ATOM     74  C   UNL A   1      38.752  34.434  39.043  1.00  0.00     0.198 A 
ATOM     75  F   UNL A   1      38.267  32.379  38.007  1.00  0.00    -0.203 F 
ATOM     76  F   UNL A   1      40.864  37.179  37.975  1.00  0.00    -0.200 F 
ATOM     77  C   UNL A   1      39.408  35.656  39.043  1.00  0.00     0.200 A 
ATOM     78  F   UNL A   1      37.968  34.097  40.076  1.00  0.00    -0.200 F 
ATOM     79  F   UNL A   1      39.275  36.491  40.082  1.00  0.00    -0.200 F 
ENDBRANCH  55  69
BRANCH  56  80
ATOM     80  C   UNL A   1      40.377  28.107  28.781  1.00  0.00     0.064 A 
ATOM     81  C   UNL A   1      41.149  28.542  27.694  1.00  0.00     0.173 A 
ATOM     82  C   UNL A   1      39.742  26.861  28.675  1.00  0.00     0.173 A 
ATOM     83  F   UNL A   1      41.755  29.737  27.741  1.00  0.00    -0.203 F 
ATOM     84  C   UNL A   1      41.266  27.770  26.541  1.00  0.00     0.198 A 
ATOM     85  C   UNL A   1      39.884  26.077  27.531  1.00  0.00     0.198 A 
ATOM     86  F   UNL A   1      38.997  26.398  29.689  1.00  0.00    -0.203 F 
ATOM     87  F   UNL A   1      41.976  28.228  25.501  1.00  0.00    -0.200 F 
ATOM     88  C   UNL A   1      40.639  26.535  26.463  1.00  0.00     0.200 A 
ATOM     89  F   UNL A   1      39.288  24.879  27.465  1.00  0.00    -0.200 F 
ATOM     90  F   UNL A   1      40.758  25.790  25.355  1.00  0.00    -0.200 F 
ENDBRANCH  56  80
BRANCH  68  91
ATOM     91  C   UNL A   1      43.891  28.417  34.782  1.00  0.00     0.064 A 
ATOM     92  C   UNL A   1      45.207  28.870  34.610  1.00  0.00     0.173 A 
ATOM     93  C   UNL A   1      43.694  27.226  35.497  1.00  0.00     0.173 A 
ATOM     94  F   UNL A   1      45.449  29.993  33.918  1.00  0.00    -0.203 F 
ATOM     95  C   UNL A   1      46.285  28.149  35.120  1.00  0.00     0.198 A 
ATOM     96  C   UNL A   1      44.771  26.522  36.028  1.00  0.00     0.198 A 
ATOM     97  F   UNL A   1      42.453  26.751  35.690  1.00  0.00    -0.203 F 
ATOM     98  F   UNL A   1      47.536  28.578  34.906  1.00  0.00    -0.200 F 
ATOM     99  C   UNL A   1      46.065  26.981  35.833  1.00  0.00     0.200 A 
ATOM    100  F   UNL A   1      44.557  25.398  36.726  1.00  0.00    -0.200 F 
ATOM    101  F   UNL A   1      47.103  26.291  36.327  1.00  0.00    -0.200 F 
ENDBRANCH  68  91
ENDBRANCH  42  43
ENDBRANCH  34  37
ENDBRANCH  32  33
ENDBRANCH  31  32
ENDBRANCH   1  31
TORSDOF 14
ENDMDL
MODEL 2
REMARK VINA RESULT:     -13.2      5.621     10.140
REMARK SMILES CC1=C(C(=O)NCCCCNC(=O)c2ccc(-c3c4nc(c(-c5c(F)c(F)c(F)c(F)c5F)c5ccc([nH]5)c(-c5c(F)c(F)c(F)c(F)c5F)c5nc(c(-c6c(F)c(F)c(F)c(F)c6F)c6ccc3[nH]6)C=C5)C=C4)cc2)N2C(=O)[C@H](NC(=O)c3cc(C(F)(F)F)nn3C)[C@@H]2SC1
REMARK SMILES IDX 8 1 7 2 6 3 4 4 5 5 3 7 1 8 2 9 96 10 77 11 95 12 78 13
REMARK SMILES IDX 94 14 79 15 80 16 81 17 82 18 83 20 84 21 85 22 92 23 86 24
REMARK SMILES IDX 91 25 93 26 87 27 88 28 89 29 90 30 9 31 10 32 11 33 12 34
REMARK SMILES IDX 13 36 14 37 15 38 76 39 16 40 75 41 17 42 18 43 19 44 69 45
REMARK SMILES IDX 20 46 74 47 68 48 70 49 21 50 73 51 67 52 66 53 22 55 54 56
REMARK SMILES IDX 34 57 53 58 35 59 38 60 52 61 71 62 36 63 37 64 51 66 72 67
REMARK SMILES IDX 39 68 23 69 24 70 32 71 25 72 26 73 30 74 33 75 27 76 28 77
REMARK SMILES IDX 31 78 29 79 55 80 56 81 64 82 57 83 58 84 62 85 65 86 59 87
REMARK SMILES IDX 60 88 63 89 61 90 40 91 41 92 49 93 42 94 43 95 47 96 50 97
REMARK SMILES IDX 44 98 45 99 48 100 46 101
REMARK H PARENT 6 6 81 19 11 35 70 54 38 65
REMARK Flexibility Score: inf
ROOT
ATOM      1  C   UNL A   1      37.359  22.420  24.721  1.00  0.00     0.023 C 
ENDROOT
BRANCH   1   2
ATOM      2  C   UNL A   1      36.089  22.588  23.891  1.00  0.00     0.116 C 
BRANCH   2   3
ATOM      3  N   UNL A   1      35.061  21.579  24.066  1.00  0.00    -0.351 N 
ATOM      4  C   UNL A   1      33.707  21.722  24.277  1.00  0.00     0.268 C 
ATOM      5  O   UNL A   1      32.989  20.749  24.062  1.00  0.00    -0.268 OA
ATOM      6  H   UNL A   1      35.380  20.648  24.029  1.00  0.00     0.163 HD
BRANCH   4   7
ATOM      7  C   UNL A   1      33.142  23.019  24.829  1.00  0.00     0.110 C 
ATOM      8  C   UNL A   1      34.155  22.676  27.125  1.00  0.00     0.043 C 
ATOM      9  C   UNL A   1      33.257  23.371  26.135  1.00  0.00    -0.034 C 
ATOM     10  C   UNL A   1      32.592  24.594  26.726  1.00  0.00     0.104 C 
ATOM     11  N   UNL A   1      32.638  23.927  23.930  1.00  0.00    -0.290 N 
ATOM     12  S   UNL A   1      32.693  26.017  25.626  1.00  0.00    -0.129 SA
ATOM     13  C   UNL A   1      32.800  24.197  22.612  1.00  0.00     0.253 C 
ATOM     14  C   UNL A   1      31.905  25.137  24.253  1.00  0.00     0.181 C 
ATOM     15  O   UNL A   1      33.283  23.610  21.672  1.00  0.00    -0.272 OA
ATOM     16  C   UNL A   1      32.252  25.648  22.821  1.00  0.00     0.206 C 
BRANCH  16  17
ATOM     17  N   UNL A   1      33.266  26.740  22.736  1.00  0.00    -0.336 N 
ATOM     18  C   UNL A   1      33.115  28.096  22.875  1.00  0.00     0.270 C 
ATOM     19  H   UNL A   1      34.187  26.440  22.551  1.00  0.00     0.164 HD
ATOM     20  O   UNL A   1      34.108  28.810  22.752  1.00  0.00    -0.268 OA
BRANCH  18  21
ATOM     21  C   UNL A   1      31.799  28.626  23.117  1.00  0.00     0.126 A 
ATOM     22  C   UNL A   1      30.634  28.522  22.376  1.00  0.00     0.069 A 
ATOM     23  N   UNL A   1      31.437  29.337  24.235  1.00  0.00    -0.262 N 
ATOM     24  C   UNL A   1      29.665  29.314  23.044  1.00  0.00     0.167 A 
ATOM     25  N   UNL A   1      30.172  29.808  24.188  1.00  0.00    -0.168 NA
ATOM     26  C   UNL A   1      32.249  29.702  25.374  1.00  0.00     0.174 C 
BRANCH  24  27
ATOM     27  C   UNL A   1      28.269  29.617  22.567  1.00  0.00     0.435 C 
ATOM     28  F   UNL A   1      28.216  29.954  21.253  1.00  0.00    -0.164 F 
ATOM     29  F   UNL A   1      27.421  28.570  22.751  1.00  0.00    -0.164 F 
ATOM     30  F   UNL A   1      27.728  30.664  23.256  1.00  0.00    -0.164 F 
ENDBRANCH  24  27
ENDBRANCH  18  21
ENDBRANCH  16  17
ENDBRANCH   4   7
ENDBRANCH   2   3
ENDBRANCH   1   2
BRANCH   1  31
ATOM     31  C   UNL A   1      37.836  20.991  25.001  1.00  0.00     0.023 C 
BRANCH  31  32
ATOM     32  C   UNL A   1      38.862  20.790  26.115  1.00  0.00     0.116 C 
BRANCH  32  33
ATOM     33  N   UNL A   1      39.763  19.662  25.916  1.00  0.00    -0.352 N 
ATOM     34  C   UNL A   1      41.132  19.564  26.012  1.00  0.00     0.251 C 
ATOM     35  H   UNL A   1      39.313  18.823  25.668  1.00  0.00     0.163 HD
ATOM     36  O   UNL A   1      41.681  18.495  25.752  1.00  0.00    -0.269 OA
BRANCH  34  37
ATOM     37  C   UNL A   1      41.964  20.739  26.358  1.00  0.00     0.039 A 
ATOM     38  C   UNL A   1      42.421  21.559  25.320  1.00  0.00     0.014 A 
ATOM     39  C   UNL A   1      42.280  21.056  27.680  1.00  0.00     0.014 A 
ATOM     40  C   UNL A   1      43.066  22.763  25.615  1.00  0.00     0.010 A 
ATOM     41  C   UNL A   1      42.852  22.293  27.977  1.00  0.00     0.010 A 
ATOM     42  C   UNL A   1      43.214  23.176  26.949  1.00  0.00    -0.014 A 
BRANCH  42  43
ATOM     43  C   UNL A   1      43.648  24.559  27.288  1.00  0.00     0.031 A 
ATOM     44  C   UNL A   1      42.661  25.583  27.767  1.00  0.00     0.074 A 
ATOM     45  C   UNL A   1      44.928  24.918  27.056  1.00  0.00     0.049 A 
ATOM     46  N   UNL A   1      42.837  26.862  27.988  1.00  0.00    -0.248 NA
ATOM     47  C   UNL A   1      41.287  25.116  28.005  1.00  0.00     0.031 C 
ATOM     48  C   UNL A   1      45.974  24.032  26.541  1.00  0.00     0.029 A 
ATOM     49  N   UNL A   1      45.562  26.127  27.201  1.00  0.00    -0.354 N 
ATOM     50  C   UNL A   1      41.599  27.355  28.373  1.00  0.00     0.074 A 
ATOM     51  C   UNL A   1      40.668  26.246  28.317  1.00  0.00     0.031 C 
ATOM     52  C   UNL A   1      47.120  24.722  26.427  1.00  0.00     0.029 A 
ATOM     53  C   UNL A   1      46.881  26.107  26.815  1.00  0.00     0.049 A 
ATOM     54  H   UNL A   1      45.115  26.933  27.549  1.00  0.00     0.167 HD
ATOM     55  C   UNL A   1      41.271  28.613  28.756  1.00  0.00     0.037 A 
ATOM     56  C   UNL A   1      47.793  27.096  26.758  1.00  0.00     0.037 A 
ATOM     57  C   UNL A   1      42.203  29.710  28.833  1.00  0.00     0.049 A 
ATOM     58  C   UNL A   1      47.397  28.487  27.170  1.00  0.00     0.074 A 
ATOM     59  C   UNL A   1      41.981  30.998  29.288  1.00  0.00     0.029 A 
ATOM     60  N   UNL A   1      43.531  29.648  28.439  1.00  0.00    -0.354 N 
ATOM     61  N   UNL A   1      46.240  28.924  27.602  1.00  0.00    -0.248 NA
ATOM     62  C   UNL A   1      48.436  29.524  27.080  1.00  0.00     0.031 C 
ATOM     63  C   UNL A   1      43.164  31.730  29.126  1.00  0.00     0.029 A 
ATOM     64  C   UNL A   1      44.134  30.885  28.611  1.00  0.00     0.049 A 
ATOM     65  H   UNL A   1      43.980  28.845  28.089  1.00  0.00     0.167 HD
ATOM     66  C   UNL A   1      46.412  30.278  27.850  1.00  0.00     0.074 A 
ATOM     67  C   UNL A   1      47.792  30.588  27.540  1.00  0.00     0.031 C 
ATOM     68  C   UNL A   1      45.506  31.184  28.291  1.00  0.00     0.037 A 
BRANCH  55  69
ATOM     69  C   UNL A   1      39.842  28.876  29.127  1.00  0.00     0.064 A 
ATOM     70  C   UNL A   1      38.895  29.270  28.171  1.00  0.00     0.173 A 
ATOM     71  C   UNL A   1      39.402  28.688  30.448  1.00  0.00     0.173 A 
ATOM     72  F   UNL A   1      39.266  29.471  26.898  1.00  0.00    -0.203 F 
ATOM     73  C   UNL A   1      37.566  29.492  28.526  1.00  0.00     0.198 A 
ATOM     74  C   UNL A   1      38.068  28.884  30.793  1.00  0.00     0.198 A 
ATOM     75  F   UNL A   1      40.266  28.305  31.400  1.00  0.00    -0.203 F 
ATOM     76  F   UNL A   1      36.689  29.909  27.603  1.00  0.00    -0.200 F 
ATOM     77  C   UNL A   1      37.153  29.292  29.834  1.00  0.00     0.200 A 
ATOM     78  F   UNL A   1      37.667  28.679  32.055  1.00  0.00    -0.200 F 
ATOM     79  F   UNL A   1      35.873  29.499  30.172  1.00  0.00    -0.200 F 
ENDBRANCH  55  69
BRANCH  56  80
ATOM     80  C   UNL A   1      49.175  26.806  26.295  1.00  0.00     0.064 A 
ATOM     81  C   UNL A   1      49.534  26.988  24.953  1.00  0.00     0.173 A 
ATOM     82  C   UNL A   1      50.160  26.342  27.179  1.00  0.00     0.173 A 
ATOM     83  F   UNL A   1      48.619  27.409  24.068  1.00  0.00    -0.203 F 
ATOM     84  C   UNL A   1      50.823  26.702  24.509  1.00  0.00     0.198 A 
ATOM     85  C   UNL A   1      51.456  26.082  26.739  1.00  0.00     0.198 A 
ATOM     86  F   UNL A   1      49.867  26.155  28.474  1.00  0.00    -0.203 F 
ATOM     87  F   UNL A   1      51.129  26.847  23.213  1.00  0.00    -0.200 F 
ATOM     88  C   UNL A   1      51.784  26.256  25.403  1.00  0.00     0.200 A 
ATOM     89  F   UNL A   1      52.386  25.664  27.608  1.00  0.00    -0.200 F 
ATOM     90  F   UNL A   1      53.026  25.986  24.976  1.00  0.00    -0.200 F 
ENDBRANCH  56  80
BRANCH  68  91
ATOM     91  C   UNL A   1      45.980  32.595  28.473  1.00  0.00     0.064 A 
ATOM     92  C   UNL A   1      45.864  33.543  27.446  1.00  0.00     0.173 A 
ATOM     93  C   UNL A   1      46.525  33.013  29.696  1.00  0.00     0.173 A 
ATOM     94  F   UNL A   1      45.367  33.187  26.252  1.00  0.00    -0.203 F 
ATOM     95  C   UNL A   1      46.295  34.854  27.631  1.00  0.00     0.198 A 
ATOM     96  C   UNL A   1      46.930  34.331  29.887  1.00  0.00     0.198 A 
ATOM     97  F   UNL A   1      46.655  32.144  30.711  1.00  0.00    -0.203 F 
ATOM     98  F   UNL A   1      46.215  35.733  26.622  1.00  0.00    -0.200 F 
ATOM     99  C   UNL A   1      46.820  35.248  28.852  1.00  0.00     0.200 A 
ATOM    100  F   UNL A   1      47.428  34.713  31.071  1.00  0.00    -0.200 F 
ATOM    101  F   UNL A   1      47.229  36.513  29.031  1.00  0.00    -0.200 F 
ENDBRANCH  68  91
ENDBRANCH  42  43
ENDBRANCH  34  37
ENDBRANCH  32  33
ENDBRANCH  31  32
ENDBRANCH   1  31
TORSDOF 14
ENDMDL
MODEL 3
REMARK VINA RESULT:     -13.2      1.623      7.331
REMARK SMILES CC1=C(C(=O)NCCCCNC(=O)c2ccc(-c3c4nc(c(-c5c(F)c(F)c(F)c(F)c5F)c5ccc([nH]5)c(-c5c(F)c(F)c(F)c(F)c5F)c5nc(c(-c6c(F)c(F)c(F)c(F)c6F)c6ccc3[nH]6)C=C5)C=C4)cc2)N2C(=O)[C@H](NC(=O)c3cc(C(F)(F)F)nn3C)[C@@H]2SC1
REMARK SMILES IDX 8 1 7 2 6 3 4 4 5 5 3 7 1 8 2 9 96 10 77 11 95 12 78 13
REMARK SMILES IDX 94 14 79 15 80 16 81 17 82 18 83 20 84 21 85 22 92 23 86 24
REMARK SMILES IDX 91 25 93 26 87 27 88 28 89 29 90 30 9 31 10 32 11 33 12 34
REMARK SMILES IDX 13 36 14 37 15 38 76 39 16 40 75 41 17 42 18 43 19 44 69 45
REMARK SMILES IDX 20 46 74 47 68 48 70 49 21 50 73 51 67 52 66 53 22 55 54 56
REMARK SMILES IDX 34 57 53 58 35 59 38 60 52 61 71 62 36 63 37 64 51 66 72 67
REMARK SMILES IDX 39 68 23 69 24 70 32 71 25 72 26 73 30 74 33 75 27 76 28 77
REMARK SMILES IDX 31 78 29 79 55 80 56 81 64 82 57 83 58 84 62 85 65 86 59 87
REMARK SMILES IDX 60 88 63 89 61 90 40 91 41 92 49 93 42 94 43 95 47 96 50 97
REMARK SMILES IDX 44 98 45 99 48 100 46 101
REMARK H PARENT 6 6 81 19 11 35 70 54 38 65
REMARK Flexibility Score: inf
ROOT
ATOM      1  C   UNL A   1      32.320  30.064  25.735  1.00  0.00     0.023 C 
ENDROOT
BRANCH   1   2
ATOM      2  C   UNL A   1      31.285  29.015  25.337  1.00  0.00     0.116 C 
BRANCH   2   3
ATOM      3  N   UNL A   1      30.825  29.048  23.961  1.00  0.00    -0.351 N 
ATOM      4  C   UNL A   1      30.917  28.092  22.975  1.00  0.00     0.268 C 
ATOM      5  O   UNL A   1      30.173  28.199  22.003  1.00  0.00    -0.268 OA
ATOM      6  H   UNL A   1      30.377  29.883  23.691  1.00  0.00     0.163 HD
BRANCH   4   7
ATOM      7  C   UNL A   1      31.957  26.989  23.059  1.00  0.00     0.110 C 
ATOM      8  C   UNL A   1      33.907  28.581  22.774  1.00  0.00     0.043 C 
ATOM      9  C   UNL A   1      33.280  27.213  22.852  1.00  0.00    -0.034 C 
ATOM     10  C   UNL A   1      34.312  26.108  22.807  1.00  0.00     0.104 C 
ATOM     11  N   UNL A   1      31.547  25.760  23.516  1.00  0.00    -0.290 N 
ATOM     12  S   UNL A   1      34.023  24.860  24.073  1.00  0.00    -0.129 SA
ATOM     13  C   UNL A   1      30.532  25.284  24.275  1.00  0.00     0.253 C 
ATOM     14  C   UNL A   1      32.331  24.539  23.512  1.00  0.00     0.181 C 
ATOM     15  O   UNL A   1      29.475  25.725  24.664  1.00  0.00    -0.272 OA
ATOM     16  C   UNL A   1      31.345  23.984  24.585  1.00  0.00     0.206 C 
BRANCH  16  17
ATOM     17  N   UNL A   1      31.876  23.870  25.975  1.00  0.00    -0.336 N 
ATOM     18  C   UNL A   1      32.619  22.873  26.556  1.00  0.00     0.270 C 
ATOM     19  H   UNL A   1      31.659  24.627  26.567  1.00  0.00     0.164 HD
ATOM     20  O   UNL A   1      32.938  22.995  27.736  1.00  0.00    -0.268 OA
BRANCH  18  21
ATOM     21  C   UNL A   1      32.958  21.714  25.773  1.00  0.00     0.126 A 
ATOM     22  C   UNL A   1      32.150  20.818  25.092  1.00  0.00     0.069 A 
ATOM     23  N   UNL A   1      34.239  21.298  25.507  1.00  0.00    -0.262 N 
ATOM     24  C   UNL A   1      33.014  19.821  24.570  1.00  0.00     0.167 A 
ATOM     25  N   UNL A   1      34.297  20.130  24.830  1.00  0.00    -0.168 NA
ATOM     26  C   UNL A   1      35.487  21.894  25.928  1.00  0.00     0.174 C 
BRANCH  24  27
ATOM     27  C   UNL A   1      32.603  18.565  23.850  1.00  0.00     0.435 C 
ATOM     28  F   UNL A   1      33.659  17.834  23.408  1.00  0.00    -0.164 F 
ATOM     29  F   UNL A   1      31.843  17.747  24.627  1.00  0.00    -0.164 F 
ATOM     30  F   UNL A   1      31.845  18.849  22.751  1.00  0.00    -0.164 F 
ENDBRANCH  24  27
ENDBRANCH  18  21
ENDBRANCH  16  17
ENDBRANCH   4   7
ENDBRANCH   2   3
ENDBRANCH   1   2
BRANCH   1  31
ATOM     31  C   UNL A   1      31.870  31.176  26.687  1.00  0.00     0.023 C 
BRANCH  31  32
ATOM     32  C   UNL A   1      32.948  32.072  27.295  1.00  0.00     0.116 C 
BRANCH  32  33
ATOM     33  N   UNL A   1      32.533  33.448  27.535  1.00  0.00    -0.352 N 
ATOM     34  C   UNL A   1      33.058  34.428  28.346  1.00  0.00     0.251 C 
ATOM     35  H   UNL A   1      31.735  33.724  27.029  1.00  0.00     0.163 HD
ATOM     36  O   UNL A   1      32.497  35.520  28.414  1.00  0.00    -0.269 OA
BRANCH  34  37
ATOM     37  C   UNL A   1      34.248  34.172  29.189  1.00  0.00     0.039 A 
ATOM     38  C   UNL A   1      34.059  33.587  30.446  1.00  0.00     0.014 A 
ATOM     39  C   UNL A   1      35.538  34.476  28.754  1.00  0.00     0.014 A 
ATOM     40  C   UNL A   1      35.163  33.179  31.199  1.00  0.00     0.010 A 
ATOM     41  C   UNL A   1      36.638  33.998  29.467  1.00  0.00     0.010 A 
ATOM     42  C   UNL A   1      36.460  33.310  30.677  1.00  0.00    -0.014 A 
BRANCH  42  43
ATOM     43  C   UNL A   1      37.626  32.651  31.325  1.00  0.00     0.031 A 
ATOM     44  C   UNL A   1      38.323  31.494  30.668  1.00  0.00     0.074 A 
ATOM     45  C   UNL A   1      37.987  33.034  32.567  1.00  0.00     0.049 A 
ATOM     46  N   UNL A   1      39.270  30.723  31.141  1.00  0.00    -0.248 NA
ATOM     47  C   UNL A   1      37.880  31.139  29.312  1.00  0.00     0.031 C 
ATOM     48  C   UNL A   1      37.357  34.109  33.337  1.00  0.00     0.029 A 
ATOM     49  N   UNL A   1      38.956  32.549  33.411  1.00  0.00    -0.354 N 
ATOM     50  C   UNL A   1      39.524  29.784  30.151  1.00  0.00     0.074 A 
ATOM     51  C   UNL A   1      38.604  30.057  29.066  1.00  0.00     0.031 C 
ATOM     52  C   UNL A   1      37.963  34.211  34.530  1.00  0.00     0.029 A 
ATOM     53  C   UNL A   1      38.992  33.182  34.630  1.00  0.00     0.049 A 
ATOM     54  H   UNL A   1      39.568  31.818  33.166  1.00  0.00     0.167 HD
ATOM     55  C   UNL A   1      40.453  28.797  30.141  1.00  0.00     0.037 A 
ATOM     56  C   UNL A   1      39.751  32.948  35.718  1.00  0.00     0.037 A 
ATOM     57  C   UNL A   1      41.383  28.542  31.211  1.00  0.00     0.049 A 
ATOM     58  C   UNL A   1      40.760  31.834  35.686  1.00  0.00     0.074 A 
ATOM     59  C   UNL A   1      42.413  27.619  31.256  1.00  0.00     0.029 A 
ATOM     60  N   UNL A   1      41.392  29.209  32.428  1.00  0.00    -0.354 N 
ATOM     61  N   UNL A   1      41.040  31.000  34.715  1.00  0.00    -0.248 NA
ATOM     62  C   UNL A   1      41.554  31.626  36.906  1.00  0.00     0.031 C 
ATOM     63  C   UNL A   1      43.015  27.694  32.518  1.00  0.00     0.029 A 
ATOM     64  C   UNL A   1      42.389  28.695  33.243  1.00  0.00     0.049 A 
ATOM     65  H   UNL A   1      40.780  29.939  32.676  1.00  0.00     0.167 HD
ATOM     66  C   UNL A   1      42.050  30.180  35.196  1.00  0.00     0.074 A 
ATOM     67  C   UNL A   1      42.349  30.629  36.540  1.00  0.00     0.031 C 
ATOM     68  C   UNL A   1      42.670  29.145  34.581  1.00  0.00     0.037 A 
BRANCH  55  69
ATOM     69  C   UNL A   1      40.516  27.916  28.929  1.00  0.00     0.064 A 
ATOM     70  C   UNL A   1      39.767  26.733  28.841  1.00  0.00     0.173 A 
ATOM     71  C   UNL A   1      41.298  28.281  27.822  1.00  0.00     0.173 A 
ATOM     72  F   UNL A   1      39.011  26.336  29.875  1.00  0.00    -0.203 F 
ATOM     73  C   UNL A   1      39.820  25.933  27.701  1.00  0.00     0.198 A 
ATOM     74  C   UNL A   1      41.327  27.494  26.674  1.00  0.00     0.198 A 
ATOM     75  F   UNL A   1      42.028  29.406  27.851  1.00  0.00    -0.203 F 
ATOM     76  F   UNL A   1      39.129  24.786  27.659  1.00  0.00    -0.200 F 
ATOM     77  C   UNL A   1      40.593  26.318  26.617  1.00  0.00     0.200 A 
ATOM     78  F   UNL A   1      42.065  27.873  25.622  1.00  0.00    -0.200 F 
ATOM     79  F   UNL A   1      40.637  25.552  25.519  1.00  0.00    -0.200 F 
ENDBRANCH  55  69
BRANCH  56  80
ATOM     80  C   UNL A   1      39.589  33.791  36.931  1.00  0.00     0.064 A 
ATOM     81  C   UNL A   1      40.275  35.007  37.055  1.00  0.00     0.173 A 
ATOM     82  C   UNL A   1      38.751  33.403  37.986  1.00  0.00     0.173 A 
ATOM     83  F   UNL A   1      41.105  35.408  36.082  1.00  0.00    -0.203 F 
ATOM     84  C   UNL A   1      40.142  35.794  38.196  1.00  0.00     0.198 A 
ATOM     85  C   UNL A   1      38.596  34.205  39.114  1.00  0.00     0.198 A 
ATOM     86  F   UNL A   1      38.069  32.250  37.913  1.00  0.00    -0.203 F 
ATOM     87  F   UNL A   1      40.840  36.932  38.307  1.00  0.00    -0.200 F 
ATOM     88  C   UNL A   1      39.297  35.396  39.221  1.00  0.00     0.200 A 
ATOM     89  F   UNL A   1      37.770  33.823  40.097  1.00  0.00    -0.200 F 
ATOM     90  F   UNL A   1      39.164  36.157  40.317  1.00  0.00    -0.200 F 
ENDBRANCH  56  80
BRANCH  68  91
ATOM     91  C   UNL A   1      43.742  28.432  35.352  1.00  0.00     0.064 A 
ATOM     92  C   UNL A   1      45.087  28.819  35.262  1.00  0.00     0.173 A 
ATOM     93  C   UNL A   1      43.418  27.373  36.214  1.00  0.00     0.173 A 
ATOM     94  F   UNL A   1      45.450  29.813  34.437  1.00  0.00    -0.203 F 
ATOM     95  C   UNL A   1      46.071  28.159  35.993  1.00  0.00     0.198 A 
ATOM     96  C   UNL A   1      44.401  26.733  36.964  1.00  0.00     0.198 A 
ATOM     97  F   UNL A   1      42.145  26.967  36.337  1.00  0.00    -0.203 F 
ATOM     98  F   UNL A   1      47.356  28.517  35.859  1.00  0.00    -0.200 F 
ATOM     99  C   UNL A   1      45.727  27.123  36.848  1.00  0.00     0.200 A 
ATOM    100  F   UNL A   1      44.065  25.739  37.797  1.00  0.00    -0.200 F 
ATOM    101  F   UNL A   1      46.675  26.492  37.555  1.00  0.00    -0.200 F 
ENDBRANCH  68  91
ENDBRANCH  42  43
ENDBRANCH  34  37
ENDBRANCH  32  33
ENDBRANCH  31  32
ENDBRANCH   1  31
TORSDOF 14
ENDMDL
