MODEL 1
REMARK VINA RESULT:     -13.4      0.000      0.000
REMARK SMILES O=C(C[C@H]1c2ccccc2CCN1C(=O)Nc1ccccc1Br)NCCCCNC(=O)c1ccc(-c2c3nc(c(-c4c(F)c(F)c(F)c(F)c4F)c4ccc([nH]4)c(-c4c(F)c(F)c(F)c(F)c4F)c4nc(c(-c5c(F)c(F)c(F)c(F)c5F)c5ccc2[nH]5)C=C4)C=C3)cc1
REMARK SMILES IDX 26 1 25 2 24 3 1 4 2 5 3 7 4 8 5 9 13 10 6 11 10 12 12 13
REMARK SMILES IDX 7 14 9 15 11 16 8 17 14 18 15 19 16 20 17 22 18 23 22 24
REMARK SMILES IDX 19 25 21 26 23 27 20 28 27 29 28 30 29 31 30 32 31 34 32 35
REMARK SMILES IDX 33 36 94 37 34 38 93 39 35 40 36 41 37 42 87 43 38 44 92 45
REMARK SMILES IDX 86 46 88 47 39 48 91 49 85 50 84 51 40 53 72 54 52 55 71 56
REMARK SMILES IDX 53 57 56 58 70 59 89 60 54 61 55 62 69 64 90 65 57 66 41 67
REMARK SMILES IDX 42 68 50 69 43 70 44 71 48 72 51 73 45 74 46 75 49 76 47 77
REMARK SMILES IDX 73 78 74 79 82 80 75 81 76 82 80 83 83 84 77 85 78 86 81 87
REMARK SMILES IDX 79 88 58 89 59 90 67 91 60 92 61 93 65 94 68 95 62 96 63 97
REMARK SMILES IDX 66 98 64 99
REMARK H PARENT 24 6 16 21 29 33 88 52 56 63
REMARK Flexibility Score: inf
ROOT
ATOM      1  C   UNL A   1      31.755  30.568  26.609  1.00  0.00     0.023 C 
ENDROOT
BRANCH   1   2
ATOM      2  C   UNL A   1      33.055  30.019  27.192  1.00  0.00     0.116 C 
BRANCH   2   3
ATOM      3  N   UNL A   1      33.148  28.580  27.050  1.00  0.00    -0.356 N 
ATOM      4  O   UNL A   1      34.094  28.633  24.970  1.00  0.00    -0.275 OA
ATOM      5  C   UNL A   1      33.697  27.988  25.936  1.00  0.00     0.222 C 
ATOM      6  H   UNL A   1      32.806  28.006  27.774  1.00  0.00     0.163 HD
BRANCH   5   7
ATOM      7  C   UNL A   1      33.699  26.474  25.945  1.00  0.00     0.130 C 
BRANCH   7   8
ATOM      8  C   UNL A   1      32.304  25.853  25.700  1.00  0.00     0.127 C 
ATOM      9  C   UNL A   1      31.594  26.561  24.534  1.00  0.00    -0.022 A 
ATOM     10  N   UNL A   1      32.445  24.386  25.448  1.00  0.00    -0.317 N 
ATOM     11  C   UNL A   1      30.611  27.536  24.728  1.00  0.00     0.006 A 
ATOM     12  C   UNL A   1      31.917  26.185  23.214  1.00  0.00    -0.041 A 
ATOM     13  C   UNL A   1      32.225  23.949  24.059  1.00  0.00     0.127 C 
ATOM     14  C   UNL A   1      30.019  28.166  23.627  1.00  0.00     0.000 A 
ATOM     15  C   UNL A   1      31.354  26.838  22.117  1.00  0.00     0.004 A 
ATOM     16  C   UNL A   1      32.759  24.956  23.043  1.00  0.00     0.057 C 
ATOM     17  C   UNL A   1      30.405  27.832  22.328  1.00  0.00     0.000 A 
BRANCH  10  18
ATOM     18  C   UNL A   1      32.547  23.585  26.569  1.00  0.00     0.322 C 
ATOM     19  O   UNL A   1      31.731  23.670  27.492  1.00  0.00    -0.248 OA
ATOM     20  N   UNL A   1      33.456  22.579  26.662  1.00  0.00    -0.307 N 
ATOM     21  H   UNL A   1      33.202  21.871  27.297  1.00  0.00     0.171 HD
BRANCH  20  22
ATOM     22  C   UNL A   1      34.683  22.355  26.026  1.00  0.00     0.057 A 
ATOM     23  C   UNL A   1      35.649  23.354  26.202  1.00  0.00     0.027 A 
ATOM     24  C   UNL A   1      35.016  21.188  25.317  1.00  0.00     0.041 A 
ATOM     25  C   UNL A   1      36.971  23.121  25.826  1.00  0.00     0.002 A 
ATOM     26  C   UNL A   1      36.343  20.965  24.933  1.00  0.00     0.018 A 
ATOM     27  Br  UNL A   1      33.733  19.870  24.845  1.00  0.00    -0.049 Br
ATOM     28  C   UNL A   1      37.323  21.917  25.219  1.00  0.00     0.001 A 
ENDBRANCH  20  22
ENDBRANCH  10  18
ENDBRANCH   7   8
ENDBRANCH   5   7
ENDBRANCH   2   3
ENDBRANCH   1   2
BRANCH   1  29
ATOM     29  C   UNL A   1      31.521  32.063  26.840  1.00  0.00     0.023 C 
BRANCH  29  30
ATOM     30  C   UNL A   1      32.764  32.872  27.193  1.00  0.00     0.116 C 
BRANCH  30  31
ATOM     31  N   UNL A   1      32.455  34.224  27.630  1.00  0.00    -0.352 N 
ATOM     32  C   UNL A   1      33.005  34.967  28.647  1.00  0.00     0.251 C 
ATOM     33  H   UNL A   1      31.745  34.675  27.120  1.00  0.00     0.163 HD
ATOM     34  O   UNL A   1      32.507  36.041  28.963  1.00  0.00    -0.269 OA
BRANCH  32  35
ATOM     35  C   UNL A   1      34.182  34.460  29.392  1.00  0.00     0.039 A 
ATOM     36  C   UNL A   1      33.980  33.842  30.628  1.00  0.00     0.014 A 
ATOM     37  C   UNL A   1      35.477  34.600  28.886  1.00  0.00     0.014 A 
ATOM     38  C   UNL A   1      35.064  33.298  31.321  1.00  0.00     0.010 A 
ATOM     39  C   UNL A   1      36.547  33.990  29.539  1.00  0.00     0.010 A 
ATOM     40  C   UNL A   1      36.353  33.329  30.762  1.00  0.00    -0.014 A 
BRANCH  40  41
ATOM     41  C   UNL A   1      37.501  32.666  31.435  1.00  0.00     0.031 A 
ATOM     42  C   UNL A   1      38.193  31.499  30.787  1.00  0.00     0.074 A 
ATOM     43  C   UNL A   1      37.880  33.074  32.663  1.00  0.00     0.049 A 
ATOM     44  N   UNL A   1      39.165  30.752  31.248  1.00  0.00    -0.248 NA
ATOM     45  C   UNL A   1      37.715  31.103  29.454  1.00  0.00     0.031 C 
ATOM     46  C   UNL A   1      37.265  34.167  33.417  1.00  0.00     0.029 A 
ATOM     47  N   UNL A   1      38.869  32.612  33.496  1.00  0.00    -0.354 N 
ATOM     48  C   UNL A   1      39.402  29.793  30.272  1.00  0.00     0.074 A 
ATOM     49  C   UNL A   1      38.438  30.018  29.217  1.00  0.00     0.031 C 
ATOM     50  C   UNL A   1      37.906  34.308  34.588  1.00  0.00     0.029 A 
ATOM     51  C   UNL A   1      38.946  33.289  34.689  1.00  0.00     0.049 A 
ATOM     52  H   UNL A   1      39.466  31.865  33.261  1.00  0.00     0.167 HD
ATOM     53  C   UNL A   1      40.350  28.824  30.248  1.00  0.00     0.037 A 
ATOM     54  C   UNL A   1      39.756  33.103  35.749  1.00  0.00     0.037 A 
ATOM     55  C   UNL A   1      41.323  28.617  31.290  1.00  0.00     0.049 A 
ATOM     56  C   UNL A   1      40.785  32.007  35.705  1.00  0.00     0.074 A 
ATOM     57  C   UNL A   1      42.364  27.704  31.327  1.00  0.00     0.029 A 
ATOM     58  N   UNL A   1      41.370  29.325  32.481  1.00  0.00    -0.354 N 
ATOM     59  N   UNL A   1      41.047  31.151  34.746  1.00  0.00    -0.248 NA
ATOM     60  C   UNL A   1      41.639  31.852  36.892  1.00  0.00     0.031 C 
ATOM     61  C   UNL A   1      43.003  27.820  32.565  1.00  0.00     0.029 A 
ATOM     62  C   UNL A   1      42.403  28.848  33.274  1.00  0.00     0.049 A 
ATOM     63  H   UNL A   1      40.762  30.058  32.728  1.00  0.00     0.167 HD
ATOM     64  C   UNL A   1      42.111  30.384  35.198  1.00  0.00     0.074 A 
ATOM     65  C   UNL A   1      42.458  30.882  36.512  1.00  0.00     0.031 C 
ATOM     66  C   UNL A   1      42.745  29.358  34.577  1.00  0.00     0.037 A 
BRANCH  53  67
ATOM     67  C   UNL A   1      40.381  27.908  29.057  1.00  0.00     0.064 A 
ATOM     68  C   UNL A   1      39.628  26.725  29.014  1.00  0.00     0.173 A 
ATOM     69  C   UNL A   1      41.142  28.240  27.925  1.00  0.00     0.173 A 
ATOM     70  F   UNL A   1      38.890  26.355  30.072  1.00  0.00    -0.203 F 
ATOM     71  C   UNL A   1      39.660  25.894  27.897  1.00  0.00     0.198 A 
ATOM     72  C   UNL A   1      41.145  27.425  26.797  1.00  0.00     0.198 A 
ATOM     73  F   UNL A   1      41.874  29.364  27.909  1.00  0.00    -0.203 F 
ATOM     74  F   UNL A   1      38.973  24.743  27.900  1.00  0.00    -0.200 F 
ATOM     75  C   UNL A   1      40.412  26.249  26.786  1.00  0.00     0.200 A 
ATOM     76  F   UNL A   1      41.859  27.778  25.720  1.00  0.00    -0.200 F 
ATOM     77  F   UNL A   1      40.435  25.452  25.709  1.00  0.00    -0.200 F 
ENDBRANCH  53  67
BRANCH  54  78
ATOM     78  C   UNL A   1      39.642  33.989  36.939  1.00  0.00     0.064 A 
ATOM     79  C   UNL A   1      38.864  33.614  38.044  1.00  0.00     0.173 A 
ATOM     80  C   UNL A   1      40.292  35.231  36.991  1.00  0.00     0.173 A 
ATOM     81  F   UNL A   1      38.205  32.446  38.032  1.00  0.00    -0.203 F 
ATOM     82  C   UNL A   1      38.720  34.457  39.143  1.00  0.00     0.198 A 
ATOM     83  C   UNL A   1      40.173  36.060  38.106  1.00  0.00     0.198 A 
ATOM     84  F   UNL A   1      41.051  35.637  35.964  1.00  0.00    -0.203 F 
ATOM     85  F   UNL A   1      37.927  34.096  40.161  1.00  0.00    -0.200 F 
ATOM     86  C   UNL A   1      39.379  35.676  39.177  1.00  0.00     0.200 A 
ATOM     87  F   UNL A   1      40.824  37.230  38.140  1.00  0.00    -0.200 F 
ATOM     88  F   UNL A   1      39.242  36.486  40.235  1.00  0.00    -0.200 F 
ENDBRANCH  54  78
BRANCH  66  89
ATOM     89  C   UNL A   1      43.908  28.730  35.293  1.00  0.00     0.064 A 
ATOM     90  C   UNL A   1      45.222  29.186  35.116  1.00  0.00     0.173 A 
ATOM     91  C   UNL A   1      43.696  27.679  36.201  1.00  0.00     0.173 A 
ATOM     92  F   UNL A   1      45.481  30.177  34.249  1.00  0.00    -0.203 F 
ATOM     93  C   UNL A   1      46.284  28.595  35.797  1.00  0.00     0.198 A 
ATOM     94  C   UNL A   1      44.755  27.115  36.907  1.00  0.00     0.198 A 
ATOM     95  F   UNL A   1      42.458  27.209  36.415  1.00  0.00    -0.203 F 
ATOM     96  F   UNL A   1      47.537  29.013  35.571  1.00  0.00    -0.200 F 
ATOM     97  C   UNL A   1      46.049  27.567  36.698  1.00  0.00     0.200 A 
ATOM     98  F   UNL A   1      44.523  26.133  37.789  1.00  0.00    -0.200 F 
ATOM     99  F   UNL A   1      47.071  27.008  37.358  1.00  0.00    -0.200 F 
ENDBRANCH  66  89
ENDBRANCH  40  41
ENDBRANCH  32  35
ENDBRANCH  30  31
ENDBRANCH  29  30
ENDBRANCH   1  29
TORSDOF 14
ENDMDL
MODEL 2
REMARK VINA RESULT:     -13.4      0.120      1.554
REMARK SMILES O=C(C[C@H]1c2ccccc2CCN1C(=O)Nc1ccccc1Br)NCCCCNC(=O)c1ccc(-c2c3nc(c(-c4c(F)c(F)c(F)c(F)c4F)c4ccc([nH]4)c(-c4c(F)c(F)c(F)c(F)c4F)c4nc(c(-c5c(F)c(F)c(F)c(F)c5F)c5ccc2[nH]5)C=C4)C=C3)cc1
REMARK SMILES IDX 26 1 25 2 24 3 1 4 2 5 3 7 4 8 5 9 13 10 6 11 10 12 12 13
REMARK SMILES IDX 7 14 9 15 11 16 8 17 14 18 15 19 16 20 17 22 18 23 22 24
REMARK SMILES IDX 19 25 21 26 23 27 20 28 27 29 28 30 29 31 30 32 31 34 32 35
REMARK SMILES IDX 33 36 94 37 34 38 93 39 35 40 36 41 37 42 87 43 38 44 92 45
REMARK SMILES IDX 86 46 88 47 39 48 91 49 85 50 84 51 40 53 72 54 52 55 71 56
REMARK SMILES IDX 53 57 56 58 70 59 89 60 54 61 55 62 69 64 90 65 57 66 41 67
REMARK SMILES IDX 42 68 50 69 43 70 44 71 48 72 51 73 45 74 46 75 49 76 47 77
REMARK SMILES IDX 73 78 74 79 82 80 75 81 76 82 80 83 83 84 77 85 78 86 81 87
REMARK SMILES IDX 79 88 58 89 59 90 67 91 60 92 61 93 65 94 68 95 62 96 63 97
REMARK SMILES IDX 66 98 64 99
REMARK H PARENT 24 6 16 21 29 33 88 52 56 63
REMARK Flexibility Score: inf
ROOT
ATOM      1  C   UNL A   1      31.711  30.581  26.606  1.00  0.00     0.023 C 
ENDROOT
BRANCH   1   2
ATOM      2  C   UNL A   1      33.007  30.031  27.197  1.00  0.00     0.116 C 
BRANCH   2   3
ATOM      3  N   UNL A   1      33.107  28.594  27.041  1.00  0.00    -0.356 N 
ATOM      4  O   UNL A   1      34.103  28.671  24.986  1.00  0.00    -0.275 OA
ATOM      5  C   UNL A   1      33.684  28.016  25.935  1.00  0.00     0.222 C 
ATOM      6  H   UNL A   1      32.749  28.012  27.751  1.00  0.00     0.163 HD
BRANCH   5   7
ATOM      7  C   UNL A   1      33.689  26.501  25.928  1.00  0.00     0.130 C 
BRANCH   7   8
ATOM      8  C   UNL A   1      32.295  25.880  25.687  1.00  0.00     0.127 C 
ATOM      9  C   UNL A   1      31.584  26.582  24.518  1.00  0.00    -0.022 A 
ATOM     10  N   UNL A   1      32.434  24.412  25.441  1.00  0.00    -0.317 N 
ATOM     11  C   UNL A   1      30.601  27.559  24.707  1.00  0.00     0.006 A 
ATOM     12  C   UNL A   1      31.907  26.200  23.199  1.00  0.00    -0.041 A 
ATOM     13  C   UNL A   1      32.214  23.968  24.055  1.00  0.00     0.127 C 
ATOM     14  C   UNL A   1      30.010  28.184  23.604  1.00  0.00     0.000 A 
ATOM     15  C   UNL A   1      31.343  26.848  22.099  1.00  0.00     0.004 A 
ATOM     16  C   UNL A   1      32.748  24.971  23.033  1.00  0.00     0.057 C 
ATOM     17  C   UNL A   1      30.395  27.844  22.306  1.00  0.00     0.000 A 
BRANCH  10  18
ATOM     18  C   UNL A   1      32.537  23.616  26.566  1.00  0.00     0.322 C 
ATOM     19  O   UNL A   1      31.722  23.706  27.489  1.00  0.00    -0.248 OA
ATOM     20  N   UNL A   1      33.445  22.609  26.662  1.00  0.00    -0.307 N 
ATOM     21  H   UNL A   1      33.190  21.904  27.301  1.00  0.00     0.171 HD
BRANCH  20  22
ATOM     22  C   UNL A   1      34.671  22.381  26.026  1.00  0.00     0.057 A 
ATOM     23  C   UNL A   1      35.640  23.377  26.201  1.00  0.00     0.027 A 
ATOM     24  C   UNL A   1      35.000  21.212  25.319  1.00  0.00     0.041 A 
ATOM     25  C   UNL A   1      36.962  23.140  25.825  1.00  0.00     0.002 A 
ATOM     26  C   UNL A   1      36.326  20.984  24.935  1.00  0.00     0.018 A 
ATOM     27  Br  UNL A   1      33.713  19.897  24.849  1.00  0.00    -0.049 Br
ATOM     28  C   UNL A   1      37.310  21.933  25.219  1.00  0.00     0.001 A 
ENDBRANCH  20  22
ENDBRANCH  10  18
ENDBRANCH   7   8
ENDBRANCH   5   7
ENDBRANCH   2   3
ENDBRANCH   1   2
BRANCH   1  29
ATOM     29  C   UNL A   1      31.492  32.083  26.807  1.00  0.00     0.023 C 
BRANCH  29  30
ATOM     30  C   UNL A   1      32.739  32.882  27.173  1.00  0.00     0.116 C 
BRANCH  30  31
ATOM     31  N   UNL A   1      32.435  34.233  27.616  1.00  0.00    -0.352 N 
ATOM     32  C   UNL A   1      32.995  34.972  28.630  1.00  0.00     0.251 C 
ATOM     33  H   UNL A   1      31.722  34.687  27.112  1.00  0.00     0.163 HD
ATOM     34  O   UNL A   1      32.501  36.047  28.952  1.00  0.00    -0.269 OA
BRANCH  32  35
ATOM     35  C   UNL A   1      34.176  34.462  29.364  1.00  0.00     0.039 A 
ATOM     36  C   UNL A   1      33.981  33.824  30.592  1.00  0.00     0.014 A 
ATOM     37  C   UNL A   1      35.469  34.615  28.857  1.00  0.00     0.014 A 
ATOM     38  C   UNL A   1      35.070  33.276  31.274  1.00  0.00     0.010 A 
ATOM     39  C   UNL A   1      36.545  34.003  29.499  1.00  0.00     0.010 A 
ATOM     40  C   UNL A   1      36.357  33.323  30.713  1.00  0.00    -0.014 A 
BRANCH  40  41
ATOM     41  C   UNL A   1      37.510  32.657  31.373  1.00  0.00     0.031 A 
ATOM     42  C   UNL A   1      38.195  31.490  30.716  1.00  0.00     0.074 A 
ATOM     43  C   UNL A   1      37.902  33.061  32.598  1.00  0.00     0.049 A 
ATOM     44  N   UNL A   1      39.170  30.740  31.166  1.00  0.00    -0.248 NA
ATOM     45  C   UNL A   1      37.703  31.097  29.386  1.00  0.00     0.031 C 
ATOM     46  C   UNL A   1      37.295  34.153  33.361  1.00  0.00     0.029 A 
ATOM     47  N   UNL A   1      38.898  32.595  33.421  1.00  0.00    -0.354 N 
ATOM     48  C   UNL A   1      39.396  29.783  30.185  1.00  0.00     0.074 A 
ATOM     49  C   UNL A   1      38.423  30.012  29.140  1.00  0.00     0.031 C 
ATOM     50  C   UNL A   1      37.947  34.290  34.527  1.00  0.00     0.029 A 
ATOM     51  C   UNL A   1      38.987  33.269  34.615  1.00  0.00     0.049 A 
ATOM     52  H   UNL A   1      39.491  31.848  33.179  1.00  0.00     0.167 HD
ATOM     53  C   UNL A   1      40.342  28.813  30.151  1.00  0.00     0.037 A 
ATOM     54  C   UNL A   1      39.807  33.080  35.667  1.00  0.00     0.037 A 
ATOM     55  C   UNL A   1      41.325  28.602  31.182  1.00  0.00     0.049 A 
ATOM     56  C   UNL A   1      40.834  31.982  35.611  1.00  0.00     0.074 A 
ATOM     57  C   UNL A   1      42.365  27.688  31.207  1.00  0.00     0.029 A 
ATOM     58  N   UNL A   1      41.385  29.307  32.375  1.00  0.00    -0.354 N 
ATOM     59  N   UNL A   1      41.085  31.129  34.647  1.00  0.00    -0.248 NA
ATOM     60  C   UNL A   1      41.699  31.824  36.789  1.00  0.00     0.031 C 
ATOM     61  C   UNL A   1      43.016  27.799  32.440  1.00  0.00     0.029 A 
ATOM     62  C   UNL A   1      42.424  28.827  33.157  1.00  0.00     0.049 A 
ATOM     63  H   UNL A   1      40.779  30.041  32.629  1.00  0.00     0.167 HD
ATOM     64  C   UNL A   1      42.153  30.359  35.087  1.00  0.00     0.074 A 
ATOM     65  C   UNL A   1      42.513  30.853  36.399  1.00  0.00     0.031 C 
ATOM     66  C   UNL A   1      42.779  29.333  34.458  1.00  0.00     0.037 A 
BRANCH  53  67
ATOM     67  C   UNL A   1      40.361  27.900  28.957  1.00  0.00     0.064 A 
ATOM     68  C   UNL A   1      41.121  28.192  27.814  1.00  0.00     0.173 A 
ATOM     69  C   UNL A   1      39.642  26.694  28.974  1.00  0.00     0.173 A 
ATOM     70  F   UNL A   1      41.819  29.335  27.741  1.00  0.00    -0.203 F 
ATOM     71  C   UNL A   1      41.136  27.327  26.722  1.00  0.00     0.198 A 
ATOM     72  C   UNL A   1      39.687  25.816  27.894  1.00  0.00     0.198 A 
ATOM     73  F   UNL A   1      38.906  26.360  30.045  1.00  0.00    -0.203 F 
ATOM     74  F   UNL A   1      41.827  27.653  25.621  1.00  0.00    -0.200 F 
ATOM     75  C   UNL A   1      40.425  26.137  26.767  1.00  0.00     0.200 A 
ATOM     76  F   UNL A   1      39.013  24.659  27.946  1.00  0.00    -0.200 F 
ATOM     77  F   UNL A   1      40.448  25.302  25.718  1.00  0.00    -0.200 F 
ENDBRANCH  53  67
BRANCH  54  78
ATOM     78  C   UNL A   1      39.706  33.963  36.860  1.00  0.00     0.064 A 
ATOM     79  C   UNL A   1      38.906  33.605  37.955  1.00  0.00     0.173 A 
ATOM     80  C   UNL A   1      40.390  35.186  36.925  1.00  0.00     0.173 A 
ATOM     81  F   UNL A   1      38.214  32.456  37.930  1.00  0.00    -0.203 F 
ATOM     82  C   UNL A   1      38.774  34.446  39.057  1.00  0.00     0.198 A 
ATOM     83  C   UNL A   1      40.282  36.012  38.043  1.00  0.00     0.198 A 
ATOM     84  F   UNL A   1      41.171  35.576  35.908  1.00  0.00    -0.203 F 
ATOM     85  F   UNL A   1      37.960  34.104  40.065  1.00  0.00    -0.200 F 
ATOM     86  C   UNL A   1      39.467  35.647  39.103  1.00  0.00     0.200 A 
ATOM     87  F   UNL A   1      40.966  37.164  38.089  1.00  0.00    -0.200 F 
ATOM     88  F   UNL A   1      39.342  36.455  40.164  1.00  0.00    -0.200 F 
ENDBRANCH  54  78
BRANCH  66  89
ATOM     89  C   UNL A   1      43.948  28.702  35.162  1.00  0.00     0.064 A 
ATOM     90  C   UNL A   1      43.792  27.603  36.018  1.00  0.00     0.173 A 
ATOM     91  C   UNL A   1      45.249  29.183  34.944  1.00  0.00     0.173 A 
ATOM     92  F   UNL A   1      42.568  27.113  36.272  1.00  0.00    -0.203 F 
ATOM     93  C   UNL A   1      44.890  27.027  36.652  1.00  0.00     0.198 A 
ATOM     94  C   UNL A   1      46.348  28.583  35.552  1.00  0.00     0.198 A 
ATOM     95  F   UNL A   1      45.456  30.228  34.129  1.00  0.00    -0.203 F 
ATOM     96  F   UNL A   1      44.711  26.010  37.508  1.00  0.00    -0.200 F 
ATOM     97  C   UNL A   1      46.168  27.512  36.412  1.00  0.00     0.200 A 
ATOM     98  F   UNL A   1      47.583  29.043  35.305  1.00  0.00    -0.200 F 
ATOM     99  F   UNL A   1      47.223  26.950  37.016  1.00  0.00    -0.200 F 
ENDBRANCH  66  89
ENDBRANCH  40  41
ENDBRANCH  32  35
ENDBRANCH  30  31
ENDBRANCH  29  30
ENDBRANCH   1  29
TORSDOF 14
ENDMDL
MODEL 3
REMARK VINA RESULT:     -13.4      5.381     10.626
REMARK SMILES O=C(C[C@H]1c2ccccc2CCN1C(=O)Nc1ccccc1Br)NCCCCNC(=O)c1ccc(-c2c3nc(c(-c4c(F)c(F)c(F)c(F)c4F)c4ccc([nH]4)c(-c4c(F)c(F)c(F)c(F)c4F)c4nc(c(-c5c(F)c(F)c(F)c(F)c5F)c5ccc2[nH]5)C=C4)C=C3)cc1
REMARK SMILES IDX 26 1 25 2 24 3 1 4 2 5 3 7 4 8 5 9 13 10 6 11 10 12 12 13
REMARK SMILES IDX 7 14 9 15 11 16 8 17 14 18 15 19 16 20 17 22 18 23 22 24
REMARK SMILES IDX 19 25 21 26 23 27 20 28 27 29 28 30 29 31 30 32 31 34 32 35
REMARK SMILES IDX 33 36 94 37 34 38 93 39 35 40 36 41 37 42 87 43 38 44 92 45
REMARK SMILES IDX 86 46 88 47 39 48 91 49 85 50 84 51 40 53 72 54 52 55 71 56
REMARK SMILES IDX 53 57 56 58 70 59 89 60 54 61 55 62 69 64 90 65 57 66 41 67
REMARK SMILES IDX 42 68 50 69 43 70 44 71 48 72 51 73 45 74 46 75 49 76 47 77
REMARK SMILES IDX 73 78 74 79 82 80 75 81 76 82 80 83 83 84 77 85 78 86 81 87
REMARK SMILES IDX 79 88 58 89 59 90 67 91 60 92 61 93 65 94 68 95 62 96 63 97
REMARK SMILES IDX 66 98 64 99
REMARK H PARENT 24 6 16 21 29 33 88 52 56 63
REMARK Flexibility Score: inf
ROOT
ATOM      1  C   UNL A   1      37.185  20.993  24.639  1.00  0.00     0.023 C 
ENDROOT
BRANCH   1   2
ATOM      2  C   UNL A   1      37.628  22.347  25.187  1.00  0.00     0.116 C 
BRANCH   2   3
ATOM      3  N   UNL A   1      36.725  23.411  24.798  1.00  0.00    -0.356 N 
ATOM      4  O   UNL A   1      35.420  23.278  26.670  1.00  0.00    -0.275 OA
ATOM      5  C   UNL A   1      35.685  23.819  25.600  1.00  0.00     0.222 C 
ATOM      6  H   UNL A   1      36.859  23.856  23.930  1.00  0.00     0.163 HD
BRANCH   5   7
ATOM      7  C   UNL A   1      34.829  24.931  25.031  1.00  0.00     0.130 C 
BRANCH   7   8
ATOM      8  C   UNL A   1      33.894  24.469  23.891  1.00  0.00     0.127 C 
ATOM      9  C   UNL A   1      33.231  23.128  24.245  1.00  0.00    -0.022 A 
ATOM     10  N   UNL A   1      32.875  25.528  23.617  1.00  0.00    -0.317 N 
ATOM     11  C   UNL A   1      33.683  21.904  23.740  1.00  0.00     0.006 A 
ATOM     12  C   UNL A   1      32.096  23.131  25.082  1.00  0.00    -0.041 A 
ATOM     13  C   UNL A   1      31.503  25.231  24.059  1.00  0.00     0.127 C 
ATOM     14  C   UNL A   1      33.056  20.712  24.121  1.00  0.00     0.000 A 
ATOM     15  C   UNL A   1      31.493  21.940  25.491  1.00  0.00     0.004 A 
ATOM     16  C   UNL A   1      31.473  24.462  25.379  1.00  0.00     0.057 C 
ATOM     17  C   UNL A   1      31.979  20.730  25.009  1.00  0.00     0.000 A 
BRANCH  10  18
ATOM     18  C   UNL A   1      33.282  26.562  22.794  1.00  0.00     0.322 C 
ATOM     19  O   UNL A   1      33.785  26.339  21.688  1.00  0.00    -0.248 OA
ATOM     20  N   UNL A   1      33.032  27.865  23.088  1.00  0.00    -0.307 N 
ATOM     21  H   UNL A   1      33.021  28.455  22.300  1.00  0.00     0.171 HD
BRANCH  20  22
ATOM     22  C   UNL A   1      32.786  28.528  24.296  1.00  0.00     0.057 A 
ATOM     23  C   UNL A   1      33.806  28.446  25.253  1.00  0.00     0.027 A 
ATOM     24  C   UNL A   1      31.652  29.315  24.561  1.00  0.00     0.041 A 
ATOM     25  C   UNL A   1      33.775  29.265  26.380  1.00  0.00     0.002 A 
ATOM     26  C   UNL A   1      31.622  30.127  25.700  1.00  0.00     0.018 A 
ATOM     27  Br  UNL A   1      30.127  29.333  23.430  1.00  0.00    -0.049 Br
ATOM     28  C   UNL A   1      32.699  30.126  26.588  1.00  0.00     0.001 A 
ENDBRANCH  20  22
ENDBRANCH  10  18
ENDBRANCH   7   8
ENDBRANCH   5   7
ENDBRANCH   2   3
ENDBRANCH   1   2
BRANCH   1  29
ATOM     29  C   UNL A   1      38.101  19.818  24.997  1.00  0.00     0.023 C 
BRANCH  29  30
ATOM     30  C   UNL A   1      39.277  20.159  25.905  1.00  0.00     0.116 C 
BRANCH  30  31
ATOM     31  N   UNL A   1      40.318  19.144  25.888  1.00  0.00    -0.352 N 
ATOM     32  C   UNL A   1      41.671  19.269  26.090  1.00  0.00     0.251 C 
ATOM     33  H   UNL A   1      40.005  18.229  25.706  1.00  0.00     0.163 HD
ATOM     34  O   UNL A   1      42.414  18.315  25.887  1.00  0.00    -0.269 OA
BRANCH  32  35
ATOM     35  C   UNL A   1      42.247  20.564  26.520  1.00  0.00     0.039 A 
ATOM     36  C   UNL A   1      42.781  21.418  25.551  1.00  0.00     0.014 A 
ATOM     37  C   UNL A   1      42.272  20.937  27.867  1.00  0.00     0.014 A 
ATOM     38  C   UNL A   1      43.271  22.672  25.921  1.00  0.00     0.010 A 
ATOM     39  C   UNL A   1      42.691  22.217  28.226  1.00  0.00     0.010 A 
ATOM     40  C   UNL A   1      43.192  23.101  27.257  1.00  0.00    -0.014 A 
BRANCH  40  41
ATOM     41  C   UNL A   1      43.613  24.471  27.652  1.00  0.00     0.031 A 
ATOM     42  C   UNL A   1      42.586  25.516  27.992  1.00  0.00     0.074 A 
ATOM     43  C   UNL A   1      44.922  24.795  27.643  1.00  0.00     0.049 A 
ATOM     44  N   UNL A   1      42.757  26.779  28.294  1.00  0.00    -0.248 NA
ATOM     45  C   UNL A   1      41.178  25.092  27.968  1.00  0.00     0.031 C 
ATOM     46  C   UNL A   1      46.014  23.885  27.293  1.00  0.00     0.029 A 
ATOM     47  N   UNL A   1      45.555  25.980  27.928  1.00  0.00    -0.354 N 
ATOM     48  C   UNL A   1      41.483  27.301  28.478  1.00  0.00     0.074 A 
ATOM     49  C   UNL A   1      40.547  26.233  28.203  1.00  0.00     0.031 C 
ATOM     50  C   UNL A   1      47.182  24.537  27.409  1.00  0.00     0.029 A 
ATOM     51  C   UNL A   1      46.921  25.920  27.796  1.00  0.00     0.049 A 
ATOM     52  H   UNL A   1      45.075  26.795  28.199  1.00  0.00     0.167 HD
ATOM     53  C   UNL A   1      41.128  28.551  28.861  1.00  0.00     0.037 A 
ATOM     54  C   UNL A   1      47.858  26.874  27.960  1.00  0.00     0.037 A 
ATOM     55  C   UNL A   1      42.063  29.606  29.156  1.00  0.00     0.049 A 
ATOM     56  C   UNL A   1      47.434  28.260  28.364  1.00  0.00     0.074 A 
ATOM     57  C   UNL A   1      41.802  30.887  29.613  1.00  0.00     0.029 A 
ATOM     58  N   UNL A   1      43.440  29.506  29.014  1.00  0.00    -0.354 N 
ATOM     59  N   UNL A   1      46.231  28.722  28.605  1.00  0.00    -0.248 NA
ATOM     60  C   UNL A   1      48.501  29.258  28.526  1.00  0.00     0.031 C 
ATOM     61  C   UNL A   1      43.015  31.579  29.691  1.00  0.00     0.029 A 
ATOM     62  C   UNL A   1      44.039  30.712  29.345  1.00  0.00     0.049 A 
ATOM     63  H   UNL A   1      43.921  28.698  28.722  1.00  0.00     0.167 HD
ATOM     64  C   UNL A   1      46.398  30.049  28.977  1.00  0.00     0.074 A 
ATOM     65  C   UNL A   1      47.820  30.316  28.944  1.00  0.00     0.031 C 
ATOM     66  C   UNL A   1      45.457  30.964  29.317  1.00  0.00     0.037 A 
BRANCH  53  67
ATOM     67  C   UNL A   1      39.660  28.853  28.980  1.00  0.00     0.064 A 
ATOM     68  C   UNL A   1      38.979  28.740  30.202  1.00  0.00     0.173 A 
ATOM     69  C   UNL A   1      38.934  29.304  27.867  1.00  0.00     0.173 A 
ATOM     70  F   UNL A   1      39.622  28.304  31.296  1.00  0.00    -0.203 F 
ATOM     71  C   UNL A   1      37.621  29.035  30.297  1.00  0.00     0.198 A 
ATOM     72  C   UNL A   1      37.585  29.631  27.973  1.00  0.00     0.198 A 
ATOM     73  F   UNL A   1      39.538  29.439  26.676  1.00  0.00    -0.203 F 
ATOM     74  F   UNL A   1      36.981  28.868  31.462  1.00  0.00    -0.200 F 
ATOM     75  C   UNL A   1      36.928  29.488  29.184  1.00  0.00     0.200 A 
ATOM     76  F   UNL A   1      36.922  30.084  26.901  1.00  0.00    -0.200 F 
ATOM     77  F   UNL A   1      35.623  29.780  29.279  1.00  0.00    -0.200 F 
ENDBRANCH  53  67
BRANCH  54  78
ATOM     78  C   UNL A   1      49.296  26.549  27.761  1.00  0.00     0.064 A 
ATOM     79  C   UNL A   1      50.144  26.335  28.857  1.00  0.00     0.173 A 
ATOM     80  C   UNL A   1      49.855  26.459  26.477  1.00  0.00     0.173 A 
ATOM     81  F   UNL A   1      49.662  26.432  30.104  1.00  0.00    -0.203 F 
ATOM     82  C   UNL A   1      51.500  26.070  28.679  1.00  0.00     0.198 A 
ATOM     83  C   UNL A   1      51.206  26.162  26.299  1.00  0.00     0.198 A 
ATOM     84  F   UNL A   1      49.088  26.651  25.394  1.00  0.00    -0.203 F 
ATOM     85  F   UNL A   1      52.298  25.924  29.745  1.00  0.00    -0.200 F 
ATOM     86  C   UNL A   1      52.029  25.978  27.400  1.00  0.00     0.200 A 
ATOM     87  F   UNL A   1      51.709  26.059  25.062  1.00  0.00    -0.200 F 
ATOM     88  F   UNL A   1      53.333  25.722  27.228  1.00  0.00    -0.200 F 
ENDBRANCH  54  78
BRANCH  66  89
ATOM     89  C   UNL A   1      45.935  32.329  29.722  1.00  0.00     0.064 A 
ATOM     90  C   UNL A   1      46.281  32.631  31.047  1.00  0.00     0.173 A 
ATOM     91  C   UNL A   1      46.084  33.342  28.759  1.00  0.00     0.173 A 
ATOM     92  F   UNL A   1      46.143  31.705  32.009  1.00  0.00    -0.203 F 
ATOM     93  C   UNL A   1      46.732  33.902  31.399  1.00  0.00     0.198 A 
ATOM     94  C   UNL A   1      46.567  34.599  29.108  1.00  0.00     0.198 A 
ATOM     95  F   UNL A   1      45.774  33.105  27.477  1.00  0.00    -0.203 F 
ATOM     96  F   UNL A   1      47.007  34.182  32.681  1.00  0.00    -0.200 F 
ATOM     97  C   UNL A   1      46.882  34.882  30.428  1.00  0.00     0.200 A 
ATOM     98  F   UNL A   1      46.728  35.539  28.166  1.00  0.00    -0.200 F 
ATOM     99  F   UNL A   1      47.324  36.099  30.768  1.00  0.00    -0.200 F 
ENDBRANCH  66  89
ENDBRANCH  40  41
ENDBRANCH  32  35
ENDBRANCH  30  31
ENDBRANCH  29  30
ENDBRANCH   1  29
TORSDOF 14
ENDMDL
