MODEL 1
REMARK VINA RESULT:     -11.6      0.000      0.000
REMARK SMILES CCCc1nsc(Oc2csc(C(=O)NCCCCNC(=O)c3ccc(-c4c5nc(c(-c6c(F)c(F)c(F)c(F)c6F)c6ccc([nH]6)c(-c6c(F)c(F)c(F)c(F)c6F)c6nc(c(-c7c(F)c(F)c(F)c(F)c7F)c7ccc4[nH]7)C=C6)C=C5)cc3)c2)n1
REMARK SMILES IDX 16 1 15 2 13 3 14 4 12 6 9 7 10 8 86 9 11 10 8 11 7 12 4 13
REMARK SMILES IDX 5 14 87 15 6 16 3 17 2 18 1 19 17 20 18 21 19 22 20 23 21 24
REMARK SMILES IDX 22 26 23 27 24 28 85 29 25 30 84 31 26 32 27 33 28 34 78 35
REMARK SMILES IDX 29 36 83 37 77 38 79 39 30 40 82 41 76 42 75 43 31 45 63 46
REMARK SMILES IDX 43 47 62 48 44 49 47 50 61 51 80 52 45 53 46 54 60 56 81 57
REMARK SMILES IDX 48 58 32 59 33 60 41 61 34 62 35 63 39 64 42 65 36 66 37 67
REMARK SMILES IDX 40 68 38 69 64 70 65 71 73 72 66 73 67 74 71 75 74 76 68 77
REMARK SMILES IDX 69 78 72 79 70 80 49 81 50 82 58 83 51 84 52 85 56 86 59 87
REMARK SMILES IDX 53 88 54 89 57 90 55 91
REMARK H PARENT 15 5 20 25 79 44 47 55
REMARK Flexibility Score: inf
ROOT
ATOM      1  C   UNL A   1      33.178  29.952  26.554  1.00  0.00     0.116 C 
ENDROOT
BRANCH   1   2
ATOM      2  N   UNL A   1      33.417  29.709  25.148  1.00  0.00    -0.351 N 
ATOM      3  C   UNL A   1      33.256  28.595  24.356  1.00  0.00     0.261 C 
ATOM      4  O   UNL A   1      33.556  28.763  23.170  1.00  0.00    -0.268 OA
ATOM      5  H   UNL A   1      33.764  30.492  24.663  1.00  0.00     0.163 HD
BRANCH   3   6
ATOM      6  C   UNL A   1      32.736  27.337  24.882  1.00  0.00     0.096 A 
ATOM      7  C   UNL A   1      32.421  25.261  25.913  1.00  0.00     0.141 A 
ATOM      8  C   UNL A   1      31.116  25.625  25.704  1.00  0.00     0.112 A 
ATOM      9  C   UNL A   1      33.348  26.204  25.388  1.00  0.00     0.072 A 
ATOM     10  S   UNL A   1      31.016  27.129  24.898  1.00  0.00    -0.135 S 
BRANCH   7  11
ATOM     11  O   UNL A   1      32.797  24.184  26.636  1.00  0.00    -0.429 OA
BRANCH  11  12
ATOM     12  C   UNL A   1      33.349  23.138  26.026  1.00  0.00     0.298 A 
ATOM     13  C   UNL A   1      34.793  21.685  25.245  1.00  0.00     0.146 A 
ATOM     14  N   UNL A   1      33.708  21.025  24.825  1.00  0.00    -0.172 NA
ATOM     15  N   UNL A   1      34.635  22.876  25.953  1.00  0.00    -0.186 NA
ATOM     16  S   UNL A   1      32.390  21.955  25.244  1.00  0.00     0.025 S 
BRANCH  13  17
ATOM     17  C   UNL A   1      36.178  21.179  24.996  1.00  0.00     0.078 C 
BRANCH  17  18
ATOM     18  C   UNL A   1      37.167  22.169  24.376  1.00  0.00     0.005 C 
ATOM     19  C   UNL A   1      36.638  22.861  23.127  1.00  0.00     0.004 C 
ENDBRANCH  17  18
ENDBRANCH  13  17
ENDBRANCH  11  12
ENDBRANCH   7  11
ENDBRANCH   3   6
ENDBRANCH   1   2
BRANCH   1  20
ATOM     20  C   UNL A   1      31.750  30.445  26.787  1.00  0.00     0.023 C 
BRANCH  20  21
ATOM     21  C   UNL A   1      31.600  31.971  26.716  1.00  0.00     0.023 C 
BRANCH  21  22
ATOM     22  C   UNL A   1      32.766  32.763  27.304  1.00  0.00     0.116 C 
BRANCH  22  23
ATOM     23  N   UNL A   1      32.427  34.139  27.628  1.00  0.00    -0.352 N 
ATOM     24  C   UNL A   1      32.999  34.960  28.571  1.00  0.00     0.251 C 
ATOM     25  H   UNL A   1      31.692  34.534  27.105  1.00  0.00     0.163 HD
ATOM     26  O   UNL A   1      32.536  36.070  28.796  1.00  0.00    -0.269 OA
BRANCH  24  27
ATOM     27  C   UNL A   1      34.158  34.468  29.344  1.00  0.00     0.039 A 
ATOM     28  C   UNL A   1      33.929  33.818  30.559  1.00  0.00     0.014 A 
ATOM     29  C   UNL A   1      35.457  34.620  28.853  1.00  0.00     0.014 A 
ATOM     30  C   UNL A   1      35.003  33.259  31.253  1.00  0.00     0.010 A 
ATOM     31  C   UNL A   1      36.516  34.006  29.513  1.00  0.00     0.010 A 
ATOM     32  C   UNL A   1      36.300  33.319  30.717  1.00  0.00    -0.014 A 
BRANCH  32  33
ATOM     33  C   UNL A   1      37.450  32.679  31.401  1.00  0.00     0.031 A 
ATOM     34  C   UNL A   1      38.161  31.529  30.748  1.00  0.00     0.074 A 
ATOM     35  C   UNL A   1      37.797  33.075  32.641  1.00  0.00     0.049 A 
ATOM     36  N   UNL A   1      39.114  30.767  31.221  1.00  0.00    -0.248 NA
ATOM     37  C   UNL A   1      37.718  31.167  29.394  1.00  0.00     0.031 C 
ATOM     38  C   UNL A   1      37.153  34.151  33.396  1.00  0.00     0.029 A 
ATOM     39  N   UNL A   1      38.768  32.607  33.489  1.00  0.00    -0.354 N 
ATOM     40  C   UNL A   1      39.367  29.824  30.234  1.00  0.00     0.074 A 
ATOM     41  C   UNL A   1      38.434  30.078  29.157  1.00  0.00     0.031 C 
ATOM     42  C   UNL A   1      37.759  34.273  34.588  1.00  0.00     0.029 A 
ATOM     43  C   UNL A   1      38.807  33.262  34.695  1.00  0.00     0.049 A 
ATOM     44  H   UNL A   1      39.380  31.872  33.255  1.00  0.00     0.167 HD
ATOM     45  C   UNL A   1      40.305  28.848  30.218  1.00  0.00     0.037 A 
ATOM     46  C   UNL A   1      39.596  33.062  35.768  1.00  0.00     0.037 A 
ATOM     47  C   UNL A   1      41.251  28.620  31.278  1.00  0.00     0.049 A 
ATOM     48  C   UNL A   1      40.633  31.974  35.725  1.00  0.00     0.074 A 
ATOM     49  C   UNL A   1      42.286  27.702  31.331  1.00  0.00     0.029 A 
ATOM     50  N   UNL A   1      41.277  29.321  32.476  1.00  0.00    -0.354 N 
ATOM     51  N   UNL A   1      40.907  31.129  34.762  1.00  0.00    -0.248 NA
ATOM     52  C   UNL A   1      41.476  31.817  36.919  1.00  0.00     0.031 C 
ATOM     53  C   UNL A   1      42.911  27.820  32.576  1.00  0.00     0.029 A 
ATOM     54  C   UNL A   1      42.297  28.842  33.282  1.00  0.00     0.049 A 
ATOM     55  H   UNL A   1      40.661  30.051  32.717  1.00  0.00     0.167 HD
ATOM     56  C   UNL A   1      41.969  30.360  35.218  1.00  0.00     0.074 A 
ATOM     57  C   UNL A   1      42.297  30.846  36.543  1.00  0.00     0.031 C 
ATOM     58  C   UNL A   1      42.615  29.344  34.595  1.00  0.00     0.037 A 
BRANCH  45  59
ATOM     59  C   UNL A   1      40.349  27.953  29.014  1.00  0.00     0.064 A 
ATOM     60  C   UNL A   1      41.105  28.282  27.878  1.00  0.00     0.173 A 
ATOM     61  C   UNL A   1      39.635  26.745  28.997  1.00  0.00     0.173 A 
ATOM     62  F   UNL A   1      41.796  29.433  27.837  1.00  0.00    -0.203 F 
ATOM     63  C   UNL A   1      41.113  27.457  26.758  1.00  0.00     0.198 A 
ATOM     64  C   UNL A   1      39.670  25.906  27.887  1.00  0.00     0.198 A 
ATOM     65  F   UNL A   1      38.900  26.380  30.058  1.00  0.00    -0.203 F 
ATOM     66  F   UNL A   1      41.793  27.822  25.663  1.00  0.00    -0.200 F 
ATOM     67  C   UNL A   1      40.401  26.267  26.764  1.00  0.00     0.200 A 
ATOM     68  F   UNL A   1      38.991  24.751  27.900  1.00  0.00    -0.200 F 
ATOM     69  F   UNL A   1      40.410  25.473  25.685  1.00  0.00    -0.200 F 
ENDBRANCH  45  59
BRANCH  46  70
ATOM     70  C   UNL A   1      39.455  33.937  36.960  1.00  0.00     0.064 A 
ATOM     71  C   UNL A   1      38.701  33.521  38.067  1.00  0.00     0.173 A 
ATOM     72  C   UNL A   1      40.074  35.193  37.026  1.00  0.00     0.173 A 
ATOM     73  F   UNL A   1      38.074  32.336  38.041  1.00  0.00    -0.203 F 
ATOM     74  C   UNL A   1      38.559  34.335  39.188  1.00  0.00     0.198 A 
ATOM     75  C   UNL A   1      39.952  35.996  38.158  1.00  0.00     0.198 A 
ATOM     76  F   UNL A   1      40.810  35.634  35.995  1.00  0.00    -0.203 F 
ATOM     77  F   UNL A   1      37.803  33.928  40.217  1.00  0.00    -0.200 F 
ATOM     78  C   UNL A   1      39.190  35.569  39.236  1.00  0.00     0.200 A 
ATOM     79  F   UNL A   1      40.573  37.183  38.206  1.00  0.00    -0.200 F 
ATOM     80  F   UNL A   1      39.060  36.349  40.318  1.00  0.00    -0.200 F 
ENDBRANCH  46  70
BRANCH  58  81
ATOM     81  C   UNL A   1      43.769  28.715  35.319  1.00  0.00     0.064 A 
ATOM     82  C   UNL A   1      43.591  27.617  36.172  1.00  0.00     0.173 A 
ATOM     83  C   UNL A   1      45.074  29.190  35.120  1.00  0.00     0.173 A 
ATOM     84  F   UNL A   1      42.360  27.137  36.407  1.00  0.00    -0.203 F 
ATOM     85  C   UNL A   1      44.676  27.029  36.817  1.00  0.00     0.198 A 
ATOM     86  C   UNL A   1      46.159  28.583  35.744  1.00  0.00     0.198 A 
ATOM     87  F   UNL A   1      45.297  30.235  34.310  1.00  0.00    -0.203 F 
ATOM     88  F   UNL A   1      44.479  26.007  37.661  1.00  0.00    -0.200 F 
ATOM     89  C   UNL A   1      45.960  27.507  36.596  1.00  0.00     0.200 A 
ATOM     90  F   UNL A   1      47.400  29.038  35.520  1.00  0.00    -0.200 F 
ATOM     91  F   UNL A   1      47.004  26.935  37.210  1.00  0.00    -0.200 F 
ENDBRANCH  58  81
ENDBRANCH  32  33
ENDBRANCH  24  27
ENDBRANCH  22  23
ENDBRANCH  21  22
ENDBRANCH  20  21
ENDBRANCH   1  20
TORSDOF 15
ENDMDL
MODEL 2
REMARK VINA RESULT:     -11.6      2.049      3.819
REMARK SMILES CCCc1nsc(Oc2csc(C(=O)NCCCCNC(=O)c3ccc(-c4c5nc(c(-c6c(F)c(F)c(F)c(F)c6F)c6ccc([nH]6)c(-c6c(F)c(F)c(F)c(F)c6F)c6nc(c(-c7c(F)c(F)c(F)c(F)c7F)c7ccc4[nH]7)C=C6)C=C5)cc3)c2)n1
REMARK SMILES IDX 16 1 15 2 13 3 14 4 12 6 9 7 10 8 86 9 11 10 8 11 7 12 4 13
REMARK SMILES IDX 5 14 87 15 6 16 3 17 2 18 1 19 17 20 18 21 19 22 20 23 21 24
REMARK SMILES IDX 22 26 23 27 24 28 85 29 25 30 84 31 26 32 27 33 28 34 78 35
REMARK SMILES IDX 29 36 83 37 77 38 79 39 30 40 82 41 76 42 75 43 31 45 63 46
REMARK SMILES IDX 43 47 62 48 44 49 47 50 61 51 80 52 45 53 46 54 60 56 81 57
REMARK SMILES IDX 48 58 32 59 33 60 41 61 34 62 35 63 39 64 42 65 36 66 37 67
REMARK SMILES IDX 40 68 38 69 64 70 65 71 73 72 66 73 67 74 71 75 74 76 68 77
REMARK SMILES IDX 69 78 72 79 70 80 49 81 50 82 58 83 51 84 52 85 56 86 59 87
REMARK SMILES IDX 53 88 54 89 57 90 55 91
REMARK H PARENT 15 5 20 25 79 44 47 55
REMARK Flexibility Score: inf
ROOT
ATOM      1  C   UNL A   1      33.377  29.980  26.839  1.00  0.00     0.116 C 
ENDROOT
BRANCH   1   2
ATOM      2  N   UNL A   1      33.525  28.545  26.963  1.00  0.00    -0.351 N 
ATOM      3  C   UNL A   1      33.271  27.506  26.097  1.00  0.00     0.261 C 
ATOM      4  O   UNL A   1      33.535  26.388  26.550  1.00  0.00    -0.268 OA
ATOM      5  H   UNL A   1      33.874  28.257  27.837  1.00  0.00     0.163 HD
BRANCH   3   6
ATOM      6  C   UNL A   1      32.766  27.727  24.746  1.00  0.00     0.096 A 
ATOM      7  C   UNL A   1      31.467  27.976  22.817  1.00  0.00     0.141 A 
ATOM      8  C   UNL A   1      32.645  28.530  22.386  1.00  0.00     0.112 A 
ATOM      9  C   UNL A   1      31.552  27.458  24.139  1.00  0.00     0.072 A 
ATOM     10  S   UNL A   1      33.845  28.450  23.600  1.00  0.00    -0.135 S 
BRANCH   7  11
ATOM     11  O   UNL A   1      30.315  28.012  22.114  1.00  0.00    -0.429 OA
BRANCH  11  12
ATOM     12  C   UNL A   1      29.315  28.790  22.522  1.00  0.00     0.298 A 
ATOM     13  C   UNL A   1      28.071  30.530  23.002  1.00  0.00     0.146 A 
ATOM     14  N   UNL A   1      27.152  29.619  23.340  1.00  0.00    -0.172 NA
ATOM     15  N   UNL A   1      29.304  30.105  22.509  1.00  0.00    -0.186 NA
ATOM     16  S   UNL A   1      27.857  28.125  23.125  1.00  0.00     0.025 S 
BRANCH  13  17
ATOM     17  C   UNL A   1      27.814  31.999  23.118  1.00  0.00     0.078 C 
BRANCH  17  18
ATOM     18  C   UNL A   1      28.361  32.880  21.993  1.00  0.00     0.005 C 
ATOM     19  C   UNL A   1      27.828  32.512  20.614  1.00  0.00     0.004 C 
ENDBRANCH  17  18
ENDBRANCH  13  17
ENDBRANCH  11  12
ENDBRANCH   7  11
ENDBRANCH   3   6
ENDBRANCH   1   2
BRANCH   1  20
ATOM     20  C   UNL A   1      31.901  30.379  26.855  1.00  0.00     0.023 C 
BRANCH  20  21
ATOM     21  C   UNL A   1      31.667  31.894  26.800  1.00  0.00     0.023 C 
BRANCH  21  22
ATOM     22  C   UNL A   1      32.844  32.748  27.265  1.00  0.00     0.116 C 
BRANCH  22  23
ATOM     23  N   UNL A   1      32.469  34.105  27.627  1.00  0.00    -0.352 N 
ATOM     24  C   UNL A   1      33.023  34.917  28.589  1.00  0.00     0.251 C 
ATOM     25  H   UNL A   1      31.721  34.493  27.117  1.00  0.00     0.163 HD
ATOM     26  O   UNL A   1      32.531  36.007  28.845  1.00  0.00    -0.269 OA
BRANCH  24  27
ATOM     27  C   UNL A   1      34.199  34.437  29.344  1.00  0.00     0.039 A 
ATOM     28  C   UNL A   1      33.998  33.821  30.581  1.00  0.00     0.014 A 
ATOM     29  C   UNL A   1      35.485  34.566  28.815  1.00  0.00     0.014 A 
ATOM     30  C   UNL A   1      35.086  33.273  31.262  1.00  0.00     0.010 A 
ATOM     31  C   UNL A   1      36.557  33.962  29.463  1.00  0.00     0.010 A 
ATOM     32  C   UNL A   1      36.368  33.310  30.691  1.00  0.00    -0.014 A 
BRANCH  32  33
ATOM     33  C   UNL A   1      37.532  32.679  31.361  1.00  0.00     0.031 A 
ATOM     34  C   UNL A   1      38.250  31.540  30.697  1.00  0.00     0.074 A 
ATOM     35  C   UNL A   1      37.886  33.075  32.599  1.00  0.00     0.049 A 
ATOM     36  N   UNL A   1      39.215  30.786  31.157  1.00  0.00    -0.248 NA
ATOM     37  C   UNL A   1      37.797  31.178  29.345  1.00  0.00     0.031 C 
ATOM     38  C   UNL A   1      37.238  34.140  33.365  1.00  0.00     0.029 A 
ATOM     39  N   UNL A   1      38.871  32.614  33.436  1.00  0.00    -0.354 N 
ATOM     40  C   UNL A   1      39.469  29.850  30.164  1.00  0.00     0.074 A 
ATOM     41  C   UNL A   1      38.522  30.098  29.098  1.00  0.00     0.031 C 
ATOM     42  C   UNL A   1      37.854  34.264  34.551  1.00  0.00     0.029 A 
ATOM     43  C   UNL A   1      38.913  33.264  34.645  1.00  0.00     0.049 A 
ATOM     44  H   UNL A   1      39.488  31.886  33.194  1.00  0.00     0.167 HD
ATOM     45  C   UNL A   1      40.417  28.885  30.136  1.00  0.00     0.037 A 
ATOM     46  C   UNL A   1      39.714  33.069  35.710  1.00  0.00     0.037 A 
ATOM     47  C   UNL A   1      41.376  28.663  31.185  1.00  0.00     0.049 A 
ATOM     48  C   UNL A   1      40.764  31.992  35.652  1.00  0.00     0.074 A 
ATOM     49  C   UNL A   1      42.421  27.756  31.226  1.00  0.00     0.029 A 
ATOM     50  N   UNL A   1      41.405  29.359  32.386  1.00  0.00    -0.354 N 
ATOM     51  N   UNL A   1      41.037  31.154  34.683  1.00  0.00    -0.248 NA
ATOM     52  C   UNL A   1      41.619  31.840  36.838  1.00  0.00     0.031 C 
ATOM     53  C   UNL A   1      43.056  27.876  32.465  1.00  0.00     0.029 A 
ATOM     54  C   UNL A   1      42.438  28.888  33.180  1.00  0.00     0.049 A 
ATOM     55  H   UNL A   1      40.784  30.081  32.636  1.00  0.00     0.167 HD
ATOM     56  C   UNL A   1      42.112  30.395  35.126  1.00  0.00     0.074 A 
ATOM     57  C   UNL A   1      42.447  30.880  36.449  1.00  0.00     0.031 C 
ATOM     58  C   UNL A   1      42.763  29.389  34.493  1.00  0.00     0.037 A 
BRANCH  45  59
ATOM     59  C   UNL A   1      40.459  27.995  28.928  1.00  0.00     0.064 A 
ATOM     60  C   UNL A   1      41.220  28.326  27.795  1.00  0.00     0.173 A 
ATOM     61  C   UNL A   1      39.739  26.791  28.904  1.00  0.00     0.173 A 
ATOM     62  F   UNL A   1      41.916  29.473  27.761  1.00  0.00    -0.203 F 
ATOM     63  C   UNL A   1      41.226  27.505  26.671  1.00  0.00     0.198 A 
ATOM     64  C   UNL A   1      39.773  25.957  27.790  1.00  0.00     0.198 A 
ATOM     65  F   UNL A   1      39.000  26.424  29.961  1.00  0.00    -0.203 F 
ATOM     66  F   UNL A   1      41.911  27.873  25.579  1.00  0.00    -0.200 F 
ATOM     67  C   UNL A   1      40.508  26.319  26.670  1.00  0.00     0.200 A 
ATOM     68  F   UNL A   1      39.089  24.805  27.796  1.00  0.00    -0.200 F 
ATOM     69  F   UNL A   1      40.516  25.530  25.588  1.00  0.00    -0.200 F 
ENDBRANCH  45  59
BRANCH  46  70
ATOM     70  C   UNL A   1      39.576  33.937  36.906  1.00  0.00     0.064 A 
ATOM     71  C   UNL A   1      40.217  35.183  36.963  1.00  0.00     0.173 A 
ATOM     72  C   UNL A   1      38.799  33.551  38.007  1.00  0.00     0.173 A 
ATOM     73  F   UNL A   1      40.987  35.585  35.942  1.00  0.00    -0.203 F 
ATOM     74  C   UNL A   1      40.097  36.003  38.083  1.00  0.00     0.198 A 
ATOM     75  C   UNL A   1      38.659  34.383  39.116  1.00  0.00     0.198 A 
ATOM     76  F   UNL A   1      38.162  32.370  37.999  1.00  0.00    -0.203 F 
ATOM     77  F   UNL A   1      40.749  37.173  38.125  1.00  0.00    -0.200 F 
ATOM     78  C   UNL A   1      39.313  35.606  39.155  1.00  0.00     0.200 A 
ATOM     79  F   UNL A   1      37.891  34.002  40.146  1.00  0.00    -0.200 F 
ATOM     80  F   UNL A   1      39.192  36.398  40.229  1.00  0.00    -0.200 F 
ENDBRANCH  46  70
BRANCH  58  81
ATOM     81  C   UNL A   1      43.930  28.770  35.203  1.00  0.00     0.064 A 
ATOM     82  C   UNL A   1      43.764  27.708  36.104  1.00  0.00     0.173 A 
ATOM     83  C   UNL A   1      45.235  29.215  34.944  1.00  0.00     0.173 A 
ATOM     84  F   UNL A   1      42.534  27.258  36.397  1.00  0.00    -0.203 F 
ATOM     85  C   UNL A   1      44.861  27.128  36.736  1.00  0.00     0.198 A 
ATOM     86  C   UNL A   1      46.332  28.616  35.556  1.00  0.00     0.198 A 
ATOM     87  F   UNL A   1      45.448  30.225  34.086  1.00  0.00    -0.203 F 
ATOM     88  F   UNL A   1      44.677  26.143  37.625  1.00  0.00    -0.200 F 
ATOM     89  C   UNL A   1      46.144  27.576  36.455  1.00  0.00     0.200 A 
ATOM     90  F   UNL A   1      47.571  29.041  35.275  1.00  0.00    -0.200 F 
ATOM     91  F   UNL A   1      47.199  27.012  37.058  1.00  0.00    -0.200 F 
ENDBRANCH  58  81
ENDBRANCH  32  33
ENDBRANCH  24  27
ENDBRANCH  22  23
ENDBRANCH  21  22
ENDBRANCH  20  21
ENDBRANCH   1  20
TORSDOF 15
ENDMDL
MODEL 3
REMARK VINA RESULT:     -11.5      0.884      2.270
REMARK SMILES CCCc1nsc(Oc2csc(C(=O)NCCCCNC(=O)c3ccc(-c4c5nc(c(-c6c(F)c(F)c(F)c(F)c6F)c6ccc([nH]6)c(-c6c(F)c(F)c(F)c(F)c6F)c6nc(c(-c7c(F)c(F)c(F)c(F)c7F)c7ccc4[nH]7)C=C6)C=C5)cc3)c2)n1
REMARK SMILES IDX 16 1 15 2 13 3 14 4 12 6 9 7 10 8 86 9 11 10 8 11 7 12 4 13
REMARK SMILES IDX 5 14 87 15 6 16 3 17 2 18 1 19 17 20 18 21 19 22 20 23 21 24
REMARK SMILES IDX 22 26 23 27 24 28 85 29 25 30 84 31 26 32 27 33 28 34 78 35
REMARK SMILES IDX 29 36 83 37 77 38 79 39 30 40 82 41 76 42 75 43 31 45 63 46
REMARK SMILES IDX 43 47 62 48 44 49 47 50 61 51 80 52 45 53 46 54 60 56 81 57
REMARK SMILES IDX 48 58 32 59 33 60 41 61 34 62 35 63 39 64 42 65 36 66 37 67
REMARK SMILES IDX 40 68 38 69 64 70 65 71 73 72 66 73 67 74 71 75 74 76 68 77
REMARK SMILES IDX 69 78 72 79 70 80 49 81 50 82 58 83 51 84 52 85 56 86 59 87
REMARK SMILES IDX 53 88 54 89 57 90 55 91
REMARK H PARENT 15 5 20 25 79 44 47 55
REMARK Flexibility Score: inf
ROOT
ATOM      1  C   UNL A   1      33.163  30.031  26.142  1.00  0.00     0.116 C 
ENDROOT
BRANCH   1   2
ATOM      2  N   UNL A   1      33.149  29.703  24.733  1.00  0.00    -0.351 N 
ATOM      3  C   UNL A   1      33.017  28.511  24.057  1.00  0.00     0.261 C 
ATOM      4  O   UNL A   1      33.039  28.616  22.827  1.00  0.00    -0.268 OA
ATOM      5  H   UNL A   1      33.255  30.483  24.143  1.00  0.00     0.163 HD
BRANCH   3   6
ATOM      6  C   UNL A   1      32.830  27.241  24.751  1.00  0.00     0.096 A 
ATOM      7  C   UNL A   1      33.086  25.197  25.858  1.00  0.00     0.141 A 
ATOM      8  C   UNL A   1      31.762  25.445  26.115  1.00  0.00     0.112 A 
ATOM      9  C   UNL A   1      33.681  26.186  25.027  1.00  0.00     0.072 A 
ATOM     10  S   UNL A   1      31.251  26.896  25.373  1.00  0.00    -0.135 S 
BRANCH   7  11
ATOM     11  O   UNL A   1      33.787  24.188  26.419  1.00  0.00    -0.429 OA
BRANCH  11  12
ATOM     12  C   UNL A   1      33.842  23.004  25.814  1.00  0.00     0.298 A 
ATOM     13  C   UNL A   1      33.387  21.266  24.557  1.00  0.00     0.146 A 
ATOM     14  N   UNL A   1      34.560  20.801  24.999  1.00  0.00    -0.172 NA
ATOM     15  N   UNL A   1      32.951  22.523  24.975  1.00  0.00    -0.186 NA
ATOM     16  S   UNL A   1      35.152  21.932  26.069  1.00  0.00     0.025 S 
BRANCH  13  17
ATOM     17  C   UNL A   1      32.528  20.488  23.612  1.00  0.00     0.078 C 
BRANCH  17  18
ATOM     18  C   UNL A   1      32.317  19.008  23.940  1.00  0.00     0.005 C 
ATOM     19  C   UNL A   1      32.545  18.080  22.753  1.00  0.00     0.004 C 
ENDBRANCH  17  18
ENDBRANCH  13  17
ENDBRANCH  11  12
ENDBRANCH   7  11
ENDBRANCH   3   6
ENDBRANCH   1   2
BRANCH   1  20
ATOM     20  C   UNL A   1      31.774  30.459  26.617  1.00  0.00     0.023 C 
BRANCH  20  21
ATOM     21  C   UNL A   1      31.579  31.980  26.676  1.00  0.00     0.023 C 
BRANCH  21  22
ATOM     22  C   UNL A   1      32.740  32.757  27.291  1.00  0.00     0.116 C 
BRANCH  22  23
ATOM     23  N   UNL A   1      32.405  34.131  27.627  1.00  0.00    -0.352 N 
ATOM     24  C   UNL A   1      32.988  34.948  28.568  1.00  0.00     0.251 C 
ATOM     25  H   UNL A   1      31.665  34.529  27.114  1.00  0.00     0.163 HD
ATOM     26  O   UNL A   1      32.528  36.056  28.804  1.00  0.00    -0.269 OA
BRANCH  24  27
ATOM     27  C   UNL A   1      34.156  34.451  29.324  1.00  0.00     0.039 A 
ATOM     28  C   UNL A   1      33.944  33.823  30.554  1.00  0.00     0.014 A 
ATOM     29  C   UNL A   1      35.447  34.578  28.805  1.00  0.00     0.014 A 
ATOM     30  C   UNL A   1      35.024  33.260  31.235  1.00  0.00     0.010 A 
ATOM     31  C   UNL A   1      36.511  33.959  29.452  1.00  0.00     0.010 A 
ATOM     32  C   UNL A   1      36.310  33.295  30.672  1.00  0.00    -0.014 A 
BRANCH  32  33
ATOM     33  C   UNL A   1      37.466  32.648  31.342  1.00  0.00     0.031 A 
ATOM     34  C   UNL A   1      38.177  31.509  30.671  1.00  0.00     0.074 A 
ATOM     35  C   UNL A   1      37.818  33.031  32.584  1.00  0.00     0.049 A 
ATOM     36  N   UNL A   1      39.134  30.744  31.130  1.00  0.00    -0.248 NA
ATOM     37  C   UNL A   1      37.727  31.162  29.315  1.00  0.00     0.031 C 
ATOM     38  C   UNL A   1      37.175  34.096  33.356  1.00  0.00     0.029 A 
ATOM     39  N   UNL A   1      38.794  32.555  33.422  1.00  0.00    -0.354 N 
ATOM     40  C   UNL A   1      39.384  29.813  30.130  1.00  0.00     0.074 A 
ATOM     41  C   UNL A   1      38.445  30.078  29.061  1.00  0.00     0.031 C 
ATOM     42  C   UNL A   1      37.786  34.205  34.546  1.00  0.00     0.029 A 
ATOM     43  C   UNL A   1      38.837  33.195  34.636  1.00  0.00     0.049 A 
ATOM     44  H   UNL A   1      39.406  31.824  33.176  1.00  0.00     0.167 HD
ATOM     45  C   UNL A   1      40.324  28.840  30.098  1.00  0.00     0.037 A 
ATOM     46  C   UNL A   1      39.631  32.984  35.703  1.00  0.00     0.037 A 
ATOM     47  C   UNL A   1      41.276  28.602  31.150  1.00  0.00     0.049 A 
ATOM     48  C   UNL A   1      40.672  31.899  35.641  1.00  0.00     0.074 A 
ATOM     49  C   UNL A   1      42.313  27.686  31.187  1.00  0.00     0.029 A 
ATOM     50  N   UNL A   1      41.306  29.288  32.356  1.00  0.00    -0.354 N 
ATOM     51  N   UNL A   1      40.943  31.067  34.667  1.00  0.00    -0.248 NA
ATOM     52  C   UNL A   1      41.520  31.730  36.829  1.00  0.00     0.031 C 
ATOM     53  C   UNL A   1      42.945  27.790  32.430  1.00  0.00     0.029 A 
ATOM     54  C   UNL A   1      42.331  28.802  33.151  1.00  0.00     0.049 A 
ATOM     55  H   UNL A   1      40.690  30.013  32.609  1.00  0.00     0.167 HD
ATOM     56  C   UNL A   1      42.009  30.295  35.108  1.00  0.00     0.074 A 
ATOM     57  C   UNL A   1      42.342  30.766  36.437  1.00  0.00     0.031 C 
ATOM     58  C   UNL A   1      42.655  29.289  34.469  1.00  0.00     0.037 A 
BRANCH  45  59
ATOM     59  C   UNL A   1      40.365  27.960  28.883  1.00  0.00     0.064 A 
ATOM     60  C   UNL A   1      39.651  26.754  28.823  1.00  0.00     0.173 A 
ATOM     61  C   UNL A   1      41.118  28.331  27.759  1.00  0.00     0.173 A 
ATOM     62  F   UNL A   1      38.925  26.346  29.876  1.00  0.00    -0.203 F 
ATOM     63  C   UNL A   1      39.721  25.933  27.701  1.00  0.00     0.198 A 
ATOM     64  C   UNL A   1      41.161  27.524  26.625  1.00  0.00     0.198 A 
ATOM     65  F   UNL A   1      41.816  29.476  27.760  1.00  0.00    -0.203 F 
ATOM     66  F   UNL A   1      39.079  24.757  27.692  1.00  0.00    -0.200 F 
ATOM     67  C   UNL A   1      40.470  26.320  26.601  1.00  0.00     0.200 A 
ATOM     68  F   UNL A   1      41.876  27.906  25.559  1.00  0.00    -0.200 F 
ATOM     69  F   UNL A   1      40.537  25.531  25.521  1.00  0.00    -0.200 F 
ENDBRANCH  45  59
BRANCH  46  70
ATOM     70  C   UNL A   1      39.495  33.844  36.906  1.00  0.00     0.064 A 
ATOM     71  C   UNL A   1      40.134  35.091  36.970  1.00  0.00     0.173 A 
ATOM     72  C   UNL A   1      38.722  33.448  38.007  1.00  0.00     0.173 A 
ATOM     73  F   UNL A   1      40.900  35.502  35.950  1.00  0.00    -0.203 F 
ATOM     74  C   UNL A   1      40.015  35.902  38.095  1.00  0.00     0.198 A 
ATOM     75  C   UNL A   1      38.584  34.272  39.122  1.00  0.00     0.198 A 
ATOM     76  F   UNL A   1      38.088  32.267  37.992  1.00  0.00    -0.203 F 
ATOM     77  F   UNL A   1      40.665  37.073  38.145  1.00  0.00    -0.200 F 
ATOM     78  C   UNL A   1      39.235  35.497  39.168  1.00  0.00     0.200 A 
ATOM     79  F   UNL A   1      37.820  33.882  40.151  1.00  0.00    -0.200 F 
ATOM     80  F   UNL A   1      39.116  36.281  40.247  1.00  0.00    -0.200 F 
ENDBRANCH  46  70
BRANCH  58  81
ATOM     81  C   UNL A   1      43.814  28.654  35.180  1.00  0.00     0.064 A 
ATOM     82  C   UNL A   1      45.116  29.159  35.060  1.00  0.00     0.173 A 
ATOM     83  C   UNL A   1      43.609  27.554  36.026  1.00  0.00     0.173 A 
ATOM     84  F   UNL A   1      45.365  30.200  34.251  1.00  0.00    -0.203 F 
ATOM     85  C   UNL A   1      46.176  28.572  35.747  1.00  0.00     0.198 A 
ATOM     86  C   UNL A   1      44.665  26.987  36.732  1.00  0.00     0.198 A 
ATOM     87  F   UNL A   1      42.380  27.036  36.177  1.00  0.00    -0.203 F 
ATOM     88  F   UNL A   1      47.420  29.045  35.587  1.00  0.00    -0.200 F 
ATOM     89  C   UNL A   1      45.948  27.493  36.588  1.00  0.00     0.200 A 
ATOM     90  F   UNL A   1      44.442  25.952  37.553  1.00  0.00    -0.200 F 
ATOM     91  F   UNL A   1      46.968  26.935  37.255  1.00  0.00    -0.200 F 
ENDBRANCH  58  81
ENDBRANCH  32  33
ENDBRANCH  24  27
ENDBRANCH  22  23
ENDBRANCH  21  22
ENDBRANCH  20  21
ENDBRANCH   1  20
TORSDOF 15
ENDMDL
