MODEL 1
REMARK VINA RESULT:     -10.9      0.000      0.000
REMARK SMILES O=C(Cc1csc(NC(=O)[C@H]2CC(=O)N(C3CC3)C2)n1)NCCCCNC(=O)c1ccc(-c2c3nc(c(-c4c(F)c(F)c(F)c(F)c4F)c4ccc([nH]4)c(-c4c(F)c(F)c(F)c(F)c4F)c4nc(c(-c5c(F)c(F)c(F)c(F)c5F)c5ccc2[nH]5)C=C4)C=C3)cc1
REMARK SMILES IDX 22 1 21 2 1 3 2 4 3 6 4 7 5 8 20 9 6 10 7 11 8 12 9 13 10 15
REMARK SMILES IDX 11 16 12 17 19 18 13 19 15 20 14 21 16 22 17 23 18 24 23 25
REMARK SMILES IDX 24 26 25 27 26 28 27 29 28 31 29 32 30 33 91 34 31 35 90 36
REMARK SMILES IDX 32 37 33 38 34 39 84 40 35 41 89 42 83 43 85 44 36 45 88 46
REMARK SMILES IDX 82 47 81 48 37 50 69 51 49 52 68 53 50 54 53 55 67 56 86 57
REMARK SMILES IDX 51 58 52 59 66 61 87 62 54 63 38 64 39 65 47 66 40 67 41 68
REMARK SMILES IDX 45 69 48 70 42 71 43 72 46 73 44 74 70 75 71 76 79 77 72 78
REMARK SMILES IDX 73 79 77 80 80 81 74 82 75 83 78 84 76 85 55 86 56 87 64 88
REMARK SMILES IDX 57 89 58 90 62 91 65 92 59 93 60 94 63 95 61 96
REMARK H PARENT 21 5 8 14 26 30 85 49 53 60
REMARK Flexibility Score: inf
ROOT
ATOM      1  C   UNL A   1      42.887  18.705  26.449  1.00  0.00     0.116 C 
ENDROOT
BRANCH   1   2
ATOM      2  N   UNL A   1      43.814  19.554  25.724  1.00  0.00    -0.356 N 
ATOM      3  O   UNL A   1      45.382  17.912  25.407  1.00  0.00    -0.275 OA
ATOM      4  C   UNL A   1      44.995  19.058  25.198  1.00  0.00     0.226 C 
ATOM      5  H   UNL A   1      43.598  20.507  25.604  1.00  0.00     0.163 HD
BRANCH   4   6
ATOM      6  C   UNL A   1      45.797  20.051  24.373  1.00  0.00     0.157 C 
BRANCH   6   7
ATOM      7  C   UNL A   1      45.590  21.483  24.768  1.00  0.00     0.063 A 
ATOM      8  C   UNL A   1      45.117  22.519  23.979  1.00  0.00     0.093 A 
ATOM      9  N   UNL A   1      45.831  21.863  26.089  1.00  0.00    -0.224 NA
ATOM     10  S   UNL A   1      44.642  23.823  24.993  1.00  0.00    -0.105 S 
ATOM     11  C   UNL A   1      45.613  23.151  26.221  1.00  0.00     0.189 A 
BRANCH  11  12
ATOM     12  N   UNL A   1      45.990  23.877  27.313  1.00  0.00    -0.302 N 
ATOM     13  C   UNL A   1      46.980  24.795  27.489  1.00  0.00     0.231 C 
ATOM     14  H   UNL A   1      45.447  23.708  28.116  1.00  0.00     0.172 HD
ATOM     15  O   UNL A   1      47.003  25.359  28.592  1.00  0.00    -0.274 OA
BRANCH  13  16
ATOM     16  C   UNL A   1      48.054  25.171  26.460  1.00  0.00     0.107 C 
ATOM     17  C   UNL A   1      47.827  26.600  25.921  1.00  0.00     0.115 C 
ATOM     18  C   UNL A   1      49.480  25.250  26.946  1.00  0.00     0.133 C 
ATOM     19  C   UNL A   1      49.214  27.131  25.603  1.00  0.00     0.223 C 
ATOM     20  N   UNL A   1      50.128  26.289  26.218  1.00  0.00    -0.339 N 
ATOM     21  O   UNL A   1      49.440  28.134  24.956  1.00  0.00    -0.275 OA
BRANCH  20  22
ATOM     22  C   UNL A   1      51.554  26.350  26.263  1.00  0.00     0.085 C 
ATOM     23  C   UNL A   1      52.512  25.210  26.156  1.00  0.00     0.027 C 
ATOM     24  C   UNL A   1      52.344  26.154  24.999  1.00  0.00     0.027 C 
ENDBRANCH  20  22
ENDBRANCH  13  16
ENDBRANCH  11  12
ENDBRANCH   6   7
ENDBRANCH   4   6
ENDBRANCH   1   2
BRANCH   1  25
ATOM     25  C   UNL A   1      41.649  19.459  26.930  1.00  0.00     0.023 C 
BRANCH  25  26
ATOM     26  C   UNL A   1      41.901  20.884  27.435  1.00  0.00     0.023 C 
BRANCH  26  27
ATOM     27  C   UNL A   1      41.615  22.000  26.433  1.00  0.00     0.116 C 
BRANCH  27  28
ATOM     28  N   UNL A   1      40.232  22.021  25.987  1.00  0.00    -0.352 N 
ATOM     29  C   UNL A   1      39.257  22.975  26.164  1.00  0.00     0.251 C 
ATOM     30  H   UNL A   1      39.947  21.228  25.478  1.00  0.00     0.163 HD
ATOM     31  O   UNL A   1      38.099  22.729  25.837  1.00  0.00    -0.269 OA
BRANCH  29  32
ATOM     32  C   UNL A   1      39.579  24.287  26.773  1.00  0.00     0.039 A 
ATOM     33  C   UNL A   1      39.250  24.503  28.115  1.00  0.00     0.014 A 
ATOM     34  C   UNL A   1      40.179  25.308  26.033  1.00  0.00     0.014 A 
ATOM     35  C   UNL A   1      39.593  25.710  28.732  1.00  0.00     0.010 A 
ATOM     36  C   UNL A   1      40.590  26.479  26.670  1.00  0.00     0.010 A 
ATOM     37  C   UNL A   1      40.306  26.693  28.027  1.00  0.00    -0.014 A 
BRANCH  37  38
ATOM     38  C   UNL A   1      40.773  27.937  28.697  1.00  0.00     0.031 A 
ATOM     39  C   UNL A   1      42.209  28.086  29.118  1.00  0.00     0.074 A 
ATOM     40  C   UNL A   1      39.887  28.912  28.986  1.00  0.00     0.049 A 
ATOM     41  N   UNL A   1      42.785  29.065  29.771  1.00  0.00    -0.248 NA
ATOM     42  C   UNL A   1      43.114  26.976  28.784  1.00  0.00     0.031 C 
ATOM     43  C   UNL A   1      38.459  28.876  28.667  1.00  0.00     0.029 A 
ATOM     44  N   UNL A   1      40.054  30.118  29.620  1.00  0.00    -0.354 N 
ATOM     45  C   UNL A   1      44.110  28.684  29.937  1.00  0.00     0.074 A 
ATOM     46  C   UNL A   1      44.242  27.361  29.365  1.00  0.00     0.031 C 
ATOM     47  C   UNL A   1      37.886  30.017  29.082  1.00  0.00     0.029 A 
ATOM     48  C   UNL A   1      38.893  30.846  29.738  1.00  0.00     0.049 A 
ATOM     49  H   UNL A   1      40.924  30.433  29.959  1.00  0.00     0.167 HD
ATOM     50  C   UNL A   1      45.129  29.382  30.496  1.00  0.00     0.037 A 
ATOM     51  C   UNL A   1      38.664  32.041  30.316  1.00  0.00     0.037 A 
ATOM     52  C   UNL A   1      45.000  30.706  31.046  1.00  0.00     0.049 A 
ATOM     53  C   UNL A   1      39.809  32.781  30.954  1.00  0.00     0.074 A 
ATOM     54  C   UNL A   1      45.987  31.518  31.577  1.00  0.00     0.029 A 
ATOM     55  N   UNL A   1      43.808  31.409  31.146  1.00  0.00    -0.354 N 
ATOM     56  N   UNL A   1      41.072  32.442  31.039  1.00  0.00    -0.248 NA
ATOM     57  C   UNL A   1      39.495  34.078  31.573  1.00  0.00     0.031 C 
ATOM     58  C   UNL A   1      45.383  32.685  32.057  1.00  0.00     0.029 A 
ATOM     59  C   UNL A   1      44.030  32.632  31.762  1.00  0.00     0.049 A 
ATOM     60  H   UNL A   1      42.934  31.088  30.828  1.00  0.00     0.167 HD
ATOM     61  C   UNL A   1      41.708  33.493  31.688  1.00  0.00     0.074 A 
ATOM     62  C   UNL A   1      40.694  34.489  31.961  1.00  0.00     0.031 C 
ATOM     63  C   UNL A   1      43.015  33.621  32.024  1.00  0.00     0.037 A 
BRANCH  50  64
ATOM     64  C   UNL A   1      46.480  28.722  30.548  1.00  0.00     0.064 A 
ATOM     65  C   UNL A   1      46.841  27.856  31.592  1.00  0.00     0.173 A 
ATOM     66  C   UNL A   1      47.410  28.925  29.516  1.00  0.00     0.173 A 
ATOM     67  F   UNL A   1      45.994  27.633  32.608  1.00  0.00    -0.203 F 
ATOM     68  C   UNL A   1      48.093  27.247  31.618  1.00  0.00     0.198 A 
ATOM     69  C   UNL A   1      48.646  28.285  29.527  1.00  0.00     0.198 A 
ATOM     70  F   UNL A   1      47.114  29.736  28.489  1.00  0.00    -0.203 F 
ATOM     71  F   UNL A   1      48.435  26.468  32.654  1.00  0.00    -0.200 F 
ATOM     72  C   UNL A   1      48.991  27.455  30.583  1.00  0.00     0.200 A 
ATOM     73  F   UNL A   1      49.506  28.473  28.516  1.00  0.00    -0.200 F 
ATOM     74  F   UNL A   1      50.192  26.859  30.605  1.00  0.00    -0.200 F 
ENDBRANCH  50  64
BRANCH  51  75
ATOM     75  C   UNL A   1      37.296  32.624  30.306  1.00  0.00     0.064 A 
ATOM     76  C   UNL A   1      36.383  32.338  31.332  1.00  0.00     0.173 A 
ATOM     77  C   UNL A   1      36.866  33.466  29.269  1.00  0.00     0.173 A 
ATOM     78  F   UNL A   1      36.739  31.522  32.334  1.00  0.00    -0.203 F 
ATOM     79  C   UNL A   1      35.087  32.849  31.307  1.00  0.00     0.198 A 
ATOM     80  C   UNL A   1      35.580  34.003  29.263  1.00  0.00     0.198 A 
ATOM     81  F   UNL A   1      37.701  33.777  28.266  1.00  0.00    -0.203 F 
ATOM     82  F   UNL A   1      34.220  32.514  32.272  1.00  0.00    -0.200 F 
ATOM     83  C   UNL A   1      34.688  33.687  30.276  1.00  0.00     0.200 A 
ATOM     84  F   UNL A   1      35.205  34.826  28.274  1.00  0.00    -0.200 F 
ATOM     85  F   UNL A   1      33.443  34.181  30.255  1.00  0.00    -0.200 F 
ENDBRANCH  51  75
BRANCH  63  86
ATOM     86  C   UNL A   1      43.438  34.902  32.687  1.00  0.00     0.064 A 
ATOM     87  C   UNL A   1      43.471  35.039  34.082  1.00  0.00     0.173 A 
ATOM     88  C   UNL A   1      43.851  35.998  31.912  1.00  0.00     0.173 A 
ATOM     89  F   UNL A   1      43.073  34.028  34.870  1.00  0.00    -0.203 F 
ATOM     90  C   UNL A   1      43.874  36.233  34.676  1.00  0.00     0.198 A 
ATOM     91  C   UNL A   1      44.287  37.177  32.509  1.00  0.00     0.198 A 
ATOM     92  F   UNL A   1      43.845  35.919  30.573  1.00  0.00    -0.203 F 
ATOM     93  F   UNL A   1      43.845  36.358  36.010  1.00  0.00    -0.200 F 
ATOM     94  C   UNL A   1      44.290  37.297  33.890  1.00  0.00     0.200 A 
ATOM     95  F   UNL A   1      44.704  38.197  31.747  1.00  0.00    -0.200 F 
ATOM     96  F   UNL A   1      44.685  38.442  34.463  1.00  0.00    -0.200 F 
ENDBRANCH  63  86
ENDBRANCH  37  38
ENDBRANCH  29  32
ENDBRANCH  27  28
ENDBRANCH  26  27
ENDBRANCH  25  26
ENDBRANCH   1  25
TORSDOF 15
ENDMDL
MODEL 2
REMARK VINA RESULT:     -10.9      4.514     11.212
REMARK SMILES O=C(Cc1csc(NC(=O)[C@H]2CC(=O)N(C3CC3)C2)n1)NCCCCNC(=O)c1ccc(-c2c3nc(c(-c4c(F)c(F)c(F)c(F)c4F)c4ccc([nH]4)c(-c4c(F)c(F)c(F)c(F)c4F)c4nc(c(-c5c(F)c(F)c(F)c(F)c5F)c5ccc2[nH]5)C=C4)C=C3)cc1
REMARK SMILES IDX 22 1 21 2 1 3 2 4 3 6 4 7 5 8 20 9 6 10 7 11 8 12 9 13 10 15
REMARK SMILES IDX 11 16 12 17 19 18 13 19 15 20 14 21 16 22 17 23 18 24 23 25
REMARK SMILES IDX 24 26 25 27 26 28 27 29 28 31 29 32 30 33 91 34 31 35 90 36
REMARK SMILES IDX 32 37 33 38 34 39 84 40 35 41 89 42 83 43 85 44 36 45 88 46
REMARK SMILES IDX 82 47 81 48 37 50 69 51 49 52 68 53 50 54 53 55 67 56 86 57
REMARK SMILES IDX 51 58 52 59 66 61 87 62 54 63 38 64 39 65 47 66 40 67 41 68
REMARK SMILES IDX 45 69 48 70 42 71 43 72 46 73 44 74 70 75 71 76 79 77 72 78
REMARK SMILES IDX 73 79 77 80 80 81 74 82 75 83 78 84 76 85 55 86 56 87 64 88
REMARK SMILES IDX 57 89 58 90 62 91 65 92 59 93 60 94 63 95 61 96
REMARK H PARENT 21 5 8 14 26 30 85 49 53 60
REMARK Flexibility Score: inf
ROOT
ATOM      1  C   UNL A   1      36.933  22.084  25.567  1.00  0.00     0.116 C 
ENDROOT
BRANCH   1   2
ATOM      2  N   UNL A   1      35.715  22.869  25.650  1.00  0.00    -0.356 N 
ATOM      3  O   UNL A   1      34.666  21.454  27.117  1.00  0.00    -0.275 OA
ATOM      4  C   UNL A   1      34.674  22.507  26.487  1.00  0.00     0.226 C 
ATOM      5  H   UNL A   1      35.628  23.679  25.097  1.00  0.00     0.163 HD
BRANCH   4   6
ATOM      6  C   UNL A   1      33.520  23.496  26.540  1.00  0.00     0.157 C 
BRANCH   6   7
ATOM      7  C   UNL A   1      32.696  23.541  25.287  1.00  0.00     0.063 A 
ATOM      8  C   UNL A   1      31.417  23.043  25.098  1.00  0.00     0.093 A 
ATOM      9  N   UNL A   1      33.203  24.199  24.166  1.00  0.00    -0.224 NA
ATOM     10  S   UNL A   1      30.756  23.732  23.668  1.00  0.00    -0.105 S 
ATOM     11  C   UNL A   1      32.344  24.105  23.178  1.00  0.00     0.189 A 
BRANCH  11  12
ATOM     12  N   UNL A   1      32.638  24.424  21.885  1.00  0.00    -0.302 N 
ATOM     13  C   UNL A   1      32.899  25.619  21.285  1.00  0.00     0.231 C 
ATOM     14  H   UNL A   1      32.667  23.651  21.275  1.00  0.00     0.172 HD
ATOM     15  O   UNL A   1      33.231  25.563  20.093  1.00  0.00    -0.274 OA
BRANCH  13  16
ATOM     16  C   UNL A   1      32.806  26.998  21.949  1.00  0.00     0.107 C 
ATOM     17  C   UNL A   1      31.383  27.258  22.490  1.00  0.00     0.115 C 
ATOM     18  C   UNL A   1      33.648  27.232  23.179  1.00  0.00     0.133 C 
ATOM     19  C   UNL A   1      31.574  28.147  23.706  1.00  0.00     0.223 C 
ATOM     20  N   UNL A   1      32.918  28.098  24.045  1.00  0.00    -0.339 N 
ATOM     21  O   UNL A   1      30.683  28.746  24.274  1.00  0.00    -0.275 OA
BRANCH  20  22
ATOM     22  C   UNL A   1      33.623  28.720  25.119  1.00  0.00     0.085 C 
ATOM     23  C   UNL A   1      33.083  29.088  26.462  1.00  0.00     0.027 C 
ATOM     24  C   UNL A   1      34.001  27.907  26.326  1.00  0.00     0.027 C 
ENDBRANCH  20  22
ENDBRANCH  13  16
ENDBRANCH  11  12
ENDBRANCH   6   7
ENDBRANCH   4   6
ENDBRANCH   1   2
BRANCH   1  25
ATOM     25  C   UNL A   1      36.744  20.782  24.790  1.00  0.00     0.023 C 
BRANCH  25  26
ATOM     26  C   UNL A   1      37.909  19.791  24.874  1.00  0.00     0.023 C 
BRANCH  26  27
ATOM     27  C   UNL A   1      39.039  20.178  25.825  1.00  0.00     0.116 C 
BRANCH  27  28
ATOM     28  N   UNL A   1      40.073  19.161  25.921  1.00  0.00    -0.352 N 
ATOM     29  C   UNL A   1      41.430  19.290  26.109  1.00  0.00     0.251 C 
ATOM     30  H   UNL A   1      39.753  18.234  25.840  1.00  0.00     0.163 HD
ATOM     31  O   UNL A   1      42.154  18.304  26.007  1.00  0.00    -0.269 OA
BRANCH  29  32
ATOM     32  C   UNL A   1      42.034  20.611  26.402  1.00  0.00     0.039 A 
ATOM     33  C   UNL A   1      42.423  21.424  25.333  1.00  0.00     0.014 A 
ATOM     34  C   UNL A   1      42.240  21.045  27.714  1.00  0.00     0.014 A 
ATOM     35  C   UNL A   1      42.944  22.699  25.578  1.00  0.00     0.010 A 
ATOM     36  C   UNL A   1      42.686  22.345  27.955  1.00  0.00     0.010 A 
ATOM     37  C   UNL A   1      43.040  23.189  26.890  1.00  0.00    -0.014 A 
BRANCH  37  38
ATOM     38  C   UNL A   1      43.490  24.580  27.164  1.00  0.00     0.031 A 
ATOM     39  C   UNL A   1      42.522  25.608  27.686  1.00  0.00     0.074 A 
ATOM     40  C   UNL A   1      44.758  24.939  26.881  1.00  0.00     0.049 A 
ATOM     41  N   UNL A   1      42.714  26.883  27.920  1.00  0.00    -0.248 NA
ATOM     42  C   UNL A   1      41.152  25.149  27.956  1.00  0.00     0.031 C 
ATOM     43  C   UNL A   1      45.785  24.049  26.335  1.00  0.00     0.029 A 
ATOM     44  N   UNL A   1      45.399  26.147  27.005  1.00  0.00    -0.354 N 
ATOM     45  C   UNL A   1      41.489  27.378  28.350  1.00  0.00     0.074 A 
ATOM     46  C   UNL A   1      40.548  26.280  28.293  1.00  0.00     0.031 C 
ATOM     47  C   UNL A   1      46.931  24.733  26.197  1.00  0.00     0.029 A 
ATOM     48  C   UNL A   1      46.712  26.120  26.598  1.00  0.00     0.049 A 
ATOM     49  H   UNL A   1      44.960  26.957  27.352  1.00  0.00     0.167 HD
ATOM     50  C   UNL A   1      41.183  28.628  28.774  1.00  0.00     0.037 A 
ATOM     51  C   UNL A   1      47.633  27.102  26.545  1.00  0.00     0.037 A 
ATOM     52  C   UNL A   1      42.126  29.714  28.850  1.00  0.00     0.049 A 
ATOM     53  C   UNL A   1      47.257  28.488  26.996  1.00  0.00     0.074 A 
ATOM     54  C   UNL A   1      41.925  30.998  29.324  1.00  0.00     0.029 A 
ATOM     55  N   UNL A   1      43.447  29.646  28.429  1.00  0.00    -0.354 N 
ATOM     56  N   UNL A   1      46.116  28.925  27.470  1.00  0.00    -0.248 NA
ATOM     57  C   UNL A   1      48.303  29.518  26.910  1.00  0.00     0.031 C 
ATOM     58  C   UNL A   1      43.104  31.726  29.132  1.00  0.00     0.029 A 
ATOM     59  C   UNL A   1      44.062  30.878  28.602  1.00  0.00     0.049 A 
ATOM     60  H   UNL A   1      43.882  28.844  28.061  1.00  0.00     0.167 HD
ATOM     61  C   UNL A   1      46.314  30.267  27.769  1.00  0.00     0.074 A 
ATOM     62  C   UNL A   1      47.691  30.569  27.438  1.00  0.00     0.031 C 
ATOM     63  C   UNL A   1      45.436  31.167  28.275  1.00  0.00     0.037 A 
BRANCH  50  64
ATOM     64  C   UNL A   1      39.762  28.896  29.186  1.00  0.00     0.064 A 
ATOM     65  C   UNL A   1      38.793  29.330  28.267  1.00  0.00     0.173 A 
ATOM     66  C   UNL A   1      39.351  28.673  30.510  1.00  0.00     0.173 A 
ATOM     67  F   UNL A   1      39.132  29.566  26.990  1.00  0.00    -0.203 F 
ATOM     68  C   UNL A   1      37.480  29.564  28.665  1.00  0.00     0.198 A 
ATOM     69  C   UNL A   1      38.029  28.872  30.896  1.00  0.00     0.198 A 
ATOM     70  F   UNL A   1      40.233  28.249  31.429  1.00  0.00    -0.203 F 
ATOM     71  F   UNL A   1      36.587  30.030  27.781  1.00  0.00    -0.200 F 
ATOM     72  C   UNL A   1      37.096  29.327  29.976  1.00  0.00     0.200 A 
ATOM     73  F   UNL A   1      37.656  28.625  32.159  1.00  0.00    -0.200 F 
ATOM     74  F   UNL A   1      35.828  29.542  30.355  1.00  0.00    -0.200 F 
ENDBRANCH  50  64
BRANCH  51  75
ATOM     75  C   UNL A   1      49.009  26.809  26.061  1.00  0.00     0.064 A 
ATOM     76  C   UNL A   1      49.351  26.989  24.713  1.00  0.00     0.173 A 
ATOM     77  C   UNL A   1      50.004  26.333  26.927  1.00  0.00     0.173 A 
ATOM     78  F   UNL A   1      48.430  27.422  23.841  1.00  0.00    -0.203 F 
ATOM     79  C   UNL A   1      50.627  26.679  24.246  1.00  0.00     0.198 A 
ATOM     80  C   UNL A   1      51.289  26.055  26.465  1.00  0.00     0.198 A 
ATOM     81  F   UNL A   1      49.731  26.148  28.228  1.00  0.00    -0.203 F 
ATOM     82  F   UNL A   1      50.910  26.809  22.943  1.00  0.00    -0.200 F 
ATOM     83  C   UNL A   1      51.597  26.218  25.123  1.00  0.00     0.200 A 
ATOM     84  F   UNL A   1      52.227  25.626  27.321  1.00  0.00    -0.200 F 
ATOM     85  F   UNL A   1      52.825  25.923  24.675  1.00  0.00    -0.200 F 
ENDBRANCH  51  75
BRANCH  63  86
ATOM     86  C   UNL A   1      45.944  32.555  28.546  1.00  0.00     0.064 A 
ATOM     87  C   UNL A   1      45.812  33.589  27.607  1.00  0.00     0.173 A 
ATOM     88  C   UNL A   1      46.539  32.864  29.779  1.00  0.00     0.173 A 
ATOM     89  F   UNL A   1      45.265  33.345  26.406  1.00  0.00    -0.203 F 
ATOM     90  C   UNL A   1      46.283  34.871  27.881  1.00  0.00     0.198 A 
ATOM     91  C   UNL A   1      46.976  34.155  30.064  1.00  0.00     0.198 A 
ATOM     92  F   UNL A   1      46.684  31.915  30.717  1.00  0.00    -0.203 F 
ATOM     93  F   UNL A   1      46.196  35.828  26.947  1.00  0.00    -0.200 F 
ATOM     94  C   UNL A   1      46.856  35.155  29.112  1.00  0.00     0.200 A 
ATOM     95  F   UNL A   1      47.513  34.430  31.260  1.00  0.00    -0.200 F 
ATOM     96  F   UNL A   1      47.300  36.391  29.377  1.00  0.00    -0.200 F 
ENDBRANCH  63  86
ENDBRANCH  37  38
ENDBRANCH  29  32
ENDBRANCH  27  28
ENDBRANCH  26  27
ENDBRANCH  25  26
ENDBRANCH   1  25
TORSDOF 15
ENDMDL
MODEL 3
REMARK VINA RESULT:     -10.7      6.543     11.892
REMARK SMILES O=C(Cc1csc(NC(=O)[C@H]2CC(=O)N(C3CC3)C2)n1)NCCCCNC(=O)c1ccc(-c2c3nc(c(-c4c(F)c(F)c(F)c(F)c4F)c4ccc([nH]4)c(-c4c(F)c(F)c(F)c(F)c4F)c4nc(c(-c5c(F)c(F)c(F)c(F)c5F)c5ccc2[nH]5)C=C4)C=C3)cc1
REMARK SMILES IDX 22 1 21 2 1 3 2 4 3 6 4 7 5 8 20 9 6 10 7 11 8 12 9 13 10 15
REMARK SMILES IDX 11 16 12 17 19 18 13 19 15 20 14 21 16 22 17 23 18 24 23 25
REMARK SMILES IDX 24 26 25 27 26 28 27 29 28 31 29 32 30 33 91 34 31 35 90 36
REMARK SMILES IDX 32 37 33 38 34 39 84 40 35 41 89 42 83 43 85 44 36 45 88 46
REMARK SMILES IDX 82 47 81 48 37 50 69 51 49 52 68 53 50 54 53 55 67 56 86 57
REMARK SMILES IDX 51 58 52 59 66 61 87 62 54 63 38 64 39 65 47 66 40 67 41 68
REMARK SMILES IDX 45 69 48 70 42 71 43 72 46 73 44 74 70 75 71 76 79 77 72 78
REMARK SMILES IDX 73 79 77 80 80 81 74 82 75 83 78 84 76 85 55 86 56 87 64 88
REMARK SMILES IDX 57 89 58 90 62 91 65 92 59 93 60 94 63 95 61 96
REMARK H PARENT 21 5 8 14 26 30 85 49 53 60
REMARK Flexibility Score: inf
ROOT
ATOM      1  C   UNL A   1      35.354  33.037  28.034  1.00  0.00     0.116 C 
ENDROOT
BRANCH   1   2
ATOM      2  N   UNL A   1      35.373  31.587  28.088  1.00  0.00    -0.356 N 
ATOM      3  O   UNL A   1      33.249  31.330  27.267  1.00  0.00    -0.275 OA
ATOM      4  C   UNL A   1      34.309  30.829  27.633  1.00  0.00     0.226 C 
ATOM      5  H   UNL A   1      36.164  31.131  28.458  1.00  0.00     0.163 HD
BRANCH   4   6
ATOM      6  C   UNL A   1      34.534  29.326  27.656  1.00  0.00     0.157 C 
BRANCH   6   7
ATOM      7  C   UNL A   1      33.664  28.563  26.702  1.00  0.00     0.063 A 
ATOM      8  C   UNL A   1      32.349  28.166  26.887  1.00  0.00     0.093 A 
ATOM      9  N   UNL A   1      34.166  28.236  25.441  1.00  0.00    -0.224 NA
ATOM     10  S   UNL A   1      31.676  27.737  25.365  1.00  0.00    -0.105 S 
ATOM     11  C   UNL A   1      33.263  27.556  24.774  1.00  0.00     0.189 A 
BRANCH  11  12
ATOM     12  N   UNL A   1      33.522  26.881  23.617  1.00  0.00    -0.302 N 
ATOM     13  C   UNL A   1      33.600  25.549  23.347  1.00  0.00     0.231 C 
ATOM     14  H   UNL A   1      33.680  27.461  22.838  1.00  0.00     0.172 HD
ATOM     15  O   UNL A   1      33.758  25.248  22.155  1.00  0.00    -0.274 OA
BRANCH  13  16
ATOM     16  C   UNL A   1      33.522  24.414  24.376  1.00  0.00     0.107 C 
ATOM     17  C   UNL A   1      32.062  24.162  24.812  1.00  0.00     0.115 C 
ATOM     18  C   UNL A   1      33.947  23.039  23.924  1.00  0.00     0.133 C 
ATOM     19  C   UNL A   1      31.991  22.679  25.130  1.00  0.00     0.223 C 
ATOM     20  N   UNL A   1      33.127  22.089  24.598  1.00  0.00    -0.339 N 
ATOM     21  O   UNL A   1      31.072  22.139  25.714  1.00  0.00    -0.275 OA
BRANCH  20  22
ATOM     22  C   UNL A   1      33.538  20.722  24.587  1.00  0.00     0.085 C 
ATOM     23  C   UNL A   1      32.946  19.593  25.365  1.00  0.00     0.027 C 
ATOM     24  C   UNL A   1      32.685  19.698  23.889  1.00  0.00     0.027 C 
ENDBRANCH  20  22
ENDBRANCH  13  16
ENDBRANCH  11  12
ENDBRANCH   6   7
ENDBRANCH   4   6
ENDBRANCH   1   2
BRANCH   1  25
ATOM     25  C   UNL A   1      34.690  33.665  29.259  1.00  0.00     0.023 C 
BRANCH  25  26
ATOM     26  C   UNL A   1      33.429  34.487  28.975  1.00  0.00     0.023 C 
BRANCH  26  27
ATOM     27  C   UNL A   1      33.445  35.922  29.494  1.00  0.00     0.116 C 
BRANCH  27  28
ATOM     28  N   UNL A   1      32.543  36.129  30.616  1.00  0.00    -0.352 N 
ATOM     29  C   UNL A   1      32.635  35.698  31.919  1.00  0.00     0.251 C 
ATOM     30  H   UNL A   1      31.742  36.663  30.411  1.00  0.00     0.163 HD
ATOM     31  O   UNL A   1      31.683  35.853  32.679  1.00  0.00    -0.269 OA
BRANCH  29  32
ATOM     32  C   UNL A   1      33.856  35.020  32.411  1.00  0.00     0.039 A 
ATOM     33  C   UNL A   1      33.740  33.735  32.952  1.00  0.00     0.014 A 
ATOM     34  C   UNL A   1      35.106  35.641  32.364  1.00  0.00     0.014 A 
ATOM     35  C   UNL A   1      34.883  33.048  33.372  1.00  0.00     0.010 A 
ATOM     36  C   UNL A   1      36.253  34.926  32.710  1.00  0.00     0.010 A 
ATOM     37  C   UNL A   1      36.156  33.620  33.215  1.00  0.00    -0.014 A 
BRANCH  37  38
ATOM     38  C   UNL A   1      37.390  32.862  33.556  1.00  0.00     0.031 A 
ATOM     39  C   UNL A   1      38.137  33.151  34.830  1.00  0.00     0.074 A 
ATOM     40  C   UNL A   1      37.878  31.956  32.686  1.00  0.00     0.049 A 
ATOM     41  N   UNL A   1      39.264  32.642  35.264  1.00  0.00    -0.248 NA
ATOM     42  C   UNL A   1      37.555  34.163  35.723  1.00  0.00     0.031 C 
ATOM     43  C   UNL A   1      37.272  31.610  31.399  1.00  0.00     0.029 A 
ATOM     44  N   UNL A   1      38.999  31.165  32.746  1.00  0.00    -0.354 N 
ATOM     45  C   UNL A   1      39.530  33.280  36.469  1.00  0.00     0.074 A 
ATOM     46  C   UNL A   1      38.477  34.252  36.671  1.00  0.00     0.031 C 
ATOM     47  C   UNL A   1      38.012  30.660  30.805  1.00  0.00     0.029 A 
ATOM     48  C   UNL A   1      39.169  30.361  31.644  1.00  0.00     0.049 A 
ATOM     49  H   UNL A   1      39.623  31.173  33.508  1.00  0.00     0.167 HD
ATOM     50  C   UNL A   1      40.547  33.061  37.337  1.00  0.00     0.037 A 
ATOM     51  C   UNL A   1      40.149  29.490  31.338  1.00  0.00     0.037 A 
ATOM     52  C   UNL A   1      41.583  32.080  37.143  1.00  0.00     0.049 A 
ATOM     53  C   UNL A   1      41.282  29.287  32.308  1.00  0.00     0.074 A 
ATOM     54  C   UNL A   1      42.620  31.741  37.995  1.00  0.00     0.029 A 
ATOM     55  N   UNL A   1      41.719  31.285  36.013  1.00  0.00    -0.354 N 
ATOM     56  N   UNL A   1      41.483  29.844  33.477  1.00  0.00    -0.248 NA
ATOM     57  C   UNL A   1      42.325  28.327  31.916  1.00  0.00     0.031 C 
ATOM     58  C   UNL A   1      43.420  30.790  37.355  1.00  0.00     0.029 A 
ATOM     59  C   UNL A   1      42.844  30.482  36.133  1.00  0.00     0.049 A 
ATOM     60  H   UNL A   1      41.109  31.291  35.242  1.00  0.00     0.167 HD
ATOM     61  C   UNL A   1      42.651  29.279  33.975  1.00  0.00     0.074 A 
ATOM     62  C   UNL A   1      43.107  28.325  32.987  1.00  0.00     0.031 C 
ATOM     63  C   UNL A   1      43.286  29.529  35.146  1.00  0.00     0.037 A 
BRANCH  50  64
ATOM     64  C   UNL A   1      40.597  33.906  38.580  1.00  0.00     0.064 A 
ATOM     65  C   UNL A   1      39.923  33.536  39.755  1.00  0.00     0.173 A 
ATOM     66  C   UNL A   1      41.367  35.080  38.611  1.00  0.00     0.173 A 
ATOM     67  F   UNL A   1      39.167  32.428  39.779  1.00  0.00    -0.203 F 
ATOM     68  C   UNL A   1      39.989  34.327  40.899  1.00  0.00     0.198 A 
ATOM     69  C   UNL A   1      41.460  35.848  39.768  1.00  0.00     0.198 A 
ATOM     70  F   UNL A   1      42.039  35.476  37.520  1.00  0.00    -0.203 F 
ATOM     71  F   UNL A   1      39.292  33.981  41.990  1.00  0.00    -0.200 F 
ATOM     72  C   UNL A   1      40.763  35.476  40.908  1.00  0.00     0.200 A 
ATOM     73  F   UNL A   1      42.223  36.949  39.780  1.00  0.00    -0.200 F 
ATOM     74  F   UNL A   1      40.834  36.230  42.014  1.00  0.00    -0.200 F 
ENDBRANCH  50  64
BRANCH  51  75
ATOM     75  C   UNL A   1      40.099  28.727  30.062  1.00  0.00     0.064 A 
ATOM     76  C   UNL A   1      39.461  27.480  29.994  1.00  0.00     0.173 A 
ATOM     77  C   UNL A   1      40.695  29.218  28.891  1.00  0.00     0.173 A 
ATOM     78  F   UNL A   1      38.894  26.958  31.091  1.00  0.00    -0.203 F 
ATOM     79  C   UNL A   1      39.444  26.742  28.812  1.00  0.00     0.198 A 
ATOM     80  C   UNL A   1      40.649  28.494  27.701  1.00  0.00     0.198 A 
ATOM     81  F   UNL A   1      41.313  30.408  28.900  1.00  0.00    -0.203 F 
ATOM     82  F   UNL A   1      38.875  25.530  28.790  1.00  0.00    -0.200 F 
ATOM     83  C   UNL A   1      40.033  27.253  27.664  1.00  0.00     0.200 A 
ATOM     84  F   UNL A   1      41.204  28.999  26.591  1.00  0.00    -0.200 F 
ATOM     85  F   UNL A   1      40.014  26.545  26.527  1.00  0.00    -0.200 F 
ENDBRANCH  51  75
BRANCH  63  86
ATOM     86  C   UNL A   1      44.521  28.728  35.449  1.00  0.00     0.064 A 
ATOM     87  C   UNL A   1      44.468  27.529  36.176  1.00  0.00     0.173 A 
ATOM     88  C   UNL A   1      45.773  29.148  34.973  1.00  0.00     0.173 A 
ATOM     89  F   UNL A   1      43.300  27.089  36.668  1.00  0.00    -0.203 F 
ATOM     90  C   UNL A   1      45.625  26.799  36.440  1.00  0.00     0.198 A 
ATOM     91  C   UNL A   1      46.921  28.397  35.207  1.00  0.00     0.198 A 
ATOM     92  F   UNL A   1      45.881  30.284  34.266  1.00  0.00    -0.203 F 
ATOM     93  F   UNL A   1      45.556  25.686  37.184  1.00  0.00    -0.200 F 
ATOM     94  C   UNL A   1      46.848  27.228  35.947  1.00  0.00     0.200 A 
ATOM     95  F   UNL A   1      48.099  28.806  34.715  1.00  0.00    -0.200 F 
ATOM     96  F   UNL A   1      47.958  26.519  36.194  1.00  0.00    -0.200 F 
ENDBRANCH  63  86
ENDBRANCH  37  38
ENDBRANCH  29  32
ENDBRANCH  27  28
ENDBRANCH  26  27
ENDBRANCH  25  26
ENDBRANCH   1  25
TORSDOF 15
ENDMDL
