MODEL 1
REMARK VINA RESULT:     -13.2      0.000      0.000
REMARK SMILES Nc1c(Cl)ccc2c1C=C(C(=O)NCCCCNC(=O)c1ccc(-c3c4nc(c(-c5c(F)c(F)c(F)c(F)c5F)c5ccc([nH]5)c(-c5c(F)c(F)c(F)c(F)c5F)c5nc(c(-c6c(F)c(F)c(F)c(F)c6F)c6ccc3[nH]6)C=C5)C=C4)cc1)[C@@H](C(F)(F)F)O2
REMARK SMILES IDX 16 1 15 2 14 3 13 4 11 5 12 6 10 8 2 9 3 10 8 11 4 12 5 13
REMARK SMILES IDX 7 14 9 15 6 16 89 17 84 18 1 19 85 22 86 23 87 24 88 25
REMARK SMILES IDX 17 26 18 27 19 28 20 30 21 31 22 32 83 33 23 34 82 35 24 36
REMARK SMILES IDX 25 37 26 38 76 39 27 40 81 41 75 42 77 43 28 44 80 45 74 46
REMARK SMILES IDX 73 47 29 49 61 50 41 51 60 52 42 53 45 54 59 55 78 56 43 57
REMARK SMILES IDX 44 58 58 60 79 61 46 62 30 63 31 64 39 65 32 66 33 67 37 68
REMARK SMILES IDX 40 69 34 70 35 71 38 72 36 73 62 74 63 75 71 76 64 77 65 78
REMARK SMILES IDX 69 79 72 80 66 81 67 82 70 83 68 84 47 85 48 86 56 87 49 88
REMARK SMILES IDX 50 89 54 90 57 91 51 92 52 93 55 94 53 95
REMARK H PARENT 13 7 1 20 1 21 18 29 77 48 45 59
REMARK Flexibility Score: inf
ROOT
ATOM      1  C   UNL A   1      33.008  29.173  24.566  1.00  0.00     0.023 C 
ENDROOT
BRANCH   1   2
ATOM      2  C   UNL A   1      34.032  28.193  23.985  1.00  0.00     0.023 C 
BRANCH   2   3
ATOM      3  C   UNL A   1      33.957  26.788  24.577  1.00  0.00     0.116 C 
BRANCH   3   4
ATOM      4  N   UNL A   1      33.497  25.818  23.600  1.00  0.00    -0.352 N 
ATOM      5  C   UNL A   1      32.332  25.512  22.982  1.00  0.00     0.251 C 
ATOM      6  O   UNL A   1      32.391  24.549  22.211  1.00  0.00    -0.270 OA
ATOM      7  H   UNL A   1      34.226  25.225  23.308  1.00  0.00     0.163 HD
BRANCH   5   8
ATOM      8  C   UNL A   1      31.036  26.234  23.165  1.00  0.00     0.067 C 
ATOM      9  C   UNL A   1      29.607  29.536  22.159  1.00  0.00     0.061 A 
ATOM     10  C   UNL A   1      28.386  30.223  22.358  1.00  0.00     0.064 A 
ATOM     11  C   UNL A   1      29.713  28.214  22.645  1.00  0.00     0.042 A 
ATOM     12  Cl  UNL A   1      28.194  31.859  21.819  1.00  0.00    -0.082 Cl
ATOM     13  C   UNL A   1      27.292  29.612  22.973  1.00  0.00     0.026 A 
ATOM     14  C   UNL A   1      28.607  27.620  23.275  1.00  0.00     0.130 A 
ATOM     15  C   UNL A   1      30.922  27.397  22.496  1.00  0.00     0.027 C 
ATOM     16  C   UNL A   1      27.402  28.303  23.425  1.00  0.00     0.049 A 
ATOM     17  O   UNL A   1      28.619  26.335  23.742  1.00  0.00    -0.475 OA
ATOM     18  C   UNL A   1      29.921  25.773  24.056  1.00  0.00     0.314 C 
BRANCH   9  19
ATOM     19  N   UNL A   1      30.694  30.208  21.591  1.00  0.00    -0.397 N 
ATOM     20  H   UNL A   1      31.585  29.790  21.591  1.00  0.00     0.156 HD
ATOM     21  H   UNL A   1      30.567  31.098  21.192  1.00  0.00     0.156 HD
ENDBRANCH   9  19
BRANCH  18  22
ATOM     22  C   UNL A   1      30.223  25.981  25.551  1.00  0.00     0.429 C 
ATOM     23  F   UNL A   1      29.120  25.720  26.296  1.00  0.00    -0.167 F 
ATOM     24  F   UNL A   1      31.193  25.149  26.004  1.00  0.00    -0.167 F 
ATOM     25  F   UNL A   1      30.619  27.240  25.836  1.00  0.00    -0.167 F 
ENDBRANCH  18  22
ENDBRANCH   5   8
ENDBRANCH   3   4
ENDBRANCH   2   3
ENDBRANCH   1   2
BRANCH   1  26
ATOM     26  C   UNL A   1      33.156  29.466  26.058  1.00  0.00     0.116 C 
BRANCH  26  27
ATOM     27  N   UNL A   1      32.721  30.804  26.438  1.00  0.00    -0.352 N 
ATOM     28  C   UNL A   1      33.365  31.688  27.266  1.00  0.00     0.251 C 
ATOM     29  H   UNL A   1      31.866  31.110  26.058  1.00  0.00     0.163 HD
ATOM     30  O   UNL A   1      32.866  32.766  27.564  1.00  0.00    -0.269 OA
BRANCH  28  31
ATOM     31  C   UNL A   1      34.667  31.290  27.829  1.00  0.00     0.039 A 
ATOM     32  C   UNL A   1      35.687  32.242  27.907  1.00  0.00     0.014 A 
ATOM     33  C   UNL A   1      34.835  30.004  28.352  1.00  0.00     0.014 A 
ATOM     34  C   UNL A   1      36.867  31.922  28.576  1.00  0.00     0.010 A 
ATOM     35  C   UNL A   1      35.997  29.702  29.049  1.00  0.00     0.010 A 
ATOM     36  C   UNL A   1      37.015  30.662  29.176  1.00  0.00    -0.014 A 
BRANCH  36  37
ATOM     37  C   UNL A   1      38.230  30.312  29.942  1.00  0.00     0.031 A 
ATOM     38  C   UNL A   1      39.213  29.342  29.366  1.00  0.00     0.074 A 
ATOM     39  C   UNL A   1      38.398  30.803  31.184  1.00  0.00     0.049 A 
ATOM     40  N   UNL A   1      40.268  28.804  29.921  1.00  0.00    -0.248 NA
ATOM     41  C   UNL A   1      38.961  28.901  27.985  1.00  0.00     0.031 C 
ATOM     42  C   UNL A   1      37.493  31.737  31.853  1.00  0.00     0.029 A 
ATOM     43  N   UNL A   1      39.379  30.562  32.110  1.00  0.00    -0.354 N 
ATOM     44  C   UNL A   1      40.797  27.950  28.965  1.00  0.00     0.074 A 
ATOM     45  C   UNL A   1      39.929  28.014  27.807  1.00  0.00     0.031 C 
ATOM     46  C   UNL A   1      37.963  31.994  33.084  1.00  0.00     0.029 A 
ATOM     47  C   UNL A   1      39.183  31.219  33.299  1.00  0.00     0.049 A 
ATOM     48  H   UNL A   1      40.151  29.976  31.939  1.00  0.00     0.167 HD
ATOM     49  C   UNL A   1      41.916  27.192  29.042  1.00  0.00     0.037 A 
ATOM     50  C   UNL A   1      39.901  31.187  34.436  1.00  0.00     0.037 A 
ATOM     51  C   UNL A   1      42.781  27.141  30.191  1.00  0.00     0.049 A 
ATOM     52  C   UNL A   1      41.133  30.329  34.506  1.00  0.00     0.074 A 
ATOM     53  C   UNL A   1      43.957  26.433  30.356  1.00  0.00     0.029 A 
ATOM     54  N   UNL A   1      42.558  27.833  31.373  1.00  0.00    -0.354 N 
ATOM     55  N   UNL A   1      41.643  29.543  33.588  1.00  0.00    -0.248 NA
ATOM     56  C   UNL A   1      41.887  30.350  35.766  1.00  0.00     0.031 C 
ATOM     57  C   UNL A   1      44.431  26.672  31.651  1.00  0.00     0.029 A 
ATOM     58  C   UNL A   1      43.570  27.558  32.278  1.00  0.00     0.049 A 
ATOM     59  H   UNL A   1      41.794  28.430  31.544  1.00  0.00     0.167 HD
ATOM     60  C   UNL A   1      42.785  28.991  34.149  1.00  0.00     0.074 A 
ATOM     61  C   UNL A   1      42.899  29.539  35.487  1.00  0.00     0.031 C 
ATOM     62  C   UNL A   1      43.661  28.112  33.606  1.00  0.00     0.037 A 
BRANCH  49  63
ATOM     63  C   UNL A   1      42.257  26.355  27.848  1.00  0.00     0.064 A 
ATOM     64  C   UNL A   1      41.703  25.079  27.667  1.00  0.00     0.173 A 
ATOM     65  C   UNL A   1      43.142  26.833  26.872  1.00  0.00     0.173 A 
ATOM     66  F   UNL A   1      40.866  24.571  28.585  1.00  0.00    -0.203 F 
ATOM     67  C   UNL A   1      42.047  24.299  26.566  1.00  0.00     0.198 A 
ATOM     68  C   UNL A   1      43.465  26.061  25.759  1.00  0.00     0.198 A 
ATOM     69  F   UNL A   1      43.699  28.047  26.998  1.00  0.00    -0.203 F 
ATOM     70  F   UNL A   1      41.544  23.063  26.441  1.00  0.00    -0.200 F 
ATOM     71  C   UNL A   1      42.922  24.792  25.612  1.00  0.00     0.200 A 
ATOM     72  F   UNL A   1      44.307  26.539  24.832  1.00  0.00    -0.200 F 
ATOM     73  F   UNL A   1      43.253  24.039  24.553  1.00  0.00    -0.200 F 
ENDBRANCH  49  63
BRANCH  50  74
ATOM     74  C   UNL A   1      39.481  32.021  35.589  1.00  0.00     0.064 A 
ATOM     75  C   UNL A   1      39.949  33.334  35.727  1.00  0.00     0.173 A 
ATOM     76  C   UNL A   1      38.573  31.543  36.544  1.00  0.00     0.173 A 
ATOM     77  F   UNL A   1      40.832  33.825  34.845  1.00  0.00    -0.203 F 
ATOM     78  C   UNL A   1      39.527  34.140  36.782  1.00  0.00     0.198 A 
ATOM     79  C   UNL A   1      38.138  32.356  37.589  1.00  0.00     0.198 A 
ATOM     80  F   UNL A   1      38.094  30.294  36.449  1.00  0.00    -0.203 F 
ATOM     81  F   UNL A   1      40.003  35.386  36.902  1.00  0.00    -0.200 F 
ATOM     82  C   UNL A   1      38.616  33.653  37.708  1.00  0.00     0.200 A 
ATOM     83  F   UNL A   1      37.249  31.887  38.475  1.00  0.00    -0.200 F 
ATOM     84  F   UNL A   1      38.199  34.433  38.713  1.00  0.00    -0.200 F 
ENDBRANCH  50  74
BRANCH  62  85
ATOM     85  C   UNL A   1      44.830  27.699  34.448  1.00  0.00     0.064 A 
ATOM     86  C   UNL A   1      46.019  28.442  34.462  1.00  0.00     0.173 A 
ATOM     87  C   UNL A   1      44.738  26.582  35.292  1.00  0.00     0.173 A 
ATOM     88  F   UNL A   1      46.157  29.509  33.662  1.00  0.00    -0.203 F 
ATOM     89  C   UNL A   1      47.080  28.074  35.285  1.00  0.00     0.198 A 
ATOM     90  C   UNL A   1      45.793  26.230  36.128  1.00  0.00     0.198 A 
ATOM     91  F   UNL A   1      43.619  25.843  35.314  1.00  0.00    -0.203 F 
ATOM     92  F   UNL A   1      48.220  28.780  35.263  1.00  0.00    -0.200 F 
ATOM     93  C   UNL A   1      46.964  26.973  36.122  1.00  0.00     0.200 A 
ATOM     94  F   UNL A   1      45.676  25.171  36.942  1.00  0.00    -0.200 F 
ATOM     95  F   UNL A   1      47.983  26.626  36.918  1.00  0.00    -0.200 F 
ENDBRANCH  62  85
ENDBRANCH  36  37
ENDBRANCH  28  31
ENDBRANCH  26  27
ENDBRANCH   1  26
TORSDOF 13
ENDMDL
MODEL 2
REMARK VINA RESULT:     -13.0      2.572      3.783
REMARK SMILES Nc1c(Cl)ccc2c1C=C(C(=O)NCCCCNC(=O)c1ccc(-c3c4nc(c(-c5c(F)c(F)c(F)c(F)c5F)c5ccc([nH]5)c(-c5c(F)c(F)c(F)c(F)c5F)c5nc(c(-c6c(F)c(F)c(F)c(F)c6F)c6ccc3[nH]6)C=C5)C=C4)cc1)[C@@H](C(F)(F)F)O2
REMARK SMILES IDX 16 1 15 2 14 3 13 4 11 5 12 6 10 8 2 9 3 10 8 11 4 12 5 13
REMARK SMILES IDX 7 14 9 15 6 16 89 17 84 18 1 19 85 22 86 23 87 24 88 25
REMARK SMILES IDX 17 26 18 27 19 28 20 30 21 31 22 32 83 33 23 34 82 35 24 36
REMARK SMILES IDX 25 37 26 38 76 39 27 40 81 41 75 42 77 43 28 44 80 45 74 46
REMARK SMILES IDX 73 47 29 49 61 50 41 51 60 52 42 53 45 54 59 55 78 56 43 57
REMARK SMILES IDX 44 58 58 60 79 61 46 62 30 63 31 64 39 65 32 66 33 67 37 68
REMARK SMILES IDX 40 69 34 70 35 71 38 72 36 73 62 74 63 75 71 76 64 77 65 78
REMARK SMILES IDX 69 79 72 80 66 81 67 82 70 83 68 84 47 85 48 86 56 87 49 88
REMARK SMILES IDX 50 89 54 90 57 91 51 92 52 93 55 94 53 95
REMARK H PARENT 13 7 1 20 1 21 18 29 77 48 45 59
REMARK Flexibility Score: inf
ROOT
ATOM      1  C   UNL A   1      31.804  31.782  26.881  1.00  0.00     0.023 C 
ENDROOT
BRANCH   1   2
ATOM      2  C   UNL A   1      32.078  30.277  26.963  1.00  0.00     0.023 C 
BRANCH   2   3
ATOM      3  C   UNL A   1      33.544  29.897  26.776  1.00  0.00     0.116 C 
BRANCH   3   4
ATOM      4  N   UNL A   1      33.814  29.449  25.422  1.00  0.00    -0.352 N 
ATOM      5  C   UNL A   1      33.720  28.292  24.726  1.00  0.00     0.251 C 
ATOM      6  O   UNL A   1      34.101  28.360  23.553  1.00  0.00    -0.270 OA
ATOM      7  H   UNL A   1      34.158  30.180  24.861  1.00  0.00     0.163 HD
BRANCH   5   8
ATOM      8  C   UNL A   1      33.203  26.995  25.261  1.00  0.00     0.067 C 
ATOM      9  C   UNL A   1      34.306  23.425  25.250  1.00  0.00     0.061 A 
ATOM     10  C   UNL A   1      33.798  22.199  25.738  1.00  0.00     0.064 A 
ATOM     11  C   UNL A   1      33.600  24.609  25.561  1.00  0.00     0.042 A 
ATOM     12  Cl  UNL A   1      34.592  20.703  25.370  1.00  0.00    -0.082 Cl
ATOM     13  C   UNL A   1      32.659  22.145  26.544  1.00  0.00     0.026 A 
ATOM     14  C   UNL A   1      32.448  24.535  26.360  1.00  0.00     0.130 A 
ATOM     15  C   UNL A   1      34.028  25.941  25.118  1.00  0.00     0.027 C 
ATOM     16  C   UNL A   1      31.988  23.319  26.862  1.00  0.00     0.049 A 
ATOM     17  O   UNL A   1      31.729  25.636  26.732  1.00  0.00    -0.475 OA
ATOM     18  C   UNL A   1      31.851  26.806  25.880  1.00  0.00     0.314 C 
BRANCH   9  19
ATOM     19  N   UNL A   1      35.416  23.425  24.399  1.00  0.00    -0.397 N 
ATOM     20  H   UNL A   1      35.566  24.180  23.786  1.00  0.00     0.156 HD
ATOM     21  H   UNL A   1      36.045  22.668  24.413  1.00  0.00     0.156 HD
ENDBRANCH   9  19
BRANCH  18  22
ATOM     22  C   UNL A   1      30.712  26.808  24.844  1.00  0.00     0.429 C 
ATOM     23  F   UNL A   1      31.072  26.099  23.745  1.00  0.00    -0.167 F 
ATOM     24  F   UNL A   1      29.582  26.228  25.317  1.00  0.00    -0.167 F 
ATOM     25  F   UNL A   1      30.376  28.050  24.436  1.00  0.00    -0.167 F 
ENDBRANCH  18  22
ENDBRANCH   5   8
ENDBRANCH   3   4
ENDBRANCH   2   3
ENDBRANCH   1   2
BRANCH   1  26
ATOM     26  C   UNL A   1      32.923  32.680  27.405  1.00  0.00     0.116 C 
BRANCH  26  27
ATOM     27  N   UNL A   1      32.495  34.044  27.690  1.00  0.00    -0.352 N 
ATOM     28  C   UNL A   1      33.036  34.917  28.600  1.00  0.00     0.251 C 
ATOM     29  H   UNL A   1      31.728  34.378  27.171  1.00  0.00     0.163 HD
ATOM     30  O   UNL A   1      32.545  36.021  28.797  1.00  0.00    -0.269 OA
BRANCH  28  31
ATOM     31  C   UNL A   1      34.208  34.475  29.374  1.00  0.00     0.039 A 
ATOM     32  C   UNL A   1      34.005  33.825  30.594  1.00  0.00     0.014 A 
ATOM     33  C   UNL A   1      35.492  34.633  28.842  1.00  0.00     0.014 A 
ATOM     34  C   UNL A   1      35.096  33.267  31.258  1.00  0.00     0.010 A 
ATOM     35  C   UNL A   1      36.571  34.044  29.489  1.00  0.00     0.010 A 
ATOM     36  C   UNL A   1      36.379  33.348  30.693  1.00  0.00    -0.014 A 
BRANCH  36  37
ATOM     37  C   UNL A   1      37.547  32.717  31.343  1.00  0.00     0.031 A 
ATOM     38  C   UNL A   1      38.250  31.586  30.660  1.00  0.00     0.074 A 
ATOM     39  C   UNL A   1      37.912  33.106  32.578  1.00  0.00     0.049 A 
ATOM     40  N   UNL A   1      39.206  30.813  31.108  1.00  0.00    -0.248 NA
ATOM     41  C   UNL A   1      37.802  31.268  29.295  1.00  0.00     0.031 C 
ATOM     42  C   UNL A   1      37.284  34.180  33.347  1.00  0.00     0.029 A 
ATOM     43  N   UNL A   1      38.889  32.623  33.411  1.00  0.00    -0.354 N 
ATOM     44  C   UNL A   1      39.463  29.910  30.089  1.00  0.00     0.074 A 
ATOM     45  C   UNL A   1      38.540  30.206  29.012  1.00  0.00     0.031 C 
ATOM     46  C   UNL A   1      37.894  34.278  34.539  1.00  0.00     0.029 A 
ATOM     47  C   UNL A   1      38.933  33.254  34.629  1.00  0.00     0.049 A 
ATOM     48  H   UNL A   1      39.501  31.895  33.159  1.00  0.00     0.167 HD
ATOM     49  C   UNL A   1      40.395  28.929  30.051  1.00  0.00     0.037 A 
ATOM     50  C   UNL A   1      39.714  33.022  35.699  1.00  0.00     0.037 A 
ATOM     51  C   UNL A   1      41.316  28.646  31.119  1.00  0.00     0.049 A 
ATOM     52  C   UNL A   1      40.734  31.920  35.640  1.00  0.00     0.074 A 
ATOM     53  C   UNL A   1      42.322  27.699  31.165  1.00  0.00     0.029 A 
ATOM     54  N   UNL A   1      41.340  29.318  32.333  1.00  0.00    -0.354 N 
ATOM     55  N   UNL A   1      40.991  31.085  34.662  1.00  0.00    -0.248 NA
ATOM     56  C   UNL A   1      41.572  31.727  36.831  1.00  0.00     0.031 C 
ATOM     57  C   UNL A   1      42.936  27.776  32.420  1.00  0.00     0.029 A 
ATOM     58  C   UNL A   1      42.337  28.796  33.141  1.00  0.00     0.049 A 
ATOM     59  H   UNL A   1      40.739  30.055  32.584  1.00  0.00     0.167 HD
ATOM     60  C   UNL A   1      42.028  30.280  35.109  1.00  0.00     0.074 A 
ATOM     61  C   UNL A   1      42.361  30.732  36.445  1.00  0.00     0.031 C 
ATOM     62  C   UNL A   1      42.649  29.260  34.470  1.00  0.00     0.037 A 
BRANCH  49  63
ATOM     63  C   UNL A   1      40.454  28.092  28.811  1.00  0.00     0.064 A 
ATOM     64  C   UNL A   1      39.754  26.879  28.713  1.00  0.00     0.173 A 
ATOM     65  C   UNL A   1      41.213  28.504  27.706  1.00  0.00     0.173 A 
ATOM     66  F   UNL A   1      39.030  26.433  29.751  1.00  0.00    -0.203 F 
ATOM     67  C   UNL A   1      39.836  26.096  27.565  1.00  0.00     0.198 A 
ATOM     68  C   UNL A   1      41.273  27.731  26.550  1.00  0.00     0.198 A 
ATOM     69  F   UNL A   1      41.900  29.655  27.749  1.00  0.00    -0.203 F 
ATOM     70  F   UNL A   1      39.200  24.918  27.513  1.00  0.00    -0.200 F 
ATOM     71  C   UNL A   1      40.591  26.524  26.483  1.00  0.00     0.200 A 
ATOM     72  F   UNL A   1      41.998  28.148  25.502  1.00  0.00    -0.200 F 
ATOM     73  F   UNL A   1      40.670  25.769  25.380  1.00  0.00    -0.200 F 
ENDBRANCH  49  63
BRANCH  50  74
ATOM     74  C   UNL A   1      39.573  33.875  36.904  1.00  0.00     0.064 A 
ATOM     75  C   UNL A   1      40.223  35.114  36.980  1.00  0.00     0.173 A 
ATOM     76  C   UNL A   1      38.758  33.494  37.978  1.00  0.00     0.173 A 
ATOM     77  F   UNL A   1      41.027  35.509  35.981  1.00  0.00    -0.203 F 
ATOM     78  C   UNL A   1      40.063  35.941  38.089  1.00  0.00     0.198 A 
ATOM     79  C   UNL A   1      38.586  34.331  39.079  1.00  0.00     0.198 A 
ATOM     80  F   UNL A   1      38.112  32.319  37.948  1.00  0.00    -0.203 F 
ATOM     81  F   UNL A   1      40.709  37.114  38.144  1.00  0.00    -0.200 F 
ATOM     82  C   UNL A   1      39.239  35.553  39.134  1.00  0.00     0.200 A 
ATOM     83  F   UNL A   1      37.779  33.958  40.083  1.00  0.00    -0.200 F 
ATOM     84  F   UNL A   1      39.074  36.356  40.193  1.00  0.00    -0.200 F 
ENDBRANCH  50  74
BRANCH  62  85
ATOM     85  C   UNL A   1      43.765  28.572  35.197  1.00  0.00     0.064 A 
ATOM     86  C   UNL A   1      45.091  29.011  35.083  1.00  0.00     0.173 A 
ATOM     87  C   UNL A   1      43.494  27.501  36.062  1.00  0.00     0.173 A 
ATOM     88  F   UNL A   1      45.399  30.021  34.256  1.00  0.00    -0.203 F 
ATOM     89  C   UNL A   1      46.111  28.393  35.801  1.00  0.00     0.198 A 
ATOM     90  C   UNL A   1      44.514  26.900  36.795  1.00  0.00     0.198 A 
ATOM     91  F   UNL A   1      42.240  27.050  36.207  1.00  0.00    -0.203 F 
ATOM     92  F   UNL A   1      47.378  28.807  35.655  1.00  0.00    -0.200 F 
ATOM     93  C   UNL A   1      45.822  27.343  36.661  1.00  0.00     0.200 A 
ATOM     94  F   UNL A   1      44.231  25.893  37.632  1.00  0.00    -0.200 F 
ATOM     95  F   UNL A   1      46.803  26.756  37.358  1.00  0.00    -0.200 F 
ENDBRANCH  62  85
ENDBRANCH  36  37
ENDBRANCH  28  31
ENDBRANCH  26  27
ENDBRANCH   1  26
TORSDOF 13
ENDMDL
MODEL 3
REMARK VINA RESULT:     -12.9      5.228     10.036
REMARK SMILES Nc1c(Cl)ccc2c1C=C(C(=O)NCCCCNC(=O)c1ccc(-c3c4nc(c(-c5c(F)c(F)c(F)c(F)c5F)c5ccc([nH]5)c(-c5c(F)c(F)c(F)c(F)c5F)c5nc(c(-c6c(F)c(F)c(F)c(F)c6F)c6ccc3[nH]6)C=C5)C=C4)cc1)[C@@H](C(F)(F)F)O2
REMARK SMILES IDX 16 1 15 2 14 3 13 4 11 5 12 6 10 8 2 9 3 10 8 11 4 12 5 13
REMARK SMILES IDX 7 14 9 15 6 16 89 17 84 18 1 19 85 22 86 23 87 24 88 25
REMARK SMILES IDX 17 26 18 27 19 28 20 30 21 31 22 32 83 33 23 34 82 35 24 36
REMARK SMILES IDX 25 37 26 38 76 39 27 40 81 41 75 42 77 43 28 44 80 45 74 46
REMARK SMILES IDX 73 47 29 49 61 50 41 51 60 52 42 53 45 54 59 55 78 56 43 57
REMARK SMILES IDX 44 58 58 60 79 61 46 62 30 63 31 64 39 65 32 66 33 67 37 68
REMARK SMILES IDX 40 69 34 70 35 71 38 72 36 73 62 74 63 75 71 76 64 77 65 78
REMARK SMILES IDX 69 79 72 80 66 81 67 82 70 83 68 84 47 85 48 86 56 87 49 88
REMARK SMILES IDX 50 89 54 90 57 91 51 92 52 93 55 94 53 95
REMARK H PARENT 13 7 1 20 1 21 18 29 77 48 45 59
REMARK Flexibility Score: inf
ROOT
ATOM      1  C   UNL A   1      35.280  22.038  26.290  1.00  0.00     0.023 C 
ENDROOT
BRANCH   1   2
ATOM      2  C   UNL A   1      34.479  23.097  27.054  1.00  0.00     0.023 C 
BRANCH   2   3
ATOM      3  C   UNL A   1      33.981  24.250  26.187  1.00  0.00     0.116 C 
BRANCH   3   4
ATOM      4  N   UNL A   1      32.534  24.247  26.069  1.00  0.00    -0.352 N 
ATOM      5  C   UNL A   1      31.595  23.513  25.427  1.00  0.00     0.251 C 
ATOM      6  O   UNL A   1      30.433  23.898  25.593  1.00  0.00    -0.270 OA
ATOM      7  H   UNL A   1      32.127  24.971  26.596  1.00  0.00     0.163 HD
BRANCH   5   8
ATOM      8  C   UNL A   1      31.862  22.318  24.570  1.00  0.00     0.067 C 
ATOM      9  C   UNL A   1      32.742  18.728  25.123  1.00  0.00     0.061 A 
ATOM     10  C   UNL A   1      33.018  17.608  24.305  1.00  0.00     0.064 A 
ATOM     11  C   UNL A   1      32.343  19.929  24.494  1.00  0.00     0.042 A 
ATOM     12  Cl  UNL A   1      33.544  16.111  25.003  1.00  0.00    -0.082 Cl
ATOM     13  C   UNL A   1      32.862  17.656  22.918  1.00  0.00     0.026 A 
ATOM     14  C   UNL A   1      32.206  19.964  23.097  1.00  0.00     0.130 A 
ATOM     15  C   UNL A   1      32.024  21.156  25.232  1.00  0.00     0.027 C 
ATOM     16  C   UNL A   1      32.447  18.836  22.315  1.00  0.00     0.049 A 
ATOM     17  O   UNL A   1      31.793  21.076  22.417  1.00  0.00    -0.475 OA
ATOM     18  C   UNL A   1      32.003  22.352  23.078  1.00  0.00     0.314 C 
BRANCH   9  19
ATOM     19  N   UNL A   1      32.968  18.652  26.501  1.00  0.00    -0.397 N 
ATOM     20  H   UNL A   1      33.135  19.472  27.018  1.00  0.00     0.156 HD
ATOM     21  H   UNL A   1      32.960  17.777  26.951  1.00  0.00     0.156 HD
ENDBRANCH   9  19
BRANCH  18  22
ATOM     22  C   UNL A   1      33.340  22.957  22.615  1.00  0.00     0.429 C 
ATOM     23  F   UNL A   1      33.392  24.278  22.920  1.00  0.00    -0.167 F 
ATOM     24  F   UNL A   1      34.406  22.384  23.225  1.00  0.00    -0.167 F 
ATOM     25  F   UNL A   1      33.537  22.839  21.284  1.00  0.00    -0.167 F 
ENDBRANCH  18  22
ENDBRANCH   5   8
ENDBRANCH   3   4
ENDBRANCH   2   3
ENDBRANCH   1   2
BRANCH   1  26
ATOM     26  C   UNL A   1      36.698  22.447  25.898  1.00  0.00     0.116 C 
BRANCH  26  27
ATOM     27  N   UNL A   1      37.629  21.329  25.813  1.00  0.00    -0.352 N 
ATOM     28  C   UNL A   1      38.966  21.329  26.120  1.00  0.00     0.251 C 
ATOM     29  H   UNL A   1      37.255  20.474  25.498  1.00  0.00     0.163 HD
ATOM     30  O   UNL A   1      39.662  20.337  25.946  1.00  0.00    -0.269 OA
BRANCH  28  31
ATOM     31  C   UNL A   1      39.560  22.575  26.632  1.00  0.00     0.039 A 
ATOM     32  C   UNL A   1      40.545  22.496  27.620  1.00  0.00     0.014 A 
ATOM     33  C   UNL A   1      39.198  23.802  26.068  1.00  0.00     0.014 A 
ATOM     34  C   UNL A   1      41.223  23.653  28.001  1.00  0.00     0.010 A 
ATOM     35  C   UNL A   1      39.901  24.946  26.422  1.00  0.00     0.010 A 
ATOM     36  C   UNL A   1      40.925  24.877  27.382  1.00  0.00    -0.014 A 
BRANCH  36  37
ATOM     37  C   UNL A   1      41.666  26.111  27.721  1.00  0.00     0.031 A 
ATOM     38  C   UNL A   1      40.979  27.196  28.490  1.00  0.00     0.074 A 
ATOM     39  C   UNL A   1      42.918  26.282  27.262  1.00  0.00     0.049 A 
ATOM     40  N   UNL A   1      41.400  28.401  28.777  1.00  0.00    -0.248 NA
ATOM     41  C   UNL A   1      39.628  26.891  28.984  1.00  0.00     0.031 C 
ATOM     42  C   UNL A   1      43.675  25.302  26.484  1.00  0.00     0.029 A 
ATOM     43  N   UNL A   1      43.765  27.355  27.366  1.00  0.00    -0.354 N 
ATOM     44  C   UNL A   1      40.362  29.003  29.471  1.00  0.00     0.074 A 
ATOM     45  C   UNL A   1      39.277  28.045  29.532  1.00  0.00     0.031 C 
ATOM     46  C   UNL A   1      44.878  25.817  26.183  1.00  0.00     0.029 A 
ATOM     47  C   UNL A   1      44.963  27.174  26.720  1.00  0.00     0.049 A 
ATOM     48  H   UNL A   1      43.537  28.177  27.857  1.00  0.00     0.167 HD
ATOM     49  C   UNL A   1      40.323  30.240  30.019  1.00  0.00     0.037 A 
ATOM     50  C   UNL A   1      46.003  28.013  26.569  1.00  0.00     0.037 A 
ATOM     51  C   UNL A   1      41.408  31.183  29.964  1.00  0.00     0.049 A 
ATOM     52  C   UNL A   1      45.935  29.387  27.175  1.00  0.00     0.074 A 
ATOM     53  C   UNL A   1      41.483  32.447  30.519  1.00  0.00     0.029 A 
ATOM     54  N   UNL A   1      42.613  30.957  29.313  1.00  0.00    -0.354 N 
ATOM     55  N   UNL A   1      44.959  29.941  27.853  1.00  0.00    -0.248 NA
ATOM     56  C   UNL A   1      47.109  30.251  26.995  1.00  0.00     0.031 C 
ATOM     57  C   UNL A   1      42.722  33.001  30.177  1.00  0.00     0.029 A 
ATOM     58  C   UNL A   1      43.433  32.066  29.442  1.00  0.00     0.049 A 
ATOM     59  H   UNL A   1      42.850  30.133  28.831  1.00  0.00     0.167 HD
ATOM     60  C   UNL A   1      45.404  31.209  28.197  1.00  0.00     0.074 A 
ATOM     61  C   UNL A   1      46.744  31.340  27.659  1.00  0.00     0.031 C 
ATOM     62  C   UNL A   1      44.763  32.176  28.895  1.00  0.00     0.037 A 
BRANCH  49  63
ATOM     63  C   UNL A   1      39.061  30.636  30.719  1.00  0.00     0.064 A 
ATOM     64  C   UNL A   1      38.911  30.477  32.105  1.00  0.00     0.173 A 
ATOM     65  C   UNL A   1      37.989  31.184  30.001  1.00  0.00     0.173 A 
ATOM     66  F   UNL A   1      39.903  29.938  32.833  1.00  0.00    -0.203 F 
ATOM     67  C   UNL A   1      37.724  30.825  32.742  1.00  0.00     0.198 A 
ATOM     68  C   UNL A   1      36.811  31.556  30.645  1.00  0.00     0.198 A 
ATOM     69  F   UNL A   1      38.081  31.357  28.674  1.00  0.00    -0.203 F 
ATOM     70  F   UNL A   1      37.586  30.617  34.059  1.00  0.00    -0.200 F 
ATOM     71  C   UNL A   1      36.677  31.368  32.013  1.00  0.00     0.200 A 
ATOM     72  F   UNL A   1      35.801  32.086  29.941  1.00  0.00    -0.200 F 
ATOM     73  F   UNL A   1      35.534  31.702  32.627  1.00  0.00    -0.200 F 
ENDBRANCH  49  63
BRANCH  50  74
ATOM     74  C   UNL A   1      47.207  27.557  25.833  1.00  0.00     0.064 A 
ATOM     75  C   UNL A   1      47.294  27.710  24.443  1.00  0.00     0.173 A 
ATOM     76  C   UNL A   1      48.308  27.005  26.503  1.00  0.00     0.173 A 
ATOM     77  F   UNL A   1      46.257  28.218  23.761  1.00  0.00    -0.203 F 
ATOM     78  C   UNL A   1      48.437  27.324  23.748  1.00  0.00     0.198 A 
ATOM     79  C   UNL A   1      49.458  26.635  25.809  1.00  0.00     0.198 A 
ATOM     80  F   UNL A   1      48.272  26.844  27.834  1.00  0.00    -0.203 F 
ATOM     81  F   UNL A   1      48.488  27.465  22.417  1.00  0.00    -0.200 F 
ATOM     82  C   UNL A   1      49.521  26.794  24.432  1.00  0.00     0.200 A 
ATOM     83  F   UNL A   1      50.509  26.135  26.473  1.00  0.00    -0.200 F 
ATOM     84  F   UNL A   1      50.627  26.437  23.765  1.00  0.00    -0.200 F 
ENDBRANCH  50  74
BRANCH  62  85
ATOM     85  C   UNL A   1      45.504  33.456  29.136  1.00  0.00     0.064 A 
ATOM     86  C   UNL A   1      46.349  33.614  30.243  1.00  0.00     0.173 A 
ATOM     87  C   UNL A   1      45.414  34.512  28.216  1.00  0.00     0.173 A 
ATOM     88  F   UNL A   1      46.455  32.637  31.156  1.00  0.00    -0.203 F 
ATOM     89  C   UNL A   1      47.068  34.791  30.429  1.00  0.00     0.198 A 
ATOM     90  C   UNL A   1      46.152  35.678  28.394  1.00  0.00     0.198 A 
ATOM     91  F   UNL A   1      44.622  34.404  27.139  1.00  0.00    -0.203 F 
ATOM     92  F   UNL A   1      47.848  34.935  31.511  1.00  0.00    -0.200 F 
ATOM     93  C   UNL A   1      46.976  35.819  29.502  1.00  0.00     0.200 A 
ATOM     94  F   UNL A   1      46.068  36.667  27.492  1.00  0.00    -0.200 F 
ATOM     95  F   UNL A   1      47.676  36.947  29.678  1.00  0.00    -0.200 F 
ENDBRANCH  62  85
ENDBRANCH  36  37
ENDBRANCH  28  31
ENDBRANCH  26  27
ENDBRANCH   1  26
TORSDOF 13
ENDMDL
