MODEL 1
REMARK VINA RESULT:     -12.3      0.000      0.000
REMARK SMILES Cn1cc(Cl)cc1C(=O)N[C@H]1C=C[C@H](C(=O)NCCCCNC(=O)c2ccc(-c3c4nc(c(-c5c(F)c(F)c(F)c(F)c5F)c5ccc([nH]5)c(-c5c(F)c(F)c(F)c(F)c5F)c5nc(c(-c6c(F)c(F)c(F)c(F)c6F)c6ccc3[nH]6)C=C5)C=C4)cc2)C1
REMARK SMILES IDX 19 1 18 2 17 3 15 4 16 5 14 7 11 8 12 9 88 10 13 11 10 12
REMARK SMILES IDX 8 13 9 14 7 16 1 17 2 18 3 19 4 20 6 21 5 22 20 23 21 24
REMARK SMILES IDX 22 25 23 26 24 28 25 29 26 30 87 31 27 32 86 33 28 34 29 35
REMARK SMILES IDX 30 36 80 37 31 38 85 39 79 40 81 41 32 42 84 43 78 44 77 45
REMARK SMILES IDX 33 47 65 48 45 49 64 50 46 51 49 52 63 53 82 54 47 55 48 56
REMARK SMILES IDX 62 58 83 59 50 60 34 61 35 62 43 63 36 64 37 65 41 66 44 67
REMARK SMILES IDX 38 68 39 69 42 70 40 71 66 72 67 73 75 74 68 75 69 76 73 77
REMARK SMILES IDX 76 78 70 79 71 80 74 81 72 82 51 83 52 84 60 85 53 86 54 87
REMARK SMILES IDX 58 88 61 89 55 90 56 91 59 92 57 93
REMARK H PARENT 17 6 10 15 22 27 81 46 49 57
REMARK Flexibility Score: inf
ROOT
ATOM      1  C   UNL A   1      40.970  21.575  27.647  1.00  0.00     0.023 C 
ENDROOT
BRANCH   1   2
ATOM      2  C   UNL A   1      39.823  21.595  26.631  1.00  0.00     0.116 C 
BRANCH   2   3
ATOM      3  N   UNL A   1      38.982  22.784  26.701  1.00  0.00    -0.356 N 
ATOM      4  C   UNL A   1      37.843  23.067  25.980  1.00  0.00     0.227 C 
ATOM      5  O   UNL A   1      37.229  24.106  26.218  1.00  0.00    -0.274 OA
ATOM      6  H   UNL A   1      39.264  23.472  27.345  1.00  0.00     0.163 HD
BRANCH   4   7
ATOM      7  C   UNL A   1      37.460  22.103  24.847  1.00  0.00     0.103 C 
ATOM      8  C   UNL A   1      35.201  22.526  24.174  1.00  0.00     0.106 C 
ATOM      9  C   UNL A   1      35.315  21.125  24.646  1.00  0.00    -0.006 C 
ATOM     10  C   UNL A   1      36.632  22.892  23.824  1.00  0.00     0.047 C 
ATOM     11  C   UNL A   1      36.541  20.947  25.161  1.00  0.00    -0.016 C 
BRANCH   8  12
ATOM     12  N   UNL A   1      34.271  22.750  23.133  1.00  0.00    -0.345 N 
ATOM     13  C   UNL A   1      33.671  23.914  22.724  1.00  0.00     0.268 C 
ATOM     14  O   UNL A   1      33.123  23.806  21.619  1.00  0.00    -0.268 OA
ATOM     15  H   UNL A   1      34.013  21.948  22.624  1.00  0.00     0.164 HD
BRANCH  13  16
ATOM     16  C   UNL A   1      33.669  25.213  23.422  1.00  0.00     0.108 A 
ATOM     17  C   UNL A   1      33.262  24.974  25.977  1.00  0.00     0.150 C 
ATOM     18  N   UNL A   1      33.520  25.667  24.735  1.00  0.00    -0.345 N 
ATOM     19  C   UNL A   1      33.563  27.051  24.771  1.00  0.00     0.106 A 
ATOM     20  C   UNL A   1      33.673  27.521  23.498  1.00  0.00     0.059 A 
ATOM     21  C   UNL A   1      33.754  26.397  22.665  1.00  0.00     0.054 A 
ATOM     22  Cl  UNL A   1      33.687  29.138  23.002  1.00  0.00    -0.083 Cl
ENDBRANCH  13  16
ENDBRANCH   8  12
ENDBRANCH   4   7
ENDBRANCH   2   3
ENDBRANCH   1   2
BRANCH   1  23
ATOM     23  C   UNL A   1      42.232  20.801  27.253  1.00  0.00     0.023 C 
BRANCH  23  24
ATOM     24  C   UNL A   1      42.198  20.177  25.864  1.00  0.00     0.116 C 
BRANCH  24  25
ATOM     25  N   UNL A   1      43.523  19.856  25.327  1.00  0.00    -0.352 N 
ATOM     26  C   UNL A   1      44.492  20.738  24.873  1.00  0.00     0.251 C 
ATOM     27  H   UNL A   1      43.753  18.899  25.283  1.00  0.00     0.163 HD
ATOM     28  O   UNL A   1      45.385  20.379  24.122  1.00  0.00    -0.269 OA
BRANCH  26  29
ATOM     29  C   UNL A   1      44.427  22.136  25.335  1.00  0.00     0.039 A 
ATOM     30  C   UNL A   1      43.458  23.032  24.873  1.00  0.00     0.014 A 
ATOM     31  C   UNL A   1      45.341  22.515  26.308  1.00  0.00     0.014 A 
ATOM     32  C   UNL A   1      43.361  24.288  25.474  1.00  0.00     0.010 A 
ATOM     33  C   UNL A   1      45.122  23.659  27.022  1.00  0.00     0.010 A 
ATOM     34  C   UNL A   1      44.187  24.585  26.567  1.00  0.00    -0.014 A 
BRANCH  34  35
ATOM     35  C   UNL A   1      44.040  25.818  27.339  1.00  0.00     0.031 A 
ATOM     36  C   UNL A   1      44.986  26.916  26.978  1.00  0.00     0.074 A 
ATOM     37  C   UNL A   1      42.941  26.029  28.099  1.00  0.00     0.049 A 
ATOM     38  N   UNL A   1      45.783  27.570  27.758  1.00  0.00    -0.248 NA
ATOM     39  C   UNL A   1      45.130  27.274  25.554  1.00  0.00     0.031 C 
ATOM     40  C   UNL A   1      41.786  25.135  28.287  1.00  0.00     0.029 A 
ATOM     41  N   UNL A   1      42.542  27.152  28.753  1.00  0.00    -0.354 N 
ATOM     42  C   UNL A   1      46.394  28.542  26.966  1.00  0.00     0.074 A 
ATOM     43  C   UNL A   1      46.081  28.208  25.602  1.00  0.00     0.031 C 
ATOM     44  C   UNL A   1      40.738  25.838  28.761  1.00  0.00     0.029 A 
ATOM     45  C   UNL A   1      41.190  27.177  29.081  1.00  0.00     0.049 A 
ATOM     46  H   UNL A   1      43.158  27.888  28.974  1.00  0.00     0.167 HD
ATOM     47  C   UNL A   1      46.906  29.680  27.516  1.00  0.00     0.037 A 
ATOM     48  C   UNL A   1      40.483  28.234  29.551  1.00  0.00     0.037 A 
ATOM     49  C   UNL A   1      47.122  29.518  28.931  1.00  0.00     0.049 A 
ATOM     50  C   UNL A   1      41.464  29.215  30.076  1.00  0.00     0.074 A 
ATOM     51  C   UNL A   1      47.880  28.656  29.701  1.00  0.00     0.029 A 
ATOM     52  N   UNL A   1      46.216  30.080  29.795  1.00  0.00    -0.354 N 
ATOM     53  N   UNL A   1      42.205  29.002  31.128  1.00  0.00    -0.248 NA
ATOM     54  C   UNL A   1      41.957  30.228  29.156  1.00  0.00     0.031 C 
ATOM     55  C   UNL A   1      47.065  28.366  30.836  1.00  0.00     0.029 A 
ATOM     56  C   UNL A   1      45.900  29.126  30.727  1.00  0.00     0.049 A 
ATOM     57  H   UNL A   1      45.860  30.997  29.754  1.00  0.00     0.167 HD
ATOM     58  C   UNL A   1      43.447  29.517  30.789  1.00  0.00     0.074 A 
ATOM     59  C   UNL A   1      43.212  30.335  29.601  1.00  0.00     0.031 C 
ATOM     60  C   UNL A   1      44.592  28.995  31.321  1.00  0.00     0.037 A 
BRANCH  47  61
ATOM     61  C   UNL A   1      46.849  31.046  26.867  1.00  0.00     0.064 A 
ATOM     62  C   UNL A   1      48.008  31.851  26.865  1.00  0.00     0.173 A 
ATOM     63  C   UNL A   1      45.650  31.715  26.541  1.00  0.00     0.173 A 
ATOM     64  F   UNL A   1      49.206  31.326  27.167  1.00  0.00    -0.203 F 
ATOM     65  C   UNL A   1      47.951  33.232  26.657  1.00  0.00     0.198 A 
ATOM     66  C   UNL A   1      45.604  33.083  26.280  1.00  0.00     0.198 A 
ATOM     67  F   UNL A   1      44.459  31.107  26.572  1.00  0.00    -0.203 F 
ATOM     68  F   UNL A   1      49.056  33.973  26.807  1.00  0.00    -0.200 F 
ATOM     69  C   UNL A   1      46.746  33.849  26.375  1.00  0.00     0.200 A 
ATOM     70  F   UNL A   1      44.424  33.666  26.023  1.00  0.00    -0.200 F 
ATOM     71  F   UNL A   1      46.675  35.180  26.247  1.00  0.00    -0.200 F 
ENDBRANCH  47  61
BRANCH  48  72
ATOM     72  C   UNL A   1      39.058  28.571  29.319  1.00  0.00     0.064 A 
ATOM     73  C   UNL A   1      38.153  28.678  30.387  1.00  0.00     0.173 A 
ATOM     74  C   UNL A   1      38.613  29.058  28.073  1.00  0.00     0.173 A 
ATOM     75  F   UNL A   1      38.511  28.277  31.616  1.00  0.00    -0.203 F 
ATOM     76  C   UNL A   1      36.891  29.260  30.225  1.00  0.00     0.198 A 
ATOM     77  C   UNL A   1      37.351  29.632  27.911  1.00  0.00     0.198 A 
ATOM     78  F   UNL A   1      39.430  29.073  27.009  1.00  0.00    -0.203 F 
ATOM     79  F   UNL A   1      36.078  29.400  31.283  1.00  0.00    -0.200 F 
ATOM     80  C   UNL A   1      36.496  29.746  28.990  1.00  0.00     0.200 A 
ATOM     81  F   UNL A   1      36.995  30.129  26.718  1.00  0.00    -0.200 F 
ATOM     82  F   UNL A   1      35.311  30.358  28.849  1.00  0.00    -0.200 F 
ENDBRANCH  48  72
BRANCH  60  83
ATOM     83  C   UNL A   1      44.458  28.020  32.459  1.00  0.00     0.064 A 
ATOM     84  C   UNL A   1      44.308  26.632  32.296  1.00  0.00     0.173 A 
ATOM     85  C   UNL A   1      44.641  28.495  33.763  1.00  0.00     0.173 A 
ATOM     86  F   UNL A   1      44.232  26.083  31.079  1.00  0.00    -0.203 F 
ATOM     87  C   UNL A   1      44.295  25.768  33.390  1.00  0.00     0.198 A 
ATOM     88  C   UNL A   1      44.665  27.627  34.852  1.00  0.00     0.198 A 
ATOM     89  F   UNL A   1      44.849  29.804  33.978  1.00  0.00    -0.203 F 
ATOM     90  F   UNL A   1      44.137  24.449  33.203  1.00  0.00    -0.200 F 
ATOM     91  C   UNL A   1      44.481  26.266  34.667  1.00  0.00     0.200 A 
ATOM     92  F   UNL A   1      44.898  28.109  36.081  1.00  0.00    -0.200 F 
ATOM     93  F   UNL A   1      44.510  25.433  35.716  1.00  0.00    -0.200 F 
ENDBRANCH  60  83
ENDBRANCH  34  35
ENDBRANCH  26  29
ENDBRANCH  24  25
ENDBRANCH  23  24
ENDBRANCH   1  23
TORSDOF 13
ENDMDL
MODEL 2
REMARK VINA RESULT:     -12.2      4.413      9.834
REMARK SMILES Cn1cc(Cl)cc1C(=O)N[C@H]1C=C[C@H](C(=O)NCCCCNC(=O)c2ccc(-c3c4nc(c(-c5c(F)c(F)c(F)c(F)c5F)c5ccc([nH]5)c(-c5c(F)c(F)c(F)c(F)c5F)c5nc(c(-c6c(F)c(F)c(F)c(F)c6F)c6ccc3[nH]6)C=C5)C=C4)cc2)C1
REMARK SMILES IDX 19 1 18 2 17 3 15 4 16 5 14 7 11 8 12 9 88 10 13 11 10 12
REMARK SMILES IDX 8 13 9 14 7 16 1 17 2 18 3 19 4 20 6 21 5 22 20 23 21 24
REMARK SMILES IDX 22 25 23 26 24 28 25 29 26 30 87 31 27 32 86 33 28 34 29 35
REMARK SMILES IDX 30 36 80 37 31 38 85 39 79 40 81 41 32 42 84 43 78 44 77 45
REMARK SMILES IDX 33 47 65 48 45 49 64 50 46 51 49 52 63 53 82 54 47 55 48 56
REMARK SMILES IDX 62 58 83 59 50 60 34 61 35 62 43 63 36 64 37 65 41 66 44 67
REMARK SMILES IDX 38 68 39 69 42 70 40 71 66 72 67 73 75 74 68 75 69 76 73 77
REMARK SMILES IDX 76 78 70 79 71 80 74 81 72 82 51 83 52 84 60 85 53 86 54 87
REMARK SMILES IDX 58 88 61 89 55 90 56 91 59 92 57 93
REMARK H PARENT 17 6 10 15 22 27 81 46 49 57
REMARK Flexibility Score: inf
ROOT
ATOM      1  C   UNL A   1      33.989  33.811  28.149  1.00  0.00     0.023 C 
ENDROOT
BRANCH   1   2
ATOM      2  C   UNL A   1      33.464  32.412  27.812  1.00  0.00     0.116 C 
BRANCH   2   3
ATOM      3  N   UNL A   1      34.303  31.324  28.299  1.00  0.00    -0.356 N 
ATOM      4  C   UNL A   1      34.494  30.078  27.743  1.00  0.00     0.227 C 
ATOM      5  O   UNL A   1      35.292  29.305  28.270  1.00  0.00    -0.274 OA
ATOM      6  H   UNL A   1      34.797  31.502  29.132  1.00  0.00     0.163 HD
BRANCH   4   7
ATOM      7  C   UNL A   1      33.620  29.695  26.540  1.00  0.00     0.103 C 
ATOM      8  C   UNL A   1      32.539  27.603  26.977  1.00  0.00     0.106 C 
ATOM      9  C   UNL A   1      33.382  27.472  25.764  1.00  0.00    -0.006 C 
ATOM     10  C   UNL A   1      32.314  29.101  27.084  1.00  0.00     0.047 C 
ATOM     11  C   UNL A   1      34.097  28.598  25.619  1.00  0.00    -0.016 C 
BRANCH   8  12
ATOM     12  N   UNL A   1      31.353  26.834  26.988  1.00  0.00    -0.345 N 
ATOM     13  C   UNL A   1      30.588  26.380  25.943  1.00  0.00     0.268 C 
ATOM     14  O   UNL A   1      29.775  25.513  26.288  1.00  0.00    -0.268 OA
ATOM     15  H   UNL A   1      31.025  26.586  27.882  1.00  0.00     0.164 HD
BRANCH  13  16
ATOM     16  C   UNL A   1      30.683  26.777  24.526  1.00  0.00     0.108 A 
ATOM     17  C   UNL A   1      31.873  24.989  23.063  1.00  0.00     0.150 C 
ATOM     18  N   UNL A   1      31.184  26.229  23.342  1.00  0.00    -0.345 N 
ATOM     19  C   UNL A   1      31.025  27.122  22.296  1.00  0.00     0.106 A 
ATOM     20  C   UNL A   1      30.487  28.276  22.780  1.00  0.00     0.059 A 
ATOM     21  C   UNL A   1      30.261  28.065  24.147  1.00  0.00     0.054 A 
ATOM     22  Cl  UNL A   1      30.170  29.698  21.920  1.00  0.00    -0.083 Cl
ENDBRANCH  13  16
ENDBRANCH   8  12
ENDBRANCH   4   7
ENDBRANCH   2   3
ENDBRANCH   1   2
BRANCH   1  23
ATOM     23  C   UNL A   1      32.968  34.828  28.669  1.00  0.00     0.023 C 
BRANCH  23  24
ATOM     24  C   UNL A   1      33.533  35.890  29.603  1.00  0.00     0.116 C 
BRANCH  24  25
ATOM     25  N   UNL A   1      32.846  35.970  30.894  1.00  0.00    -0.352 N 
ATOM     26  C   UNL A   1      33.016  35.149  32.000  1.00  0.00     0.251 C 
ATOM     27  H   UNL A   1      32.184  36.693  30.990  1.00  0.00     0.163 HD
ATOM     28  O   UNL A   1      32.164  35.059  32.868  1.00  0.00    -0.269 OA
BRANCH  26  29
ATOM     29  C   UNL A   1      34.272  34.386  32.109  1.00  0.00     0.039 A 
ATOM     30  C   UNL A   1      34.360  33.035  31.757  1.00  0.00     0.014 A 
ATOM     31  C   UNL A   1      35.395  35.089  32.521  1.00  0.00     0.014 A 
ATOM     32  C   UNL A   1      35.615  32.426  31.736  1.00  0.00     0.010 A 
ATOM     33  C   UNL A   1      36.634  34.551  32.314  1.00  0.00     0.010 A 
ATOM     34  C   UNL A   1      36.754  33.201  31.996  1.00  0.00    -0.014 A 
BRANCH  34  35
ATOM     35  C   UNL A   1      38.107  32.669  31.846  1.00  0.00     0.031 A 
ATOM     36  C   UNL A   1      38.880  32.518  33.114  1.00  0.00     0.074 A 
ATOM     37  C   UNL A   1      38.495  32.088  30.687  1.00  0.00     0.049 A 
ATOM     38  N   UNL A   1      40.051  32.989  33.395  1.00  0.00    -0.248 NA
ATOM     39  C   UNL A   1      38.235  31.831  34.249  1.00  0.00     0.031 C 
ATOM     40  C   UNL A   1      37.704  31.903  29.459  1.00  0.00     0.029 A 
ATOM     41  N   UNL A   1      39.633  31.401  30.401  1.00  0.00    -0.354 N 
ATOM     42  C   UNL A   1      40.371  32.510  34.665  1.00  0.00     0.074 A 
ATOM     43  C   UNL A   1      39.160  31.946  35.202  1.00  0.00     0.031 C 
ATOM     44  C   UNL A   1      38.268  30.946  28.694  1.00  0.00     0.029 A 
ATOM     45  C   UNL A   1      39.543  30.583  29.278  1.00  0.00     0.049 A 
ATOM     46  H   UNL A   1      40.450  31.473  30.944  1.00  0.00     0.167 HD
ATOM     47  C   UNL A   1      41.667  32.401  35.072  1.00  0.00     0.037 A 
ATOM     48  C   UNL A   1      40.439  29.649  28.875  1.00  0.00     0.037 A 
ATOM     49  C   UNL A   1      42.534  33.216  34.260  1.00  0.00     0.049 A 
ATOM     50  C   UNL A   1      41.719  29.947  29.561  1.00  0.00     0.074 A 
ATOM     51  C   UNL A   1      42.605  34.567  33.977  1.00  0.00     0.029 A 
ATOM     52  N   UNL A   1      43.287  32.599  33.292  1.00  0.00    -0.354 N 
ATOM     53  N   UNL A   1      42.435  31.010  29.320  1.00  0.00    -0.248 NA
ATOM     54  C   UNL A   1      41.955  29.310  30.847  1.00  0.00     0.031 C 
ATOM     55  C   UNL A   1      42.950  34.634  32.594  1.00  0.00     0.029 A 
ATOM     56  C   UNL A   1      43.143  33.329  32.140  1.00  0.00     0.049 A 
ATOM     57  H   UNL A   1      43.831  31.786  33.404  1.00  0.00     0.167 HD
ATOM     58  C   UNL A   1      42.877  31.423  30.569  1.00  0.00     0.074 A 
ATOM     59  C   UNL A   1      42.624  30.292  31.458  1.00  0.00     0.031 C 
ATOM     60  C   UNL A   1      43.127  32.742  30.823  1.00  0.00     0.037 A 
BRANCH  47  61
ATOM     61  C   UNL A   1      42.203  31.281  35.937  1.00  0.00     0.064 A 
ATOM     62  C   UNL A   1      43.062  31.596  37.011  1.00  0.00     0.173 A 
ATOM     63  C   UNL A   1      42.172  29.918  35.571  1.00  0.00     0.173 A 
ATOM     64  F   UNL A   1      43.180  32.861  37.442  1.00  0.00    -0.203 F 
ATOM     65  C   UNL A   1      43.898  30.640  37.597  1.00  0.00     0.198 A 
ATOM     66  C   UNL A   1      42.966  28.957  36.194  1.00  0.00     0.198 A 
ATOM     67  F   UNL A   1      41.465  29.473  34.526  1.00  0.00    -0.203 F 
ATOM     68  F   UNL A   1      44.797  31.018  38.515  1.00  0.00    -0.200 F 
ATOM     69  C   UNL A   1      43.857  29.323  37.180  1.00  0.00     0.200 A 
ATOM     70  F   UNL A   1      42.923  27.687  35.765  1.00  0.00    -0.200 F 
ATOM     71  F   UNL A   1      44.705  28.421  37.687  1.00  0.00    -0.200 F 
ENDBRANCH  47  61
BRANCH  48  72
ATOM     72  C   UNL A   1      40.186  28.368  28.172  1.00  0.00     0.064 A 
ATOM     73  C   UNL A   1      40.800  28.081  26.942  1.00  0.00     0.173 A 
ATOM     74  C   UNL A   1      39.550  27.289  28.819  1.00  0.00     0.173 A 
ATOM     75  F   UNL A   1      41.462  29.040  26.280  1.00  0.00    -0.203 F 
ATOM     76  C   UNL A   1      40.800  26.789  26.405  1.00  0.00     0.198 A 
ATOM     77  C   UNL A   1      39.545  26.002  28.278  1.00  0.00     0.198 A 
ATOM     78  F   UNL A   1      39.003  27.442  30.034  1.00  0.00    -0.203 F 
ATOM     79  F   UNL A   1      41.449  26.541  25.258  1.00  0.00    -0.200 F 
ATOM     80  C   UNL A   1      40.182  25.749  27.079  1.00  0.00     0.200 A 
ATOM     81  F   UNL A   1      38.972  24.998  28.958  1.00  0.00    -0.200 F 
ATOM     82  F   UNL A   1      40.234  24.500  26.595  1.00  0.00    -0.200 F 
ENDBRANCH  48  72
BRANCH  60  83
ATOM     83  C   UNL A   1      43.147  33.692  29.657  1.00  0.00     0.064 A 
ATOM     84  C   UNL A   1      42.046  34.466  29.250  1.00  0.00     0.173 A 
ATOM     85  C   UNL A   1      44.371  33.939  29.024  1.00  0.00     0.173 A 
ATOM     86  F   UNL A   1      40.866  34.370  29.871  1.00  0.00    -0.203 F 
ATOM     87  C   UNL A   1      42.156  35.407  28.227  1.00  0.00     0.198 A 
ATOM     88  C   UNL A   1      44.489  34.906  28.029  1.00  0.00     0.198 A 
ATOM     89  F   UNL A   1      45.472  33.275  29.410  1.00  0.00    -0.203 F 
ATOM     90  F   UNL A   1      41.084  36.121  27.853  1.00  0.00    -0.200 F 
ATOM     91  C   UNL A   1      43.380  35.631  27.622  1.00  0.00     0.200 A 
ATOM     92  F   UNL A   1      45.687  35.156  27.483  1.00  0.00    -0.200 F 
ATOM     93  F   UNL A   1      43.498  36.565  26.668  1.00  0.00    -0.200 F 
ENDBRANCH  60  83
ENDBRANCH  34  35
ENDBRANCH  26  29
ENDBRANCH  24  25
ENDBRANCH  23  24
ENDBRANCH   1  23
TORSDOF 13
ENDMDL
MODEL 3
REMARK VINA RESULT:     -12.1      4.091      9.326
REMARK SMILES Cn1cc(Cl)cc1C(=O)N[C@H]1C=C[C@H](C(=O)NCCCCNC(=O)c2ccc(-c3c4nc(c(-c5c(F)c(F)c(F)c(F)c5F)c5ccc([nH]5)c(-c5c(F)c(F)c(F)c(F)c5F)c5nc(c(-c6c(F)c(F)c(F)c(F)c6F)c6ccc3[nH]6)C=C5)C=C4)cc2)C1
REMARK SMILES IDX 19 1 18 2 17 3 15 4 16 5 14 7 11 8 12 9 88 10 13 11 10 12
REMARK SMILES IDX 8 13 9 14 7 16 1 17 2 18 3 19 4 20 6 21 5 22 20 23 21 24
REMARK SMILES IDX 22 25 23 26 24 28 25 29 26 30 87 31 27 32 86 33 28 34 29 35
REMARK SMILES IDX 30 36 80 37 31 38 85 39 79 40 81 41 32 42 84 43 78 44 77 45
REMARK SMILES IDX 33 47 65 48 45 49 64 50 46 51 49 52 63 53 82 54 47 55 48 56
REMARK SMILES IDX 62 58 83 59 50 60 34 61 35 62 43 63 36 64 37 65 41 66 44 67
REMARK SMILES IDX 38 68 39 69 42 70 40 71 66 72 67 73 75 74 68 75 69 76 73 77
REMARK SMILES IDX 76 78 70 79 71 80 74 81 72 82 51 83 52 84 60 85 53 86 54 87
REMARK SMILES IDX 58 88 61 89 55 90 56 91 59 92 57 93
REMARK H PARENT 17 6 10 15 22 27 81 46 49 57
REMARK Flexibility Score: inf
ROOT
ATOM      1  C   UNL A   1      31.565  30.903  25.924  1.00  0.00     0.023 C 
ENDROOT
BRANCH   1   2
ATOM      2  C   UNL A   1      32.787  30.098  26.379  1.00  0.00     0.116 C 
BRANCH   2   3
ATOM      3  N   UNL A   1      33.263  29.127  25.401  1.00  0.00    -0.356 N 
ATOM      4  C   UNL A   1      32.533  28.187  24.707  1.00  0.00     0.227 C 
ATOM      5  O   UNL A   1      33.103  27.486  23.873  1.00  0.00    -0.274 OA
ATOM      6  H   UNL A   1      34.229  29.146  25.213  1.00  0.00     0.163 HD
BRANCH   4   7
ATOM      7  C   UNL A   1      31.056  28.009  25.090  1.00  0.00     0.103 C 
ATOM      8  C   UNL A   1      30.615  25.690  25.490  1.00  0.00     0.106 C 
ATOM      9  C   UNL A   1      29.748  26.167  24.386  1.00  0.00    -0.006 C 
ATOM     10  C   UNL A   1      30.990  26.969  26.216  1.00  0.00     0.047 C 
ATOM     11  C   UNL A   1      30.112  27.420  24.070  1.00  0.00    -0.016 C 
BRANCH   8  12
ATOM     12  N   UNL A   1      30.057  24.690  26.321  1.00  0.00    -0.345 N 
ATOM     13  C   UNL A   1      30.548  23.456  26.664  1.00  0.00     0.268 C 
ATOM     14  O   UNL A   1      29.942  22.949  27.617  1.00  0.00    -0.268 OA
ATOM     15  H   UNL A   1      29.183  24.914  26.712  1.00  0.00     0.164 HD
BRANCH  13  16
ATOM     16  C   UNL A   1      31.695  22.750  26.062  1.00  0.00     0.108 A 
ATOM     17  C   UNL A   1      33.889  24.138  26.164  1.00  0.00     0.150 C 
ATOM     18  N   UNL A   1      33.055  22.997  25.860  1.00  0.00    -0.345 N 
ATOM     19  C   UNL A   1      33.635  21.947  25.169  1.00  0.00     0.106 A 
ATOM     20  C   UNL A   1      32.669  21.040  24.855  1.00  0.00     0.059 A 
ATOM     21  C   UNL A   1      31.477  21.520  25.413  1.00  0.00     0.054 A 
ATOM     22  Cl  UNL A   1      32.852  19.621  23.951  1.00  0.00    -0.083 Cl
ENDBRANCH  13  16
ENDBRANCH   8  12
ENDBRANCH   4   7
ENDBRANCH   2   3
ENDBRANCH   1   2
BRANCH   1  23
ATOM     23  C   UNL A   1      31.317  32.243  26.623  1.00  0.00     0.023 C 
BRANCH  23  24
ATOM     24  C   UNL A   1      32.525  32.828  27.343  1.00  0.00     0.116 C 
BRANCH  24  25
ATOM     25  N   UNL A   1      32.341  34.214  27.780  1.00  0.00    -0.352 N 
ATOM     26  C   UNL A   1      33.009  34.880  28.798  1.00  0.00     0.251 C 
ATOM     27  H   UNL A   1      31.663  34.736  27.293  1.00  0.00     0.163 HD
ATOM     28  O   UNL A   1      32.545  35.880  29.320  1.00  0.00    -0.269 OA
BRANCH  26  29
ATOM     29  C   UNL A   1      34.314  34.352  29.231  1.00  0.00     0.039 A 
ATOM     30  C   UNL A   1      34.463  33.584  30.390  1.00  0.00     0.014 A 
ATOM     31  C   UNL A   1      35.395  34.598  28.397  1.00  0.00     0.014 A 
ATOM     32  C   UNL A   1      35.698  32.987  30.648  1.00  0.00     0.010 A 
ATOM     33  C   UNL A   1      36.536  33.862  28.545  1.00  0.00     0.010 A 
ATOM     34  C   UNL A   1      36.727  33.114  29.704  1.00  0.00    -0.014 A 
BRANCH  34  35
ATOM     35  C   UNL A   1      37.993  32.396  29.833  1.00  0.00     0.031 A 
ATOM     36  C   UNL A   1      37.995  31.001  29.302  1.00  0.00     0.074 A 
ATOM     37  C   UNL A   1      39.134  33.059  30.135  1.00  0.00     0.049 A 
ATOM     38  N   UNL A   1      38.337  29.915  29.915  1.00  0.00    -0.248 NA
ATOM     39  C   UNL A   1      37.467  30.769  27.944  1.00  0.00     0.031 C 
ATOM     40  C   UNL A   1      39.304  34.501  30.378  1.00  0.00     0.029 A 
ATOM     41  N   UNL A   1      40.418  32.613  30.143  1.00  0.00    -0.354 N 
ATOM     42  C   UNL A   1      38.245  28.890  28.974  1.00  0.00     0.074 A 
ATOM     43  C   UNL A   1      37.554  29.442  27.839  1.00  0.00     0.031 C 
ATOM     44  C   UNL A   1      40.603  34.836  30.239  1.00  0.00     0.029 A 
ATOM     45  C   UNL A   1      41.376  33.621  30.080  1.00  0.00     0.049 A 
ATOM     46  H   UNL A   1      40.651  31.658  30.188  1.00  0.00     0.167 HD
ATOM     47  C   UNL A   1      38.960  27.738  29.114  1.00  0.00     0.037 A 
ATOM     48  C   UNL A   1      42.708  33.469  29.878  1.00  0.00     0.037 A 
ATOM     49  C   UNL A   1      39.404  27.567  30.474  1.00  0.00     0.049 A 
ATOM     50  C   UNL A   1      43.037  32.054  30.178  1.00  0.00     0.074 A 
ATOM     51  C   UNL A   1      38.764  27.465  31.695  1.00  0.00     0.029 A 
ATOM     52  N   UNL A   1      40.714  27.852  30.770  1.00  0.00    -0.354 N 
ATOM     53  N   UNL A   1      42.969  31.537  31.373  1.00  0.00    -0.248 NA
ATOM     54  C   UNL A   1      42.979  31.104  29.078  1.00  0.00     0.031 C 
ATOM     55  C   UNL A   1      39.588  28.194  32.602  1.00  0.00     0.029 A 
ATOM     56  C   UNL A   1      40.713  28.627  31.901  1.00  0.00     0.049 A 
ATOM     57  H   UNL A   1      41.505  27.554  30.266  1.00  0.00     0.167 HD
ATOM     58  C   UNL A   1      42.425  30.276  31.176  1.00  0.00     0.074 A 
ATOM     59  C   UNL A   1      42.533  30.032  29.739  1.00  0.00     0.031 C 
ATOM     60  C   UNL A   1      41.670  29.678  32.146  1.00  0.00     0.037 A 
BRANCH  47  61
ATOM     61  C   UNL A   1      39.583  26.971  27.968  1.00  0.00     0.064 A 
ATOM     62  C   UNL A   1      39.559  25.560  27.994  1.00  0.00     0.173 A 
ATOM     63  C   UNL A   1      40.466  27.541  27.026  1.00  0.00     0.173 A 
ATOM     64  F   UNL A   1      38.763  24.907  28.854  1.00  0.00    -0.203 F 
ATOM     65  C   UNL A   1      40.427  24.789  27.215  1.00  0.00     0.198 A 
ATOM     66  C   UNL A   1      41.292  26.768  26.211  1.00  0.00     0.198 A 
ATOM     67  F   UNL A   1      40.657  28.862  26.930  1.00  0.00    -0.203 F 
ATOM     68  F   UNL A   1      40.466  23.461  27.381  1.00  0.00    -0.200 F 
ATOM     69  C   UNL A   1      41.300  25.395  26.332  1.00  0.00     0.200 A 
ATOM     70  F   UNL A   1      42.143  27.374  25.371  1.00  0.00    -0.200 F 
ATOM     71  F   UNL A   1      42.183  24.666  25.637  1.00  0.00    -0.200 F 
ENDBRANCH  47  61
BRANCH  48  72
ATOM     72  C   UNL A   1      43.646  34.378  29.177  1.00  0.00     0.064 A 
ATOM     73  C   UNL A   1      43.814  34.317  27.785  1.00  0.00     0.173 A 
ATOM     74  C   UNL A   1      44.196  35.506  29.822  1.00  0.00     0.173 A 
ATOM     75  F   UNL A   1      43.287  33.301  27.087  1.00  0.00    -0.203 F 
ATOM     76  C   UNL A   1      44.469  35.332  27.078  1.00  0.00     0.198 A 
ATOM     77  C   UNL A   1      44.855  36.514  29.117  1.00  0.00     0.198 A 
ATOM     78  F   UNL A   1      44.022  35.697  31.139  1.00  0.00    -0.203 F 
ATOM     79  F   UNL A   1      44.556  35.267  25.741  1.00  0.00    -0.200 F 
ATOM     80  C   UNL A   1      44.979  36.434  27.743  1.00  0.00     0.200 A 
ATOM     81  F   UNL A   1      45.313  37.591  29.770  1.00  0.00    -0.200 F 
ATOM     82  F   UNL A   1      45.552  37.435  27.060  1.00  0.00    -0.200 F 
ENDBRANCH  48  72
BRANCH  60  83
ATOM     83  C   UNL A   1      41.649  30.310  33.511  1.00  0.00     0.064 A 
ATOM     84  C   UNL A   1      40.721  31.285  33.916  1.00  0.00     0.173 A 
ATOM     85  C   UNL A   1      42.507  29.798  34.491  1.00  0.00     0.173 A 
ATOM     86  F   UNL A   1      39.796  31.752  33.070  1.00  0.00    -0.203 F 
ATOM     87  C   UNL A   1      40.686  31.757  35.227  1.00  0.00     0.198 A 
ATOM     88  C   UNL A   1      42.446  30.243  35.810  1.00  0.00     0.198 A 
ATOM     89  F   UNL A   1      43.376  28.823  34.180  1.00  0.00    -0.203 F 
ATOM     90  F   UNL A   1      39.795  32.697  35.579  1.00  0.00    -0.200 F 
ATOM     91  C   UNL A   1      41.544  31.229  36.175  1.00  0.00     0.200 A 
ATOM     92  F   UNL A   1      43.244  29.692  36.734  1.00  0.00    -0.200 F 
ATOM     93  F   UNL A   1      41.484  31.651  37.445  1.00  0.00    -0.200 F 
ENDBRANCH  60  83
ENDBRANCH  34  35
ENDBRANCH  26  29
ENDBRANCH  24  25
ENDBRANCH  23  24
ENDBRANCH   1  23
TORSDOF 13
ENDMDL
