MODEL 1
REMARK VINA RESULT:     -14.9      0.000      0.000
REMARK SMILES [NH3+][C@@]1(C(=O)NCCCCNC(=O)c2ccc(-c3c4nc(c(-c5c(F)c(F)c(F)c(F)c5F)c5ccc([nH]5)c(-c5c(F)c(F)c(F)c(F)c5F)c5nc(c(-c6c(F)c(F)c(F)c(F)c6F)c6ccc3[nH]6)C=C5)C=C4)cc2)CC[N@H+](Cc2ccc(OCC(=O)N3CCCCC3)cc2)C1
REMARK SMILES IDX 6 1 5 2 3 3 4 4 2 6 76 7 96 8 77 9 78 10 1 12 79 16 80 17
REMARK SMILES IDX 81 18 95 19 82 20 94 21 83 22 84 23 85 24 86 25 87 26 88 27
REMARK SMILES IDX 89 28 93 29 90 30 92 31 91 32 7 33 8 34 9 35 10 36 11 37
REMARK SMILES IDX 12 39 13 40 14 41 75 42 15 43 74 44 16 45 17 46 18 47 68 48
REMARK SMILES IDX 19 49 73 50 67 51 69 52 20 53 72 54 66 55 65 56 21 58 53 59
REMARK SMILES IDX 33 60 52 61 34 62 37 63 51 64 70 65 35 66 36 67 50 69 71 70
REMARK SMILES IDX 38 71 22 72 23 73 31 74 24 75 25 76 29 77 32 78 26 79 27 80
REMARK SMILES IDX 30 81 28 82 54 83 55 84 63 85 56 86 57 87 61 88 64 89 58 90
REMARK SMILES IDX 59 91 62 92 60 93 39 94 40 95 48 96 41 97 42 98 46 99 49 100
REMARK SMILES IDX 43 101 44 102 47 103 45 104
REMARK H PARENT 5 5 78 11 1 13 1 14 1 15 10 38 69 57 37 68
REMARK Flexibility Score: inf
ROOT
ATOM      1  C   UNL A   1      29.966  31.565  24.787  1.00  0.00     0.116 C 
ENDROOT
BRANCH   1   2
ATOM      2  N   UNL A   1      29.457  32.515  23.655  1.00  0.00    -0.350 N 
ATOM      3  C   UNL A   1      28.678  32.311  22.562  1.00  0.00     0.287 C 
ATOM      4  O   UNL A   1      28.154  33.344  22.106  1.00  0.00    -0.268 OA
ATOM      5  H   UNL A   1      29.763  33.447  23.753  1.00  0.00     0.163 HD
BRANCH   3   6
ATOM      6  C   UNL A   1      28.417  30.931  21.838  1.00  0.00     0.228 C 
ATOM      7  C   UNL A   1      27.558  29.936  22.612  1.00  0.00     0.146 C 
ATOM      8  C   UNL A   1      29.680  30.143  21.459  1.00  0.00     0.342 C 
ATOM      9  C   UNL A   1      28.444  28.726  22.912  1.00  0.00     0.270 C 
ATOM     10  N   UNL A   1      29.748  28.935  22.290  1.00  0.00    -0.325 N 
ATOM     11  H   UNL A   1      29.946  28.146  21.675  1.00  0.00     0.348 HD
BRANCH   6  12
ATOM     12  N   UNL A   1      27.676  31.288  20.578  1.00  0.00    -0.340 N 
ATOM     13  H   UNL A   1      26.678  31.358  20.778  1.00  0.00     0.345 HD
ATOM     14  H   UNL A   1      27.832  30.566  19.876  1.00  0.00     0.345 HD
ATOM     15  H   UNL A   1      28.015  32.184  20.227  1.00  0.00     0.345 HD
ENDBRANCH   6  12
BRANCH  10  16
ATOM     16  C   UNL A   1      30.902  28.811  23.173  1.00  0.00     0.299 C 
BRANCH  16  17
ATOM     17  C   UNL A   1      31.132  27.409  23.663  1.00  0.00     0.006 A 
ATOM     18  C   UNL A   1      30.870  27.074  25.420  1.00  0.00     0.013 A 
ATOM     19  C   UNL A   1      31.336  26.038  22.480  1.00  0.00     0.013 A 
ATOM     20  C   UNL A   1      30.861  25.374  26.007  1.00  0.00     0.047 A 
ATOM     21  C   UNL A   1      31.307  24.342  23.085  1.00  0.00     0.047 A 
ATOM     22  C   UNL A   1      31.013  24.017  24.840  1.00  0.00     0.120 A 
BRANCH  22  23
ATOM     23  O   UNL A   1      30.924  22.787  25.416  1.00  0.00    -0.484 OA
BRANCH  23  24
ATOM     24  C   UNL A   1      32.146  22.174  25.758  1.00  0.00     0.329 C 
BRANCH  24  25
ATOM     25  C   UNL A   1      33.239  21.973  24.689  1.00  0.00     0.260 C 
ATOM     26  O   UNL A   1      33.040  21.137  23.800  1.00  0.00    -0.271 OA
ATOM     27  N   UNL A   1      34.354  22.804  24.678  1.00  0.00    -0.340 N 
ATOM     28  C   UNL A   1      35.165  22.873  23.463  1.00  0.00     0.119 C 
ATOM     29  C   UNL A   1      34.786  23.704  25.750  1.00  0.00     0.119 C 
ATOM     30  C   UNL A   1      36.633  22.601  23.755  1.00  0.00     0.022 C 
ATOM     31  C   UNL A   1      36.274  23.524  26.074  1.00  0.00     0.022 C 
ATOM     32  C   UNL A   1      37.159  23.549  24.829  1.00  0.00     0.004 C 
ENDBRANCH  24  25
ENDBRANCH  23  24
ENDBRANCH  22  23
ENDBRANCH  16  17
ENDBRANCH  10  16
ENDBRANCH   3   6
ENDBRANCH   1   2
BRANCH   1  33
ATOM     33  C   UNL A   1      31.155  31.878  26.599  1.00  0.00     0.023 C 
BRANCH  33  34
ATOM     34  C   UNL A   1      32.752  31.548  27.121  1.00  0.00     0.023 C 
BRANCH  34  35
ATOM     35  C   UNL A   1      33.601  32.705  27.649  1.00  0.00     0.116 C 
BRANCH  35  36
ATOM     36  N   UNL A   1      32.898  33.977  27.800  1.00  0.00    -0.352 N 
ATOM     37  C   UNL A   1      33.186  34.958  28.724  1.00  0.00     0.251 C 
ATOM     38  H   UNL A   1      32.150  34.150  27.185  1.00  0.00     0.163 HD
ATOM     39  O   UNL A   1      32.530  35.984  28.831  1.00  0.00    -0.269 OA
BRANCH  37  40
ATOM     40  C   UNL A   1      34.320  34.684  29.621  1.00  0.00     0.039 A 
ATOM     41  C   UNL A   1      34.062  34.163  30.890  1.00  0.00     0.014 A 
ATOM     42  C   UNL A   1      35.609  34.702  29.087  1.00  0.00     0.014 A 
ATOM     43  C   UNL A   1      35.106  33.579  31.603  1.00  0.00     0.010 A 
ATOM     44  C   UNL A   1      36.626  34.046  29.766  1.00  0.00     0.010 A 
ATOM     45  C   UNL A   1      36.382  33.474  31.026  1.00  0.00    -0.014 A 
BRANCH  45  46
ATOM     46  C   UNL A   1      37.486  32.784  31.733  1.00  0.00     0.031 A 
ATOM     47  C   UNL A   1      38.171  31.626  31.068  1.00  0.00     0.074 A 
ATOM     48  C   UNL A   1      37.824  33.150  32.985  1.00  0.00     0.049 A 
ATOM     49  N   UNL A   1      39.120  30.851  31.526  1.00  0.00    -0.248 NA
ATOM     50  C   UNL A   1      37.697  31.266  29.722  1.00  0.00     0.031 C 
ATOM     51  C   UNL A   1      37.182  34.212  33.763  1.00  0.00     0.029 A 
ATOM     52  N   UNL A   1      38.792  32.663  33.827  1.00  0.00    -0.354 N 
ATOM     53  C   UNL A   1      39.338  29.904  30.535  1.00  0.00     0.074 A 
ATOM     54  C   UNL A   1      38.378  30.158  29.483  1.00  0.00     0.031 C 
ATOM     55  C   UNL A   1      37.795  34.318  34.953  1.00  0.00     0.029 A 
ATOM     56  C   UNL A   1      38.857  33.318  35.033  1.00  0.00     0.049 A 
ATOM     57  H   UNL A   1      39.384  31.913  33.589  1.00  0.00     0.167 HD
ATOM     58  C   UNL A   1      40.278  28.933  30.489  1.00  0.00     0.037 A 
ATOM     59  C   UNL A   1      39.691  33.136  36.075  1.00  0.00     0.037 A 
ATOM     60  C   UNL A   1      41.262  28.718  31.513  1.00  0.00     0.049 A 
ATOM     61  C   UNL A   1      40.757  32.078  35.981  1.00  0.00     0.074 A 
ATOM     62  C   UNL A   1      42.303  27.808  31.534  1.00  0.00     0.029 A 
ATOM     63  N   UNL A   1      41.329  29.435  32.698  1.00  0.00    -0.354 N 
ATOM     64  N   UNL A   1      41.008  31.240  35.005  1.00  0.00    -0.248 NA
ATOM     65  C   UNL A   1      41.666  31.946  37.130  1.00  0.00     0.031 C 
ATOM     66  C   UNL A   1      42.986  27.956  32.746  1.00  0.00     0.029 A 
ATOM     67  C   UNL A   1      42.390  28.982  33.463  1.00  0.00     0.049 A 
ATOM     68  H   UNL A   1      40.712  30.158  32.958  1.00  0.00     0.167 HD
ATOM     69  C   UNL A   1      42.117  30.506  35.404  1.00  0.00     0.074 A 
ATOM     70  C   UNL A   1      42.499  31.004  36.709  1.00  0.00     0.031 C 
ATOM     71  C   UNL A   1      42.762  29.510  34.750  1.00  0.00     0.037 A 
BRANCH  58  72
ATOM     72  C   UNL A   1      40.291  28.050  29.277  1.00  0.00     0.064 A 
ATOM     73  C   UNL A   1      41.031  28.389  28.133  1.00  0.00     0.173 A 
ATOM     74  C   UNL A   1      39.557  26.856  29.256  1.00  0.00     0.173 A 
ATOM     75  F   UNL A   1      41.736  29.530  28.098  1.00  0.00    -0.203 F 
ATOM     76  C   UNL A   1      41.006  27.582  27.000  1.00  0.00     0.198 A 
ATOM     77  C   UNL A   1      39.558  26.036  28.130  1.00  0.00     0.198 A 
ATOM     78  F   UNL A   1      38.834  26.487  30.324  1.00  0.00    -0.203 F 
ATOM     79  F   UNL A   1      41.672  27.957  25.899  1.00  0.00    -0.200 F 
ATOM     80  C   UNL A   1      40.274  26.405  27.001  1.00  0.00     0.200 A 
ATOM     81  F   UNL A   1      38.857  24.894  28.136  1.00  0.00    -0.200 F 
ATOM     82  F   UNL A   1      40.249  25.629  25.908  1.00  0.00    -0.200 F 
ENDBRANCH  58  72
BRANCH  59  83
ATOM     83  C   UNL A   1      39.591  34.008  37.274  1.00  0.00     0.064 A 
ATOM     84  C   UNL A   1      40.219  35.262  37.303  1.00  0.00     0.173 A 
ATOM     85  C   UNL A   1      38.884  33.607  38.417  1.00  0.00     0.173 A 
ATOM     86  F   UNL A   1      40.923  35.680  36.241  1.00  0.00    -0.203 F 
ATOM     87  C   UNL A   1      40.164  36.070  38.436  1.00  0.00     0.198 A 
ATOM     88  C   UNL A   1      38.810  34.427  39.542  1.00  0.00     0.198 A 
ATOM     89  F   UNL A   1      38.262  32.418  38.438  1.00  0.00    -0.203 F 
ATOM     90  F   UNL A   1      40.811  37.244  38.452  1.00  0.00    -0.200 F 
ATOM     91  C   UNL A   1      39.456  35.653  39.553  1.00  0.00     0.200 A 
ATOM     92  F   UNL A   1      38.117  34.026  40.616  1.00  0.00    -0.200 F 
ATOM     93  F   UNL A   1      39.404  36.430  40.644  1.00  0.00    -0.200 F 
ENDBRANCH  59  83
BRANCH  71  94
ATOM     94  C   UNL A   1      43.967  28.916  35.414  1.00  0.00     0.064 A 
ATOM     95  C   UNL A   1      45.255  29.418  35.181  1.00  0.00     0.173 A 
ATOM     96  C   UNL A   1      43.822  27.874  36.342  1.00  0.00     0.173 A 
ATOM     97  F   UNL A   1      45.444  30.405  34.291  1.00  0.00    -0.203 F 
ATOM     98  C   UNL A   1      46.357  28.888  35.846  1.00  0.00     0.198 A 
ATOM     99  C   UNL A   1      44.923  27.364  37.023  1.00  0.00     0.198 A 
ATOM    100  F   UNL A   1      42.608  27.365  36.602  1.00  0.00    -0.203 F 
ATOM    101  F   UNL A   1      47.584  29.361  35.585  1.00  0.00    -0.200 F 
ATOM    102  C   UNL A   1      46.190  27.869  36.772  1.00  0.00     0.200 A 
ATOM    103  F   UNL A   1      44.757  26.388  37.926  1.00  0.00    -0.200 F 
ATOM    104  F   UNL A   1      47.251  27.370  37.419  1.00  0.00    -0.200 F 
ENDBRANCH  71  94
ENDBRANCH  45  46
ENDBRANCH  37  40
ENDBRANCH  35  36
ENDBRANCH  34  35
ENDBRANCH  33  34
ENDBRANCH   1  33
TORSDOF 17
ENDMDL
MODEL 2
REMARK VINA RESULT:     -14.8      4.826      9.959
REMARK SMILES [NH3+][C@@]1(C(=O)NCCCCNC(=O)c2ccc(-c3c4nc(c(-c5c(F)c(F)c(F)c(F)c5F)c5ccc([nH]5)c(-c5c(F)c(F)c(F)c(F)c5F)c5nc(c(-c6c(F)c(F)c(F)c(F)c6F)c6ccc3[nH]6)C=C5)C=C4)cc2)CC[N@H+](Cc2ccc(OCC(=O)N3CCCCC3)cc2)C1
REMARK SMILES IDX 6 1 5 2 3 3 4 4 2 6 76 7 96 8 77 9 78 10 1 12 79 16 80 17
REMARK SMILES IDX 81 18 95 19 82 20 94 21 83 22 84 23 85 24 86 25 87 26 88 27
REMARK SMILES IDX 89 28 93 29 90 30 92 31 91 32 7 33 8 34 9 35 10 36 11 37
REMARK SMILES IDX 12 39 13 40 14 41 75 42 15 43 74 44 16 45 17 46 18 47 68 48
REMARK SMILES IDX 19 49 73 50 67 51 69 52 20 53 72 54 66 55 65 56 21 58 53 59
REMARK SMILES IDX 33 60 52 61 34 62 37 63 51 64 70 65 35 66 36 67 50 69 71 70
REMARK SMILES IDX 38 71 22 72 23 73 31 74 24 75 25 76 29 77 32 78 26 79 27 80
REMARK SMILES IDX 30 81 28 82 54 83 55 84 63 85 56 86 57 87 61 88 64 89 58 90
REMARK SMILES IDX 59 91 62 92 60 93 39 94 40 95 48 96 41 97 42 98 46 99 49 100
REMARK SMILES IDX 43 101 44 102 47 103 45 104
REMARK H PARENT 5 5 78 11 1 13 1 14 1 15 10 38 69 57 37 68
REMARK Flexibility Score: inf
ROOT
ATOM      1  C   UNL A   1      33.720  22.069  24.144  1.00  0.00     0.116 C 
ENDROOT
BRANCH   1   2
ATOM      2  N   UNL A   1      32.582  22.344  25.181  1.00  0.00    -0.350 N 
ATOM      3  C   UNL A   1      31.518  23.187  25.178  1.00  0.00     0.287 C 
ATOM      4  O   UNL A   1      30.611  22.869  25.968  1.00  0.00    -0.268 OA
ATOM      5  H   UNL A   1      32.651  21.798  25.998  1.00  0.00     0.163 HD
BRANCH   3   6
ATOM      6  C   UNL A   1      31.358  24.496  24.307  1.00  0.00     0.228 C 
ATOM      7  C   UNL A   1      32.627  24.984  23.615  1.00  0.00     0.146 C 
ATOM      8  C   UNL A   1      30.831  25.724  25.065  1.00  0.00     0.342 C 
ATOM      9  C   UNL A   1      32.957  26.353  24.211  1.00  0.00     0.270 C 
ATOM     10  N   UNL A   1      31.908  26.717  25.158  1.00  0.00    -0.325 N 
ATOM     11  H   UNL A   1      31.520  27.620  24.884  1.00  0.00     0.348 HD
BRANCH   6  12
ATOM     12  N   UNL A   1      30.367  24.130  23.236  1.00  0.00    -0.340 N 
ATOM     13  H   UNL A   1      29.799  24.945  23.005  1.00  0.00     0.345 HD
ATOM     14  H   UNL A   1      29.764  23.380  23.574  1.00  0.00     0.345 HD
ATOM     15  H   UNL A   1      30.866  23.816  22.404  1.00  0.00     0.345 HD
ENDBRANCH   6  12
BRANCH  10  16
ATOM     16  C   UNL A   1      32.356  27.076  26.498  1.00  0.00     0.299 C 
BRANCH  16  17
ATOM     17  C   UNL A   1      32.839  28.495  26.608  1.00  0.00     0.006 A 
ATOM     18  C   UNL A   1      31.610  29.816  26.505  1.00  0.00     0.013 A 
ATOM     19  C   UNL A   1      34.539  28.852  27.158  1.00  0.00     0.013 A 
ATOM     20  C   UNL A   1      32.088  31.504  26.902  1.00  0.00     0.047 A 
ATOM     21  C   UNL A   1      34.994  30.546  27.568  1.00  0.00     0.047 A 
ATOM     22  C   UNL A   1      33.748  31.856  27.492  1.00  0.00     0.120 A 
BRANCH  22  23
ATOM     23  O   UNL A   1      33.949  33.163  27.816  1.00  0.00    -0.484 OA
BRANCH  23  24
ATOM     24  C   UNL A   1      33.885  33.477  29.187  1.00  0.00     0.329 C 
BRANCH  24  25
ATOM     25  C   UNL A   1      33.330  34.841  29.647  1.00  0.00     0.260 C 
ATOM     26  O   UNL A   1      32.748  35.546  28.814  1.00  0.00    -0.271 OA
ATOM     27  N   UNL A   1      33.390  35.192  30.991  1.00  0.00    -0.340 N 
ATOM     28  C   UNL A   1      32.529  36.272  31.473  1.00  0.00     0.119 C 
ATOM     29  C   UNL A   1      34.185  34.538  32.033  1.00  0.00     0.119 C 
ATOM     30  C   UNL A   1      33.329  37.340  32.205  1.00  0.00     0.022 C 
ATOM     31  C   UNL A   1      34.989  35.556  32.852  1.00  0.00     0.022 C 
ATOM     32  C   UNL A   1      34.139  36.725  33.344  1.00  0.00     0.004 C 
ENDBRANCH  24  25
ENDBRANCH  23  24
ENDBRANCH  22  23
ENDBRANCH  16  17
ENDBRANCH  10  16
ENDBRANCH   3   6
ENDBRANCH   1   2
BRANCH   1  33
ATOM     33  C   UNL A   1      35.905  22.007  24.284  1.00  0.00     0.023 C 
BRANCH  33  34
ATOM     34  C   UNL A   1      37.094  20.899  24.822  1.00  0.00     0.023 C 
BRANCH  34  35
ATOM     35  C   UNL A   1      38.254  21.427  25.666  1.00  0.00     0.116 C 
BRANCH  35  36
ATOM     36  N   UNL A   1      39.312  20.460  25.950  1.00  0.00    -0.352 N 
ATOM     37  C   UNL A   1      40.465  20.705  26.663  1.00  0.00     0.251 C 
ATOM     38  H   UNL A   1      39.189  19.548  25.601  1.00  0.00     0.163 HD
ATOM     39  O   UNL A   1      41.336  19.863  26.829  1.00  0.00    -0.269 OA
BRANCH  37  40
ATOM     40  C   UNL A   1      40.618  22.071  27.190  1.00  0.00     0.039 A 
ATOM     41  C   UNL A   1      41.526  22.294  28.226  1.00  0.00     0.014 A 
ATOM     42  C   UNL A   1      40.056  23.126  26.471  1.00  0.00     0.014 A 
ATOM     43  C   UNL A   1      41.937  23.597  28.493  1.00  0.00     0.010 A 
ATOM     44  C   UNL A   1      40.530  24.413  26.686  1.00  0.00     0.010 A 
ATOM     45  C   UNL A   1      41.478  24.658  27.694  1.00  0.00    -0.014 A 
BRANCH  45  46
ATOM     46  C   UNL A   1      41.965  26.041  27.908  1.00  0.00     0.031 A 
ATOM     47  C   UNL A   1      43.296  26.444  27.342  1.00  0.00     0.074 A 
ATOM     48  C   UNL A   1      41.252  26.904  28.657  1.00  0.00     0.049 A 
ATOM     49  N   UNL A   1      43.933  27.581  27.454  1.00  0.00    -0.248 NA
ATOM     50  C   UNL A   1      44.027  25.417  26.584  1.00  0.00     0.031 C 
ATOM     51  C   UNL A   1      39.980  26.605  29.319  1.00  0.00     0.029 A 
ATOM     52  N   UNL A   1      41.499  28.211  28.993  1.00  0.00    -0.354 N 
ATOM     53  C   UNL A   1      45.143  27.395  26.800  1.00  0.00     0.074 A 
ATOM     54  C   UNL A   1      45.181  26.020  26.355  1.00  0.00     0.031 C 
ATOM     55  C   UNL A   1      39.544  27.707  29.952  1.00  0.00     0.029 A 
ATOM     56  C   UNL A   1      40.513  28.782  29.761  1.00  0.00     0.049 A 
ATOM     57  H   UNL A   1      42.309  28.696  28.709  1.00  0.00     0.167 HD
ATOM     58  C   UNL A   1      46.119  28.300  26.559  1.00  0.00     0.037 A 
ATOM     59  C   UNL A   1      40.405  30.036  30.242  1.00  0.00     0.037 A 
ATOM     60  C   UNL A   1      46.053  29.678  26.959  1.00  0.00     0.049 A 
ATOM     61  C   UNL A   1      41.484  31.036  29.923  1.00  0.00     0.074 A 
ATOM     62  C   UNL A   1      46.954  30.695  26.706  1.00  0.00     0.029 A 
ATOM     63  N   UNL A   1      45.014  30.233  27.693  1.00  0.00    -0.354 N 
ATOM     64  N   UNL A   1      42.586  30.873  29.233  1.00  0.00    -0.248 NA
ATOM     65  C   UNL A   1      41.298  32.401  30.439  1.00  0.00     0.031 C 
ATOM     66  C   UNL A   1      46.474  31.862  27.309  1.00  0.00     0.029 A 
ATOM     67  C   UNL A   1      45.257  31.578  27.908  1.00  0.00     0.049 A 
ATOM     68  H   UNL A   1      44.223  29.741  28.014  1.00  0.00     0.167 HD
ATOM     69  C   UNL A   1      43.209  32.114  29.205  1.00  0.00     0.074 A 
ATOM     70  C   UNL A   1      42.355  33.025  29.939  1.00  0.00     0.031 C 
ATOM     71  C   UNL A   1      44.380  32.469  28.624  1.00  0.00     0.037 A 
BRANCH  58  72
ATOM     72  C   UNL A   1      47.326  27.821  25.810  1.00  0.00     0.064 A 
ATOM     73  C   UNL A   1      47.347  27.779  24.408  1.00  0.00     0.173 A 
ATOM     74  C   UNL A   1      48.472  27.400  26.499  1.00  0.00     0.173 A 
ATOM     75  F   UNL A   1      46.268  28.156  23.704  1.00  0.00    -0.203 F 
ATOM     76  C   UNL A   1      48.458  27.297  23.723  1.00  0.00     0.198 A 
ATOM     77  C   UNL A   1      49.594  26.946  25.809  1.00  0.00     0.198 A 
ATOM     78  F   UNL A   1      48.503  27.422  27.839  1.00  0.00    -0.203 F 
ATOM     79  F   UNL A   1      48.432  27.209  22.386  1.00  0.00    -0.200 F 
ATOM     80  C   UNL A   1      49.582  26.886  24.423  1.00  0.00     0.200 A 
ATOM     81  F   UNL A   1      50.683  26.557  26.487  1.00  0.00    -0.200 F 
ATOM     82  F   UNL A   1      50.651  26.421  23.763  1.00  0.00    -0.200 F 
ENDBRANCH  58  72
BRANCH  59  83
ATOM     83  C   UNL A   1      39.208  30.434  31.028  1.00  0.00     0.064 A 
ATOM     84  C   UNL A   1      38.091  30.998  30.395  1.00  0.00     0.173 A 
ATOM     85  C   UNL A   1      39.159  30.277  32.420  1.00  0.00     0.173 A 
ATOM     86  F   UNL A   1      38.099  31.186  29.067  1.00  0.00    -0.203 F 
ATOM     87  C   UNL A   1      36.980  31.410  31.127  1.00  0.00     0.198 A 
ATOM     88  C   UNL A   1      38.037  30.669  33.149  1.00  0.00     0.198 A 
ATOM     89  F   UNL A   1      40.201  29.739  33.073  1.00  0.00    -0.203 F 
ATOM     90  F   UNL A   1      35.944  31.986  30.502  1.00  0.00    -0.200 F 
ATOM     91  C   UNL A   1      36.952  31.242  32.503  1.00  0.00     0.200 A 
ATOM     92  F   UNL A   1      38.009  30.496  34.477  1.00  0.00    -0.200 F 
ATOM     93  F   UNL A   1      35.884  31.640  33.208  1.00  0.00    -0.200 F 
ENDBRANCH  59  83
BRANCH  71  94
ATOM     94  C   UNL A   1      44.793  33.906  28.724  1.00  0.00     0.064 A 
ATOM     95  C   UNL A   1      45.610  34.363  29.766  1.00  0.00     0.173 A 
ATOM     96  C   UNL A   1      44.418  34.820  27.727  1.00  0.00     0.173 A 
ATOM     97  F   UNL A   1      45.982  33.528  30.749  1.00  0.00    -0.203 F 
ATOM     98  C   UNL A   1      46.028  35.690  29.814  1.00  0.00     0.198 A 
ATOM     99  C   UNL A   1      44.858  36.140  27.766  1.00  0.00     0.198 A 
ATOM    100  F   UNL A   1      43.641  34.426  26.707  1.00  0.00    -0.203 F 
ATOM    101  F   UNL A   1      46.782  36.115  30.837  1.00  0.00    -0.200 F 
ATOM    102  C   UNL A   1      45.660  36.574  28.811  1.00  0.00     0.200 A 
ATOM    103  F   UNL A   1      44.511  36.989  26.789  1.00  0.00    -0.200 F 
ATOM    104  F   UNL A   1      46.073  37.848  28.853  1.00  0.00    -0.200 F 
ENDBRANCH  71  94
ENDBRANCH  45  46
ENDBRANCH  37  40
ENDBRANCH  35  36
ENDBRANCH  34  35
ENDBRANCH  33  34
ENDBRANCH   1  33
TORSDOF 17
ENDMDL
MODEL 3
REMARK VINA RESULT:     -14.8      0.754      7.245
REMARK SMILES [NH3+][C@@]1(C(=O)NCCCCNC(=O)c2ccc(-c3c4nc(c(-c5c(F)c(F)c(F)c(F)c5F)c5ccc([nH]5)c(-c5c(F)c(F)c(F)c(F)c5F)c5nc(c(-c6c(F)c(F)c(F)c(F)c6F)c6ccc3[nH]6)C=C5)C=C4)cc2)CC[N@H+](Cc2ccc(OCC(=O)N3CCCCC3)cc2)C1
REMARK SMILES IDX 6 1 5 2 3 3 4 4 2 6 76 7 96 8 77 9 78 10 1 12 79 16 80 17
REMARK SMILES IDX 81 18 95 19 82 20 94 21 83 22 84 23 85 24 86 25 87 26 88 27
REMARK SMILES IDX 89 28 93 29 90 30 92 31 91 32 7 33 8 34 9 35 10 36 11 37
REMARK SMILES IDX 12 39 13 40 14 41 75 42 15 43 74 44 16 45 17 46 18 47 68 48
REMARK SMILES IDX 19 49 73 50 67 51 69 52 20 53 72 54 66 55 65 56 21 58 53 59
REMARK SMILES IDX 33 60 52 61 34 62 37 63 51 64 70 65 35 66 36 67 50 69 71 70
REMARK SMILES IDX 38 71 22 72 23 73 31 74 24 75 25 76 29 77 32 78 26 79 27 80
REMARK SMILES IDX 30 81 28 82 54 83 55 84 63 85 56 86 57 87 61 88 64 89 58 90
REMARK SMILES IDX 59 91 62 92 60 93 39 94 40 95 48 96 41 97 42 98 46 99 49 100
REMARK SMILES IDX 43 101 44 102 47 103 45 104
REMARK H PARENT 5 5 78 11 1 13 1 14 1 15 10 38 69 57 37 68
REMARK Flexibility Score: inf
ROOT
ATOM      1  C   UNL A   1      29.997  31.626  24.720  1.00  0.00     0.116 C 
ENDROOT
BRANCH   1   2
ATOM      2  N   UNL A   1      29.471  32.577  23.596  1.00  0.00    -0.350 N 
ATOM      3  C   UNL A   1      28.677  32.374  22.514  1.00  0.00     0.287 C 
ATOM      4  O   UNL A   1      28.145  33.406  22.068  1.00  0.00    -0.268 OA
ATOM      5  H   UNL A   1      29.777  33.509  23.692  1.00  0.00     0.163 HD
BRANCH   3   6
ATOM      6  C   UNL A   1      28.407  30.994  21.793  1.00  0.00     0.228 C 
ATOM      7  C   UNL A   1      27.577  29.989  22.585  1.00  0.00     0.146 C 
ATOM      8  C   UNL A   1      29.665  30.217  21.378  1.00  0.00     0.342 C 
ATOM      9  C   UNL A   1      28.479  28.786  22.857  1.00  0.00     0.270 C 
ATOM     10  N   UNL A   1      29.765  29.007  22.203  1.00  0.00    -0.325 N 
ATOM     11  H   UNL A   1      29.953  28.222  21.579  1.00  0.00     0.348 HD
BRANCH   6  12
ATOM     12  N   UNL A   1      27.631  31.350  20.554  1.00  0.00    -0.340 N 
ATOM     13  H   UNL A   1      27.323  30.496  20.089  1.00  0.00     0.345 HD
ATOM     14  H   UNL A   1      28.226  31.886  19.923  1.00  0.00     0.345 HD
ATOM     15  H   UNL A   1      26.817  31.909  20.811  1.00  0.00     0.345 HD
ENDBRANCH   6  12
BRANCH  10  16
ATOM     16  C   UNL A   1      30.943  28.889  23.054  1.00  0.00     0.299 C 
BRANCH  16  17
ATOM     17  C   UNL A   1      31.156  27.500  23.590  1.00  0.00     0.006 A 
ATOM     18  C   UNL A   1      30.882  27.225  25.355  1.00  0.00     0.013 A 
ATOM     19  C   UNL A   1      31.352  26.090  22.452  1.00  0.00     0.013 A 
ATOM     20  C   UNL A   1      30.853  25.545  25.997  1.00  0.00     0.047 A 
ATOM     21  C   UNL A   1      31.303  24.415  23.111  1.00  0.00     0.047 A 
ATOM     22  C   UNL A   1      30.996  24.150  24.874  1.00  0.00     0.120 A 
BRANCH  22  23
ATOM     23  O   UNL A   1      30.893  22.939  25.489  1.00  0.00    -0.484 OA
BRANCH  23  24
ATOM     24  C   UNL A   1      32.106  22.328  25.861  1.00  0.00     0.329 C 
BRANCH  24  25
ATOM     25  C   UNL A   1      33.180  22.022  24.797  1.00  0.00     0.260 C 
ATOM     26  O   UNL A   1      32.946  21.132  23.971  1.00  0.00    -0.271 OA
ATOM     27  N   UNL A   1      34.316  22.819  24.715  1.00  0.00    -0.340 N 
ATOM     28  C   UNL A   1      35.113  22.781  23.489  1.00  0.00     0.119 C 
ATOM     29  C   UNL A   1      34.786  23.781  25.715  1.00  0.00     0.119 C 
ATOM     30  C   UNL A   1      36.577  22.490  23.783  1.00  0.00     0.022 C 
ATOM     31  C   UNL A   1      36.273  23.583  26.034  1.00  0.00     0.022 C 
ATOM     32  C   UNL A   1      37.141  23.496  24.781  1.00  0.00     0.004 C 
ENDBRANCH  24  25
ENDBRANCH  23  24
ENDBRANCH  22  23
ENDBRANCH  16  17
ENDBRANCH  10  16
ENDBRANCH   3   6
ENDBRANCH   1   2
BRANCH   1  33
ATOM     33  C   UNL A   1      31.025  31.963  26.624  1.00  0.00     0.023 C 
BRANCH  33  34
ATOM     34  C   UNL A   1      32.591  31.698  27.266  1.00  0.00     0.023 C 
BRANCH  34  35
ATOM     35  C   UNL A   1      33.505  32.904  27.481  1.00  0.00     0.116 C 
BRANCH  35  36
ATOM     36  N   UNL A   1      32.824  34.153  27.815  1.00  0.00    -0.352 N 
ATOM     37  C   UNL A   1      33.153  35.006  28.846  1.00  0.00     0.251 C 
ATOM     38  H   UNL A   1      32.060  34.410  27.251  1.00  0.00     0.163 HD
ATOM     39  O   UNL A   1      32.514  36.015  29.103  1.00  0.00    -0.269 OA
BRANCH  37  40
ATOM     40  C   UNL A   1      34.310  34.609  29.664  1.00  0.00     0.039 A 
ATOM     41  C   UNL A   1      34.099  33.794  30.777  1.00  0.00     0.014 A 
ATOM     42  C   UNL A   1      35.591  34.838  29.158  1.00  0.00     0.014 A 
ATOM     43  C   UNL A   1      35.186  33.133  31.344  1.00  0.00     0.010 A 
ATOM     44  C   UNL A   1      36.656  34.114  29.675  1.00  0.00     0.010 A 
ATOM     45  C   UNL A   1      36.462  33.251  30.767  1.00  0.00    -0.014 A 
BRANCH  45  46
ATOM     46  C   UNL A   1      37.615  32.493  31.305  1.00  0.00     0.031 A 
ATOM     47  C   UNL A   1      38.157  32.846  32.660  1.00  0.00     0.074 A 
ATOM     48  C   UNL A   1      38.210  31.543  30.558  1.00  0.00     0.049 A 
ATOM     49  N   UNL A   1      39.186  32.348  33.296  1.00  0.00    -0.248 NA
ATOM     50  C   UNL A   1      37.474  33.933  33.378  1.00  0.00     0.031 C 
ATOM     51  C   UNL A   1      37.820  31.161  29.199  1.00  0.00     0.029 A 
ATOM     52  N   UNL A   1      39.277  30.726  30.836  1.00  0.00    -0.354 N 
ATOM     53  C   UNL A   1      39.282  33.076  34.473  1.00  0.00     0.074 A 
ATOM     54  C   UNL A   1      38.254  34.091  34.434  1.00  0.00     0.031 C 
ATOM     55  C   UNL A   1      38.614  30.164  28.776  1.00  0.00     0.029 A 
ATOM     56  C   UNL A   1      39.583  29.850  29.823  1.00  0.00     0.049 A 
ATOM     57  H   UNL A   1      39.778  30.765  31.683  1.00  0.00     0.167 HD
ATOM     58  C   UNL A   1      40.129  32.890  35.512  1.00  0.00     0.037 A 
ATOM     59  C   UNL A   1      40.531  28.895  29.758  1.00  0.00     0.037 A 
ATOM     60  C   UNL A   1      41.114  31.847  35.568  1.00  0.00     0.049 A 
ATOM     61  C   UNL A   1      41.432  28.679  30.945  1.00  0.00     0.074 A 
ATOM     62  C   UNL A   1      41.975  31.526  36.602  1.00  0.00     0.029 A 
ATOM     63  N   UNL A   1      41.361  30.945  34.543  1.00  0.00    -0.354 N 
ATOM     64  N   UNL A   1      41.463  29.319  32.089  1.00  0.00    -0.248 NA
ATOM     65  C   UNL A   1      42.424  27.599  30.838  1.00  0.00     0.031 C 
ATOM     66  C   UNL A   1      42.763  30.446  36.192  1.00  0.00     0.029 A 
ATOM     67  C   UNL A   1      42.368  30.072  34.917  1.00  0.00     0.049 A 
ATOM     68  H   UNL A   1      40.891  30.930  33.678  1.00  0.00     0.167 HD
ATOM     69  C   UNL A   1      42.449  28.703  32.847  1.00  0.00     0.074 A 
ATOM     70  C   UNL A   1      42.988  27.630  32.038  1.00  0.00     0.031 C 
ATOM     71  C   UNL A   1      42.872  28.998  34.100  1.00  0.00     0.037 A 
BRANCH  58  72
ATOM     72  C   UNL A   1      40.001  33.827  36.675  1.00  0.00     0.064 A 
ATOM     73  C   UNL A   1      39.132  33.554  37.743  1.00  0.00     0.173 A 
ATOM     74  C   UNL A   1      40.751  35.011  36.723  1.00  0.00     0.173 A 
ATOM     75  F   UNL A   1      38.379  32.443  37.733  1.00  0.00    -0.203 F 
ATOM     76  C   UNL A   1      38.992  34.450  38.799  1.00  0.00     0.198 A 
ATOM     77  C   UNL A   1      40.631  35.890  37.796  1.00  0.00     0.198 A 
ATOM     78  F   UNL A   1      41.597  35.317  35.728  1.00  0.00    -0.203 F 
ATOM     79  F   UNL A   1      38.111  34.196  39.777  1.00  0.00    -0.200 F 
ATOM     80  C   UNL A   1      39.745  35.613  38.827  1.00  0.00     0.200 A 
ATOM     81  F   UNL A   1      41.366  37.010  37.828  1.00  0.00    -0.200 F 
ATOM     82  F   UNL A   1      39.609  36.475  39.844  1.00  0.00    -0.200 F 
ENDBRANCH  58  72
BRANCH  59  83
ATOM     83  C   UNL A   1      40.644  28.034  28.552  1.00  0.00     0.064 A 
ATOM     84  C   UNL A   1      39.978  26.802  28.488  1.00  0.00     0.173 A 
ATOM     85  C   UNL A   1      41.427  28.411  27.452  1.00  0.00     0.173 A 
ATOM     86  F   UNL A   1      39.234  26.389  29.524  1.00  0.00    -0.203 F 
ATOM     87  C   UNL A   1      40.109  25.969  27.378  1.00  0.00     0.198 A 
ATOM     88  C   UNL A   1      41.538  27.588  26.333  1.00  0.00     0.198 A 
ATOM     89  F   UNL A   1      42.081  29.582  27.463  1.00  0.00    -0.203 F 
ATOM     90  F   UNL A   1      39.497  24.777  27.361  1.00  0.00    -0.200 F 
ATOM     91  C   UNL A   1      40.886  26.365  26.300  1.00  0.00     0.200 A 
ATOM     92  F   UNL A   1      42.282  27.978  25.288  1.00  0.00    -0.200 F 
ATOM     93  F   UNL A   1      41.013  25.564  25.234  1.00  0.00    -0.200 F 
ENDBRANCH  59  83
BRANCH  71  94
ATOM     94  C   UNL A   1      43.942  28.130  34.690  1.00  0.00     0.064 A 
ATOM     95  C   UNL A   1      43.633  26.939  35.360  1.00  0.00     0.173 A 
ATOM     96  C   UNL A   1      45.294  28.465  34.525  1.00  0.00     0.173 A 
ATOM     97  F   UNL A   1      42.353  26.586  35.554  1.00  0.00    -0.203 F 
ATOM     98  C   UNL A   1      44.642  26.119  35.856  1.00  0.00     0.198 A 
ATOM     99  C   UNL A   1      46.301  27.630  35.000  1.00  0.00     0.198 A 
ATOM    100  F   UNL A   1      45.639  29.593  33.884  1.00  0.00    -0.203 F 
ATOM    101  F   UNL A   1      44.325  25.000  36.522  1.00  0.00    -0.200 F 
ATOM    102  C   UNL A   1      45.974  26.459  35.669  1.00  0.00     0.200 A 
ATOM    103  F   UNL A   1      47.587  27.955  34.807  1.00  0.00    -0.200 F 
ATOM    104  F   UNL A   1      46.943  25.662  36.136  1.00  0.00    -0.200 F 
ENDBRANCH  71  94
ENDBRANCH  45  46
ENDBRANCH  37  40
ENDBRANCH  35  36
ENDBRANCH  34  35
ENDBRANCH  33  34
ENDBRANCH   1  33
TORSDOF 17
ENDMDL
