MODEL 1
REMARK VINA RESULT:     -12.4      0.000      0.000
REMARK SMILES CCCCCCNC(=O)Oc1cccc(-c2ccc([C@@H](C)C(=O)NCCCCNC(=O)c3ccc(-c4c5nc(c(-c6c(F)c(F)c(F)c(F)c6F)c6ccc([nH]6)c(-c6c(F)c(F)c(F)c(F)c6F)c6nc(c(-c7c(F)c(F)c(F)c(F)c7F)c7ccc4[nH]7)C=C6)C=C5)cc3)cc2[N+](=O)[O-])c1
REMARK SMILES IDX 20 1 21 2 19 3 16 4 17 5 96 6 18 7 95 8 15 9 11 10 12 11
REMARK SMILES IDX 100 12 13 13 14 14 10 15 8 16 7 17 9 19 6 20 5 21 4 22 3 23
REMARK SMILES IDX 2 24 1 25 97 26 98 27 99 28 22 29 23 30 24 31 25 33 26 34
REMARK SMILES IDX 27 35 28 36 29 37 30 38 31 40 32 41 33 42 94 43 34 44 93 45
REMARK SMILES IDX 35 46 36 47 37 48 87 49 38 50 92 51 86 52 88 53 39 54 91 55
REMARK SMILES IDX 85 56 84 57 40 59 72 60 52 61 71 62 53 63 56 64 70 65 89 66
REMARK SMILES IDX 54 67 55 68 69 70 90 71 57 72 41 73 42 74 50 75 43 76 44 77
REMARK SMILES IDX 48 78 51 79 45 80 46 81 49 82 47 83 73 84 74 85 82 86 75 87
REMARK SMILES IDX 76 88 80 89 83 90 77 91 78 92 81 93 79 94 58 95 59 96 67 97
REMARK SMILES IDX 60 98 61 99 65 100 68 101 62 102 63 103 66 104 64 105
REMARK H PARENT 7 18 24 32 29 39 88 58 56 69
REMARK Flexibility Score: inf
ROOT
ATOM      1  C   UNL A   1      28.989  28.818  22.761  1.00  0.00     0.105 C 
ATOM      2  C   UNL A   1      27.576  28.536  23.268  1.00  0.00     0.023 C 
ENDROOT
BRANCH   1   3
ATOM      3  C   UNL A   1      30.015  27.731  23.050  1.00  0.00    -0.029 A 
ATOM      4  C   UNL A   1      32.083  25.835  23.703  1.00  0.00     0.060 A 
ATOM      5  C   UNL A   1      30.864  25.889  24.403  1.00  0.00     0.016 A 
ATOM      6  C   UNL A   1      32.190  26.706  22.601  1.00  0.00     0.277 A 
ATOM      7  C   UNL A   1      29.837  26.774  24.049  1.00  0.00     0.005 A 
ATOM      8  C   UNL A   1      31.200  27.670  22.305  1.00  0.00     0.090 A 
BRANCH   4   9
ATOM      9  C   UNL A   1      33.136  24.909  24.183  1.00  0.00    -0.008 A 
ATOM     10  C   UNL A   1      34.170  22.711  24.291  1.00  0.00     0.133 A 
ATOM     11  C   UNL A   1      35.181  23.186  25.120  1.00  0.00     0.047 A 
ATOM     12  C   UNL A   1      33.168  23.556  23.806  1.00  0.00     0.056 A 
ATOM     13  C   UNL A   1      35.190  24.528  25.475  1.00  0.00     0.004 A 
ATOM     14  C   UNL A   1      34.171  25.373  25.025  1.00  0.00     0.009 A 
BRANCH  10  15
ATOM     15  O   UNL A   1      34.108  21.316  24.122  1.00  0.00    -0.410 OA
BRANCH  15  16
ATOM     16  C   UNL A   1      33.307  20.541  24.946  1.00  0.00     0.412 C 
ATOM     17  N   UNL A   1      32.310  19.902  24.261  1.00  0.00    -0.321 N 
ATOM     18  H   UNL A   1      31.664  19.387  24.795  1.00  0.00     0.167 HD
ATOM     19  O   UNL A   1      33.434  20.416  26.157  1.00  0.00    -0.224 OA
BRANCH  17  20
ATOM     20  C   UNL A   1      32.113  19.909  22.822  1.00  0.00     0.119 C 
BRANCH  20  21
ATOM     21  C   UNL A   1      32.353  18.531  22.204  1.00  0.00     0.021 C 
BRANCH  21  22
ATOM     22  C   UNL A   1      32.732  17.433  23.205  1.00  0.00     0.002 C 
BRANCH  22  23
ATOM     23  C   UNL A   1      34.197  16.986  23.172  1.00  0.00    -0.000 C 
BRANCH  23  24
ATOM     24  C   UNL A   1      34.917  16.998  24.523  1.00  0.00    -0.003 C 
ATOM     25  C   UNL A   1      34.535  15.828  25.417  1.00  0.00     0.004 C 
ENDBRANCH  23  24
ENDBRANCH  22  23
ENDBRANCH  21  22
ENDBRANCH  20  21
ENDBRANCH  17  20
ENDBRANCH  15  16
ENDBRANCH  10  15
ENDBRANCH   4   9
BRANCH   6  26
ATOM     26  N   UNL A   1      33.295  26.597  21.652  1.00  0.00     0.063 N 
ATOM     27  O   UNL A   1      34.128  27.514  21.644  1.00  0.00    -0.258 OA
ATOM     28  O   UNL A   1      33.296  25.629  20.878  1.00  0.00    -0.258 OA
ENDBRANCH   6  26
ENDBRANCH   1   3
BRANCH   1  29
ATOM     29  C   UNL A   1      29.491  30.244  23.048  1.00  0.00     0.227 C 
ATOM     30  O   UNL A   1      29.169  31.170  22.293  1.00  0.00    -0.274 OA
ATOM     31  N   UNL A   1      30.274  30.582  24.108  1.00  0.00    -0.356 N 
ATOM     32  H   UNL A   1      30.432  31.549  24.198  1.00  0.00     0.163 HD
BRANCH  31  33
ATOM     33  C   UNL A   1      30.917  29.782  25.128  1.00  0.00     0.116 C 
BRANCH  33  34
ATOM     34  C   UNL A   1      32.134  30.493  25.724  1.00  0.00     0.023 C 
BRANCH  34  35
ATOM     35  C   UNL A   1      31.833  31.414  26.902  1.00  0.00     0.023 C 
BRANCH  35  36
ATOM     36  C   UNL A   1      32.951  32.381  27.267  1.00  0.00     0.116 C 
BRANCH  36  37
ATOM     37  N   UNL A   1      32.504  33.745  27.515  1.00  0.00    -0.352 N 
ATOM     38  C   UNL A   1      33.002  34.648  28.427  1.00  0.00     0.251 C 
ATOM     39  H   UNL A   1      31.753  34.060  26.962  1.00  0.00     0.163 HD
ATOM     40  O   UNL A   1      32.477  35.745  28.577  1.00  0.00    -0.269 OA
BRANCH  38  41
ATOM     41  C   UNL A   1      34.151  34.250  29.264  1.00  0.00     0.039 A 
ATOM     42  C   UNL A   1      33.927  33.447  30.384  1.00  0.00     0.014 A 
ATOM     43  C   UNL A   1      35.451  34.602  28.890  1.00  0.00     0.014 A 
ATOM     44  C   UNL A   1      35.015  32.924  31.082  1.00  0.00     0.010 A 
ATOM     45  C   UNL A   1      36.531  34.012  29.533  1.00  0.00     0.010 A 
ATOM     46  C   UNL A   1      36.324  33.166  30.634  1.00  0.00    -0.014 A 
BRANCH  46  47
ATOM     47  C   UNL A   1      37.495  32.537  31.292  1.00  0.00     0.031 A 
ATOM     48  C   UNL A   1      38.196  31.382  30.635  1.00  0.00     0.074 A 
ATOM     49  C   UNL A   1      37.867  32.943  32.521  1.00  0.00     0.049 A 
ATOM     50  N   UNL A   1      39.183  30.648  31.082  1.00  0.00    -0.248 NA
ATOM     51  C   UNL A   1      37.691  30.971  29.316  1.00  0.00     0.031 C 
ATOM     52  C   UNL A   1      37.216  34.002  33.295  1.00  0.00     0.029 A 
ATOM     53  N   UNL A   1      38.873  32.501  33.344  1.00  0.00    -0.354 N 
ATOM     54  C   UNL A   1      39.398  29.678  30.114  1.00  0.00     0.074 A 
ATOM     55  C   UNL A   1      38.403  29.879  29.083  1.00  0.00     0.031 C 
ATOM     56  C   UNL A   1      37.849  34.139  34.470  1.00  0.00     0.029 A 
ATOM     57  C   UNL A   1      38.929  33.160  34.547  1.00  0.00     0.049 A 
ATOM     58  H   UNL A   1      39.494  31.779  33.094  1.00  0.00     0.167 HD
ATOM     59  C   UNL A   1      40.355  28.720  30.076  1.00  0.00     0.037 A 
ATOM     60  C   UNL A   1      39.757  32.991  35.595  1.00  0.00     0.037 A 
ATOM     61  C   UNL A   1      41.365  28.551  31.086  1.00  0.00     0.049 A 
ATOM     62  C   UNL A   1      40.839  31.949  35.515  1.00  0.00     0.074 A 
ATOM     63  C   UNL A   1      42.438  27.678  31.096  1.00  0.00     0.029 A 
ATOM     64  N   UNL A   1      41.421  29.269  32.272  1.00  0.00    -0.354 N 
ATOM     65  N   UNL A   1      41.097  31.099  34.550  1.00  0.00    -0.248 NA
ATOM     66  C   UNL A   1      41.751  31.850  36.661  1.00  0.00     0.031 C 
ATOM     67  C   UNL A   1      43.117  27.836  32.310  1.00  0.00     0.029 A 
ATOM     68  C   UNL A   1      42.496  28.841  33.035  1.00  0.00     0.049 A 
ATOM     69  H   UNL A   1      40.791  29.978  32.533  1.00  0.00     0.167 HD
ATOM     70  C   UNL A   1      42.208  30.378  34.962  1.00  0.00     0.074 A 
ATOM     71  C   UNL A   1      42.587  30.903  36.258  1.00  0.00     0.031 C 
ATOM     72  C   UNL A   1      42.856  29.372  34.325  1.00  0.00     0.037 A 
BRANCH  59  73
ATOM     73  C   UNL A   1      40.348  27.786  28.901  1.00  0.00     0.064 A 
ATOM     74  C   UNL A   1      39.635  26.577  28.922  1.00  0.00     0.173 A 
ATOM     75  C   UNL A   1      41.060  28.106  27.736  1.00  0.00     0.173 A 
ATOM     76  F   UNL A   1      38.947  26.217  30.016  1.00  0.00    -0.203 F 
ATOM     77  C   UNL A   1      39.671  25.703  27.837  1.00  0.00     0.198 A 
ATOM     78  C   UNL A   1      41.066  27.246  26.640  1.00  0.00     0.198 A 
ATOM     79  F   UNL A   1      41.755  29.250  27.659  1.00  0.00    -0.203 F 
ATOM     80  F   UNL A   1      39.036  24.525  27.907  1.00  0.00    -0.200 F 
ATOM     81  C   UNL A   1      40.381  26.041  26.696  1.00  0.00     0.200 A 
ATOM     82  F   UNL A   1      41.745  27.577  25.533  1.00  0.00    -0.200 F 
ATOM     83  F   UNL A   1      40.418  25.199  25.654  1.00  0.00    -0.200 F 
ENDBRANCH  59  73
BRANCH  60  84
ATOM     84  C   UNL A   1      39.612  33.858  36.791  1.00  0.00     0.064 A 
ATOM     85  C   UNL A   1      38.852  33.442  37.893  1.00  0.00     0.173 A 
ATOM     86  C   UNL A   1      40.255  35.101  36.873  1.00  0.00     0.173 A 
ATOM     87  F   UNL A   1      38.204  32.268  37.854  1.00  0.00    -0.203 F 
ATOM     88  C   UNL A   1      38.731  34.242  39.027  1.00  0.00     0.198 A 
ATOM     89  C   UNL A   1      40.153  35.890  38.018  1.00  0.00     0.198 A 
ATOM     90  F   UNL A   1      41.000  35.540  35.849  1.00  0.00    -0.203 F 
ATOM     91  F   UNL A   1      37.972  33.834  40.054  1.00  0.00    -0.200 F 
ATOM     92  C   UNL A   1      39.388  35.461  39.092  1.00  0.00     0.200 A 
ATOM     93  F   UNL A   1      40.801  37.061  38.082  1.00  0.00    -0.200 F 
ATOM     94  F   UNL A   1      39.281  36.225  40.188  1.00  0.00    -0.200 F 
ENDBRANCH  60  84
BRANCH  72  95
ATOM     95  C   UNL A   1      44.055  28.785  35.010  1.00  0.00     0.064 A 
ATOM     96  C   UNL A   1      45.350  29.265  34.763  1.00  0.00     0.173 A 
ATOM     97  C   UNL A   1      43.902  27.761  35.958  1.00  0.00     0.173 A 
ATOM     98  F   UNL A   1      45.549  30.232  33.855  1.00  0.00    -0.203 F 
ATOM     99  C   UNL A   1      46.450  28.727  35.425  1.00  0.00     0.198 A 
ATOM    100  C   UNL A   1      45.001  27.246  36.638  1.00  0.00     0.198 A 
ATOM    101  F   UNL A   1      42.685  27.272  36.234  1.00  0.00    -0.203 F 
ATOM    102  F   UNL A   1      47.683  29.171  35.144  1.00  0.00    -0.200 F 
ATOM    103  C   UNL A   1      46.275  27.725  36.367  1.00  0.00     0.200 A 
ATOM    104  F   UNL A   1      44.829  26.287  37.558  1.00  0.00    -0.200 F 
ATOM    105  F   UNL A   1      47.334  27.214  37.010  1.00  0.00    -0.200 F 
ENDBRANCH  72  95
ENDBRANCH  46  47
ENDBRANCH  38  41
ENDBRANCH  36  37
ENDBRANCH  35  36
ENDBRANCH  34  35
ENDBRANCH  33  34
ENDBRANCH  31  33
ENDBRANCH   1  29
TORSDOF 21
ENDMDL
MODEL 2
REMARK VINA RESULT:     -12.1      1.044      2.257
REMARK SMILES CCCCCCNC(=O)Oc1cccc(-c2ccc([C@@H](C)C(=O)NCCCCNC(=O)c3ccc(-c4c5nc(c(-c6c(F)c(F)c(F)c(F)c6F)c6ccc([nH]6)c(-c6c(F)c(F)c(F)c(F)c6F)c6nc(c(-c7c(F)c(F)c(F)c(F)c7F)c7ccc4[nH]7)C=C6)C=C5)cc3)cc2[N+](=O)[O-])c1
REMARK SMILES IDX 20 1 21 2 19 3 16 4 17 5 96 6 18 7 95 8 15 9 11 10 12 11
REMARK SMILES IDX 100 12 13 13 14 14 10 15 8 16 7 17 9 19 6 20 5 21 4 22 3 23
REMARK SMILES IDX 2 24 1 25 97 26 98 27 99 28 22 29 23 30 24 31 25 33 26 34
REMARK SMILES IDX 27 35 28 36 29 37 30 38 31 40 32 41 33 42 94 43 34 44 93 45
REMARK SMILES IDX 35 46 36 47 37 48 87 49 38 50 92 51 86 52 88 53 39 54 91 55
REMARK SMILES IDX 85 56 84 57 40 59 72 60 52 61 71 62 53 63 56 64 70 65 89 66
REMARK SMILES IDX 54 67 55 68 69 70 90 71 57 72 41 73 42 74 50 75 43 76 44 77
REMARK SMILES IDX 48 78 51 79 45 80 46 81 49 82 47 83 73 84 74 85 82 86 75 87
REMARK SMILES IDX 76 88 80 89 83 90 77 91 78 92 81 93 79 94 58 95 59 96 67 97
REMARK SMILES IDX 60 98 61 99 65 100 68 101 62 102 63 103 66 104 64 105
REMARK H PARENT 7 18 24 32 29 39 88 58 56 69
REMARK Flexibility Score: inf
ROOT
ATOM      1  C   UNL A   1      29.846  27.748  22.881  1.00  0.00     0.105 C 
ATOM      2  C   UNL A   1      28.478  27.599  23.544  1.00  0.00     0.023 C 
ENDROOT
BRANCH   1   3
ATOM      3  C   UNL A   1      30.953  26.883  23.467  1.00  0.00    -0.029 A 
ATOM      4  C   UNL A   1      32.975  25.075  24.438  1.00  0.00     0.060 A 
ATOM      5  C   UNL A   1      33.264  26.108  23.528  1.00  0.00     0.016 A 
ATOM      6  C   UNL A   1      31.650  25.038  24.914  1.00  0.00     0.277 A 
ATOM      7  C   UNL A   1      32.292  27.021  23.100  1.00  0.00     0.005 A 
ATOM      8  C   UNL A   1      30.644  25.891  24.407  1.00  0.00     0.090 A 
BRANCH   4   9
ATOM      9  C   UNL A   1      34.051  24.118  24.791  1.00  0.00    -0.008 A 
ATOM     10  C   UNL A   1      35.010  21.884  24.807  1.00  0.00     0.133 A 
ATOM     11  C   UNL A   1      36.143  22.335  25.477  1.00  0.00     0.047 A 
ATOM     12  C   UNL A   1      33.981  22.758  24.445  1.00  0.00     0.056 A 
ATOM     13  C   UNL A   1      36.250  23.682  25.795  1.00  0.00     0.004 A 
ATOM     14  C   UNL A   1      35.209  24.558  25.469  1.00  0.00     0.009 A 
BRANCH  10  15
ATOM     15  O   UNL A   1      34.874  20.490  24.684  1.00  0.00    -0.410 OA
BRANCH  15  16
ATOM     16  C   UNL A   1      34.007  19.789  25.507  1.00  0.00     0.412 C 
ATOM     17  N   UNL A   1      34.053  18.439  25.291  1.00  0.00    -0.321 N 
ATOM     18  H   UNL A   1      33.413  17.887  25.796  1.00  0.00     0.167 HD
ATOM     19  O   UNL A   1      33.259  20.280  26.343  1.00  0.00    -0.224 OA
BRANCH  17  20
ATOM     20  C   UNL A   1      34.953  17.740  24.392  1.00  0.00     0.119 C 
BRANCH  20  21
ATOM     21  C   UNL A   1      34.209  17.091  23.225  1.00  0.00     0.021 C 
BRANCH  21  22
ATOM     22  C   UNL A   1      32.708  17.403  23.165  1.00  0.00     0.002 C 
BRANCH  22  23
ATOM     23  C   UNL A   1      32.302  18.500  22.174  1.00  0.00    -0.000 C 
BRANCH  23  24
ATOM     24  C   UNL A   1      31.968  19.856  22.799  1.00  0.00    -0.003 C 
ATOM     25  C   UNL A   1      31.990  21.001  21.797  1.00  0.00     0.004 C 
ENDBRANCH  23  24
ENDBRANCH  22  23
ENDBRANCH  21  22
ENDBRANCH  20  21
ENDBRANCH  17  20
ENDBRANCH  15  16
ENDBRANCH  10  15
ENDBRANCH   4   9
BRANCH   6  26
ATOM     26  N   UNL A   1      31.267  24.172  26.027  1.00  0.00     0.063 N 
ATOM     27  O   UNL A   1      30.722  23.096  25.745  1.00  0.00    -0.258 OA
ATOM     28  O   UNL A   1      31.457  24.593  27.176  1.00  0.00    -0.258 OA
ENDBRANCH   6  26
ENDBRANCH   1   3
BRANCH   1  29
ATOM     29  C   UNL A   1      30.265  29.205  22.617  1.00  0.00     0.227 C 
ATOM     30  O   UNL A   1      30.166  29.674  21.477  1.00  0.00    -0.274 OA
ATOM     31  N   UNL A   1      30.737  30.052  23.572  1.00  0.00    -0.356 N 
ATOM     32  H   UNL A   1      30.874  30.975  23.258  1.00  0.00     0.163 HD
BRANCH  31  33
ATOM     33  C   UNL A   1      31.076  29.847  24.964  1.00  0.00     0.116 C 
BRANCH  33  34
ATOM     34  C   UNL A   1      31.149  31.169  25.731  1.00  0.00     0.023 C 
BRANCH  34  35
ATOM     35  C   UNL A   1      31.942  31.117  27.034  1.00  0.00     0.023 C 
BRANCH  35  36
ATOM     36  C   UNL A   1      33.023  32.180  27.175  1.00  0.00     0.116 C 
BRANCH  36  37
ATOM     37  N   UNL A   1      32.514  33.519  27.439  1.00  0.00    -0.352 N 
ATOM     38  C   UNL A   1      32.984  34.440  28.348  1.00  0.00     0.251 C 
ATOM     39  H   UNL A   1      31.739  33.799  26.902  1.00  0.00     0.163 HD
ATOM     40  O   UNL A   1      32.408  35.509  28.514  1.00  0.00    -0.269 OA
BRANCH  38  41
ATOM     41  C   UNL A   1      34.167  34.094  29.161  1.00  0.00     0.039 A 
ATOM     42  C   UNL A   1      33.981  33.447  30.385  1.00  0.00     0.014 A 
ATOM     43  C   UNL A   1      35.453  34.335  28.672  1.00  0.00     0.014 A 
ATOM     44  C   UNL A   1      35.089  32.964  31.080  1.00  0.00     0.010 A 
ATOM     45  C   UNL A   1      36.547  33.778  29.322  1.00  0.00     0.010 A 
ATOM     46  C   UNL A   1      36.376  33.086  30.531  1.00  0.00    -0.014 A 
BRANCH  46  47
ATOM     47  C   UNL A   1      37.559  32.488  31.196  1.00  0.00     0.031 A 
ATOM     48  C   UNL A   1      38.286  31.344  30.548  1.00  0.00     0.074 A 
ATOM     49  C   UNL A   1      37.920  32.911  32.422  1.00  0.00     0.049 A 
ATOM     50  N   UNL A   1      39.289  30.636  31.002  1.00  0.00    -0.248 NA
ATOM     51  C   UNL A   1      37.793  30.912  29.232  1.00  0.00     0.031 C 
ATOM     52  C   UNL A   1      37.245  33.961  33.188  1.00  0.00     0.029 A 
ATOM     53  N   UNL A   1      38.934  32.498  33.250  1.00  0.00    -0.354 N 
ATOM     54  C   UNL A   1      39.528  29.664  30.042  1.00  0.00     0.074 A 
ATOM     55  C   UNL A   1      38.530  29.834  29.008  1.00  0.00     0.031 C 
ATOM     56  C   UNL A   1      37.873  34.122  34.362  1.00  0.00     0.029 A 
ATOM     57  C   UNL A   1      38.974  33.167  34.448  1.00  0.00     0.049 A 
ATOM     58  H   UNL A   1      39.572  31.788  33.006  1.00  0.00     0.167 HD
ATOM     59  C   UNL A   1      40.506  28.727  30.012  1.00  0.00     0.037 A 
ATOM     60  C   UNL A   1      39.804  33.024  35.498  1.00  0.00     0.037 A 
ATOM     61  C   UNL A   1      41.517  28.588  31.025  1.00  0.00     0.049 A 
ATOM     62  C   UNL A   1      40.909  32.007  35.427  1.00  0.00     0.074 A 
ATOM     63  C   UNL A   1      42.610  27.739  31.043  1.00  0.00     0.029 A 
ATOM     64  N   UNL A   1      41.556  29.316  32.206  1.00  0.00    -0.354 N 
ATOM     65  N   UNL A   1      41.187  31.155  34.470  1.00  0.00    -0.248 NA
ATOM     66  C   UNL A   1      41.821  31.937  36.575  1.00  0.00     0.031 C 
ATOM     67  C   UNL A   1      43.284  27.921  32.257  1.00  0.00     0.029 A 
ATOM     68  C   UNL A   1      42.639  28.918  32.973  1.00  0.00     0.049 A 
ATOM     69  H   UNL A   1      40.910  30.013  32.461  1.00  0.00     0.167 HD
ATOM     70  C   UNL A   1      42.314  30.462  34.889  1.00  0.00     0.074 A 
ATOM     71  C   UNL A   1      42.679  31.005  36.181  1.00  0.00     0.031 C 
ATOM     72  C   UNL A   1      42.985  29.467  34.260  1.00  0.00     0.037 A 
BRANCH  59  73
ATOM     73  C   UNL A   1      40.521  27.784  28.845  1.00  0.00     0.064 A 
ATOM     74  C   UNL A   1      41.282  28.044  27.694  1.00  0.00     0.173 A 
ATOM     75  C   UNL A   1      39.770  26.600  28.878  1.00  0.00     0.173 A 
ATOM     76  F   UNL A   1      42.009  29.169  27.606  1.00  0.00    -0.203 F 
ATOM     77  C   UNL A   1      41.255  27.178  26.604  1.00  0.00     0.198 A 
ATOM     78  C   UNL A   1      39.772  25.719  27.800  1.00  0.00     0.198 A 
ATOM     79  F   UNL A   1      39.028  26.298  29.954  1.00  0.00    -0.203 F 
ATOM     80  F   UNL A   1      41.938  27.482  25.492  1.00  0.00    -0.200 F 
ATOM     81  C   UNL A   1      40.505  26.014  26.660  1.00  0.00     0.200 A 
ATOM     82  F   UNL A   1      39.054  24.588  27.858  1.00  0.00    -0.200 F 
ATOM     83  F   UNL A   1      40.477  25.182  25.610  1.00  0.00    -0.200 F 
ENDBRANCH  59  73
BRANCH  60  84
ATOM     84  C   UNL A   1      39.638  33.897  36.688  1.00  0.00     0.064 A 
ATOM     85  C   UNL A   1      38.870  33.479  37.784  1.00  0.00     0.173 A 
ATOM     86  C   UNL A   1      40.266  35.147  36.769  1.00  0.00     0.173 A 
ATOM     87  F   UNL A   1      38.236  32.299  37.746  1.00  0.00    -0.203 F 
ATOM     88  C   UNL A   1      38.730  34.285  38.913  1.00  0.00     0.198 A 
ATOM     89  C   UNL A   1      40.145  35.942  37.907  1.00  0.00     0.198 A 
ATOM     90  F   UNL A   1      41.017  35.588  35.749  1.00  0.00    -0.203 F 
ATOM     91  F   UNL A   1      37.965  33.875  39.934  1.00  0.00    -0.200 F 
ATOM     92  C   UNL A   1      39.373  35.511  38.977  1.00  0.00     0.200 A 
ATOM     93  F   UNL A   1      40.780  37.120  37.971  1.00  0.00    -0.200 F 
ATOM     94  F   UNL A   1      39.247  36.280  40.067  1.00  0.00    -0.200 F 
ENDBRANCH  60  84
BRANCH  72  95
ATOM     95  C   UNL A   1      44.196  28.911  34.951  1.00  0.00     0.064 A 
ATOM     96  C   UNL A   1      44.108  27.809  35.814  1.00  0.00     0.173 A 
ATOM     97  C   UNL A   1      45.466  29.459  34.710  1.00  0.00     0.173 A 
ATOM     98  F   UNL A   1      42.915  27.260  36.087  1.00  0.00    -0.203 F 
ATOM     99  C   UNL A   1      45.244  27.289  36.427  1.00  0.00     0.198 A 
ATOM    100  C   UNL A   1      46.602  28.918  35.302  1.00  0.00     0.198 A 
ATOM    101  F   UNL A   1      45.604  30.509  33.887  1.00  0.00    -0.203 F 
ATOM    102  F   UNL A   1      45.132  26.262  37.281  1.00  0.00    -0.200 F 
ATOM    103  C   UNL A   1      46.490  27.837  36.165  1.00  0.00     0.200 A 
ATOM    104  F   UNL A   1      47.808  29.440  35.037  1.00  0.00    -0.200 F 
ATOM    105  F   UNL A   1      47.584  27.330  36.749  1.00  0.00    -0.200 F 
ENDBRANCH  72  95
ENDBRANCH  46  47
ENDBRANCH  38  41
ENDBRANCH  36  37
ENDBRANCH  35  36
ENDBRANCH  34  35
ENDBRANCH  33  34
ENDBRANCH  31  33
ENDBRANCH   1  29
TORSDOF 21
ENDMDL
MODEL 3
REMARK VINA RESULT:     -12.0      1.525      7.357
REMARK SMILES CCCCCCNC(=O)Oc1cccc(-c2ccc([C@@H](C)C(=O)NCCCCNC(=O)c3ccc(-c4c5nc(c(-c6c(F)c(F)c(F)c(F)c6F)c6ccc([nH]6)c(-c6c(F)c(F)c(F)c(F)c6F)c6nc(c(-c7c(F)c(F)c(F)c(F)c7F)c7ccc4[nH]7)C=C6)C=C5)cc3)cc2[N+](=O)[O-])c1
REMARK SMILES IDX 20 1 21 2 19 3 16 4 17 5 96 6 18 7 95 8 15 9 11 10 12 11
REMARK SMILES IDX 100 12 13 13 14 14 10 15 8 16 7 17 9 19 6 20 5 21 4 22 3 23
REMARK SMILES IDX 2 24 1 25 97 26 98 27 99 28 22 29 23 30 24 31 25 33 26 34
REMARK SMILES IDX 27 35 28 36 29 37 30 38 31 40 32 41 33 42 94 43 34 44 93 45
REMARK SMILES IDX 35 46 36 47 37 48 87 49 38 50 92 51 86 52 88 53 39 54 91 55
REMARK SMILES IDX 85 56 84 57 40 59 72 60 52 61 71 62 53 63 56 64 70 65 89 66
REMARK SMILES IDX 54 67 55 68 69 70 90 71 57 72 41 73 42 74 50 75 43 76 44 77
REMARK SMILES IDX 48 78 51 79 45 80 46 81 49 82 47 83 73 84 74 85 82 86 75 87
REMARK SMILES IDX 76 88 80 89 83 90 77 91 78 92 81 93 79 94 58 95 59 96 67 97
REMARK SMILES IDX 60 98 61 99 65 100 68 101 62 102 63 103 66 104 64 105
REMARK H PARENT 7 18 24 32 29 39 88 58 56 69
REMARK Flexibility Score: inf
ROOT
ATOM      1  C   UNL A   1      29.834  29.909  22.389  1.00  0.00     0.105 C 
ATOM      2  C   UNL A   1      28.856  30.266  21.271  1.00  0.00     0.023 C 
ENDROOT
BRANCH   1   3
ATOM      3  C   UNL A   1      30.191  28.433  22.498  1.00  0.00    -0.029 A 
ATOM      4  C   UNL A   1      31.019  25.699  22.865  1.00  0.00     0.060 A 
ATOM      5  C   UNL A   1      29.810  26.194  23.385  1.00  0.00     0.016 A 
ATOM      6  C   UNL A   1      31.757  26.602  22.076  1.00  0.00     0.277 A 
ATOM      7  C   UNL A   1      29.381  27.508  23.158  1.00  0.00     0.005 A 
ATOM      8  C   UNL A   1      31.380  27.956  21.931  1.00  0.00     0.090 A 
BRANCH   4   9
ATOM      9  C   UNL A   1      31.422  24.313  23.205  1.00  0.00    -0.008 A 
ATOM     10  C   UNL A   1      31.457  22.399  24.704  1.00  0.00     0.133 A 
ATOM     11  C   UNL A   1      32.208  21.656  23.799  1.00  0.00     0.047 A 
ATOM     12  C   UNL A   1      31.046  23.703  24.414  1.00  0.00     0.056 A 
ATOM     13  C   UNL A   1      32.559  22.227  22.583  1.00  0.00     0.004 A 
ATOM     14  C   UNL A   1      32.184  23.544  22.298  1.00  0.00     0.009 A 
BRANCH  10  15
ATOM     15  O   UNL A   1      31.297  21.840  25.985  1.00  0.00    -0.410 OA
BRANCH  15  16
ATOM     16  C   UNL A   1      31.365  22.638  27.116  1.00  0.00     0.412 C 
ATOM     17  N   UNL A   1      32.588  22.579  27.727  1.00  0.00    -0.321 N 
ATOM     18  H   UNL A   1      32.685  23.070  28.575  1.00  0.00     0.167 HD
ATOM     19  O   UNL A   1      30.458  23.329  27.562  1.00  0.00    -0.224 OA
BRANCH  17  20
ATOM     20  C   UNL A   1      33.757  21.865  27.248  1.00  0.00     0.119 C 
BRANCH  20  21
ATOM     21  C   UNL A   1      34.969  22.784  27.097  1.00  0.00     0.021 C 
BRANCH  21  22
ATOM     22  C   UNL A   1      35.324  23.148  25.650  1.00  0.00     0.002 C 
BRANCH  22  23
ATOM     23  C   UNL A   1      34.522  24.305  25.045  1.00  0.00    -0.000 C 
BRANCH  23  24
ATOM     24  C   UNL A   1      34.262  25.484  25.986  1.00  0.00    -0.003 C 
ATOM     25  C   UNL A   1      33.641  26.684  25.287  1.00  0.00     0.004 C 
ENDBRANCH  23  24
ENDBRANCH  22  23
ENDBRANCH  21  22
ENDBRANCH  20  21
ENDBRANCH  17  20
ENDBRANCH  15  16
ENDBRANCH  10  15
ENDBRANCH   4   9
BRANCH   6  26
ATOM     26  N   UNL A   1      32.906  26.161  21.289  1.00  0.00     0.063 N 
ATOM     27  O   UNL A   1      34.017  26.202  21.836  1.00  0.00    -0.258 OA
ATOM     28  O   UNL A   1      32.705  25.829  20.113  1.00  0.00    -0.258 OA
ENDBRANCH   6  26
ENDBRANCH   1   3
BRANCH   1  29
ATOM     29  C   UNL A   1      29.521  30.578  23.739  1.00  0.00     0.227 C 
ATOM     30  O   UNL A   1      28.475  31.225  23.874  1.00  0.00    -0.274 OA
ATOM     31  N   UNL A   1      30.321  30.501  24.837  1.00  0.00    -0.356 N 
ATOM     32  H   UNL A   1      29.933  30.907  25.646  1.00  0.00     0.163 HD
BRANCH  31  33
ATOM     33  C   UNL A   1      31.636  29.931  25.036  1.00  0.00     0.116 C 
BRANCH  33  34
ATOM     34  C   UNL A   1      32.247  30.365  26.369  1.00  0.00     0.023 C 
BRANCH  34  35
ATOM     35  C   UNL A   1      31.837  31.755  26.848  1.00  0.00     0.023 C 
BRANCH  35  36
ATOM     36  C   UNL A   1      32.987  32.653  27.281  1.00  0.00     0.116 C 
BRANCH  36  37
ATOM     37  N   UNL A   1      32.579  33.993  27.684  1.00  0.00    -0.352 N 
ATOM     38  C   UNL A   1      33.113  34.777  28.681  1.00  0.00     0.251 C 
ATOM     39  H   UNL A   1      31.830  34.385  27.181  1.00  0.00     0.163 HD
ATOM     40  O   UNL A   1      32.619  35.863  28.959  1.00  0.00    -0.269 OA
BRANCH  38  41
ATOM     41  C   UNL A   1      34.263  34.261  29.450  1.00  0.00     0.039 A 
ATOM     42  C   UNL A   1      34.025  33.443  30.556  1.00  0.00     0.014 A 
ATOM     43  C   UNL A   1      35.569  34.520  29.025  1.00  0.00     0.014 A 
ATOM     44  C   UNL A   1      35.097  32.812  31.187  1.00  0.00     0.010 A 
ATOM     45  C   UNL A   1      36.625  33.824  29.599  1.00  0.00     0.010 A 
ATOM     46  C   UNL A   1      36.400  32.962  30.684  1.00  0.00    -0.014 A 
BRANCH  46  47
ATOM     47  C   UNL A   1      37.544  32.220  31.267  1.00  0.00     0.031 A 
ATOM     48  C   UNL A   1      38.064  32.590  32.627  1.00  0.00     0.074 A 
ATOM     49  C   UNL A   1      38.171  31.280  30.536  1.00  0.00     0.049 A 
ATOM     50  N   UNL A   1      39.098  32.118  33.276  1.00  0.00    -0.248 NA
ATOM     51  C   UNL A   1      37.350  33.663  33.335  1.00  0.00     0.031 C 
ATOM     52  C   UNL A   1      37.809  30.887  29.173  1.00  0.00     0.029 A 
ATOM     53  N   UNL A   1      39.259  30.496  30.829  1.00  0.00    -0.354 N 
ATOM     54  C   UNL A   1      39.172  32.852  34.450  1.00  0.00     0.074 A 
ATOM     55  C   UNL A   1      38.116  33.839  34.401  1.00  0.00     0.031 C 
ATOM     56  C   UNL A   1      38.646  29.925  28.756  1.00  0.00     0.029 A 
ATOM     57  C   UNL A   1      39.622  29.655  29.807  1.00  0.00     0.049 A 
ATOM     58  H   UNL A   1      39.734  30.534  31.691  1.00  0.00     0.167 HD
ATOM     59  C   UNL A   1      40.029  32.702  35.489  1.00  0.00     0.037 A 
ATOM     60  C   UNL A   1      40.632  28.767  29.726  1.00  0.00     0.037 A 
ATOM     61  C   UNL A   1      41.053  31.693  35.547  1.00  0.00     0.049 A 
ATOM     62  C   UNL A   1      41.546  28.586  30.906  1.00  0.00     0.074 A 
ATOM     63  C   UNL A   1      41.908  31.390  36.592  1.00  0.00     0.029 A 
ATOM     64  N   UNL A   1      41.363  30.824  34.510  1.00  0.00    -0.354 N 
ATOM     65  N   UNL A   1      41.548  29.220  32.054  1.00  0.00    -0.248 NA
ATOM     66  C   UNL A   1      42.591  27.562  30.785  1.00  0.00     0.031 C 
ATOM     67  C   UNL A   1      42.767  30.369  36.170  1.00  0.00     0.029 A 
ATOM     68  C   UNL A   1      42.415  30.001  34.881  1.00  0.00     0.049 A 
ATOM     69  H   UNL A   1      40.903  30.795  33.641  1.00  0.00     0.167 HD
ATOM     70  C   UNL A   1      42.576  28.661  32.798  1.00  0.00     0.074 A 
ATOM     71  C   UNL A   1      43.167  27.623  31.977  1.00  0.00     0.031 C 
ATOM     72  C   UNL A   1      42.994  28.977  34.048  1.00  0.00     0.037 A 
BRANCH  59  73
ATOM     73  C   UNL A   1      39.889  33.653  36.641  1.00  0.00     0.064 A 
ATOM     74  C   UNL A   1      39.047  33.377  37.730  1.00  0.00     0.173 A 
ATOM     75  C   UNL A   1      40.611  34.856  36.660  1.00  0.00     0.173 A 
ATOM     76  F   UNL A   1      38.325  32.246  37.755  1.00  0.00    -0.203 F 
ATOM     77  C   UNL A   1      38.900  34.289  38.773  1.00  0.00     0.198 A 
ATOM     78  C   UNL A   1      40.487  35.749  37.721  1.00  0.00     0.198 A 
ATOM     79  F   UNL A   1      41.434  35.169  35.649  1.00  0.00    -0.203 F 
ATOM     80  F   UNL A   1      38.040  34.032  39.768  1.00  0.00    -0.200 F 
ATOM     81  C   UNL A   1      39.623  35.471  38.770  1.00  0.00     0.200 A 
ATOM     82  F   UNL A   1      41.194  36.888  37.723  1.00  0.00    -0.200 F 
ATOM     83  F   UNL A   1      39.479  36.348  39.772  1.00  0.00    -0.200 F 
ENDBRANCH  59  73
BRANCH  60  84
ATOM     84  C   UNL A   1      40.800  27.959  28.491  1.00  0.00     0.064 A 
ATOM     85  C   UNL A   1      41.598  28.419  27.434  1.00  0.00     0.173 A 
ATOM     86  C   UNL A   1      40.198  26.701  28.356  1.00  0.00     0.173 A 
ATOM     87  F   UNL A   1      42.180  29.624  27.511  1.00  0.00    -0.203 F 
ATOM     88  C   UNL A   1      41.778  27.655  26.283  1.00  0.00     0.198 A 
ATOM     89  C   UNL A   1      40.398  25.927  27.214  1.00  0.00     0.198 A 
ATOM     90  F   UNL A   1      39.432  26.214  29.342  1.00  0.00    -0.203 F 
ATOM     91  F   UNL A   1      42.520  28.131  25.275  1.00  0.00    -0.200 F 
ATOM     92  C   UNL A   1      41.184  26.406  26.178  1.00  0.00     0.200 A 
ATOM     93  F   UNL A   1      39.834  24.714  27.122  1.00  0.00    -0.200 F 
ATOM     94  F   UNL A   1      41.367  25.666  25.075  1.00  0.00    -0.200 F 
ENDBRANCH  60  84
BRANCH  72  95
ATOM     95  C   UNL A   1      44.132  28.181  34.615  1.00  0.00     0.064 A 
ATOM     96  C   UNL A   1      43.915  26.987  35.319  1.00  0.00     0.173 A 
ATOM     97  C   UNL A   1      45.459  28.593  34.412  1.00  0.00     0.173 A 
ATOM     98  F   UNL A   1      42.665  26.559  35.552  1.00  0.00    -0.203 F 
ATOM     99  C   UNL A   1      44.983  26.246  35.817  1.00  0.00     0.198 A 
ATOM    100  C   UNL A   1      46.524  27.834  34.886  1.00  0.00     0.198 A 
ATOM    101  F   UNL A   1      45.720  29.723  33.740  1.00  0.00    -0.203 F 
ATOM    102  F   UNL A   1      44.751  25.131  36.523  1.00  0.00    -0.200 F 
ATOM    103  C   UNL A   1      46.286  26.664  35.594  1.00  0.00     0.200 A 
ATOM    104  F   UNL A   1      47.783  28.233  34.658  1.00  0.00    -0.200 F 
ATOM    105  F   UNL A   1      47.313  25.945  36.066  1.00  0.00    -0.200 F 
ENDBRANCH  72  95
ENDBRANCH  46  47
ENDBRANCH  38  41
ENDBRANCH  36  37
ENDBRANCH  35  36
ENDBRANCH  34  35
ENDBRANCH  33  34
ENDBRANCH  31  33
ENDBRANCH   1  29
TORSDOF 21
ENDMDL
