MODEL 1
REMARK VINA RESULT:     -12.2      0.000      0.000
REMARK SMILES C[NH2+][C@@]1(C(=O)NCCCCNC(=O)c2ccc(-c3c4nc(c(-c5c(F)c(F)c(F)c(F)c5F)c5ccc([nH]5)c(-c5c(F)c(F)c(F)c(F)c5F)c5nc(c(-c6c(F)c(F)c(F)c(F)c6F)c6ccc3[nH]6)C=C5)C=C4)cc2)CC[C@H](n2ccc(C)n2)C1
REMARK SMILES IDX 9 1 8 2 7 3 6 4 4 5 5 6 3 8 77 9 86 10 78 11 79 12 2 13 1 14
REMARK SMILES IDX 80 17 81 18 85 19 82 20 83 21 84 22 10 23 11 24 12 25 13 27
REMARK SMILES IDX 14 28 15 29 76 30 16 31 75 32 17 33 18 34 19 35 69 36 20 37
REMARK SMILES IDX 74 38 68 39 70 40 21 41 73 42 67 43 66 44 22 46 54 47 34 48
REMARK SMILES IDX 53 49 35 50 38 51 52 52 71 53 36 54 37 55 51 57 72 58 39 59
REMARK SMILES IDX 23 60 24 61 32 62 25 63 26 64 30 65 33 66 27 67 28 68 31 69
REMARK SMILES IDX 29 70 55 71 56 72 64 73 57 74 58 75 62 76 65 77 59 78 60 79
REMARK SMILES IDX 63 80 61 81 40 82 41 83 49 84 42 85 43 86 47 87 50 88 44 89
REMARK SMILES IDX 45 90 48 91 46 92
REMARK H PARENT 6 7 2 15 2 16 11 26 70 45 38 56
REMARK Flexibility Score: inf
ROOT
ATOM      1  C   UNL A   1      31.771  31.810  26.650  1.00  0.00     0.023 C 
ENDROOT
BRANCH   1   2
ATOM      2  C   UNL A   1      31.898  30.313  26.878  1.00  0.00     0.023 C 
BRANCH   2   3
ATOM      3  C   UNL A   1      33.281  29.734  26.641  1.00  0.00     0.116 C 
BRANCH   3   4
ATOM      4  N   UNL A   1      33.607  29.754  25.237  1.00  0.00    -0.351 N 
ATOM      5  C   UNL A   1      33.337  28.950  24.184  1.00  0.00     0.281 C 
ATOM      6  O   UNL A   1      33.902  29.335  23.150  1.00  0.00    -0.268 OA
ATOM      7  H   UNL A   1      34.154  30.533  24.987  1.00  0.00     0.163 HD
BRANCH   5   8
ATOM      8  C   UNL A   1      32.412  27.652  24.179  1.00  0.00     0.177 C 
ATOM      9  C   UNL A   1      32.224  26.978  22.810  1.00  0.00     0.081 C 
ATOM     10  C   UNL A   1      30.980  27.885  24.689  1.00  0.00     0.106 C 
ATOM     11  C   UNL A   1      30.817  27.312  22.309  1.00  0.00     0.034 C 
ATOM     12  C   UNL A   1      29.981  27.713  23.527  1.00  0.00     0.114 C 
BRANCH   8  13
ATOM     13  N   UNL A   1      33.097  26.609  25.021  1.00  0.00    -0.336 N 
ATOM     14  C   UNL A   1      32.339  26.104  26.169  1.00  0.00     0.331 C 
ATOM     15  H   UNL A   1      33.314  25.815  24.418  1.00  0.00     0.346 HD
ATOM     16  H   UNL A   1      33.916  27.071  25.416  1.00  0.00     0.346 HD
ENDBRANCH   8  13
BRANCH  12  17
ATOM     17  N   UNL A   1      29.090  28.849  23.319  1.00  0.00    -0.269 N 
ATOM     18  C   UNL A   1      27.771  28.829  22.953  1.00  0.00     0.109 A 
ATOM     19  N   UNL A   1      29.553  30.101  23.486  1.00  0.00    -0.178 NA
ATOM     20  C   UNL A   1      27.415  30.142  22.731  1.00  0.00     0.045 A 
ATOM     21  C   UNL A   1      28.568  30.891  23.052  1.00  0.00     0.059 A 
ATOM     22  C   UNL A   1      28.799  32.350  22.916  1.00  0.00     0.069 C 
ENDBRANCH  12  17
ENDBRANCH   5   8
ENDBRANCH   3   4
ENDBRANCH   2   3
ENDBRANCH   1   2
BRANCH   1  23
ATOM     23  C   UNL A   1      32.857  32.636  27.317  1.00  0.00     0.116 C 
BRANCH  23  24
ATOM     24  N   UNL A   1      32.467  34.008  27.623  1.00  0.00    -0.352 N 
ATOM     25  C   UNL A   1      33.006  34.874  28.553  1.00  0.00     0.251 C 
ATOM     26  H   UNL A   1      31.717  34.365  27.095  1.00  0.00     0.163 HD
ATOM     27  O   UNL A   1      32.525  35.980  28.735  1.00  0.00    -0.269 OA
BRANCH  25  28
ATOM     28  C   UNL A   1      34.144  34.405  29.374  1.00  0.00     0.039 A 
ATOM     29  C   UNL A   1      33.889  33.647  30.519  1.00  0.00     0.014 A 
ATOM     30  C   UNL A   1      35.452  34.608  28.936  1.00  0.00     0.014 A 
ATOM     31  C   UNL A   1      34.947  33.000  31.160  1.00  0.00     0.010 A 
ATOM     32  C   UNL A   1      36.477  33.859  29.493  1.00  0.00     0.010 A 
ATOM     33  C   UNL A   1      36.239  33.048  30.614  1.00  0.00    -0.014 A 
BRANCH  33  34
ATOM     34  C   UNL A   1      37.371  32.278  31.192  1.00  0.00     0.031 A 
ATOM     35  C   UNL A   1      37.861  32.608  32.577  1.00  0.00     0.074 A 
ATOM     36  C   UNL A   1      38.026  31.368  30.443  1.00  0.00     0.049 A 
ATOM     37  N   UNL A   1      38.925  32.180  33.207  1.00  0.00    -0.248 NA
ATOM     38  C   UNL A   1      37.080  33.601  33.333  1.00  0.00     0.031 C 
ATOM     39  C   UNL A   1      37.705  31.014  29.058  1.00  0.00     0.029 A 
ATOM     40  N   UNL A   1      39.111  30.581  30.740  1.00  0.00    -0.354 N 
ATOM     41  C   UNL A   1      38.965  32.890  34.400  1.00  0.00     0.074 A 
ATOM     42  C   UNL A   1      37.859  33.820  34.378  1.00  0.00     0.031 C 
ATOM     43  C   UNL A   1      38.548  30.055  28.641  1.00  0.00     0.029 A 
ATOM     44  C   UNL A   1      39.493  29.754  29.711  1.00  0.00     0.049 A 
ATOM     45  H   UNL A   1      39.573  30.607  31.609  1.00  0.00     0.167 HD
ATOM     46  C   UNL A   1      39.824  32.753  35.437  1.00  0.00     0.037 A 
ATOM     47  C   UNL A   1      40.493  28.855  29.643  1.00  0.00     0.037 A 
ATOM     48  C   UNL A   1      40.867  31.767  35.488  1.00  0.00     0.049 A 
ATOM     49  C   UNL A   1      41.384  28.662  30.841  1.00  0.00     0.074 A 
ATOM     50  C   UNL A   1      41.730  31.475  36.528  1.00  0.00     0.029 A 
ATOM     51  N   UNL A   1      41.173  30.894  34.454  1.00  0.00    -0.354 N 
ATOM     52  N   UNL A   1      41.371  29.292  31.990  1.00  0.00    -0.248 NA
ATOM     53  C   UNL A   1      42.423  27.630  30.734  1.00  0.00     0.031 C 
ATOM     54  C   UNL A   1      42.576  30.440  36.115  1.00  0.00     0.029 A 
ATOM     55  C   UNL A   1      42.216  30.064  34.831  1.00  0.00     0.049 A 
ATOM     56  H   UNL A   1      40.717  30.868  33.582  1.00  0.00     0.167 HD
ATOM     57  C   UNL A   1      42.378  28.716  32.752  1.00  0.00     0.074 A 
ATOM     58  C   UNL A   1      42.973  27.676  31.939  1.00  0.00     0.031 C 
ATOM     59  C   UNL A   1      42.778  29.024  34.010  1.00  0.00     0.037 A 
BRANCH  46  60
ATOM     60  C   UNL A   1      39.648  33.677  36.607  1.00  0.00     0.064 A 
ATOM     61  C   UNL A   1      38.859  33.323  37.713  1.00  0.00     0.173 A 
ATOM     62  C   UNL A   1      40.285  34.927  36.629  1.00  0.00     0.173 A 
ATOM     63  F   UNL A   1      38.216  32.146  37.734  1.00  0.00    -0.203 F 
ATOM     64  C   UNL A   1      38.679  34.203  38.776  1.00  0.00     0.198 A 
ATOM     65  C   UNL A   1      40.131  35.790  37.711  1.00  0.00     0.198 A 
ATOM     66  F   UNL A   1      41.055  35.313  35.601  1.00  0.00    -0.203 F 
ATOM     67  F   UNL A   1      37.867  33.870  39.789  1.00  0.00    -0.200 F 
ATOM     68  C   UNL A   1      39.320  35.433  38.778  1.00  0.00     0.200 A 
ATOM     69  F   UNL A   1      40.760  36.974  37.717  1.00  0.00    -0.200 F 
ATOM     70  F   UNL A   1      39.147  36.277  39.804  1.00  0.00    -0.200 F 
ENDBRANCH  46  60
BRANCH  47  71
ATOM     71  C   UNL A   1      40.672  28.032  28.418  1.00  0.00     0.064 A 
ATOM     72  C   UNL A   1      40.062  26.775  28.308  1.00  0.00     0.173 A 
ATOM     73  C   UNL A   1      41.451  28.476  27.341  1.00  0.00     0.173 A 
ATOM     74  F   UNL A   1      39.323  26.298  29.321  1.00  0.00    -0.203 F 
ATOM     75  C   UNL A   1      40.239  25.984  27.174  1.00  0.00     0.198 A 
ATOM     76  C   UNL A   1      41.607  27.696  26.197  1.00  0.00     0.198 A 
ATOM     77  F   UNL A   1      42.051  29.674  27.395  1.00  0.00    -0.203 F 
ATOM     78  F   UNL A   1      39.679  24.769  27.113  1.00  0.00    -0.200 F 
ATOM     79  C   UNL A   1      41.008  26.447  26.117  1.00  0.00     0.200 A 
ATOM     80  F   UNL A   1      42.341  28.152  25.172  1.00  0.00    -0.200 F 
ATOM     81  F   UNL A   1      41.176  25.689  25.026  1.00  0.00    -0.200 F 
ENDBRANCH  47  71
BRANCH  59  82
ATOM     82  C   UNL A   1      43.885  28.202  34.598  1.00  0.00     0.064 A 
ATOM     83  C   UNL A   1      45.222  28.613  34.524  1.00  0.00     0.173 A 
ATOM     84  C   UNL A   1      43.595  27.017  35.289  1.00  0.00     0.173 A 
ATOM     85  F   UNL A   1      45.548  29.733  33.861  1.00  0.00    -0.203 F 
ATOM     86  C   UNL A   1      46.235  27.856  35.106  1.00  0.00     0.198 A 
ATOM     87  C   UNL A   1      44.606  26.276  35.893  1.00  0.00     0.198 A 
ATOM     88  F   UNL A   1      42.328  26.587  35.394  1.00  0.00    -0.203 F 
ATOM     89  F   UNL A   1      47.512  28.246  34.990  1.00  0.00    -0.200 F 
ATOM     90  C   UNL A   1      45.925  26.693  35.796  1.00  0.00     0.200 A 
ATOM     91  F   UNL A   1      44.305  25.159  36.569  1.00  0.00    -0.200 F 
ATOM     92  F   UNL A   1      46.901  25.970  36.363  1.00  0.00    -0.200 F 
ENDBRANCH  59  82
ENDBRANCH  33  34
ENDBRANCH  25  28
ENDBRANCH  23  24
ENDBRANCH   1  23
TORSDOF 13
ENDMDL
MODEL 2
REMARK VINA RESULT:     -12.2      2.209      8.100
REMARK SMILES C[NH2+][C@@]1(C(=O)NCCCCNC(=O)c2ccc(-c3c4nc(c(-c5c(F)c(F)c(F)c(F)c5F)c5ccc([nH]5)c(-c5c(F)c(F)c(F)c(F)c5F)c5nc(c(-c6c(F)c(F)c(F)c(F)c6F)c6ccc3[nH]6)C=C5)C=C4)cc2)CC[C@H](n2ccc(C)n2)C1
REMARK SMILES IDX 9 1 8 2 7 3 6 4 4 5 5 6 3 8 77 9 86 10 78 11 79 12 2 13 1 14
REMARK SMILES IDX 80 17 81 18 85 19 82 20 83 21 84 22 10 23 11 24 12 25 13 27
REMARK SMILES IDX 14 28 15 29 76 30 16 31 75 32 17 33 18 34 19 35 69 36 20 37
REMARK SMILES IDX 74 38 68 39 70 40 21 41 73 42 67 43 66 44 22 46 54 47 34 48
REMARK SMILES IDX 53 49 35 50 38 51 52 52 71 53 36 54 37 55 51 57 72 58 39 59
REMARK SMILES IDX 23 60 24 61 32 62 25 63 26 64 30 65 33 66 27 67 28 68 31 69
REMARK SMILES IDX 29 70 55 71 56 72 64 73 57 74 58 75 62 76 65 77 59 78 60 79
REMARK SMILES IDX 63 80 61 81 40 82 41 83 49 84 42 85 43 86 47 87 50 88 44 89
REMARK SMILES IDX 45 90 48 91 46 92
REMARK H PARENT 6 7 2 15 2 16 11 26 70 45 38 56
REMARK Flexibility Score: inf
ROOT
ATOM      1  C   UNL A   1      31.583  28.434  25.747  1.00  0.00     0.023 C 
ENDROOT
BRANCH   1   2
ATOM      2  C   UNL A   1      31.431  27.089  26.439  1.00  0.00     0.023 C 
BRANCH   2   3
ATOM      3  C   UNL A   1      30.650  26.044  25.663  1.00  0.00     0.116 C 
BRANCH   3   4
ATOM      4  N   UNL A   1      30.273  24.949  26.522  1.00  0.00    -0.351 N 
ATOM      5  C   UNL A   1      30.688  23.672  26.675  1.00  0.00     0.281 C 
ATOM      6  O   UNL A   1      30.005  23.060  27.511  1.00  0.00    -0.268 OA
ATOM      7  H   UNL A   1      29.544  25.187  27.140  1.00  0.00     0.163 HD
BRANCH   5   8
ATOM      8  C   UNL A   1      31.898  22.958  25.924  1.00  0.00     0.177 C 
ATOM      9  C   UNL A   1      33.301  23.308  26.446  1.00  0.00     0.081 C 
ATOM     10  C   UNL A   1      31.971  23.243  24.414  1.00  0.00     0.106 C 
ATOM     11  C   UNL A   1      33.956  24.257  25.440  1.00  0.00     0.034 C 
ATOM     12  C   UNL A   1      33.227  24.083  24.106  1.00  0.00     0.114 C 
BRANCH   8  13
ATOM     13  N   UNL A   1      31.765  21.477  26.164  1.00  0.00    -0.336 N 
ATOM     14  C   UNL A   1      32.566  20.607  25.298  1.00  0.00     0.331 C 
ATOM     15  H   UNL A   1      32.039  21.293  27.129  1.00  0.00     0.346 HD
ATOM     16  H   UNL A   1      30.793  21.253  25.953  1.00  0.00     0.346 HD
ENDBRANCH   8  13
BRANCH  12  17
ATOM     17  N   UNL A   1      32.967  25.319  23.376  1.00  0.00    -0.269 N 
ATOM     18  C   UNL A   1      32.046  25.536  22.386  1.00  0.00     0.109 A 
ATOM     19  N   UNL A   1      33.687  26.422  23.653  1.00  0.00    -0.178 NA
ATOM     20  C   UNL A   1      32.293  26.804  21.906  1.00  0.00     0.045 A 
ATOM     21  C   UNL A   1      33.341  27.302  22.711  1.00  0.00     0.059 A 
ATOM     22  C   UNL A   1      34.077  28.583  22.593  1.00  0.00     0.069 C 
ENDBRANCH  12  17
ENDBRANCH   5   8
ENDBRANCH   3   4
ENDBRANCH   2   3
ENDBRANCH   1   2
BRANCH   1  23
ATOM     23  C   UNL A   1      32.743  29.270  26.259  1.00  0.00     0.116 C 
BRANCH  23  24
ATOM     24  N   UNL A   1      32.400  30.658  26.551  1.00  0.00    -0.352 N 
ATOM     25  C   UNL A   1      33.159  31.622  27.183  1.00  0.00     0.251 C 
ATOM     26  H   UNL A   1      31.506  30.947  26.258  1.00  0.00     0.163 HD
ATOM     27  O   UNL A   1      32.706  32.731  27.410  1.00  0.00    -0.269 OA
BRANCH  25  28
ATOM     28  C   UNL A   1      34.518  31.258  27.640  1.00  0.00     0.039 A 
ATOM     29  C   UNL A   1      35.453  32.270  27.867  1.00  0.00     0.014 A 
ATOM     30  C   UNL A   1      34.816  29.935  27.963  1.00  0.00     0.014 A 
ATOM     31  C   UNL A   1      36.647  31.964  28.524  1.00  0.00     0.010 A 
ATOM     32  C   UNL A   1      35.938  29.659  28.729  1.00  0.00     0.010 A 
ATOM     33  C   UNL A   1      36.870  30.669  29.017  1.00  0.00    -0.014 A 
BRANCH  33  34
ATOM     34  C   UNL A   1      38.068  30.327  29.826  1.00  0.00     0.031 A 
ATOM     35  C   UNL A   1      39.094  29.379  29.264  1.00  0.00     0.074 A 
ATOM     36  C   UNL A   1      38.182  30.770  31.094  1.00  0.00     0.049 A 
ATOM     37  N   UNL A   1      40.122  28.821  29.851  1.00  0.00    -0.248 NA
ATOM     38  C   UNL A   1      38.904  28.955  27.866  1.00  0.00     0.031 C 
ATOM     39  C   UNL A   1      37.216  31.626  31.787  1.00  0.00     0.029 A 
ATOM     40  N   UNL A   1      39.159  30.550  32.032  1.00  0.00    -0.354 N 
ATOM     41  C   UNL A   1      40.659  27.946  28.915  1.00  0.00     0.074 A 
ATOM     42  C   UNL A   1      39.810  27.998  27.747  1.00  0.00     0.031 C 
ATOM     43  C   UNL A   1      37.668  31.889  33.024  1.00  0.00     0.029 A 
ATOM     44  C   UNL A   1      38.932  31.189  33.228  1.00  0.00     0.049 A 
ATOM     45  H   UNL A   1      39.948  29.985  31.866  1.00  0.00     0.167 HD
ATOM     46  C   UNL A   1      41.781  27.195  29.007  1.00  0.00     0.037 A 
ATOM     47  C   UNL A   1      39.665  31.209  34.357  1.00  0.00     0.037 A 
ATOM     48  C   UNL A   1      42.667  27.214  30.137  1.00  0.00     0.049 A 
ATOM     49  C   UNL A   1      40.952  30.430  34.405  1.00  0.00     0.074 A 
ATOM     50  C   UNL A   1      43.881  26.568  30.295  1.00  0.00     0.029 A 
ATOM     51  N   UNL A   1      42.442  27.936  31.299  1.00  0.00    -0.354 N 
ATOM     52  N   UNL A   1      41.486  29.659  33.489  1.00  0.00    -0.248 NA
ATOM     53  C   UNL A   1      41.741  30.530  35.640  1.00  0.00     0.031 C 
ATOM     54  C   UNL A   1      44.379  26.882  31.564  1.00  0.00     0.029 A 
ATOM     55  C   UNL A   1      43.493  27.750  32.182  1.00  0.00     0.049 A 
ATOM     56  H   UNL A   1      41.652  28.498  31.472  1.00  0.00     0.167 HD
ATOM     57  C   UNL A   1      42.684  29.204  34.025  1.00  0.00     0.074 A 
ATOM     58  C   UNL A   1      42.805  29.798  35.340  1.00  0.00     0.031 C 
ATOM     59  C   UNL A   1      43.598  28.367  33.479  1.00  0.00     0.037 A 
BRANCH  46  60
ATOM     60  C   UNL A   1      42.120  26.313  27.841  1.00  0.00     0.064 A 
ATOM     61  C   UNL A   1      41.541  25.043  27.685  1.00  0.00     0.173 A 
ATOM     62  C   UNL A   1      43.025  26.744  26.860  1.00  0.00     0.173 A 
ATOM     63  F   UNL A   1      40.680  24.576  28.602  1.00  0.00    -0.203 F 
ATOM     64  C   UNL A   1      41.888  24.223  26.615  1.00  0.00     0.198 A 
ATOM     65  C   UNL A   1      43.344  25.934  25.773  1.00  0.00     0.198 A 
ATOM     66  F   UNL A   1      43.604  27.951  26.957  1.00  0.00    -0.203 F 
ATOM     67  F   UNL A   1      41.372  22.989  26.525  1.00  0.00    -0.200 F 
ATOM     68  C   UNL A   1      42.784  24.671  25.657  1.00  0.00     0.200 A 
ATOM     69  F   UNL A   1      44.202  26.373  24.841  1.00  0.00    -0.200 F 
ATOM     70  F   UNL A   1      43.116  23.881  24.627  1.00  0.00    -0.200 F 
ENDBRANCH  46  60
BRANCH  47  71
ATOM     71  C   UNL A   1      39.228  32.032  35.515  1.00  0.00     0.064 A 
ATOM     72  C   UNL A   1      39.627  33.371  35.629  1.00  0.00     0.173 A 
ATOM     73  C   UNL A   1      38.411  31.506  36.525  1.00  0.00     0.173 A 
ATOM     74  F   UNL A   1      40.425  33.913  34.698  1.00  0.00    -0.203 F 
ATOM     75  C   UNL A   1      39.242  34.147  36.720  1.00  0.00     0.198 A 
ATOM     76  C   UNL A   1      38.005  32.291  37.602  1.00  0.00     0.198 A 
ATOM     77  F   UNL A   1      37.996  30.232  36.458  1.00  0.00    -0.203 F 
ATOM     78  F   UNL A   1      39.673  35.412  36.825  1.00  0.00    -0.200 F 
ATOM     79  C   UNL A   1      38.427  33.608  37.704  1.00  0.00     0.200 A 
ATOM     80  F   UNL A   1      37.206  31.770  38.545  1.00  0.00    -0.200 F 
ATOM     81  F   UNL A   1      38.053  34.356  38.752  1.00  0.00    -0.200 F 
ENDBRANCH  47  71
BRANCH  59  82
ATOM     82  C   UNL A   1      44.828  28.073  34.284  1.00  0.00     0.064 A 
ATOM     83  C   UNL A   1      45.963  28.892  34.214  1.00  0.00     0.173 A 
ATOM     84  C   UNL A   1      44.848  26.990  35.175  1.00  0.00     0.173 A 
ATOM     85  F   UNL A   1      45.994  29.931  33.366  1.00  0.00    -0.203 F 
ATOM     86  C   UNL A   1      47.084  28.626  34.994  1.00  0.00     0.198 A 
ATOM     87  C   UNL A   1      45.961  26.743  35.974  1.00  0.00     0.198 A 
ATOM     88  F   UNL A   1      43.782  26.183  35.283  1.00  0.00    -0.203 F 
ATOM     89  F   UNL A   1      48.174  29.399  34.883  1.00  0.00    -0.200 F 
ATOM     90  C   UNL A   1      47.079  27.557  35.879  1.00  0.00     0.200 A 
ATOM     91  F   UNL A   1      45.950  25.717  36.836  1.00  0.00    -0.200 F 
ATOM     92  F   UNL A   1      48.157  27.308  36.636  1.00  0.00    -0.200 F 
ENDBRANCH  59  82
ENDBRANCH  33  34
ENDBRANCH  25  28
ENDBRANCH  23  24
ENDBRANCH   1  23
TORSDOF 13
ENDMDL
MODEL 3
REMARK VINA RESULT:     -12.1      2.012      2.850
REMARK SMILES C[NH2+][C@@]1(C(=O)NCCCCNC(=O)c2ccc(-c3c4nc(c(-c5c(F)c(F)c(F)c(F)c5F)c5ccc([nH]5)c(-c5c(F)c(F)c(F)c(F)c5F)c5nc(c(-c6c(F)c(F)c(F)c(F)c6F)c6ccc3[nH]6)C=C5)C=C4)cc2)CC[C@H](n2ccc(C)n2)C1
REMARK SMILES IDX 9 1 8 2 7 3 6 4 4 5 5 6 3 8 77 9 86 10 78 11 79 12 2 13 1 14
REMARK SMILES IDX 80 17 81 18 85 19 82 20 83 21 84 22 10 23 11 24 12 25 13 27
REMARK SMILES IDX 14 28 15 29 76 30 16 31 75 32 17 33 18 34 19 35 69 36 20 37
REMARK SMILES IDX 74 38 68 39 70 40 21 41 73 42 67 43 66 44 22 46 54 47 34 48
REMARK SMILES IDX 53 49 35 50 38 51 52 52 71 53 36 54 37 55 51 57 72 58 39 59
REMARK SMILES IDX 23 60 24 61 32 62 25 63 26 64 30 65 33 66 27 67 28 68 31 69
REMARK SMILES IDX 29 70 55 71 56 72 64 73 57 74 58 75 62 76 65 77 59 78 60 79
REMARK SMILES IDX 63 80 61 81 40 82 41 83 49 84 42 85 43 86 47 87 50 88 44 89
REMARK SMILES IDX 45 90 48 91 46 92
REMARK H PARENT 6 7 2 15 2 16 11 26 70 45 38 56
REMARK Flexibility Score: inf
ROOT
ATOM      1  C   UNL A   1      31.760  29.240  26.997  1.00  0.00     0.023 C 
ENDROOT
BRANCH   1   2
ATOM      2  C   UNL A   1      32.164  27.777  26.917  1.00  0.00     0.023 C 
BRANCH   2   3
ATOM      3  C   UNL A   1      31.089  26.833  26.407  1.00  0.00     0.116 C 
BRANCH   3   4
ATOM      4  N   UNL A   1      31.280  25.509  26.944  1.00  0.00    -0.351 N 
ATOM      5  C   UNL A   1      31.874  24.377  26.502  1.00  0.00     0.281 C 
ATOM      6  O   UNL A   1      31.723  23.435  27.295  1.00  0.00    -0.268 OA
ATOM      7  H   UNL A   1      30.885  25.403  27.839  1.00  0.00     0.163 HD
BRANCH   5   8
ATOM      8  C   UNL A   1      32.693  24.188  25.148  1.00  0.00     0.177 C 
ATOM      9  C   UNL A   1      34.059  24.891  25.097  1.00  0.00     0.081 C 
ATOM     10  C   UNL A   1      31.964  24.679  23.886  1.00  0.00     0.106 C 
ATOM     11  C   UNL A   1      33.923  26.122  24.199  1.00  0.00     0.034 C 
ATOM     12  C   UNL A   1      32.698  25.905  23.307  1.00  0.00     0.114 C 
BRANCH   8  13
ATOM     13  N   UNL A   1      33.018  22.723  25.021  1.00  0.00    -0.336 N 
ATOM     14  C   UNL A   1      32.221  21.966  24.052  1.00  0.00     0.331 C 
ATOM     15  H   UNL A   1      33.997  22.644  24.748  1.00  0.00     0.346 HD
ATOM     16  H   UNL A   1      32.801  22.316  25.931  1.00  0.00     0.346 HD
ENDBRANCH   8  13
BRANCH  12  17
ATOM     17  N   UNL A   1      31.857  27.081  23.113  1.00  0.00    -0.269 N 
ATOM     18  C   UNL A   1      32.238  28.395  23.090  1.00  0.00     0.109 A 
ATOM     19  N   UNL A   1      30.532  26.932  22.932  1.00  0.00    -0.178 NA
ATOM     20  C   UNL A   1      31.074  29.131  23.039  1.00  0.00     0.045 A 
ATOM     21  C   UNL A   1      30.039  28.172  22.968  1.00  0.00     0.059 A 
ATOM     22  C   UNL A   1      28.572  28.382  22.983  1.00  0.00     0.069 C 
ENDBRANCH  12  17
ENDBRANCH   5   8
ENDBRANCH   3   4
ENDBRANCH   2   3
ENDBRANCH   1   2
BRANCH   1  23
ATOM     23  C   UNL A   1      32.763  30.198  26.379  1.00  0.00     0.116 C 
BRANCH  23  24
ATOM     24  N   UNL A   1      32.640  31.577  26.840  1.00  0.00    -0.352 N 
ATOM     25  C   UNL A   1      33.542  32.333  27.560  1.00  0.00     0.251 C 
ATOM     26  H   UNL A   1      31.799  32.031  26.604  1.00  0.00     0.163 HD
ATOM     27  O   UNL A   1      33.266  33.463  27.926  1.00  0.00    -0.269 OA
BRANCH  25  28
ATOM     28  C   UNL A   1      34.832  31.715  27.938  1.00  0.00     0.039 A 
ATOM     29  C   UNL A   1      35.958  32.528  28.082  1.00  0.00     0.014 A 
ATOM     30  C   UNL A   1      34.889  30.362  28.269  1.00  0.00     0.014 A 
ATOM     31  C   UNL A   1      37.111  32.001  28.668  1.00  0.00     0.010 A 
ATOM     32  C   UNL A   1      35.985  29.880  28.969  1.00  0.00     0.010 A 
ATOM     33  C   UNL A   1      37.112  30.692  29.174  1.00  0.00    -0.014 A 
BRANCH  33  34
ATOM     34  C   UNL A   1      38.272  30.130  29.912  1.00  0.00     0.031 A 
ATOM     35  C   UNL A   1      38.512  30.543  31.340  1.00  0.00     0.074 A 
ATOM     36  C   UNL A   1      39.166  29.345  29.277  1.00  0.00     0.049 A 
ATOM     37  N   UNL A   1      39.541  30.306  32.113  1.00  0.00    -0.248 NA
ATOM     38  C   UNL A   1      37.480  31.388  31.964  1.00  0.00     0.031 C 
ATOM     39  C   UNL A   1      39.096  28.939  27.871  1.00  0.00     0.029 A 
ATOM     40  N   UNL A   1      40.320  28.758  29.732  1.00  0.00    -0.354 N 
ATOM     41  C   UNL A   1      39.301  31.015  33.283  1.00  0.00     0.074 A 
ATOM     42  C   UNL A   1      38.066  31.740  33.096  1.00  0.00     0.031 C 
ATOM     43  C   UNL A   1      40.137  28.138  27.591  1.00  0.00     0.029 A 
ATOM     44  C   UNL A   1      40.971  28.008  28.782  1.00  0.00     0.049 A 
ATOM     45  H   UNL A   1      40.653  28.865  30.652  1.00  0.00     0.167 HD
ATOM     46  C   UNL A   1      40.027  31.030  34.426  1.00  0.00     0.037 A 
ATOM     47  C   UNL A   1      42.109  27.294  28.866  1.00  0.00     0.037 A 
ATOM     48  C   UNL A   1      41.207  30.239  34.636  1.00  0.00     0.049 A 
ATOM     49  C   UNL A   1      42.854  27.260  30.173  1.00  0.00     0.074 A 
ATOM     50  C   UNL A   1      41.963  30.103  35.787  1.00  0.00     0.029 A 
ATOM     51  N   UNL A   1      41.791  29.430  33.672  1.00  0.00    -0.354 N 
ATOM     52  N   UNL A   1      42.583  27.881  31.296  1.00  0.00    -0.248 NA
ATOM     53  C   UNL A   1      44.059  26.422  30.228  1.00  0.00     0.031 C 
ATOM     54  C   UNL A   1      43.020  29.229  35.512  1.00  0.00     0.029 A 
ATOM     55  C   UNL A   1      42.901  28.793  34.202  1.00  0.00     0.049 A 
ATOM     56  H   UNL A   1      41.466  29.324  32.750  1.00  0.00     0.167 HD
ATOM     57  C   UNL A   1      43.564  27.489  32.196  1.00  0.00     0.074 A 
ATOM     58  C   UNL A   1      44.430  26.565  31.492  1.00  0.00     0.031 C 
ATOM     59  C   UNL A   1      43.737  27.864  33.486  1.00  0.00     0.037 A 
BRANCH  46  60
ATOM     60  C   UNL A   1      39.543  31.913  35.540  1.00  0.00     0.064 A 
ATOM     61  C   UNL A   1      38.596  31.466  36.475  1.00  0.00     0.173 A 
ATOM     62  C   UNL A   1      40.040  33.217  35.683  1.00  0.00     0.173 A 
ATOM     63  F   UNL A   1      38.078  30.233  36.375  1.00  0.00    -0.203 F 
ATOM     64  C   UNL A   1      38.133  32.306  37.484  1.00  0.00     0.198 A 
ATOM     65  C   UNL A   1      39.600  34.042  36.714  1.00  0.00     0.198 A 
ATOM     66  F   UNL A   1      40.951  33.693  34.820  1.00  0.00    -0.203 F 
ATOM     67  F   UNL A   1      37.180  31.879  38.323  1.00  0.00    -0.200 F 
ATOM     68  C   UNL A   1      38.640  33.591  37.607  1.00  0.00     0.200 A 
ATOM     69  F   UNL A   1      40.099  35.280  36.839  1.00  0.00    -0.200 F 
ATOM     70  F   UNL A   1      38.194  34.397  38.580  1.00  0.00    -0.200 F 
ENDBRANCH  46  60
BRANCH  47  71
ATOM     71  C   UNL A   1      42.587  26.512  27.696  1.00  0.00     0.064 A 
ATOM     72  C   UNL A   1      42.100  25.219  27.455  1.00  0.00     0.173 A 
ATOM     73  C   UNL A   1      43.532  27.030  26.800  1.00  0.00     0.173 A 
ATOM     74  F   UNL A   1      41.209  24.672  28.296  1.00  0.00    -0.203 F 
ATOM     75  C   UNL A   1      42.554  24.467  26.374  1.00  0.00     0.198 A 
ATOM     76  C   UNL A   1      43.967  26.287  25.705  1.00  0.00     0.198 A 
ATOM     77  F   UNL A   1      44.023  28.265  26.983  1.00  0.00    -0.203 F 
ATOM     78  F   UNL A   1      42.104  23.218  26.192  1.00  0.00    -0.200 F 
ATOM     79  C   UNL A   1      43.485  25.003  25.496  1.00  0.00     0.200 A 
ATOM     80  F   UNL A   1      44.856  26.814  24.851  1.00  0.00    -0.200 F 
ATOM     81  F   UNL A   1      43.920  24.282  24.454  1.00  0.00    -0.200 F 
ENDBRANCH  47  71
BRANCH  59  82
ATOM     82  C   UNL A   1      44.880  27.246  34.234  1.00  0.00     0.064 A 
ATOM     83  C   UNL A   1      46.140  27.858  34.281  1.00  0.00     0.173 A 
ATOM     84  C   UNL A   1      44.694  26.057  34.953  1.00  0.00     0.173 A 
ATOM     85  F   UNL A   1      46.367  28.989  33.597  1.00  0.00    -0.203 F 
ATOM     86  C   UNL A   1      47.182  27.289  35.008  1.00  0.00     0.198 A 
ATOM     87  C   UNL A   1      45.731  25.505  35.700  1.00  0.00     0.198 A 
ATOM     88  F   UNL A   1      43.503  25.439  34.944  1.00  0.00    -0.203 F 
ATOM     89  F   UNL A   1      48.390  27.869  35.008  1.00  0.00    -0.200 F 
ATOM     90  C   UNL A   1      46.974  26.118  35.723  1.00  0.00     0.200 A 
ATOM     91  F   UNL A   1      45.525  24.381  36.400  1.00  0.00    -0.200 F 
ATOM     92  F   UNL A   1      47.977  25.577  36.429  1.00  0.00    -0.200 F 
ENDBRANCH  59  82
ENDBRANCH  33  34
ENDBRANCH  25  28
ENDBRANCH  23  24
ENDBRANCH   1  23
TORSDOF 13
ENDMDL
