MODEL 1
REMARK VINA RESULT:     -12.2      0.000      0.000
REMARK SMILES CC(C)[C@@H](C)[N@@H+]1[C@@H](C(=O)NCCCCNC(=O)c2ccc(-c3c4nc(c(-c5c(F)c(F)c(F)c(F)c5F)c5ccc([nH]5)c(-c5c(F)c(F)c(F)c(F)c5F)c5nc(c(-c6c(F)c(F)c(F)c(F)c6F)c6ccc3[nH]6)C=C5)C=C4)cc2)C[C@H]2CCCC[C@H]21
REMARK SMILES IDX 12 1 11 2 10 3 8 4 9 5 7 7 6 8 87 9 81 11 82 12 86 13 83 14
REMARK SMILES IDX 85 15 84 16 4 17 5 18 2 19 1 20 3 21 13 22 14 23 15 24 16 25
REMARK SMILES IDX 17 27 18 28 19 29 80 30 20 31 79 32 21 33 22 34 23 35 73 36
REMARK SMILES IDX 24 37 78 38 72 39 74 40 25 41 77 42 71 43 70 44 26 46 58 47
REMARK SMILES IDX 38 48 57 49 39 50 42 51 56 52 75 53 40 54 41 55 55 57 76 58
REMARK SMILES IDX 43 59 27 60 28 61 36 62 29 63 30 64 34 65 37 66 31 67 32 68
REMARK SMILES IDX 35 69 33 70 59 71 60 72 68 73 61 74 62 75 66 76 69 77 63 78
REMARK SMILES IDX 64 79 67 80 65 81 44 82 45 83 53 84 46 85 47 86 51 87 54 88
REMARK SMILES IDX 48 89 49 90 52 91 50 92
REMARK H PARENT 10 6 6 10 15 26 74 45 42 56
REMARK Flexibility Score: inf
ROOT
ATOM      1  C   UNL A   1      31.470  27.491  26.694  1.00  0.00     0.023 C 
ENDROOT
BRANCH   1   2
ATOM      2  C   UNL A   1      30.713  26.282  26.156  1.00  0.00     0.116 C 
BRANCH   2   3
ATOM      3  N   UNL A   1      31.063  25.059  26.850  1.00  0.00    -0.351 N 
ATOM      4  C   UNL A   1      32.087  24.183  26.593  1.00  0.00     0.278 C 
ATOM      5  O   UNL A   1      32.189  23.204  27.333  1.00  0.00    -0.268 OA
ATOM      6  H   UNL A   1      30.486  24.825  27.613  1.00  0.00     0.163 HD
BRANCH   4   7
ATOM      7  C   UNL A   1      33.028  24.491  25.409  1.00  0.00     0.275 C 
ATOM      8  N   UNL A   1      32.788  23.560  24.241  1.00  0.00    -0.320 N 
ATOM      9  C   UNL A   1      34.022  22.768  24.124  1.00  0.00     0.188 C 
ATOM     10  H   UNL A   1      32.028  22.891  24.357  1.00  0.00     0.349 HD
ATOM     11  C   UNL A   1      34.495  24.335  25.827  1.00  0.00     0.085 C 
ATOM     12  C   UNL A   1      35.133  23.685  24.619  1.00  0.00     0.054 C 
ATOM     13  C   UNL A   1      33.904  21.474  24.955  1.00  0.00     0.065 C 
ATOM     14  C   UNL A   1      36.456  22.980  24.903  1.00  0.00     0.010 C 
ATOM     15  C   UNL A   1      35.253  20.769  25.080  1.00  0.00     0.006 C 
ATOM     16  C   UNL A   1      36.304  21.686  25.697  1.00  0.00     0.001 C 
BRANCH   8  17
ATOM     17  C   UNL A   1      32.292  24.319  23.055  1.00  0.00     0.184 C 
ATOM     18  C   UNL A   1      33.073  23.771  21.825  1.00  0.00     0.075 C 
BRANCH  17  19
ATOM     19  C   UNL A   1      32.405  25.898  23.031  1.00  0.00     0.041 C 
ATOM     20  C   UNL A   1      33.659  26.363  22.255  1.00  0.00     0.013 C 
ATOM     21  C   UNL A   1      31.217  26.637  22.395  1.00  0.00     0.013 C 
ENDBRANCH  17  19
ENDBRANCH   8  17
ENDBRANCH   4   7
ENDBRANCH   2   3
ENDBRANCH   1   2
BRANCH   1  22
ATOM     22  C   UNL A   1      31.814  28.553  25.650  1.00  0.00     0.023 C 
BRANCH  22  23
ATOM     23  C   UNL A   1      32.999  29.446  26.000  1.00  0.00     0.116 C 
BRANCH  23  24
ATOM     24  N   UNL A   1      32.607  30.797  26.377  1.00  0.00    -0.352 N 
ATOM     25  C   UNL A   1      33.253  31.678  27.212  1.00  0.00     0.251 C 
ATOM     26  H   UNL A   1      31.766  31.123  25.982  1.00  0.00     0.163 HD
ATOM     27  O   UNL A   1      32.733  32.742  27.525  1.00  0.00    -0.269 OA
BRANCH  25  28
ATOM     28  C   UNL A   1      34.574  31.309  27.757  1.00  0.00     0.039 A 
ATOM     29  C   UNL A   1      35.571  32.283  27.842  1.00  0.00     0.014 A 
ATOM     30  C   UNL A   1      34.800  30.016  28.237  1.00  0.00     0.014 A 
ATOM     31  C   UNL A   1      36.771  31.986  28.493  1.00  0.00     0.010 A 
ATOM     32  C   UNL A   1      35.966  29.742  28.943  1.00  0.00     0.010 A 
ATOM     33  C   UNL A   1      36.958  30.728  29.087  1.00  0.00    -0.014 A 
BRANCH  33  34
ATOM     34  C   UNL A   1      38.176  30.399  29.868  1.00  0.00     0.031 A 
ATOM     35  C   UNL A   1      39.181  29.437  29.300  1.00  0.00     0.074 A 
ATOM     36  C   UNL A   1      38.329  30.879  31.117  1.00  0.00     0.049 A 
ATOM     37  N   UNL A   1      40.204  28.867  29.880  1.00  0.00    -0.248 NA
ATOM     38  C   UNL A   1      38.986  29.043  27.895  1.00  0.00     0.031 C 
ATOM     39  C   UNL A   1      37.415  31.805  31.788  1.00  0.00     0.029 A 
ATOM     40  N   UNL A   1      39.298  30.632  32.057  1.00  0.00    -0.354 N 
ATOM     41  C   UNL A   1      40.761  28.030  28.922  1.00  0.00     0.074 A 
ATOM     42  C   UNL A   1      39.937  28.134  27.736  1.00  0.00     0.031 C 
ATOM     43  C   UNL A   1      37.872  32.053  33.027  1.00  0.00     0.029 A 
ATOM     44  C   UNL A   1      39.081  31.268  33.255  1.00  0.00     0.049 A 
ATOM     45  H   UNL A   1      40.077  30.053  31.888  1.00  0.00     0.167 HD
ATOM     46  C   UNL A   1      41.871  27.260  29.016  1.00  0.00     0.037 A 
ATOM     47  C   UNL A   1      39.767  31.204  34.412  1.00  0.00     0.037 A 
ATOM     48  C   UNL A   1      42.702  27.180  30.188  1.00  0.00     0.049 A 
ATOM     49  C   UNL A   1      40.981  30.318  34.500  1.00  0.00     0.074 A 
ATOM     50  C   UNL A   1      43.861  26.448  30.375  1.00  0.00     0.029 A 
ATOM     51  N   UNL A   1      42.463  27.864  31.371  1.00  0.00    -0.354 N 
ATOM     52  N   UNL A   1      41.514  29.552  33.580  1.00  0.00    -0.248 NA
ATOM     53  C   UNL A   1      41.687  30.284  35.789  1.00  0.00     0.031 C 
ATOM     54  C   UNL A   1      44.308  26.667  31.682  1.00  0.00     0.029 A 
ATOM     55  C   UNL A   1      43.451  27.567  32.294  1.00  0.00     0.049 A 
ATOM     56  H   UNL A   1      41.704  28.471  31.530  1.00  0.00     0.167 HD
ATOM     57  C   UNL A   1      42.636  28.979  34.163  1.00  0.00     0.074 A 
ATOM     58  C   UNL A   1      42.709  29.485  35.517  1.00  0.00     0.031 C 
ATOM     59  C   UNL A   1      43.526  28.110  33.625  1.00  0.00     0.037 A 
BRANCH  46  60
ATOM     60  C   UNL A   1      42.252  26.449  27.816  1.00  0.00     0.064 A 
ATOM     61  C   UNL A   1      43.182  26.924  26.878  1.00  0.00     0.173 A 
ATOM     62  C   UNL A   1      41.713  25.169  27.617  1.00  0.00     0.173 A 
ATOM     63  F   UNL A   1      43.714  28.148  27.016  1.00  0.00    -0.203 F 
ATOM     64  C   UNL A   1      43.536  26.159  25.770  1.00  0.00     0.198 A 
ATOM     65  C   UNL A   1      42.092  24.395  26.523  1.00  0.00     0.198 A 
ATOM     66  F   UNL A   1      40.825  24.666  28.486  1.00  0.00    -0.203 F 
ATOM     67  F   UNL A   1      44.390  26.653  24.863  1.00  0.00    -0.200 F 
ATOM     68  C   UNL A   1      42.997  24.893  25.597  1.00  0.00     0.200 A 
ATOM     69  F   UNL A   1      41.580  23.167  26.363  1.00  0.00    -0.200 F 
ATOM     70  F   UNL A   1      43.345  24.155  24.534  1.00  0.00    -0.200 F 
ENDBRANCH  46  60
BRANCH  47  71
ATOM     71  C   UNL A   1      39.334  32.008  35.585  1.00  0.00     0.064 A 
ATOM     72  C   UNL A   1      39.831  33.304  35.786  1.00  0.00     0.173 A 
ATOM     73  C   UNL A   1      38.441  31.496  36.537  1.00  0.00     0.173 A 
ATOM     74  F   UNL A   1      40.705  33.827  34.914  1.00  0.00    -0.203 F 
ATOM     75  C   UNL A   1      39.467  34.049  36.906  1.00  0.00     0.198 A 
ATOM     76  C   UNL A   1      38.057  32.253  37.643  1.00  0.00     0.198 A 
ATOM     77  F   UNL A   1      37.935  30.263  36.390  1.00  0.00    -0.203 F 
ATOM     78  F   UNL A   1      39.996  35.265  37.098  1.00  0.00    -0.200 F 
ATOM     79  C   UNL A   1      38.578  33.525  37.831  1.00  0.00     0.200 A 
ATOM     80  F   UNL A   1      37.189  31.748  38.529  1.00  0.00    -0.200 F 
ATOM     81  F   UNL A   1      38.232  34.240  38.910  1.00  0.00    -0.200 F 
ENDBRANCH  47  71
BRANCH  59  82
ATOM     82  C   UNL A   1      44.693  27.701  34.472  1.00  0.00     0.064 A 
ATOM     83  C   UNL A   1      44.615  26.622  35.363  1.00  0.00     0.173 A 
ATOM     84  C   UNL A   1      45.926  28.357  34.336  1.00  0.00     0.173 A 
ATOM     85  F   UNL A   1      43.453  25.974  35.538  1.00  0.00    -0.203 F 
ATOM     86  C   UNL A   1      45.727  26.223  36.099  1.00  0.00     0.198 A 
ATOM     87  C   UNL A   1      47.041  27.940  35.055  1.00  0.00     0.198 A 
ATOM     88  F   UNL A   1      46.051  29.393  33.491  1.00  0.00    -0.203 F 
ATOM     89  F   UNL A   1      45.624  25.209  36.968  1.00  0.00    -0.200 F 
ATOM     90  C   UNL A   1      46.941  26.875  35.937  1.00  0.00     0.200 A 
ATOM     91  F   UNL A   1      48.216  28.564  34.889  1.00  0.00    -0.200 F 
ATOM     92  F   UNL A   1      48.014  26.480  36.636  1.00  0.00    -0.200 F 
ENDBRANCH  59  82
ENDBRANCH  33  34
ENDBRANCH  25  28
ENDBRANCH  23  24
ENDBRANCH  22  23
ENDBRANCH   1  22
TORSDOF 13
ENDMDL
MODEL 2
REMARK VINA RESULT:     -12.2      1.883      7.823
REMARK SMILES CC(C)[C@@H](C)[N@@H+]1[C@@H](C(=O)NCCCCNC(=O)c2ccc(-c3c4nc(c(-c5c(F)c(F)c(F)c(F)c5F)c5ccc([nH]5)c(-c5c(F)c(F)c(F)c(F)c5F)c5nc(c(-c6c(F)c(F)c(F)c(F)c6F)c6ccc3[nH]6)C=C5)C=C4)cc2)C[C@H]2CCCC[C@H]21
REMARK SMILES IDX 12 1 11 2 10 3 8 4 9 5 7 7 6 8 87 9 81 11 82 12 86 13 83 14
REMARK SMILES IDX 85 15 84 16 4 17 5 18 2 19 1 20 3 21 13 22 14 23 15 24 16 25
REMARK SMILES IDX 17 27 18 28 19 29 80 30 20 31 79 32 21 33 22 34 23 35 73 36
REMARK SMILES IDX 24 37 78 38 72 39 74 40 25 41 77 42 71 43 70 44 26 46 58 47
REMARK SMILES IDX 38 48 57 49 39 50 42 51 56 52 75 53 40 54 41 55 55 57 76 58
REMARK SMILES IDX 43 59 27 60 28 61 36 62 29 63 30 64 34 65 37 66 31 67 32 68
REMARK SMILES IDX 35 69 33 70 59 71 60 72 68 73 61 74 62 75 66 76 69 77 63 78
REMARK SMILES IDX 64 79 67 80 65 81 44 82 45 83 53 84 46 85 47 86 51 87 54 88
REMARK SMILES IDX 48 89 49 90 52 91 50 92
REMARK H PARENT 10 6 6 10 15 26 74 45 42 56
REMARK Flexibility Score: inf
ROOT
ATOM      1  C   UNL A   1      31.643  31.120  26.105  1.00  0.00     0.023 C 
ENDROOT
BRANCH   1   2
ATOM      2  C   UNL A   1      32.464  30.130  26.924  1.00  0.00     0.116 C 
BRANCH   2   3
ATOM      3  N   UNL A   1      31.698  28.958  27.299  1.00  0.00    -0.351 N 
ATOM      4  C   UNL A   1      31.676  27.717  26.713  1.00  0.00     0.278 C 
ATOM      5  O   UNL A   1      30.942  26.868  27.220  1.00  0.00    -0.268 OA
ATOM      6  H   UNL A   1      31.114  29.066  28.084  1.00  0.00     0.163 HD
BRANCH   4   7
ATOM      7  C   UNL A   1      32.567  27.480  25.475  1.00  0.00     0.275 C 
ATOM      8  N   UNL A   1      31.861  26.660  24.419  1.00  0.00    -0.320 N 
ATOM      9  C   UNL A   1      32.613  25.397  24.350  1.00  0.00     0.188 C 
ATOM     10  H   UNL A   1      30.895  26.407  24.628  1.00  0.00     0.349 HD
ATOM     11  C   UNL A   1      33.845  26.728  25.864  1.00  0.00     0.085 C 
ATOM     12  C   UNL A   1      34.046  25.767  24.712  1.00  0.00     0.054 C 
ATOM     13  C   UNL A   1      32.004  24.360  25.316  1.00  0.00     0.065 C 
ATOM     14  C   UNL A   1      34.946  24.577  25.029  1.00  0.00     0.010 C 
ATOM     15  C   UNL A   1      32.916  23.145  25.473  1.00  0.00     0.006 C 
ATOM     16  C   UNL A   1      34.303  23.552  25.959  1.00  0.00     0.001 C 
BRANCH   8  17
ATOM     17  C   UNL A   1      31.659  27.460  23.176  1.00  0.00     0.184 C 
ATOM     18  C   UNL A   1      32.578  28.710  23.305  1.00  0.00     0.075 C 
BRANCH  17  19
ATOM     19  C   UNL A   1      30.207  27.968  22.798  1.00  0.00     0.041 C 
ATOM     20  C   UNL A   1      29.115  27.155  23.531  1.00  0.00     0.013 C 
ATOM     21  C   UNL A   1      29.920  29.444  23.118  1.00  0.00     0.013 C 
ENDBRANCH  17  19
ENDBRANCH   8  17
ENDBRANCH   4   7
ENDBRANCH   2   3
ENDBRANCH   1   2
BRANCH   1  22
ATOM     22  C   UNL A   1      31.407  32.472  26.778  1.00  0.00     0.023 C 
BRANCH  22  23
ATOM     23  C   UNL A   1      32.633  33.088  27.442  1.00  0.00     0.116 C 
BRANCH  23  24
ATOM     24  N   UNL A   1      32.466  34.500  27.758  1.00  0.00    -0.352 N 
ATOM     25  C   UNL A   1      33.122  35.253  28.702  1.00  0.00     0.251 C 
ATOM     26  H   UNL A   1      31.792  34.979  27.223  1.00  0.00     0.163 HD
ATOM     27  O   UNL A   1      32.783  36.409  28.929  1.00  0.00    -0.269 OA
BRANCH  25  28
ATOM     28  C   UNL A   1      34.223  34.638  29.470  1.00  0.00     0.039 A 
ATOM     29  C   UNL A   1      33.939  34.022  30.690  1.00  0.00     0.014 A 
ATOM     30  C   UNL A   1      35.519  34.623  28.949  1.00  0.00     0.014 A 
ATOM     31  C   UNL A   1      34.942  33.308  31.351  1.00  0.00     0.010 A 
ATOM     32  C   UNL A   1      36.498  33.856  29.572  1.00  0.00     0.010 A 
ATOM     33  C   UNL A   1      36.215  33.182  30.773  1.00  0.00    -0.014 A 
BRANCH  33  34
ATOM     34  C   UNL A   1      37.283  32.357  31.391  1.00  0.00     0.031 A 
ATOM     35  C   UNL A   1      37.798  32.718  32.755  1.00  0.00     0.074 A 
ATOM     36  C   UNL A   1      37.855  31.358  30.693  1.00  0.00     0.049 A 
ATOM     37  N   UNL A   1      38.843  32.260  33.395  1.00  0.00    -0.248 NA
ATOM     38  C   UNL A   1      37.051  33.755  33.484  1.00  0.00     0.031 C 
ATOM     39  C   UNL A   1      37.457  30.923  29.352  1.00  0.00     0.029 A 
ATOM     40  N   UNL A   1      38.913  30.542  31.004  1.00  0.00    -0.354 N 
ATOM     41  C   UNL A   1      38.893  32.969  34.588  1.00  0.00     0.074 A 
ATOM     42  C   UNL A   1      37.799  33.917  34.565  1.00  0.00     0.031 C 
ATOM     43  C   UNL A   1      38.256  29.916  28.962  1.00  0.00     0.029 A 
ATOM     44  C   UNL A   1      39.251  29.667  30.000  1.00  0.00     0.049 A 
ATOM     45  H   UNL A   1      39.387  30.580  31.868  1.00  0.00     0.167 HD
ATOM     46  C   UNL A   1      39.761  32.828  35.618  1.00  0.00     0.037 A 
ATOM     47  C   UNL A   1      40.264  28.782  29.919  1.00  0.00     0.037 A 
ATOM     48  C   UNL A   1      40.830  31.867  35.647  1.00  0.00     0.049 A 
ATOM     49  C   UNL A   1      41.232  28.666  31.066  1.00  0.00     0.074 A 
ATOM     50  C   UNL A   1      41.749  31.629  36.655  1.00  0.00     0.029 A 
ATOM     51  N   UNL A   1      41.119  30.979  34.622  1.00  0.00    -0.354 N 
ATOM     52  N   UNL A   1      41.253  29.322  32.201  1.00  0.00    -0.248 NA
ATOM     53  C   UNL A   1      42.320  27.688  30.920  1.00  0.00     0.031 C 
ATOM     54  C   UNL A   1      42.612  30.615  36.227  1.00  0.00     0.029 A 
ATOM     55  C   UNL A   1      42.205  30.194  34.972  1.00  0.00     0.049 A 
ATOM     56  H   UNL A   1      40.626  30.915  33.773  1.00  0.00     0.167 HD
ATOM     57  C   UNL A   1      42.327  28.810  32.917  1.00  0.00     0.074 A 
ATOM     58  C   UNL A   1      42.933  27.788  32.091  1.00  0.00     0.031 C 
ATOM     59  C   UNL A   1      42.771  29.157  34.149  1.00  0.00     0.037 A 
BRANCH  46  60
ATOM     60  C   UNL A   1      39.582  33.732  36.800  1.00  0.00     0.064 A 
ATOM     61  C   UNL A   1      40.171  35.005  36.842  1.00  0.00     0.173 A 
ATOM     62  C   UNL A   1      38.787  33.339  37.887  1.00  0.00     0.173 A 
ATOM     63  F   UNL A   1      40.952  35.421  35.834  1.00  0.00    -0.203 F 
ATOM     64  C   UNL A   1      39.993  35.840  37.942  1.00  0.00     0.198 A 
ATOM     65  C   UNL A   1      38.588  34.188  38.971  1.00  0.00     0.198 A 
ATOM     66  F   UNL A   1      38.199  32.134  37.894  1.00  0.00    -0.203 F 
ATOM     67  F   UNL A   1      40.603  37.032  37.981  1.00  0.00    -0.200 F 
ATOM     68  C   UNL A   1      39.196  35.435  39.002  1.00  0.00     0.200 A 
ATOM     69  F   UNL A   1      37.808  33.801  39.991  1.00  0.00    -0.200 F 
ATOM     70  F   UNL A   1      39.019  36.243  40.056  1.00  0.00    -0.200 F 
ENDBRANCH  46  60
BRANCH  47  71
ATOM     71  C   UNL A   1      40.415  27.926  28.714  1.00  0.00     0.064 A 
ATOM     72  C   UNL A   1      41.173  28.361  27.618  1.00  0.00     0.173 A 
ATOM     73  C   UNL A   1      39.791  26.673  28.621  1.00  0.00     0.173 A 
ATOM     74  F   UNL A   1      41.770  29.561  27.652  1.00  0.00    -0.203 F 
ATOM     75  C   UNL A   1      41.283  27.586  26.465  1.00  0.00     0.198 A 
ATOM     76  C   UNL A   1      39.924  25.887  27.477  1.00  0.00     0.198 A 
ATOM     77  F   UNL A   1      39.056  26.210  29.642  1.00  0.00    -0.203 F 
ATOM     78  F   UNL A   1      41.973  28.049  25.414  1.00  0.00    -0.200 F 
ATOM     79  C   UNL A   1      40.661  26.349  26.397  1.00  0.00     0.200 A 
ATOM     80  F   UNL A   1      39.331  24.688  27.418  1.00  0.00    -0.200 F 
ATOM     81  F   UNL A   1      40.765  25.606  25.286  1.00  0.00    -0.200 F 
ENDBRANCH  47  71
BRANCH  59  82
ATOM     82  C   UNL A   1      43.926  28.384  34.712  1.00  0.00     0.064 A 
ATOM     83  C   UNL A   1      45.249  28.823  34.563  1.00  0.00     0.173 A 
ATOM     84  C   UNL A   1      43.696  27.225  35.469  1.00  0.00     0.173 A 
ATOM     85  F   UNL A   1      45.519  29.917  33.834  1.00  0.00    -0.203 F 
ATOM     86  C   UNL A   1      46.302  28.121  35.141  1.00  0.00     0.198 A 
ATOM     87  C   UNL A   1      44.748  26.540  36.066  1.00  0.00     0.198 A 
ATOM     88  F   UNL A   1      42.446  26.770  35.644  1.00  0.00    -0.203 F 
ATOM     89  F   UNL A   1      47.562  28.538  34.961  1.00  0.00    -0.200 F 
ATOM     90  C   UNL A   1      46.051  26.986  35.900  1.00  0.00     0.200 A 
ATOM     91  F   UNL A   1      44.503  25.451  36.808  1.00  0.00    -0.200 F 
ATOM     92  F   UNL A   1      47.065  26.320  36.468  1.00  0.00    -0.200 F 
ENDBRANCH  59  82
ENDBRANCH  33  34
ENDBRANCH  25  28
ENDBRANCH  23  24
ENDBRANCH  22  23
ENDBRANCH   1  22
TORSDOF 13
ENDMDL
MODEL 3
REMARK VINA RESULT:     -12.1      0.147      1.976
REMARK SMILES CC(C)[C@@H](C)[N@@H+]1[C@@H](C(=O)NCCCCNC(=O)c2ccc(-c3c4nc(c(-c5c(F)c(F)c(F)c(F)c5F)c5ccc([nH]5)c(-c5c(F)c(F)c(F)c(F)c5F)c5nc(c(-c6c(F)c(F)c(F)c(F)c6F)c6ccc3[nH]6)C=C5)C=C4)cc2)C[C@H]2CCCC[C@H]21
REMARK SMILES IDX 12 1 11 2 10 3 8 4 9 5 7 7 6 8 87 9 81 11 82 12 86 13 83 14
REMARK SMILES IDX 85 15 84 16 4 17 5 18 2 19 1 20 3 21 13 22 14 23 15 24 16 25
REMARK SMILES IDX 17 27 18 28 19 29 80 30 20 31 79 32 21 33 22 34 23 35 73 36
REMARK SMILES IDX 24 37 78 38 72 39 74 40 25 41 77 42 71 43 70 44 26 46 58 47
REMARK SMILES IDX 38 48 57 49 39 50 42 51 56 52 75 53 40 54 41 55 55 57 76 58
REMARK SMILES IDX 43 59 27 60 28 61 36 62 29 63 30 64 34 65 37 66 31 67 32 68
REMARK SMILES IDX 35 69 33 70 59 71 60 72 68 73 61 74 62 75 66 76 69 77 63 78
REMARK SMILES IDX 64 79 67 80 65 81 44 82 45 83 53 84 46 85 47 86 51 87 54 88
REMARK SMILES IDX 48 89 49 90 52 91 50 92
REMARK H PARENT 10 6 6 10 15 26 74 45 42 56
REMARK Flexibility Score: inf
ROOT
ATOM      1  C   UNL A   1      31.553  27.607  26.722  1.00  0.00     0.023 C 
ENDROOT
BRANCH   1   2
ATOM      2  C   UNL A   1      30.764  26.423  26.175  1.00  0.00     0.116 C 
BRANCH   2   3
ATOM      3  N   UNL A   1      31.070  25.189  26.869  1.00  0.00    -0.351 N 
ATOM      4  C   UNL A   1      32.055  24.271  26.606  1.00  0.00     0.278 C 
ATOM      5  O   UNL A   1      32.123  23.290  27.347  1.00  0.00    -0.268 OA
ATOM      6  H   UNL A   1      30.490  24.980  27.638  1.00  0.00     0.163 HD
BRANCH   4   7
ATOM      7  C   UNL A   1      32.997  24.536  25.412  1.00  0.00     0.275 C 
ATOM      8  N   UNL A   1      32.725  23.595  24.259  1.00  0.00    -0.320 N 
ATOM      9  C   UNL A   1      33.937  22.769  24.148  1.00  0.00     0.188 C 
ATOM     10  H   UNL A   1      31.948  22.948  24.390  1.00  0.00     0.349 HD
ATOM     11  C   UNL A   1      34.461  24.348  25.824  1.00  0.00     0.085 C 
ATOM     12  C   UNL A   1      35.075  23.664  24.622  1.00  0.00     0.054 C 
ATOM     13  C   UNL A   1      33.790  21.490  24.999  1.00  0.00     0.065 C 
ATOM     14  C   UNL A   1      36.381  22.929  24.909  1.00  0.00     0.010 C 
ATOM     15  C   UNL A   1      35.121  20.752  25.126  1.00  0.00     0.006 C 
ATOM     16  C   UNL A   1      36.199  21.651  25.723  1.00  0.00     0.001 C 
BRANCH   8  17
ATOM     17  C   UNL A   1      32.242  24.348  23.065  1.00  0.00     0.184 C 
ATOM     18  C   UNL A   1      33.023  23.784  21.843  1.00  0.00     0.075 C 
BRANCH  17  19
ATOM     19  C   UNL A   1      32.371  25.927  23.029  1.00  0.00     0.041 C 
ATOM     20  C   UNL A   1      33.631  26.373  22.253  1.00  0.00     0.013 C 
ATOM     21  C   UNL A   1      31.192  26.671  22.384  1.00  0.00     0.013 C 
ENDBRANCH  17  19
ENDBRANCH   8  17
ENDBRANCH   4   7
ENDBRANCH   2   3
ENDBRANCH   1   2
BRANCH   1  22
ATOM     22  C   UNL A   1      31.850  28.709  25.706  1.00  0.00     0.023 C 
BRANCH  22  23
ATOM     23  C   UNL A   1      33.054  29.585  26.032  1.00  0.00     0.116 C 
BRANCH  23  24
ATOM     24  N   UNL A   1      32.689  30.945  26.404  1.00  0.00    -0.352 N 
ATOM     25  C   UNL A   1      33.351  31.816  27.237  1.00  0.00     0.251 C 
ATOM     26  H   UNL A   1      31.855  31.287  26.006  1.00  0.00     0.163 HD
ATOM     27  O   UNL A   1      32.852  32.891  27.546  1.00  0.00    -0.269 OA
BRANCH  25  28
ATOM     28  C   UNL A   1      34.664  31.422  27.786  1.00  0.00     0.039 A 
ATOM     29  C   UNL A   1      35.686  32.370  27.849  1.00  0.00     0.014 A 
ATOM     30  C   UNL A   1      34.856  30.133  28.291  1.00  0.00     0.014 A 
ATOM     31  C   UNL A   1      36.880  32.053  28.502  1.00  0.00     0.010 A 
ATOM     32  C   UNL A   1      36.016  29.842  28.999  1.00  0.00     0.010 A 
ATOM     33  C   UNL A   1      37.035  30.803  29.121  1.00  0.00    -0.014 A 
BRANCH  33  34
ATOM     34  C   UNL A   1      38.246  30.457  29.905  1.00  0.00     0.031 A 
ATOM     35  C   UNL A   1      39.238  29.480  29.339  1.00  0.00     0.074 A 
ATOM     36  C   UNL A   1      38.402  30.934  31.154  1.00  0.00     0.049 A 
ATOM     37  N   UNL A   1      40.252  28.896  29.922  1.00  0.00    -0.248 NA
ATOM     38  C   UNL A   1      39.041  29.089  27.934  1.00  0.00     0.031 C 
ATOM     39  C   UNL A   1      37.500  31.874  31.823  1.00  0.00     0.029 A 
ATOM     40  N   UNL A   1      39.366  30.674  32.097  1.00  0.00    -0.354 N 
ATOM     41  C   UNL A   1      40.799  28.051  28.966  1.00  0.00     0.074 A 
ATOM     42  C   UNL A   1      39.980  28.166  27.778  1.00  0.00     0.031 C 
ATOM     43  C   UNL A   1      37.958  32.115  33.063  1.00  0.00     0.029 A 
ATOM     44  C   UNL A   1      39.155  31.313  33.294  1.00  0.00     0.049 A 
ATOM     45  H   UNL A   1      40.137  30.084  31.929  1.00  0.00     0.167 HD
ATOM     46  C   UNL A   1      41.897  27.265  29.063  1.00  0.00     0.037 A 
ATOM     47  C   UNL A   1      39.837  31.239  34.453  1.00  0.00     0.037 A 
ATOM     48  C   UNL A   1      42.724  27.173  30.237  1.00  0.00     0.049 A 
ATOM     49  C   UNL A   1      41.038  30.336  34.544  1.00  0.00     0.074 A 
ATOM     50  C   UNL A   1      43.872  26.424  30.427  1.00  0.00     0.029 A 
ATOM     51  N   UNL A   1      42.492  27.861  31.419  1.00  0.00    -0.354 N 
ATOM     52  N   UNL A   1      41.562  29.562  33.625  1.00  0.00    -0.248 NA
ATOM     53  C   UNL A   1      41.740  30.292  35.835  1.00  0.00     0.031 C 
ATOM     54  C   UNL A   1      44.319  26.637  31.735  1.00  0.00     0.029 A 
ATOM     55  C   UNL A   1      43.474  27.549  32.344  1.00  0.00     0.049 A 
ATOM     56  H   UNL A   1      41.742  28.478  31.576  1.00  0.00     0.167 HD
ATOM     57  C   UNL A   1      42.674  28.973  34.212  1.00  0.00     0.074 A 
ATOM     58  C   UNL A   1      42.751  29.478  35.566  1.00  0.00     0.031 C 
ATOM     59  C   UNL A   1      43.553  28.091  33.676  1.00  0.00     0.037 A 
BRANCH  46  60
ATOM     60  C   UNL A   1      42.270  26.448  27.864  1.00  0.00     0.064 A 
ATOM     61  C   UNL A   1      41.670  25.204  27.611  1.00  0.00     0.173 A 
ATOM     62  C   UNL A   1      43.210  26.924  26.938  1.00  0.00     0.173 A 
ATOM     63  F   UNL A   1      40.776  24.699  28.474  1.00  0.00    -0.203 F 
ATOM     64  C   UNL A   1      42.018  24.457  26.489  1.00  0.00     0.198 A 
ATOM     65  C   UNL A   1      43.534  26.186  25.803  1.00  0.00     0.198 A 
ATOM     66  F   UNL A   1      43.810  28.108  27.131  1.00  0.00    -0.203 F 
ATOM     67  F   UNL A   1      41.466  23.251  26.293  1.00  0.00    -0.200 F 
ATOM     68  C   UNL A   1      42.943  24.951  25.582  1.00  0.00     0.200 A 
ATOM     69  F   UNL A   1      44.420  26.669  24.920  1.00  0.00    -0.200 F 
ATOM     70  F   UNL A   1      43.271  24.233  24.500  1.00  0.00    -0.200 F 
ENDBRANCH  46  60
BRANCH  47  71
ATOM     71  C   UNL A   1      39.413  32.050  35.624  1.00  0.00     0.064 A 
ATOM     72  C   UNL A   1      38.477  31.549  36.540  1.00  0.00     0.173 A 
ATOM     73  C   UNL A   1      39.910  33.344  35.841  1.00  0.00     0.173 A 
ATOM     74  F   UNL A   1      37.956  30.326  36.361  1.00  0.00    -0.203 F 
ATOM     75  C   UNL A   1      38.037  32.318  37.615  1.00  0.00     0.198 A 
ATOM     76  C   UNL A   1      39.489  34.102  36.933  1.00  0.00     0.198 A 
ATOM     77  F   UNL A   1      40.809  33.869  34.996  1.00  0.00    -0.203 F 
ATOM     78  F   UNL A   1      37.105  31.832  38.446  1.00  0.00    -0.200 F 
ATOM     79  C   UNL A   1      38.546  33.592  37.813  1.00  0.00     0.200 A 
ATOM     80  F   UNL A   1      39.992  35.328  37.127  1.00  0.00    -0.200 F 
ATOM     81  F   UNL A   1      38.121  34.333  38.845  1.00  0.00    -0.200 F 
ENDBRANCH  47  71
BRANCH  59  82
ATOM     82  C   UNL A   1      44.712  27.666  34.525  1.00  0.00     0.064 A 
ATOM     83  C   UNL A   1      45.901  28.407  34.575  1.00  0.00     0.173 A 
ATOM     84  C   UNL A   1      44.602  26.537  35.353  1.00  0.00     0.173 A 
ATOM     85  F   UNL A   1      46.057  29.484  33.790  1.00  0.00    -0.203 F 
ATOM     86  C   UNL A   1      46.944  28.025  35.413  1.00  0.00     0.198 A 
ATOM     87  C   UNL A   1      45.637  26.174  36.207  1.00  0.00     0.198 A 
ATOM     88  F   UNL A   1      43.481  25.799  35.344  1.00  0.00    -0.203 F 
ATOM     89  F   UNL A   1      48.084  28.729  35.423  1.00  0.00    -0.200 F 
ATOM     90  C   UNL A   1      46.808  26.916  36.236  1.00  0.00     0.200 A 
ATOM     91  F   UNL A   1      45.500  25.108  37.009  1.00  0.00    -0.200 F 
ATOM     92  F   UNL A   1      47.809  26.559  37.053  1.00  0.00    -0.200 F 
ENDBRANCH  59  82
ENDBRANCH  33  34
ENDBRANCH  25  28
ENDBRANCH  23  24
ENDBRANCH  22  23
ENDBRANCH   1  22
TORSDOF 13
ENDMDL
