MODEL 1
REMARK VINA RESULT:     -12.2      0.000      0.000
REMARK SMILES O=C(NCCCCNC(=O)c1ccc(NC2CC2)c(F)c1F)c1ccc(-c2c3nc(c(-c4c(F)c(F)c(F)c(F)c4F)c4ccc([nH]4)c(-c4c(F)c(F)c(F)c(F)c4F)c4nc(c(-c5c(F)c(F)c(F)c(F)c5F)c5ccc2[nH]5)C=C4)C=C3)cc1
REMARK SMILES IDX 5 1 4 2 3 3 1 4 2 5 23 7 24 8 85 9 25 10 84 11 26 12 27 13
REMARK SMILES IDX 28 14 78 15 29 16 83 17 77 18 79 19 30 20 82 21 76 22 75 23
REMARK SMILES IDX 31 25 63 26 43 27 62 28 44 29 47 30 61 31 80 32 45 33 46 34
REMARK SMILES IDX 60 36 81 37 48 38 32 39 33 40 41 41 34 42 35 43 39 44 42 45
REMARK SMILES IDX 36 46 37 47 40 48 38 49 64 50 65 51 73 52 66 53 67 54 71 55
REMARK SMILES IDX 74 56 68 57 69 58 72 59 70 60 49 61 50 62 58 63 51 64 52 65
REMARK SMILES IDX 56 66 59 67 53 68 54 69 57 70 55 71 6 72 7 73 8 74 9 75
REMARK SMILES IDX 10 77 11 78 12 79 21 80 13 81 19 82 22 83 14 84 20 85 15 86
REMARK SMILES IDX 16 88 17 89 18 90
REMARK H PARENT 3 6 79 24 47 35 8 76 15 87
REMARK Flexibility Score: inf
ROOT
ATOM      1  C   UNL A   1      32.114  28.281  25.649  1.00  0.00     0.023 C 
ENDROOT
BRANCH   1   2
ATOM      2  C   UNL A   1      33.141  29.403  25.587  1.00  0.00     0.116 C 
BRANCH   2   3
ATOM      3  N   UNL A   1      32.642  30.670  26.101  1.00  0.00    -0.352 N 
ATOM      4  O   UNL A   1      32.559  32.465  27.474  1.00  0.00    -0.269 OA
ATOM      5  C   UNL A   1      33.179  31.485  27.072  1.00  0.00     0.251 C 
ATOM      6  H   UNL A   1      31.802  30.989  25.697  1.00  0.00     0.163 HD
BRANCH   5   7
ATOM      7  C   UNL A   1      34.497  31.153  27.656  1.00  0.00     0.039 A 
ATOM      8  C   UNL A   1      34.755  29.865  28.123  1.00  0.00     0.014 A 
ATOM      9  C   UNL A   1      35.473  32.149  27.767  1.00  0.00     0.014 A 
ATOM     10  C   UNL A   1      35.902  29.622  28.864  1.00  0.00     0.010 A 
ATOM     11  C   UNL A   1      36.679  31.871  28.418  1.00  0.00     0.010 A 
ATOM     12  C   UNL A   1      36.886  30.616  29.010  1.00  0.00    -0.014 A 
BRANCH  12  13
ATOM     13  C   UNL A   1      38.138  30.272  29.732  1.00  0.00     0.031 A 
ATOM     14  C   UNL A   1      38.389  30.724  31.142  1.00  0.00     0.074 A 
ATOM     15  C   UNL A   1      39.024  29.468  29.112  1.00  0.00     0.049 A 
ATOM     16  N   UNL A   1      39.380  30.411  31.940  1.00  0.00    -0.248 NA
ATOM     17  C   UNL A   1      37.416  31.655  31.734  1.00  0.00     0.031 C 
ATOM     18  C   UNL A   1      38.892  28.985  27.736  1.00  0.00     0.029 A 
ATOM     19  N   UNL A   1      40.177  28.877  29.562  1.00  0.00    -0.354 N 
ATOM     20  C   UNL A   1      39.162  31.116  33.116  1.00  0.00     0.074 A 
ATOM     21  C   UNL A   1      37.959  31.896  32.921  1.00  0.00     0.031 C 
ATOM     22  C   UNL A   1      39.867  28.104  27.484  1.00  0.00     0.029 A 
ATOM     23  C   UNL A   1      40.735  28.012  28.653  1.00  0.00     0.049 A 
ATOM     24  H   UNL A   1      40.565  29.053  30.449  1.00  0.00     0.167 HD
ATOM     25  C   UNL A   1      39.899  31.104  34.253  1.00  0.00     0.037 A 
ATOM     26  C   UNL A   1      41.824  27.227  28.744  1.00  0.00     0.037 A 
ATOM     27  C   UNL A   1      41.080  30.300  34.445  1.00  0.00     0.049 A 
ATOM     28  C   UNL A   1      42.622  27.233  30.013  1.00  0.00     0.074 A 
ATOM     29  C   UNL A   1      41.861  30.178  35.581  1.00  0.00     0.029 A 
ATOM     30  N   UNL A   1      41.652  29.486  33.478  1.00  0.00    -0.354 N 
ATOM     31  N   UNL A   1      42.386  27.877  31.129  1.00  0.00    -0.248 NA
ATOM     32  C   UNL A   1      43.843  26.418  30.034  1.00  0.00     0.031 C 
ATOM     33  C   UNL A   1      42.934  29.332  35.287  1.00  0.00     0.029 A 
ATOM     34  C   UNL A   1      42.794  28.884  33.983  1.00  0.00     0.049 A 
ATOM     35  H   UNL A   1      41.298  29.355  32.569  1.00  0.00     0.167 HD
ATOM     36  C   UNL A   1      43.424  27.548  31.987  1.00  0.00     0.074 A 
ATOM     37  C   UNL A   1      44.283  26.627  31.269  1.00  0.00     0.031 C 
ATOM     38  C   UNL A   1      43.645  27.977  33.252  1.00  0.00     0.037 A 
BRANCH  25  39
ATOM     39  C   UNL A   1      39.466  31.990  35.386  1.00  0.00     0.064 A 
ATOM     40  C   UNL A   1      38.559  31.519  36.347  1.00  0.00     0.173 A 
ATOM     41  C   UNL A   1      39.886  33.326  35.482  1.00  0.00     0.173 A 
ATOM     42  F   UNL A   1      38.118  30.253  36.296  1.00  0.00    -0.203 F 
ATOM     43  C   UNL A   1      38.080  32.352  37.355  1.00  0.00     0.198 A 
ATOM     44  C   UNL A   1      39.426  34.149  36.506  1.00  0.00     0.198 A 
ATOM     45  F   UNL A   1      40.759  33.824  34.593  1.00  0.00    -0.203 F 
ATOM     46  F   UNL A   1      37.189  31.887  38.242  1.00  0.00    -0.200 F 
ATOM     47  C   UNL A   1      38.517  33.666  37.436  1.00  0.00     0.200 A 
ATOM     48  F   UNL A   1      39.866  35.412  36.597  1.00  0.00    -0.200 F 
ATOM     49  F   UNL A   1      38.064  34.464  38.413  1.00  0.00    -0.200 F 
ENDBRANCH  25  39
BRANCH  26  50
ATOM     50  C   UNL A   1      42.184  26.361  27.594  1.00  0.00     0.064 A 
ATOM     51  C   UNL A   1      41.632  25.079  27.450  1.00  0.00     0.173 A 
ATOM     52  C   UNL A   1      43.159  26.762  26.671  1.00  0.00     0.173 A 
ATOM     53  F   UNL A   1      40.704  24.647  28.315  1.00  0.00    -0.203 F 
ATOM     54  C   UNL A   1      42.073  24.215  26.450  1.00  0.00     0.198 A 
ATOM     55  C   UNL A   1      43.579  25.906  25.655  1.00  0.00     0.198 A 
ATOM     56  F   UNL A   1      43.704  27.984  26.761  1.00  0.00    -0.203 F 
ATOM     57  F   UNL A   1      41.574  22.974  26.372  1.00  0.00    -0.200 F 
ATOM     58  C   UNL A   1      43.046  24.629  25.554  1.00  0.00     0.200 A 
ATOM     59  F   UNL A   1      44.509  26.315  24.780  1.00  0.00    -0.200 F 
ATOM     60  F   UNL A   1      43.476  23.796  24.597  1.00  0.00    -0.200 F 
ENDBRANCH  26  50
BRANCH  38  61
ATOM     61  C   UNL A   1      44.866  27.465  33.954  1.00  0.00     0.064 A 
ATOM     62  C   UNL A   1      44.810  26.290  34.718  1.00  0.00     0.173 A 
ATOM     63  C   UNL A   1      46.070  28.185  33.938  1.00  0.00     0.173 A 
ATOM     64  F   UNL A   1      43.678  25.570  34.767  1.00  0.00    -0.203 F 
ATOM     65  C   UNL A   1      45.908  25.866  35.459  1.00  0.00     0.198 A 
ATOM     66  C   UNL A   1      47.174  27.744  34.662  1.00  0.00     0.198 A 
ATOM     67  F   UNL A   1      46.175  29.307  33.211  1.00  0.00    -0.203 F 
ATOM     68  F   UNL A   1      45.821  24.760  36.211  1.00  0.00    -0.200 F 
ATOM     69  C   UNL A   1      47.090  26.592  35.430  1.00  0.00     0.200 A 
ATOM     70  F   UNL A   1      48.321  28.435  34.616  1.00  0.00    -0.200 F 
ATOM     71  F   UNL A   1      48.147  26.181  36.142  1.00  0.00    -0.200 F 
ENDBRANCH  38  61
ENDBRANCH  12  13
ENDBRANCH   5   7
ENDBRANCH   2   3
ENDBRANCH   1   2
BRANCH   1  72
ATOM     72  C   UNL A   1      32.425  27.174  26.651  1.00  0.00     0.023 C 
BRANCH  72  73
ATOM     73  C   UNL A   1      32.261  25.754  26.121  1.00  0.00     0.116 C 
BRANCH  73  74
ATOM     74  N   UNL A   1      31.091  25.074  26.658  1.00  0.00    -0.352 N 
ATOM     75  C   UNL A   1      30.918  23.731  26.892  1.00  0.00     0.254 C 
ATOM     76  H   UNL A   1      30.325  25.651  26.883  1.00  0.00     0.163 HD
ATOM     77  O   UNL A   1      29.862  23.293  27.330  1.00  0.00    -0.269 OA
BRANCH  75  78
ATOM     78  C   UNL A   1      32.044  22.831  26.628  1.00  0.00     0.078 A 
ATOM     79  C   UNL A   1      32.974  22.570  27.638  1.00  0.00     0.019 A 
ATOM     80  C   UNL A   1      32.227  22.313  25.356  1.00  0.00     0.173 A 
ATOM     81  C   UNL A   1      34.140  21.859  27.342  1.00  0.00     0.030 A 
ATOM     82  C   UNL A   1      33.385  21.594  25.079  1.00  0.00     0.182 A 
ATOM     83  F   UNL A   1      31.345  22.555  24.375  1.00  0.00    -0.203 F 
ATOM     84  C   UNL A   1      34.384  21.375  26.053  1.00  0.00     0.074 A 
ATOM     85  F   UNL A   1      33.583  21.129  23.834  1.00  0.00    -0.201 F 
BRANCH  84  86
ATOM     86  N   UNL A   1      35.567  20.727  25.648  1.00  0.00    -0.380 N 
ATOM     87  H   UNL A   1      35.577  19.756  25.812  1.00  0.00     0.160 HD
BRANCH  86  88
ATOM     88  C   UNL A   1      36.779  21.243  25.025  1.00  0.00     0.079 C 
ATOM     89  C   UNL A   1      36.833  22.248  23.915  1.00  0.00     0.027 C 
ATOM     90  C   UNL A   1      37.356  22.601  25.283  1.00  0.00     0.027 C 
ENDBRANCH  86  88
ENDBRANCH  84  86
ENDBRANCH  75  78
ENDBRANCH  73  74
ENDBRANCH  72  73
ENDBRANCH   1  72
TORSDOF 13
ENDMDL
MODEL 2
REMARK VINA RESULT:     -12.1      2.109      3.783
REMARK SMILES O=C(NCCCCNC(=O)c1ccc(NC2CC2)c(F)c1F)c1ccc(-c2c3nc(c(-c4c(F)c(F)c(F)c(F)c4F)c4ccc([nH]4)c(-c4c(F)c(F)c(F)c(F)c4F)c4nc(c(-c5c(F)c(F)c(F)c(F)c5F)c5ccc2[nH]5)C=C4)C=C3)cc1
REMARK SMILES IDX 5 1 4 2 3 3 1 4 2 5 23 7 24 8 85 9 25 10 84 11 26 12 27 13
REMARK SMILES IDX 28 14 78 15 29 16 83 17 77 18 79 19 30 20 82 21 76 22 75 23
REMARK SMILES IDX 31 25 63 26 43 27 62 28 44 29 47 30 61 31 80 32 45 33 46 34
REMARK SMILES IDX 60 36 81 37 48 38 32 39 33 40 41 41 34 42 35 43 39 44 42 45
REMARK SMILES IDX 36 46 37 47 40 48 38 49 64 50 65 51 73 52 66 53 67 54 71 55
REMARK SMILES IDX 74 56 68 57 69 58 72 59 70 60 49 61 50 62 58 63 51 64 52 65
REMARK SMILES IDX 56 66 59 67 53 68 54 69 57 70 55 71 6 72 7 73 8 74 9 75
REMARK SMILES IDX 10 77 11 78 12 79 21 80 13 81 19 82 22 83 14 84 20 85 15 86
REMARK SMILES IDX 16 88 17 89 18 90
REMARK H PARENT 3 6 79 24 47 35 8 76 15 87
REMARK Flexibility Score: inf
ROOT
ATOM      1  C   UNL A   1      31.968  28.504  26.353  1.00  0.00     0.023 C 
ENDROOT
BRANCH   1   2
ATOM      2  C   UNL A   1      33.085  29.502  26.085  1.00  0.00     0.116 C 
BRANCH   2   3
ATOM      3  N   UNL A   1      32.730  30.871  26.433  1.00  0.00    -0.352 N 
ATOM      4  O   UNL A   1      32.879  32.836  27.543  1.00  0.00    -0.269 OA
ATOM      5  C   UNL A   1      33.385  31.754  27.262  1.00  0.00     0.251 C 
ATOM      6  H   UNL A   1      31.906  31.213  26.016  1.00  0.00     0.163 HD
BRANCH   5   7
ATOM      7  C   UNL A   1      34.693  31.376  27.842  1.00  0.00     0.039 A 
ATOM      8  C   UNL A   1      34.902  30.085  28.322  1.00  0.00     0.014 A 
ATOM      9  C   UNL A   1      35.708  32.334  27.937  1.00  0.00     0.014 A 
ATOM     10  C   UNL A   1      36.043  29.804  29.060  1.00  0.00     0.010 A 
ATOM     11  C   UNL A   1      36.905  32.016  28.584  1.00  0.00     0.010 A 
ATOM     12  C   UNL A   1      37.066  30.760  29.189  1.00  0.00    -0.014 A 
BRANCH  12  13
ATOM     13  C   UNL A   1      38.308  30.375  29.908  1.00  0.00     0.031 A 
ATOM     14  C   UNL A   1      38.558  30.783  31.331  1.00  0.00     0.074 A 
ATOM     15  C   UNL A   1      39.184  29.573  29.271  1.00  0.00     0.049 A 
ATOM     16  N   UNL A   1      39.539  30.431  32.125  1.00  0.00    -0.248 NA
ATOM     17  C   UNL A   1      37.598  31.713  31.944  1.00  0.00     0.031 C 
ATOM     18  C   UNL A   1      39.052  29.131  27.881  1.00  0.00     0.029 A 
ATOM     19  N   UNL A   1      40.324  28.950  29.710  1.00  0.00    -0.354 N 
ATOM     20  C   UNL A   1      39.326  31.107  33.319  1.00  0.00     0.074 A 
ATOM     21  C   UNL A   1      38.138  31.911  33.140  1.00  0.00     0.031 C 
ATOM     22  C   UNL A   1      40.014  28.242  27.609  1.00  0.00     0.029 A 
ATOM     23  C   UNL A   1      40.873  28.102  28.780  1.00  0.00     0.049 A 
ATOM     24  H   UNL A   1      40.710  29.095  30.604  1.00  0.00     0.167 HD
ATOM     25  C   UNL A   1      40.056  31.050  34.460  1.00  0.00     0.037 A 
ATOM     26  C   UNL A   1      41.949  27.296  28.855  1.00  0.00     0.037 A 
ATOM     27  C   UNL A   1      41.222  30.221  34.636  1.00  0.00     0.049 A 
ATOM     28  C   UNL A   1      42.739  27.253  30.128  1.00  0.00     0.074 A 
ATOM     29  C   UNL A   1      41.993  30.054  35.773  1.00  0.00     0.029 A 
ATOM     30  N   UNL A   1      41.786  29.425  33.650  1.00  0.00    -0.354 N 
ATOM     31  N   UNL A   1      42.506  27.870  31.261  1.00  0.00    -0.248 NA
ATOM     32  C   UNL A   1      43.946  26.417  30.133  1.00  0.00     0.031 C 
ATOM     33  C   UNL A   1      43.055  29.198  35.460  1.00  0.00     0.029 A 
ATOM     34  C   UNL A   1      42.914  28.789  34.144  1.00  0.00     0.049 A 
ATOM     35  H   UNL A   1      41.435  29.325  32.736  1.00  0.00     0.167 HD
ATOM     36  C   UNL A   1      43.534  27.499  32.115  1.00  0.00     0.074 A 
ATOM     37  C   UNL A   1      44.381  26.584  31.375  1.00  0.00     0.031 C 
ATOM     38  C   UNL A   1      43.754  27.889  33.393  1.00  0.00     0.037 A 
BRANCH  25  39
ATOM     39  C   UNL A   1      39.631  31.911  35.615  1.00  0.00     0.064 A 
ATOM     40  C   UNL A   1      38.613  31.483  36.480  1.00  0.00     0.173 A 
ATOM     41  C   UNL A   1      40.174  33.188  35.824  1.00  0.00     0.173 A 
ATOM     42  F   UNL A   1      38.053  30.275  36.320  1.00  0.00    -0.203 F 
ATOM     43  C   UNL A   1      38.147  32.304  37.505  1.00  0.00     0.198 A 
ATOM     44  C   UNL A   1      39.724  33.996  36.865  1.00  0.00     0.198 A 
ATOM     45  F   UNL A   1      41.155  33.642  35.030  1.00  0.00    -0.203 F 
ATOM     46  F   UNL A   1      37.151  31.884  38.299  1.00  0.00    -0.200 F 
ATOM     47  C   UNL A   1      38.705  33.558  37.699  1.00  0.00     0.200 A 
ATOM     48  F   UNL A   1      40.280  35.200  37.065  1.00  0.00    -0.200 F 
ATOM     49  F   UNL A   1      38.264  34.343  38.691  1.00  0.00    -0.200 F 
ENDBRANCH  25  39
BRANCH  26  50
ATOM     50  C   UNL A   1      42.300  26.457  27.683  1.00  0.00     0.064 A 
ATOM     51  C   UNL A   1      41.741  25.181  27.509  1.00  0.00     0.173 A 
ATOM     52  C   UNL A   1      43.275  26.875  26.767  1.00  0.00     0.173 A 
ATOM     53  F   UNL A   1      40.813  24.733  28.366  1.00  0.00    -0.203 F 
ATOM     54  C   UNL A   1      42.175  24.340  26.487  1.00  0.00     0.198 A 
ATOM     55  C   UNL A   1      43.687  26.042  25.729  1.00  0.00     0.198 A 
ATOM     56  F   UNL A   1      43.826  28.092  26.886  1.00  0.00    -0.203 F 
ATOM     57  F   UNL A   1      41.669  23.104  26.381  1.00  0.00    -0.200 F 
ATOM     58  C   UNL A   1      43.148  24.771  25.599  1.00  0.00     0.200 A 
ATOM     59  F   UNL A   1      44.617  26.468  24.862  1.00  0.00    -0.200 F 
ATOM     60  F   UNL A   1      43.570  23.959  24.620  1.00  0.00    -0.200 F 
ENDBRANCH  26  50
BRANCH  38  61
ATOM     61  C   UNL A   1      44.963  27.336  34.086  1.00  0.00     0.064 A 
ATOM     62  C   UNL A   1      44.879  26.146  34.824  1.00  0.00     0.173 A 
ATOM     63  C   UNL A   1      46.180  28.032  34.090  1.00  0.00     0.173 A 
ATOM     64  F   UNL A   1      43.734  25.449  34.854  1.00  0.00    -0.203 F 
ATOM     65  C   UNL A   1      45.967  25.684  35.559  1.00  0.00     0.198 A 
ATOM     66  C   UNL A   1      47.273  27.552  34.807  1.00  0.00     0.198 A 
ATOM     67  F   UNL A   1      46.311  29.167  33.388  1.00  0.00    -0.203 F 
ATOM     68  F   UNL A   1      45.854  24.564  36.286  1.00  0.00    -0.200 F 
ATOM     69  C   UNL A   1      47.163  26.386  35.549  1.00  0.00     0.200 A 
ATOM     70  F   UNL A   1      48.434  28.221  34.780  1.00  0.00    -0.200 F 
ATOM     71  F   UNL A   1      48.209  25.938  36.255  1.00  0.00    -0.200 F 
ENDBRANCH  38  61
ENDBRANCH  12  13
ENDBRANCH   5   7
ENDBRANCH   2   3
ENDBRANCH   1   2
BRANCH   1  72
ATOM     72  C   UNL A   1      32.354  27.039  26.177  1.00  0.00     0.023 C 
BRANCH  72  73
ATOM     73  C   UNL A   1      31.193  26.052  26.226  1.00  0.00     0.116 C 
BRANCH  73  74
ATOM     74  N   UNL A   1      31.191  25.115  25.112  1.00  0.00    -0.352 N 
ATOM     75  C   UNL A   1      30.584  25.250  23.886  1.00  0.00     0.254 C 
ATOM     76  H   UNL A   1      31.689  24.278  25.254  1.00  0.00     0.163 HD
ATOM     77  O   UNL A   1      30.648  24.364  23.044  1.00  0.00    -0.269 OA
BRANCH  75  78
ATOM     78  C   UNL A   1      29.875  26.501  23.597  1.00  0.00     0.078 A 
ATOM     79  C   UNL A   1      28.525  26.625  23.932  1.00  0.00     0.019 A 
ATOM     80  C   UNL A   1      30.526  27.518  22.917  1.00  0.00     0.173 A 
ATOM     81  C   UNL A   1      27.802  27.741  23.501  1.00  0.00     0.030 A 
ATOM     82  C   UNL A   1      29.798  28.630  22.507  1.00  0.00     0.182 A 
ATOM     83  F   UNL A   1      31.821  27.413  22.587  1.00  0.00    -0.203 F 
ATOM     84  C   UNL A   1      28.414  28.756  22.760  1.00  0.00     0.074 A 
ATOM     85  F   UNL A   1      30.419  29.595  21.809  1.00  0.00    -0.201 F 
BRANCH  84  86
ATOM     86  N   UNL A   1      27.745  29.869  22.212  1.00  0.00    -0.380 N 
ATOM     87  H   UNL A   1      27.238  29.676  21.391  1.00  0.00     0.160 HD
BRANCH  86  88
ATOM     88  C   UNL A   1      27.672  31.255  22.653  1.00  0.00     0.079 C 
ATOM     89  C   UNL A   1      28.649  31.939  23.560  1.00  0.00     0.027 C 
ATOM     90  C   UNL A   1      28.528  32.364  22.119  1.00  0.00     0.027 C 
ENDBRANCH  86  88
ENDBRANCH  84  86
ENDBRANCH  75  78
ENDBRANCH  73  74
ENDBRANCH  72  73
ENDBRANCH   1  72
TORSDOF 13
ENDMDL
MODEL 3
REMARK VINA RESULT:     -12.1      0.296      1.190
REMARK SMILES O=C(NCCCCNC(=O)c1ccc(NC2CC2)c(F)c1F)c1ccc(-c2c3nc(c(-c4c(F)c(F)c(F)c(F)c4F)c4ccc([nH]4)c(-c4c(F)c(F)c(F)c(F)c4F)c4nc(c(-c5c(F)c(F)c(F)c(F)c5F)c5ccc2[nH]5)C=C4)C=C3)cc1
REMARK SMILES IDX 5 1 4 2 3 3 1 4 2 5 23 7 24 8 85 9 25 10 84 11 26 12 27 13
REMARK SMILES IDX 28 14 78 15 29 16 83 17 77 18 79 19 30 20 82 21 76 22 75 23
REMARK SMILES IDX 31 25 63 26 43 27 62 28 44 29 47 30 61 31 80 32 45 33 46 34
REMARK SMILES IDX 60 36 81 37 48 38 32 39 33 40 41 41 34 42 35 43 39 44 42 45
REMARK SMILES IDX 36 46 37 47 40 48 38 49 64 50 65 51 73 52 66 53 67 54 71 55
REMARK SMILES IDX 74 56 68 57 69 58 72 59 70 60 49 61 50 62 58 63 51 64 52 65
REMARK SMILES IDX 56 66 59 67 53 68 54 69 57 70 55 71 6 72 7 73 8 74 9 75
REMARK SMILES IDX 10 77 11 78 12 79 21 80 13 81 19 82 22 83 14 84 20 85 15 86
REMARK SMILES IDX 16 88 17 89 18 90
REMARK H PARENT 3 6 79 24 47 35 8 76 15 87
REMARK Flexibility Score: inf
ROOT
ATOM      1  C   UNL A   1      32.240  28.077  25.069  1.00  0.00     0.023 C 
ENDROOT
BRANCH   1   2
ATOM      2  C   UNL A   1      33.292  29.130  25.385  1.00  0.00     0.116 C 
BRANCH   2   3
ATOM      3  N   UNL A   1      32.729  30.372  25.895  1.00  0.00    -0.352 N 
ATOM      4  O   UNL A   1      32.530  32.144  27.286  1.00  0.00    -0.269 OA
ATOM      5  C   UNL A   1      33.199  31.191  26.897  1.00  0.00     0.251 C 
ATOM      6  H   UNL A   1      31.896  30.667  25.462  1.00  0.00     0.163 HD
BRANCH   5   7
ATOM      7  C   UNL A   1      34.504  30.897  27.528  1.00  0.00     0.039 A 
ATOM      8  C   UNL A   1      34.784  29.615  27.999  1.00  0.00     0.014 A 
ATOM      9  C   UNL A   1      35.444  31.922  27.680  1.00  0.00     0.014 A 
ATOM     10  C   UNL A   1      35.910  29.404  28.782  1.00  0.00     0.010 A 
ATOM     11  C   UNL A   1      36.632  31.678  28.374  1.00  0.00     0.010 A 
ATOM     12  C   UNL A   1      36.856  30.426  28.969  1.00  0.00    -0.014 A 
BRANCH  12  13
ATOM     13  C   UNL A   1      38.091  30.117  29.735  1.00  0.00     0.031 A 
ATOM     14  C   UNL A   1      38.273  30.568  31.156  1.00  0.00     0.074 A 
ATOM     15  C   UNL A   1      39.025  29.347  29.145  1.00  0.00     0.049 A 
ATOM     16  N   UNL A   1      39.243  30.280  31.989  1.00  0.00    -0.248 NA
ATOM     17  C   UNL A   1      37.250  31.462  31.717  1.00  0.00     0.031 C 
ATOM     18  C   UNL A   1      38.960  28.869  27.762  1.00  0.00     0.029 A 
ATOM     19  N   UNL A   1      40.178  28.789  29.635  1.00  0.00    -0.354 N 
ATOM     20  C   UNL A   1      38.959  30.970  33.160  1.00  0.00     0.074 A 
ATOM     21  C   UNL A   1      37.739  31.712  32.925  1.00  0.00     0.031 C 
ATOM     22  C   UNL A   1      39.972  28.022  27.542  1.00  0.00     0.029 A 
ATOM     23  C   UNL A   1      40.798  27.949  28.742  1.00  0.00     0.049 A 
ATOM     24  H   UNL A   1      40.527  28.972  30.537  1.00  0.00     0.167 HD
ATOM     25  C   UNL A   1      39.652  30.973  34.325  1.00  0.00     0.037 A 
ATOM     26  C   UNL A   1      41.908  27.199  28.870  1.00  0.00     0.037 A 
ATOM     27  C   UNL A   1      40.850  30.206  34.557  1.00  0.00     0.049 A 
ATOM     28  C   UNL A   1      42.657  27.221  30.168  1.00  0.00     0.074 A 
ATOM     29  C   UNL A   1      41.591  30.101  35.721  1.00  0.00     0.029 A 
ATOM     30  N   UNL A   1      41.484  29.417  33.607  1.00  0.00    -0.354 N 
ATOM     31  N   UNL A   1      42.357  27.849  31.278  1.00  0.00    -0.248 NA
ATOM     32  C   UNL A   1      43.901  26.445  30.231  1.00  0.00     0.031 C 
ATOM     33  C   UNL A   1      42.702  29.291  35.462  1.00  0.00     0.029 A 
ATOM     34  C   UNL A   1      42.625  28.849  34.151  1.00  0.00     0.049 A 
ATOM     35  H   UNL A   1      41.169  29.282  32.685  1.00  0.00     0.167 HD
ATOM     36  C   UNL A   1      43.373  27.547  32.173  1.00  0.00     0.074 A 
ATOM     37  C   UNL A   1      44.287  26.659  31.482  1.00  0.00     0.031 C 
ATOM     38  C   UNL A   1      43.532  27.974  33.448  1.00  0.00     0.037 A 
BRANCH  25  39
ATOM     39  C   UNL A   1      39.148  31.837  35.445  1.00  0.00     0.064 A 
ATOM     40  C   UNL A   1      39.594  33.161  35.574  1.00  0.00     0.173 A 
ATOM     41  C   UNL A   1      38.285  31.338  36.433  1.00  0.00     0.173 A 
ATOM     42  F   UNL A   1      40.427  33.685  34.662  1.00  0.00    -0.203 F 
ATOM     43  C   UNL A   1      39.204  33.950  36.654  1.00  0.00     0.198 A 
ATOM     44  C   UNL A   1      37.877  32.138  37.497  1.00  0.00     0.198 A 
ATOM     45  F   UNL A   1      37.823  30.081  36.353  1.00  0.00    -0.203 F 
ATOM     46  F   UNL A   1      39.670  35.202  36.770  1.00  0.00    -0.200 F 
ATOM     47  C   UNL A   1      38.343  33.439  37.612  1.00  0.00     0.200 A 
ATOM     48  F   UNL A   1      37.027  31.650  38.412  1.00  0.00    -0.200 F 
ATOM     49  F   UNL A   1      37.960  34.202  38.646  1.00  0.00    -0.200 F 
ENDBRANCH  25  39
BRANCH  26  50
ATOM     50  C   UNL A   1      42.338  26.353  27.729  1.00  0.00     0.064 A 
ATOM     51  C   UNL A   1      41.861  25.042  27.576  1.00  0.00     0.173 A 
ATOM     52  C   UNL A   1      43.308  26.806  26.825  1.00  0.00     0.173 A 
ATOM     53  F   UNL A   1      40.940  24.560  28.423  1.00  0.00    -0.203 F 
ATOM     54  C   UNL A   1      42.369  24.203  26.587  1.00  0.00     0.198 A 
ATOM     55  C   UNL A   1      43.795  25.974  25.820  1.00  0.00     0.198 A 
ATOM     56  F   UNL A   1      43.782  28.057  26.924  1.00  0.00    -0.203 F 
ATOM     57  F   UNL A   1      41.941  22.936  26.502  1.00  0.00    -0.200 F 
ATOM     58  C   UNL A   1      43.336  24.669  25.710  1.00  0.00     0.200 A 
ATOM     59  F   UNL A   1      44.719  26.433  24.963  1.00  0.00    -0.200 F 
ATOM     60  F   UNL A   1      43.830  23.860  24.764  1.00  0.00    -0.200 F 
ENDBRANCH  26  50
BRANCH  38  61
ATOM     61  C   UNL A   1      44.742  27.496  34.192  1.00  0.00     0.064 A 
ATOM     62  C   UNL A   1      44.691  26.321  34.956  1.00  0.00     0.173 A 
ATOM     63  C   UNL A   1      45.924  28.249  34.217  1.00  0.00     0.173 A 
ATOM     64  F   UNL A   1      43.579  25.570  34.968  1.00  0.00    -0.203 F 
ATOM     65  C   UNL A   1      45.774  25.928  35.736  1.00  0.00     0.198 A 
ATOM     66  C   UNL A   1      47.015  27.839  34.980  1.00  0.00     0.198 A 
ATOM     67  F   UNL A   1      46.024  29.373  33.492  1.00  0.00    -0.203 F 
ATOM     68  F   UNL A   1      45.691  24.820  36.486  1.00  0.00    -0.200 F 
ATOM     69  C   UNL A   1      46.935  26.685  35.746  1.00  0.00     0.200 A 
ATOM     70  F   UNL A   1      48.144  28.561  34.973  1.00  0.00    -0.200 F 
ATOM     71  F   UNL A   1      47.979  26.304  36.495  1.00  0.00    -0.200 F 
ENDBRANCH  38  61
ENDBRANCH  12  13
ENDBRANCH   5   7
ENDBRANCH   2   3
ENDBRANCH   1   2
BRANCH   1  72
ATOM     72  C   UNL A   1      31.898  27.138  26.221  1.00  0.00     0.023 C 
BRANCH  72  73
ATOM     73  C   UNL A   1      31.847  25.657  25.858  1.00  0.00     0.116 C 
BRANCH  73  74
ATOM     74  N   UNL A   1      30.752  24.948  26.506  1.00  0.00    -0.352 N 
ATOM     75  C   UNL A   1      30.689  23.622  26.862  1.00  0.00     0.254 C 
ATOM     76  H   UNL A   1      29.956  25.487  26.715  1.00  0.00     0.163 HD
ATOM     77  O   UNL A   1      29.688  23.151  27.386  1.00  0.00    -0.269 OA
BRANCH  75  78
ATOM     78  C   UNL A   1      31.868  22.783  26.627  1.00  0.00     0.078 A 
ATOM     79  C   UNL A   1      32.788  22.576  27.658  1.00  0.00     0.019 A 
ATOM     80  C   UNL A   1      32.107  22.274  25.360  1.00  0.00     0.173 A 
ATOM     81  C   UNL A   1      33.997  21.928  27.390  1.00  0.00     0.030 A 
ATOM     82  C   UNL A   1      33.307  21.618  25.112  1.00  0.00     0.182 A 
ATOM     83  F   UNL A   1      31.235  22.466  24.360  1.00  0.00    -0.203 F 
ATOM     84  C   UNL A   1      34.295  21.456  26.108  1.00  0.00     0.074 A 
ATOM     85  F   UNL A   1      33.559  21.163  23.872  1.00  0.00    -0.201 F 
BRANCH  84  86
ATOM     86  N   UNL A   1      35.521  20.871  25.730  1.00  0.00    -0.380 N 
ATOM     87  H   UNL A   1      35.523  19.887  25.743  1.00  0.00     0.160 HD
BRANCH  86  88
ATOM     88  C   UNL A   1      36.784  21.471  25.324  1.00  0.00     0.079 C 
ATOM     89  C   UNL A   1      37.022  22.238  24.058  1.00  0.00     0.027 C 
ATOM     90  C   UNL A   1      37.092  22.936  25.391  1.00  0.00     0.027 C 
ENDBRANCH  86  88
ENDBRANCH  84  86
ENDBRANCH  75  78
ENDBRANCH  73  74
ENDBRANCH  72  73
ENDBRANCH   1  72
TORSDOF 13
ENDMDL
