MODEL 1
REMARK VINA RESULT:     -12.6      0.000      0.000
REMARK SMILES Cc1cccc([C@H]([NH3+])[C@H](O)C(=O)NCCCCNC(=O)c2ccc(-c3c4nc(c(-c5c(F)c(F)c(F)c(F)c5F)c5ccc([nH]5)c(-c5c(F)c(F)c(F)c(F)c5F)c5nc(c(-c6c(F)c(F)c(F)c(F)c6F)c6ccc3[nH]6)C=C5)C=C4)cc2)c1
REMARK SMILES IDX 15 1 14 2 13 3 11 4 12 5 9 7 7 8 6 9 1 10 2 11 3 12 84 13
REMARK SMILES IDX 4 14 5 15 8 16 10 20 16 22 17 23 18 24 19 25 20 27 21 28
REMARK SMILES IDX 22 29 83 30 23 31 82 32 24 33 25 34 26 35 76 36 27 37 81 38
REMARK SMILES IDX 75 39 77 40 28 41 80 42 74 43 73 44 29 46 61 47 41 48 60 49
REMARK SMILES IDX 42 50 45 51 59 52 78 53 43 54 44 55 58 57 79 58 46 59 30 60
REMARK SMILES IDX 31 61 39 62 32 63 33 64 37 65 40 66 34 67 35 68 38 69 36 70
REMARK SMILES IDX 62 71 63 72 71 73 64 74 65 75 69 76 72 77 66 78 67 79 70 80
REMARK SMILES IDX 68 81 47 82 48 83 56 84 49 85 50 86 54 87 57 88 51 89 52 90
REMARK SMILES IDX 55 91 53 92
REMARK H PARENT 13 6 8 17 8 18 8 19 10 21 18 26 77 45 45 56
REMARK Flexibility Score: inf
ROOT
ATOM      1  C   UNL A   1      32.100  29.484  26.457  1.00  0.00     0.023 C 
ENDROOT
BRANCH   1   2
ATOM      2  C   UNL A   1      31.971  29.935  24.998  1.00  0.00     0.116 C 
BRANCH   2   3
ATOM      3  N   UNL A   1      30.606  30.182  24.582  1.00  0.00    -0.354 N 
ATOM      4  C   UNL A   1      29.901  29.766  23.502  1.00  0.00     0.255 C 
ATOM      5  O   UNL A   1      28.711  30.108  23.472  1.00  0.00    -0.272 OA
ATOM      6  H   UNL A   1      30.097  30.757  25.197  1.00  0.00     0.163 HD
BRANCH   4   7
ATOM      7  C   UNL A   1      30.492  29.012  22.287  1.00  0.00     0.266 C 
BRANCH   7   8
ATOM      8  C   UNL A   1      30.653  27.454  22.429  1.00  0.00     0.250 C 
BRANCH   8   9
ATOM      9  C   UNL A   1      30.919  26.800  23.791  1.00  0.00     0.013 A 
ATOM     10  C   UNL A   1      34.023  25.681  25.752  1.00  0.00     0.044 C 
ATOM     11  C   UNL A   1      32.593  25.909  25.363  1.00  0.00    -0.051 A 
ATOM     12  C   UNL A   1      31.571  25.485  26.212  1.00  0.00     0.003 A 
ATOM     13  C   UNL A   1      32.260  26.544  24.157  1.00  0.00     0.013 A 
ATOM     14  C   UNL A   1      30.245  25.744  25.886  1.00  0.00     0.001 A 
ATOM     15  C   UNL A   1      29.928  26.417  24.702  1.00  0.00     0.010 A 
ENDBRANCH   8   9
BRANCH   8  16
ATOM     16  N   UNL A   1      31.694  26.956  21.491  1.00  0.00    -0.349 N 
ATOM     17  H   UNL A   1      31.312  26.193  20.933  1.00  0.00     0.345 HD
ATOM     18  H   UNL A   1      32.498  26.621  22.021  1.00  0.00     0.345 HD
ATOM     19  H   UNL A   1      31.986  27.715  20.874  1.00  0.00     0.345 HD
ENDBRANCH   8  16
ENDBRANCH   7   8
BRANCH   7  20
ATOM     20  O   UNL A   1      31.596  29.702  21.713  1.00  0.00    -0.378 OA
ATOM     21  H   UNL A   1      32.325  29.079  21.566  1.00  0.00     0.211 HD
ENDBRANCH   7  20
ENDBRANCH   4   7
ENDBRANCH   2   3
ENDBRANCH   1   2
BRANCH   1  22
ATOM     22  C   UNL A   1      32.764  30.493  27.400  1.00  0.00     0.023 C 
BRANCH  22  23
ATOM     23  C   UNL A   1      34.285  30.524  27.331  1.00  0.00     0.116 C 
BRANCH  23  24
ATOM     24  N   UNL A   1      34.943  31.385  28.303  1.00  0.00    -0.352 N 
ATOM     25  C   UNL A   1      36.014  31.110  29.147  1.00  0.00     0.251 C 
ATOM     26  H   UNL A   1      34.578  32.296  28.373  1.00  0.00     0.163 HD
ATOM     27  O   UNL A   1      36.350  31.925  29.989  1.00  0.00    -0.269 OA
BRANCH  25  28
ATOM     28  C   UNL A   1      36.842  29.892  28.925  1.00  0.00     0.039 A 
ATOM     29  C   UNL A   1      37.032  29.029  30.012  1.00  0.00     0.014 A 
ATOM     30  C   UNL A   1      37.592  29.720  27.766  1.00  0.00     0.014 A 
ATOM     31  C   UNL A   1      38.154  28.204  30.042  1.00  0.00     0.010 A 
ATOM     32  C   UNL A   1      38.762  28.990  27.836  1.00  0.00     0.010 A 
ATOM     33  C   UNL A   1      39.083  28.303  29.011  1.00  0.00    -0.014 A 
BRANCH  33  34
ATOM     34  C   UNL A   1      40.471  27.872  29.136  1.00  0.00     0.031 A 
ATOM     35  C   UNL A   1      40.892  26.537  28.660  1.00  0.00     0.074 A 
ATOM     36  C   UNL A   1      41.388  28.765  29.578  1.00  0.00     0.049 A 
ATOM     37  N   UNL A   1      42.027  26.000  28.954  1.00  0.00    -0.248 NA
ATOM     38  C   UNL A   1      40.033  25.655  27.873  1.00  0.00     0.031 C 
ATOM     39  C   UNL A   1      42.842  28.682  29.459  1.00  0.00     0.029 A 
ATOM     40  N   UNL A   1      41.174  29.869  30.425  1.00  0.00    -0.354 N 
ATOM     41  C   UNL A   1      42.168  24.869  28.187  1.00  0.00     0.074 A 
ATOM     42  C   UNL A   1      40.859  24.629  27.640  1.00  0.00     0.031 C 
ATOM     43  C   UNL A   1      43.400  29.463  30.396  1.00  0.00     0.029 A 
ATOM     44  C   UNL A   1      42.325  29.946  31.242  1.00  0.00     0.049 A 
ATOM     45  H   UNL A   1      40.387  30.462  30.444  1.00  0.00     0.167 HD
ATOM     46  C   UNL A   1      43.417  24.355  28.016  1.00  0.00     0.037 A 
ATOM     47  C   UNL A   1      42.258  29.752  32.591  1.00  0.00     0.037 A 
ATOM     48  C   UNL A   1      44.346  24.921  28.996  1.00  0.00     0.049 A 
ATOM     49  C   UNL A   1      43.103  28.605  33.095  1.00  0.00     0.074 A 
ATOM     50  C   UNL A   1      45.375  25.841  28.919  1.00  0.00     0.029 A 
ATOM     51  N   UNL A   1      44.093  24.720  30.351  1.00  0.00    -0.354 N 
ATOM     52  N   UNL A   1      43.562  27.650  32.334  1.00  0.00    -0.248 NA
ATOM     53  C   UNL A   1      43.460  28.423  34.498  1.00  0.00     0.031 C 
ATOM     54  C   UNL A   1      45.668  26.270  30.245  1.00  0.00     0.029 A 
ATOM     55  C   UNL A   1      44.855  25.572  31.122  1.00  0.00     0.049 A 
ATOM     56  H   UNL A   1      43.456  24.059  30.709  1.00  0.00     0.167 HD
ATOM     57  C   UNL A   1      44.215  26.726  33.107  1.00  0.00     0.074 A 
ATOM     58  C   UNL A   1      44.151  27.271  34.450  1.00  0.00     0.031 C 
ATOM     59  C   UNL A   1      44.728  25.577  32.575  1.00  0.00     0.037 A 
BRANCH  46  60
ATOM     60  C   UNL A   1      43.865  23.472  26.865  1.00  0.00     0.064 A 
ATOM     61  C   UNL A   1      43.391  22.144  26.764  1.00  0.00     0.173 A 
ATOM     62  C   UNL A   1      44.855  23.810  25.916  1.00  0.00     0.173 A 
ATOM     63  F   UNL A   1      42.457  21.675  27.604  1.00  0.00    -0.203 F 
ATOM     64  C   UNL A   1      43.876  21.239  25.812  1.00  0.00     0.198 A 
ATOM     65  C   UNL A   1      45.300  22.921  24.932  1.00  0.00     0.198 A 
ATOM     66  F   UNL A   1      45.487  24.987  25.927  1.00  0.00    -0.203 F 
ATOM     67  F   UNL A   1      43.432  19.974  25.807  1.00  0.00    -0.200 F 
ATOM     68  C   UNL A   1      44.824  21.631  24.889  1.00  0.00     0.200 A 
ATOM     69  F   UNL A   1      46.225  23.324  24.048  1.00  0.00    -0.200 F 
ATOM     70  F   UNL A   1      45.290  20.767  23.977  1.00  0.00    -0.200 F 
ENDBRANCH  46  60
BRANCH  47  71
ATOM     71  C   UNL A   1      40.965  30.182  33.183  1.00  0.00     0.064 A 
ATOM     72  C   UNL A   1      40.727  31.563  33.333  1.00  0.00     0.173 A 
ATOM     73  C   UNL A   1      39.860  29.326  33.231  1.00  0.00     0.173 A 
ATOM     74  F   UNL A   1      41.755  32.425  33.298  1.00  0.00    -0.203 F 
ATOM     75  C   UNL A   1      39.433  32.071  33.406  1.00  0.00     0.198 A 
ATOM     76  C   UNL A   1      38.563  29.840  33.317  1.00  0.00     0.198 A 
ATOM     77  F   UNL A   1      40.018  28.004  33.074  1.00  0.00    -0.203 F 
ATOM     78  F   UNL A   1      39.236  33.397  33.440  1.00  0.00    -0.200 F 
ATOM     79  C   UNL A   1      38.350  31.210  33.368  1.00  0.00     0.200 A 
ATOM     80  F   UNL A   1      37.512  29.009  33.248  1.00  0.00    -0.200 F 
ATOM     81  F   UNL A   1      37.102  31.699  33.340  1.00  0.00    -0.200 F 
ENDBRANCH  47  71
BRANCH  59  82
ATOM     82  C   UNL A   1      45.215  24.380  33.363  1.00  0.00     0.064 A 
ATOM     83  C   UNL A   1      44.436  23.240  33.627  1.00  0.00     0.173 A 
ATOM     84  C   UNL A   1      46.572  24.290  33.757  1.00  0.00     0.173 A 
ATOM     85  F   UNL A   1      43.175  23.139  33.189  1.00  0.00    -0.203 F 
ATOM     86  C   UNL A   1      44.952  22.129  34.300  1.00  0.00     0.198 A 
ATOM     87  C   UNL A   1      47.100  23.155  34.374  1.00  0.00     0.198 A 
ATOM     88  F   UNL A   1      47.435  25.291  33.530  1.00  0.00    -0.203 F 
ATOM     89  F   UNL A   1      44.153  21.086  34.568  1.00  0.00    -0.200 F 
ATOM     90  C   UNL A   1      46.285  22.081  34.663  1.00  0.00     0.200 A 
ATOM     91  F   UNL A   1      48.407  23.102  34.666  1.00  0.00    -0.200 F 
ATOM     92  F   UNL A   1      46.785  20.995  35.265  1.00  0.00    -0.200 F 
ENDBRANCH  59  82
ENDBRANCH  33  34
ENDBRANCH  25  28
ENDBRANCH  23  24
ENDBRANCH  22  23
ENDBRANCH   1  22
TORSDOF 15
ENDMDL
MODEL 2
REMARK VINA RESULT:     -12.5      4.419     10.417
REMARK SMILES Cc1cccc([C@H]([NH3+])[C@H](O)C(=O)NCCCCNC(=O)c2ccc(-c3c4nc(c(-c5c(F)c(F)c(F)c(F)c5F)c5ccc([nH]5)c(-c5c(F)c(F)c(F)c(F)c5F)c5nc(c(-c6c(F)c(F)c(F)c(F)c6F)c6ccc3[nH]6)C=C5)C=C4)cc2)c1
REMARK SMILES IDX 15 1 14 2 13 3 11 4 12 5 9 7 7 8 6 9 1 10 2 11 3 12 84 13
REMARK SMILES IDX 4 14 5 15 8 16 10 20 16 22 17 23 18 24 19 25 20 27 21 28
REMARK SMILES IDX 22 29 83 30 23 31 82 32 24 33 25 34 26 35 76 36 27 37 81 38
REMARK SMILES IDX 75 39 77 40 28 41 80 42 74 43 73 44 29 46 61 47 41 48 60 49
REMARK SMILES IDX 42 50 45 51 59 52 78 53 43 54 44 55 58 57 79 58 46 59 30 60
REMARK SMILES IDX 31 61 39 62 32 63 33 64 37 65 40 66 34 67 35 68 38 69 36 70
REMARK SMILES IDX 62 71 63 72 71 73 64 74 65 75 69 76 72 77 66 78 67 79 70 80
REMARK SMILES IDX 68 81 47 82 48 83 56 84 49 85 50 86 54 87 57 88 51 89 52 90
REMARK SMILES IDX 55 91 53 92
REMARK H PARENT 13 6 8 17 8 18 8 19 10 21 18 26 77 45 45 56
REMARK Flexibility Score: inf
ROOT
ATOM      1  C   UNL A   1      36.828  21.516  24.542  1.00  0.00     0.023 C 
ENDROOT
BRANCH   1   2
ATOM      2  C   UNL A   1      35.702  20.597  25.029  1.00  0.00     0.116 C 
BRANCH   2   3
ATOM      3  N   UNL A   1      35.062  21.052  26.245  1.00  0.00    -0.354 N 
ATOM      4  C   UNL A   1      33.765  21.310  26.542  1.00  0.00     0.255 C 
ATOM      5  O   UNL A   1      33.536  21.629  27.718  1.00  0.00    -0.272 OA
ATOM      6  H   UNL A   1      35.683  21.202  26.993  1.00  0.00     0.163 HD
BRANCH   4   7
ATOM      7  C   UNL A   1      32.604  21.339  25.520  1.00  0.00     0.266 C 
BRANCH   7   8
ATOM      8  C   UNL A   1      31.716  22.636  25.491  1.00  0.00     0.250 C 
BRANCH   8   9
ATOM      9  C   UNL A   1      32.331  24.018  25.232  1.00  0.00     0.013 A 
ATOM     10  C   UNL A   1      33.405  26.022  22.140  1.00  0.00     0.044 C 
ATOM     11  C   UNL A   1      33.182  25.622  23.567  1.00  0.00    -0.051 A 
ATOM     12  C   UNL A   1      33.575  26.480  24.594  1.00  0.00     0.003 A 
ATOM     13  C   UNL A   1      32.582  24.396  23.894  1.00  0.00     0.013 A 
ATOM     14  C   UNL A   1      33.320  26.142  25.918  1.00  0.00     0.001 A 
ATOM     15  C   UNL A   1      32.681  24.938  26.228  1.00  0.00     0.010 A 
ENDBRANCH   8   9
BRANCH   8  16
ATOM     16  N   UNL A   1      30.912  22.739  26.738  1.00  0.00    -0.349 N 
ATOM     17  H   UNL A   1      30.122  22.097  26.686  1.00  0.00     0.345 HD
ATOM     18  H   UNL A   1      30.569  23.694  26.843  1.00  0.00     0.345 HD
ATOM     19  H   UNL A   1      31.496  22.497  27.539  1.00  0.00     0.345 HD
ENDBRANCH   8  16
ENDBRANCH   7   8
BRANCH   7  20
ATOM     20  O   UNL A   1      31.901  20.103  25.473  1.00  0.00    -0.378 OA
ATOM     21  H   UNL A   1      32.337  19.461  26.054  1.00  0.00     0.211 HD
ENDBRANCH   7  20
ENDBRANCH   4   7
ENDBRANCH   2   3
ENDBRANCH   1   2
BRANCH   1  22
ATOM     22  C   UNL A   1      38.179  21.324  25.241  1.00  0.00     0.023 C 
BRANCH  22  23
ATOM     23  C   UNL A   1      38.640  22.514  26.072  1.00  0.00     0.116 C 
BRANCH  23  24
ATOM     24  N   UNL A   1      40.073  22.598  26.312  1.00  0.00    -0.352 N 
ATOM     25  C   UNL A   1      40.868  23.716  26.542  1.00  0.00     0.251 C 
ATOM     26  H   UNL A   1      40.551  21.738  26.313  1.00  0.00     0.163 HD
ATOM     27  O   UNL A   1      42.080  23.600  26.599  1.00  0.00    -0.269 OA
BRANCH  25  28
ATOM     28  C   UNL A   1      40.234  25.024  26.868  1.00  0.00     0.039 A 
ATOM     29  C   UNL A   1      40.672  26.152  26.160  1.00  0.00     0.014 A 
ATOM     30  C   UNL A   1      39.413  25.182  27.979  1.00  0.00     0.014 A 
ATOM     31  C   UNL A   1      40.531  27.414  26.730  1.00  0.00     0.010 A 
ATOM     32  C   UNL A   1      39.369  26.414  28.602  1.00  0.00     0.010 A 
ATOM     33  C   UNL A   1      40.006  27.511  28.016  1.00  0.00    -0.014 A 
BRANCH  33  34
ATOM     34  C   UNL A   1      40.226  28.659  28.888  1.00  0.00     0.031 A 
ATOM     35  C   UNL A   1      39.210  29.727  29.001  1.00  0.00     0.074 A 
ATOM     36  C   UNL A   1      41.319  28.664  29.687  1.00  0.00     0.049 A 
ATOM     37  N   UNL A   1      39.434  30.871  29.552  1.00  0.00    -0.248 NA
ATOM     38  C   UNL A   1      37.869  29.625  28.429  1.00  0.00     0.031 C 
ATOM     39  C   UNL A   1      41.563  29.503  30.858  1.00  0.00     0.029 A 
ATOM     40  N   UNL A   1      42.549  28.015  29.465  1.00  0.00    -0.354 N 
ATOM     41  C   UNL A   1      38.233  31.526  29.666  1.00  0.00     0.074 A 
ATOM     42  C   UNL A   1      37.324  30.776  28.841  1.00  0.00     0.031 C 
ATOM     43  C   UNL A   1      42.885  29.563  31.083  1.00  0.00     0.029 A 
ATOM     44  C   UNL A   1      43.535  28.894  29.971  1.00  0.00     0.049 A 
ATOM     45  H   UNL A   1      42.692  27.136  29.045  1.00  0.00     0.167 HD
ATOM     46  C   UNL A   1      38.137  32.554  30.554  1.00  0.00     0.037 A 
ATOM     47  C   UNL A   1      44.460  29.476  29.154  1.00  0.00     0.037 A 
ATOM     48  C   UNL A   1      39.468  32.998  30.972  1.00  0.00     0.049 A 
ATOM     49  C   UNL A   1      44.427  30.987  29.158  1.00  0.00     0.074 A 
ATOM     50  C   UNL A   1      40.202  32.862  32.136  1.00  0.00     0.029 A 
ATOM     51  N   UNL A   1      40.345  33.483  30.004  1.00  0.00    -0.354 N 
ATOM     52  N   UNL A   1      43.413  31.692  29.580  1.00  0.00    -0.248 NA
ATOM     53  C   UNL A   1      45.514  31.818  28.651  1.00  0.00     0.031 C 
ATOM     54  C   UNL A   1      41.556  33.174  31.830  1.00  0.00     0.029 A 
ATOM     55  C   UNL A   1      41.631  33.547  30.498  1.00  0.00     0.049 A 
ATOM     56  H   UNL A   1      40.083  33.745  29.092  1.00  0.00     0.167 HD
ATOM     57  C   UNL A   1      43.665  33.023  29.372  1.00  0.00     0.074 A 
ATOM     58  C   UNL A   1      45.006  33.052  28.817  1.00  0.00     0.031 C 
ATOM     59  C   UNL A   1      42.735  33.983  29.650  1.00  0.00     0.037 A 
BRANCH  46  60
ATOM     60  C   UNL A   1      36.858  33.061  31.194  1.00  0.00     0.064 A 
ATOM     61  C   UNL A   1      35.957  33.853  30.446  1.00  0.00     0.173 A 
ATOM     62  C   UNL A   1      36.520  32.930  32.559  1.00  0.00     0.173 A 
ATOM     63  F   UNL A   1      36.150  34.076  29.137  1.00  0.00    -0.203 F 
ATOM     64  C   UNL A   1      34.836  34.468  31.017  1.00  0.00     0.198 A 
ATOM     65  C   UNL A   1      35.372  33.501  33.117  1.00  0.00     0.198 A 
ATOM     66  F   UNL A   1      37.310  32.303  33.436  1.00  0.00    -0.203 F 
ATOM     67  F   UNL A   1      34.054  35.258  30.269  1.00  0.00    -0.200 F 
ATOM     68  C   UNL A   1      34.537  34.283  32.352  1.00  0.00     0.200 A 
ATOM     69  F   UNL A   1      35.105  33.311  34.418  1.00  0.00    -0.200 F 
ATOM     70  F   UNL A   1      33.466  34.870  32.902  1.00  0.00    -0.200 F 
ENDBRANCH  46  60
BRANCH  47  71
ATOM     71  C   UNL A   1      44.824  28.635  27.986  1.00  0.00     0.064 A 
ATOM     72  C   UNL A   1      45.661  27.522  28.200  1.00  0.00     0.173 A 
ATOM     73  C   UNL A   1      44.085  28.670  26.799  1.00  0.00     0.173 A 
ATOM     74  F   UNL A   1      46.394  27.444  29.322  1.00  0.00    -0.203 F 
ATOM     75  C   UNL A   1      45.665  26.439  27.326  1.00  0.00     0.198 A 
ATOM     76  C   UNL A   1      44.101  27.585  25.917  1.00  0.00     0.198 A 
ATOM     77  F   UNL A   1      43.255  29.692  26.546  1.00  0.00    -0.203 F 
ATOM     78  F   UNL A   1      46.390  25.348  27.613  1.00  0.00    -0.200 F 
ATOM     79  C   UNL A   1      44.861  26.459  26.199  1.00  0.00     0.200 A 
ATOM     80  F   UNL A   1      43.298  27.591  24.841  1.00  0.00    -0.200 F 
ATOM     81  F   UNL A   1      44.786  25.381  25.406  1.00  0.00    -0.200 F 
ENDBRANCH  47  71
BRANCH  59  82
ATOM     82  C   UNL A   1      42.800  35.429  29.210  1.00  0.00     0.064 A 
ATOM     83  C   UNL A   1      42.106  35.949  28.104  1.00  0.00     0.173 A 
ATOM     84  C   UNL A   1      43.472  36.388  30.007  1.00  0.00     0.173 A 
ATOM     85  F   UNL A   1      41.322  35.174  27.343  1.00  0.00    -0.203 F 
ATOM     86  C   UNL A   1      42.142  37.308  27.776  1.00  0.00     0.198 A 
ATOM     87  C   UNL A   1      43.455  37.752  29.712  1.00  0.00     0.198 A 
ATOM     88  F   UNL A   1      44.141  36.034  31.113  1.00  0.00    -0.203 F 
ATOM     89  F   UNL A   1      41.500  37.744  26.683  1.00  0.00    -0.200 F 
ATOM     90  C   UNL A   1      42.806  38.210  28.585  1.00  0.00     0.200 A 
ATOM     91  F   UNL A   1      44.054  38.620  30.540  1.00  0.00    -0.200 F 
ATOM     92  F   UNL A   1      42.799  39.517  28.293  1.00  0.00    -0.200 F 
ENDBRANCH  59  82
ENDBRANCH  33  34
ENDBRANCH  25  28
ENDBRANCH  23  24
ENDBRANCH  22  23
ENDBRANCH   1  22
TORSDOF 15
ENDMDL
MODEL 3
REMARK VINA RESULT:     -12.5      1.427      2.082
REMARK SMILES Cc1cccc([C@H]([NH3+])[C@H](O)C(=O)NCCCCNC(=O)c2ccc(-c3c4nc(c(-c5c(F)c(F)c(F)c(F)c5F)c5ccc([nH]5)c(-c5c(F)c(F)c(F)c(F)c5F)c5nc(c(-c6c(F)c(F)c(F)c(F)c6F)c6ccc3[nH]6)C=C5)C=C4)cc2)c1
REMARK SMILES IDX 15 1 14 2 13 3 11 4 12 5 9 7 7 8 6 9 1 10 2 11 3 12 84 13
REMARK SMILES IDX 4 14 5 15 8 16 10 20 16 22 17 23 18 24 19 25 20 27 21 28
REMARK SMILES IDX 22 29 83 30 23 31 82 32 24 33 25 34 26 35 76 36 27 37 81 38
REMARK SMILES IDX 75 39 77 40 28 41 80 42 74 43 73 44 29 46 61 47 41 48 60 49
REMARK SMILES IDX 42 50 45 51 59 52 78 53 43 54 44 55 58 57 79 58 46 59 30 60
REMARK SMILES IDX 31 61 39 62 32 63 33 64 37 65 40 66 34 67 35 68 38 69 36 70
REMARK SMILES IDX 62 71 63 72 71 73 64 74 65 75 69 76 72 77 66 78 67 79 70 80
REMARK SMILES IDX 68 81 47 82 48 83 56 84 49 85 50 86 54 87 57 88 51 89 52 90
REMARK SMILES IDX 55 91 53 92
REMARK H PARENT 13 6 8 17 8 18 8 19 10 21 18 26 77 45 45 56
REMARK Flexibility Score: inf
ROOT
ATOM      1  C   UNL A   1      31.545  30.414  25.604  1.00  0.00     0.023 C 
ENDROOT
BRANCH   1   2
ATOM      2  C   UNL A   1      32.269  29.080  25.396  1.00  0.00     0.116 C 
BRANCH   2   3
ATOM      3  N   UNL A   1      33.042  29.020  24.174  1.00  0.00    -0.354 N 
ATOM      4  C   UNL A   1      32.837  28.366  23.004  1.00  0.00     0.255 C 
ATOM      5  O   UNL A   1      33.673  28.579  22.115  1.00  0.00    -0.272 OA
ATOM      6  H   UNL A   1      33.870  29.552  24.196  1.00  0.00     0.163 HD
BRANCH   4   7
ATOM      7  C   UNL A   1      31.726  27.320  22.750  1.00  0.00     0.266 C 
BRANCH   7   8
ATOM      8  C   UNL A   1      32.173  25.815  22.670  1.00  0.00     0.250 C 
BRANCH   8   9
ATOM      9  C   UNL A   1      33.143  25.215  23.696  1.00  0.00     0.013 A 
ATOM     10  C   UNL A   1      36.339  23.095  23.555  1.00  0.00     0.044 C 
ATOM     11  C   UNL A   1      35.155  23.848  24.083  1.00  0.00    -0.051 A 
ATOM     12  C   UNL A   1      34.952  23.938  25.461  1.00  0.00     0.003 A 
ATOM     13  C   UNL A   1      34.243  24.470  23.216  1.00  0.00     0.013 A 
ATOM     14  C   UNL A   1      33.890  24.683  25.959  1.00  0.00     0.001 A 
ATOM     15  C   UNL A   1      33.013  25.334  25.086  1.00  0.00     0.010 A 
ENDBRANCH   8   9
BRANCH   8  16
ATOM     16  N   UNL A   1      32.716  25.509  21.320  1.00  0.00    -0.349 N 
ATOM     17  H   UNL A   1      33.364  26.245  21.040  1.00  0.00     0.345 HD
ATOM     18  H   UNL A   1      31.950  25.458  20.649  1.00  0.00     0.345 HD
ATOM     19  H   UNL A   1      33.207  24.615  21.346  1.00  0.00     0.345 HD
ENDBRANCH   8  16
ENDBRANCH   7   8
BRANCH   7  20
ATOM     20  O   UNL A   1      30.803  27.748  21.755  1.00  0.00    -0.378 OA
ATOM     21  H   UNL A   1      30.224  28.433  22.125  1.00  0.00     0.211 HD
ENDBRANCH   7  20
ENDBRANCH   4   7
ENDBRANCH   2   3
ENDBRANCH   1   2
BRANCH   1  22
ATOM     22  C   UNL A   1      31.999  31.222  26.824  1.00  0.00     0.023 C 
BRANCH  22  23
ATOM     23  C   UNL A   1      33.312  30.760  27.442  1.00  0.00     0.116 C 
BRANCH  23  24
ATOM     24  N   UNL A   1      34.068  31.780  28.153  1.00  0.00    -0.352 N 
ATOM     25  C   UNL A   1      35.257  31.665  28.866  1.00  0.00     0.251 C 
ATOM     26  H   UNL A   1      33.682  32.685  28.126  1.00  0.00     0.163 HD
ATOM     27  O   UNL A   1      35.678  32.614  29.504  1.00  0.00    -0.269 OA
BRANCH  25  28
ATOM     28  C   UNL A   1      36.090  30.438  28.728  1.00  0.00     0.039 A 
ATOM     29  C   UNL A   1      36.380  29.716  29.893  1.00  0.00     0.014 A 
ATOM     30  C   UNL A   1      36.753  30.134  27.544  1.00  0.00     0.014 A 
ATOM     31  C   UNL A   1      37.518  28.913  29.935  1.00  0.00     0.010 A 
ATOM     32  C   UNL A   1      37.940  29.431  27.609  1.00  0.00     0.010 A 
ATOM     33  C   UNL A   1      38.363  28.896  28.830  1.00  0.00    -0.014 A 
BRANCH  33  34
ATOM     34  C   UNL A   1      39.765  28.498  28.897  1.00  0.00     0.031 A 
ATOM     35  C   UNL A   1      40.172  27.113  28.581  1.00  0.00     0.074 A 
ATOM     36  C   UNL A   1      40.697  29.453  29.128  1.00  0.00     0.049 A 
ATOM     37  N   UNL A   1      41.338  26.632  28.851  1.00  0.00    -0.248 NA
ATOM     38  C   UNL A   1      39.268  26.121  28.002  1.00  0.00     0.031 C 
ATOM     39  C   UNL A   1      42.138  29.365  28.900  1.00  0.00     0.029 A 
ATOM     40  N   UNL A   1      40.531  30.665  29.825  1.00  0.00    -0.354 N 
ATOM     41  C   UNL A   1      41.438  25.405  28.244  1.00  0.00     0.074 A 
ATOM     42  C   UNL A   1      40.093  25.078  27.848  1.00  0.00     0.031 C 
ATOM     43  C   UNL A   1      42.756  30.277  29.666  1.00  0.00     0.029 A 
ATOM     44  C   UNL A   1      41.744  30.868  30.523  1.00  0.00     0.049 A 
ATOM     45  H   UNL A   1      39.737  31.248  29.826  1.00  0.00     0.167 HD
ATOM     46  C   UNL A   1      42.679  24.881  28.042  1.00  0.00     0.037 A 
ATOM     47  C   UNL A   1      41.792  30.868  31.887  1.00  0.00     0.037 A 
ATOM     48  C   UNL A   1      43.673  25.589  28.849  1.00  0.00     0.049 A 
ATOM     49  C   UNL A   1      42.699  29.811  32.475  1.00  0.00     0.074 A 
ATOM     50  C   UNL A   1      44.674  26.497  28.557  1.00  0.00     0.029 A 
ATOM     51  N   UNL A   1      43.537  25.581  30.236  1.00  0.00    -0.354 N 
ATOM     52  N   UNL A   1      43.113  28.761  31.822  1.00  0.00    -0.248 NA
ATOM     53  C   UNL A   1      43.175  29.835  33.855  1.00  0.00     0.031 C 
ATOM     54  C   UNL A   1      45.067  27.113  29.778  1.00  0.00     0.029 A 
ATOM     55  C   UNL A   1      44.343  26.541  30.812  1.00  0.00     0.049 A 
ATOM     56  H   UNL A   1      42.945  24.974  30.737  1.00  0.00     0.167 HD
ATOM     57  C   UNL A   1      43.846  27.962  32.659  1.00  0.00     0.074 A 
ATOM     58  C   UNL A   1      43.882  28.693  33.912  1.00  0.00     0.031 C 
ATOM     59  C   UNL A   1      44.336  26.753  32.254  1.00  0.00     0.037 A 
BRANCH  46  60
ATOM     60  C   UNL A   1      43.048  23.847  26.995  1.00  0.00     0.064 A 
ATOM     61  C   UNL A   1      42.722  22.486  27.196  1.00  0.00     0.173 A 
ATOM     62  C   UNL A   1      43.837  24.091  25.849  1.00  0.00     0.173 A 
ATOM     63  F   UNL A   1      41.985  22.097  28.247  1.00  0.00    -0.203 F 
ATOM     64  C   UNL A   1      43.159  21.468  26.339  1.00  0.00     0.198 A 
ATOM     65  C   UNL A   1      44.230  23.081  24.965  1.00  0.00     0.198 A 
ATOM     66  F   UNL A   1      44.323  25.302  25.559  1.00  0.00    -0.203 F 
ATOM     67  F   UNL A   1      42.870  20.190  26.618  1.00  0.00    -0.200 F 
ATOM     68  C   UNL A   1      43.905  21.767  25.217  1.00  0.00     0.200 A 
ATOM     69  F   UNL A   1      44.958  23.396  23.883  1.00  0.00    -0.200 F 
ATOM     70  F   UNL A   1      44.326  20.797  24.395  1.00  0.00    -0.200 F 
ENDBRANCH  46  60
BRANCH  47  71
ATOM     71  C   UNL A   1      40.544  31.368  32.519  1.00  0.00     0.064 A 
ATOM     72  C   UNL A   1      40.298  32.755  32.501  1.00  0.00     0.173 A 
ATOM     73  C   UNL A   1      39.461  30.520  32.772  1.00  0.00     0.173 A 
ATOM     74  F   UNL A   1      41.306  33.609  32.266  1.00  0.00    -0.203 F 
ATOM     75  C   UNL A   1      39.006  33.262  32.610  1.00  0.00     0.198 A 
ATOM     76  C   UNL A   1      38.167  31.034  32.893  1.00  0.00     0.198 A 
ATOM     77  F   UNL A   1      39.627  29.190  32.781  1.00  0.00    -0.203 F 
ATOM     78  F   UNL A   1      38.791  34.579  32.480  1.00  0.00    -0.200 F 
ATOM     79  C   UNL A   1      37.937  32.398  32.777  1.00  0.00     0.200 A 
ATOM     80  F   UNL A   1      37.127  30.196  33.023  1.00  0.00    -0.200 F 
ATOM     81  F   UNL A   1      36.683  32.872  32.784  1.00  0.00    -0.200 F 
ENDBRANCH  47  71
BRANCH  59  82
ATOM     82  C   UNL A   1      44.910  25.685  33.160  1.00  0.00     0.064 A 
ATOM     83  C   UNL A   1      46.260  25.292  33.157  1.00  0.00     0.173 A 
ATOM     84  C   UNL A   1      44.118  25.118  34.187  1.00  0.00     0.173 A 
ATOM     85  F   UNL A   1      47.149  25.850  32.325  1.00  0.00    -0.203 F 
ATOM     86  C   UNL A   1      46.760  24.349  34.060  1.00  0.00     0.198 A 
ATOM     87  C   UNL A   1      44.635  24.224  35.126  1.00  0.00     0.198 A 
ATOM     88  F   UNL A   1      42.824  25.437  34.329  1.00  0.00    -0.203 F 
ATOM     89  F   UNL A   1      48.045  23.974  33.983  1.00  0.00    -0.200 F 
ATOM     90  C   UNL A   1      45.952  23.824  35.050  1.00  0.00     0.200 A 
ATOM     91  F   UNL A   1      43.852  23.770  36.115  1.00  0.00    -0.200 F 
ATOM     92  F   UNL A   1      46.448  22.957  35.942  1.00  0.00    -0.200 F 
ENDBRANCH  59  82
ENDBRANCH  33  34
ENDBRANCH  25  28
ENDBRANCH  23  24
ENDBRANCH  22  23
ENDBRANCH   1  22
TORSDOF 15
ENDMDL
