MODEL 1
REMARK VINA RESULT:     -12.4      0.000      0.000
REMARK SMILES C[C@@H]1CCC[C@H]1NC(=O)c1csc(/C=C/C(=O)NCCCCNC(=O)c2ccc(-c3c4nc(c(-c5c(F)c(F)c(F)c(F)c5F)c5ccc([nH]5)c(-c5c(F)c(F)c(F)c(F)c5F)c5nc(c(-c6c(F)c(F)c(F)c(F)c6F)c6ccc3[nH]6)C=C5)C=C4)cc2)c1
REMARK SMILES IDX 20 1 19 2 18 3 16 4 17 5 15 7 14 8 13 9 10 10 11 11 89 12
REMARK SMILES IDX 12 13 8 14 7 15 9 17 6 18 1 19 2 20 3 21 4 22 5 23 21 24
REMARK SMILES IDX 22 25 23 26 24 27 25 29 26 30 27 31 88 32 28 33 87 34 29 35
REMARK SMILES IDX 30 36 31 37 81 38 32 39 86 40 80 41 82 42 33 43 85 44 79 45
REMARK SMILES IDX 78 46 34 48 66 49 46 50 65 51 47 52 50 53 64 54 83 55 48 56
REMARK SMILES IDX 49 57 63 59 84 60 51 61 35 62 36 63 44 64 37 65 38 66 42 67
REMARK SMILES IDX 45 68 39 69 40 70 43 71 41 72 67 73 68 74 76 75 69 76 70 77
REMARK SMILES IDX 74 78 77 79 71 80 72 81 75 82 73 83 52 84 53 85 61 86 54 87
REMARK SMILES IDX 55 88 59 89 62 90 56 91 57 92 60 93 58 94
REMARK H PARENT 18 6 7 16 23 28 82 47 50 58
REMARK Flexibility Score: inf
ROOT
ATOM      1  C   UNL A   1      31.772  30.518  26.774  1.00  0.00     0.023 C 
ENDROOT
BRANCH   1   2
ATOM      2  C   UNL A   1      33.183  30.071  26.388  1.00  0.00     0.116 C 
BRANCH   2   3
ATOM      3  N   UNL A   1      33.277  29.854  24.955  1.00  0.00    -0.353 N 
ATOM      4  C   UNL A   1      33.301  28.704  24.228  1.00  0.00     0.244 C 
ATOM      5  O   UNL A   1      33.327  28.763  23.001  1.00  0.00    -0.270 OA
ATOM      6  H   UNL A   1      33.333  30.678  24.419  1.00  0.00     0.163 HD
BRANCH   4   7
ATOM      7  C   UNL A   1      33.186  27.387  24.891  1.00  0.00     0.072 C 
ATOM      8  C   UNL A   1      32.559  26.334  24.350  1.00  0.00     0.024 C 
BRANCH   8   9
ATOM      9  C   UNL A   1      32.540  25.041  24.943  1.00  0.00     0.028 A 
ATOM     10  C   UNL A   1      33.245  23.177  26.208  1.00  0.00     0.051 A 
ATOM     11  C   UNL A   1      32.081  22.707  25.634  1.00  0.00     0.079 A 
ATOM     12  C   UNL A   1      33.462  24.545  25.848  1.00  0.00     0.033 A 
ATOM     13  S   UNL A   1      31.353  23.850  24.593  1.00  0.00    -0.144 S 
BRANCH  10  14
ATOM     14  C   UNL A   1      34.111  22.427  27.107  1.00  0.00     0.252 C 
ATOM     15  N   UNL A   1      35.136  21.684  26.580  1.00  0.00    -0.349 N 
ATOM     16  H   UNL A   1      35.637  21.142  27.230  1.00  0.00     0.164 HD
ATOM     17  O   UNL A   1      33.984  22.491  28.326  1.00  0.00    -0.269 OA
BRANCH  15  18
ATOM     18  C   UNL A   1      35.596  21.578  25.197  1.00  0.00     0.085 C 
ATOM     19  C   UNL A   1      36.653  22.953  23.352  1.00  0.00     0.010 C 
ATOM     20  C   UNL A   1      36.603  22.684  24.857  1.00  0.00     0.008 C 
ATOM     21  C   UNL A   1      37.927  22.124  25.376  1.00  0.00     0.005 C 
ATOM     22  C   UNL A   1      37.849  20.618  25.146  1.00  0.00     0.002 C 
ATOM     23  C   UNL A   1      36.366  20.271  25.001  1.00  0.00     0.025 C 
ENDBRANCH  15  18
ENDBRANCH  10  14
ENDBRANCH   8   9
ENDBRANCH   4   7
ENDBRANCH   2   3
ENDBRANCH   1   2
BRANCH   1  24
ATOM     24  C   UNL A   1      31.574  32.036  26.762  1.00  0.00     0.023 C 
BRANCH  24  25
ATOM     25  C   UNL A   1      32.774  32.838  27.251  1.00  0.00     0.116 C 
BRANCH  25  26
ATOM     26  N   UNL A   1      32.441  34.203  27.626  1.00  0.00    -0.352 N 
ATOM     27  C   UNL A   1      32.996  34.972  28.619  1.00  0.00     0.251 C 
ATOM     28  H   UNL A   1      31.726  34.631  27.101  1.00  0.00     0.163 HD
ATOM     29  O   UNL A   1      32.528  36.071  28.895  1.00  0.00    -0.269 OA
BRANCH  27  30
ATOM     30  C   UNL A   1      34.144  34.442  29.381  1.00  0.00     0.039 A 
ATOM     31  C   UNL A   1      33.907  33.776  30.586  1.00  0.00     0.014 A 
ATOM     32  C   UNL A   1      35.444  34.569  28.885  1.00  0.00     0.014 A 
ATOM     33  C   UNL A   1      34.973  33.189  31.266  1.00  0.00     0.010 A 
ATOM     34  C   UNL A   1      36.491  33.912  29.520  1.00  0.00     0.010 A 
ATOM     35  C   UNL A   1      36.269  33.224  30.723  1.00  0.00    -0.014 A 
BRANCH  35  36
ATOM     36  C   UNL A   1      37.412  32.576  31.412  1.00  0.00     0.031 A 
ATOM     37  C   UNL A   1      38.122  31.424  30.757  1.00  0.00     0.074 A 
ATOM     38  C   UNL A   1      37.770  32.982  32.644  1.00  0.00     0.049 A 
ATOM     39  N   UNL A   1      39.097  30.682  31.216  1.00  0.00    -0.248 NA
ATOM     40  C   UNL A   1      37.652  31.035  29.417  1.00  0.00     0.031 C 
ATOM     41  C   UNL A   1      37.129  34.057  33.402  1.00  0.00     0.029 A 
ATOM     42  N   UNL A   1      38.760  32.530  33.482  1.00  0.00    -0.354 N 
ATOM     43  C   UNL A   1      39.345  29.734  30.231  1.00  0.00     0.074 A 
ATOM     44  C   UNL A   1      38.374  29.951  29.181  1.00  0.00     0.031 C 
ATOM     45  C   UNL A   1      37.759  34.203  34.578  1.00  0.00     0.029 A 
ATOM     46  C   UNL A   1      38.823  33.207  34.675  1.00  0.00     0.049 A 
ATOM     47  H   UNL A   1      39.367  31.791  33.248  1.00  0.00     0.167 HD
ATOM     48  C   UNL A   1      40.313  28.788  30.191  1.00  0.00     0.037 A 
ATOM     49  C   UNL A   1      39.644  33.038  35.728  1.00  0.00     0.037 A 
ATOM     50  C   UNL A   1      41.288  28.589  31.231  1.00  0.00     0.049 A 
ATOM     51  C   UNL A   1      40.704  31.970  35.666  1.00  0.00     0.074 A 
ATOM     52  C   UNL A   1      42.336  27.687  31.272  1.00  0.00     0.029 A 
ATOM     53  N   UNL A   1      41.330  29.305  32.418  1.00  0.00    -0.354 N 
ATOM     54  N   UNL A   1      40.971  31.121  34.703  1.00  0.00    -0.248 NA
ATOM     55  C   UNL A   1      41.586  31.845  36.834  1.00  0.00     0.031 C 
ATOM     56  C   UNL A   1      42.983  27.824  32.504  1.00  0.00     0.029 A 
ATOM     57  C   UNL A   1      42.378  28.855  33.206  1.00  0.00     0.049 A 
ATOM     58  H   UNL A   1      40.708  30.028  32.666  1.00  0.00     0.167 HD
ATOM     59  C   UNL A   1      42.072  30.392  35.130  1.00  0.00     0.074 A 
ATOM     60  C   UNL A   1      42.430  30.905  36.437  1.00  0.00     0.031 C 
ATOM     61  C   UNL A   1      42.732  29.390  34.497  1.00  0.00     0.037 A 
BRANCH  48  62
ATOM     62  C   UNL A   1      40.361  27.900  28.980  1.00  0.00     0.064 A 
ATOM     63  C   UNL A   1      41.124  28.233  27.850  1.00  0.00     0.173 A 
ATOM     64  C   UNL A   1      39.646  26.692  28.953  1.00  0.00     0.173 A 
ATOM     65  F   UNL A   1      41.816  29.382  27.818  1.00  0.00    -0.203 F 
ATOM     66  C   UNL A   1      41.137  27.414  26.725  1.00  0.00     0.198 A 
ATOM     67  C   UNL A   1      39.692  25.857  27.839  1.00  0.00     0.198 A 
ATOM     68  F   UNL A   1      38.903  26.319  30.006  1.00  0.00    -0.203 F 
ATOM     69  F   UNL A   1      41.822  27.787  25.635  1.00  0.00    -0.200 F 
ATOM     70  C   UNL A   1      40.428  26.223  26.723  1.00  0.00     0.200 A 
ATOM     71  F   UNL A   1      39.017  24.699  27.844  1.00  0.00    -0.200 F 
ATOM     72  F   UNL A   1      40.445  25.433  25.640  1.00  0.00    -0.200 F 
ENDBRANCH  48  62
BRANCH  49  73
ATOM     73  C   UNL A   1      39.527  33.925  36.915  1.00  0.00     0.064 A 
ATOM     74  C   UNL A   1      38.786  33.529  38.038  1.00  0.00     0.173 A 
ATOM     75  C   UNL A   1      40.142  35.185  36.953  1.00  0.00     0.173 A 
ATOM     76  F   UNL A   1      38.163  32.342  38.042  1.00  0.00    -0.203 F 
ATOM     77  C   UNL A   1      38.643  34.369  39.140  1.00  0.00     0.198 A 
ATOM     78  C   UNL A   1      40.024  36.011  38.069  1.00  0.00     0.198 A 
ATOM     79  F   UNL A   1      40.869  35.610  35.908  1.00  0.00    -0.203 F 
ATOM     80  F   UNL A   1      37.887  33.985  40.178  1.00  0.00    -0.200 F 
ATOM     81  C   UNL A   1      39.267  35.607  39.157  1.00  0.00     0.200 A 
ATOM     82  F   UNL A   1      40.642  37.200  38.088  1.00  0.00    -0.200 F 
ATOM     83  F   UNL A   1      39.131  36.412  40.219  1.00  0.00    -0.200 F 
ENDBRANCH  49  73
BRANCH  61  84
ATOM     84  C   UNL A   1      43.945  28.825  35.177  1.00  0.00     0.064 A 
ATOM     85  C   UNL A   1      45.217  29.397  35.028  1.00  0.00     0.173 A 
ATOM     86  C   UNL A   1      43.823  27.710  36.023  1.00  0.00     0.173 A 
ATOM     87  F   UNL A   1      45.391  30.454  34.221  1.00  0.00    -0.203 F 
ATOM     88  C   UNL A   1      46.326  28.855  35.673  1.00  0.00     0.198 A 
ATOM     89  C   UNL A   1      44.926  27.193  36.694  1.00  0.00     0.198 A 
ATOM     90  F   UNL A   1      42.627  27.130  36.208  1.00  0.00    -0.203 F 
ATOM     91  F   UNL A   1      47.541  29.384  35.471  1.00  0.00    -0.200 F 
ATOM     92  C   UNL A   1      46.179  27.759  36.511  1.00  0.00     0.200 A 
ATOM     93  F   UNL A   1      44.779  26.146  37.516  1.00  0.00    -0.200 F 
ATOM     94  F   UNL A   1      47.246  27.244  37.137  1.00  0.00    -0.200 F 
ENDBRANCH  61  84
ENDBRANCH  35  36
ENDBRANCH  27  30
ENDBRANCH  25  26
ENDBRANCH  24  25
ENDBRANCH   1  24
TORSDOF 14
ENDMDL
MODEL 2
REMARK VINA RESULT:     -12.4      0.772      7.436
REMARK SMILES C[C@@H]1CCC[C@H]1NC(=O)c1csc(/C=C/C(=O)NCCCCNC(=O)c2ccc(-c3c4nc(c(-c5c(F)c(F)c(F)c(F)c5F)c5ccc([nH]5)c(-c5c(F)c(F)c(F)c(F)c5F)c5nc(c(-c6c(F)c(F)c(F)c(F)c6F)c6ccc3[nH]6)C=C5)C=C4)cc2)c1
REMARK SMILES IDX 20 1 19 2 18 3 16 4 17 5 15 7 14 8 13 9 10 10 11 11 89 12
REMARK SMILES IDX 12 13 8 14 7 15 9 17 6 18 1 19 2 20 3 21 4 22 5 23 21 24
REMARK SMILES IDX 22 25 23 26 24 27 25 29 26 30 27 31 88 32 28 33 87 34 29 35
REMARK SMILES IDX 30 36 31 37 81 38 32 39 86 40 80 41 82 42 33 43 85 44 79 45
REMARK SMILES IDX 78 46 34 48 66 49 46 50 65 51 47 52 50 53 64 54 83 55 48 56
REMARK SMILES IDX 49 57 63 59 84 60 51 61 35 62 36 63 44 64 37 65 38 66 42 67
REMARK SMILES IDX 45 68 39 69 40 70 43 71 41 72 67 73 68 74 76 75 69 76 70 77
REMARK SMILES IDX 74 78 77 79 71 80 72 81 75 82 73 83 52 84 53 85 61 86 54 87
REMARK SMILES IDX 55 88 59 89 62 90 56 91 57 92 60 93 58 94
REMARK H PARENT 18 6 7 16 23 28 82 47 50 58
REMARK Flexibility Score: inf
ROOT
ATOM      1  C   UNL A   1      31.524  30.412  26.304  1.00  0.00     0.023 C 
ENDROOT
BRANCH   1   2
ATOM      2  C   UNL A   1      32.953  29.898  26.123  1.00  0.00     0.116 C 
BRANCH   2   3
ATOM      3  N   UNL A   1      33.261  29.726  24.713  1.00  0.00    -0.353 N 
ATOM      4  C   UNL A   1      33.526  28.604  23.991  1.00  0.00     0.244 C 
ATOM      5  O   UNL A   1      33.705  28.694  22.778  1.00  0.00    -0.270 OA
ATOM      6  H   UNL A   1      33.280  30.563  24.194  1.00  0.00     0.163 HD
BRANCH   4   7
ATOM      7  C   UNL A   1      33.496  27.269  24.626  1.00  0.00     0.072 C 
ATOM      8  C   UNL A   1      32.483  26.404  24.489  1.00  0.00     0.024 C 
BRANCH   8   9
ATOM      9  C   UNL A   1      32.503  25.082  25.015  1.00  0.00     0.028 A 
ATOM     10  C   UNL A   1      33.248  23.188  26.211  1.00  0.00     0.051 A 
ATOM     11  C   UNL A   1      32.128  22.697  25.569  1.00  0.00     0.079 A 
ATOM     12  C   UNL A   1      33.414  24.581  25.928  1.00  0.00     0.033 A 
ATOM     13  S   UNL A   1      31.385  23.860  24.561  1.00  0.00    -0.144 S 
BRANCH  10  14
ATOM     14  C   UNL A   1      34.115  22.431  27.102  1.00  0.00     0.252 C 
ATOM     15  N   UNL A   1      35.129  21.678  26.567  1.00  0.00    -0.349 N 
ATOM     16  H   UNL A   1      35.631  21.133  27.214  1.00  0.00     0.164 HD
ATOM     17  O   UNL A   1      33.999  22.498  28.322  1.00  0.00    -0.269 OA
BRANCH  15  18
ATOM     18  C   UNL A   1      35.575  21.566  25.181  1.00  0.00     0.085 C 
ATOM     19  C   UNL A   1      36.544  22.952  23.295  1.00  0.00     0.010 C 
ATOM     20  C   UNL A   1      36.526  22.710  24.806  1.00  0.00     0.008 C 
ATOM     21  C   UNL A   1      37.881  22.221  25.318  1.00  0.00     0.005 C 
ATOM     22  C   UNL A   1      37.869  20.710  25.117  1.00  0.00     0.002 C 
ATOM     23  C   UNL A   1      36.402  20.292  24.999  1.00  0.00     0.025 C 
ENDBRANCH  15  18
ENDBRANCH  10  14
ENDBRANCH   8   9
ENDBRANCH   4   7
ENDBRANCH   2   3
ENDBRANCH   1   2
BRANCH   1  24
ATOM     24  C   UNL A   1      31.426  31.927  26.500  1.00  0.00     0.023 C 
BRANCH  24  25
ATOM     25  C   UNL A   1      32.644  32.563  27.159  1.00  0.00     0.116 C 
BRANCH  25  26
ATOM     26  N   UNL A   1      32.429  33.947  27.553  1.00  0.00    -0.352 N 
ATOM     27  C   UNL A   1      33.094  34.672  28.511  1.00  0.00     0.251 C 
ATOM     28  H   UNL A   1      31.715  34.424  27.071  1.00  0.00     0.163 HD
ATOM     29  O   UNL A   1      32.720  35.800  28.814  1.00  0.00    -0.269 OA
BRANCH  27  30
ATOM     30  C   UNL A   1      34.245  34.061  29.203  1.00  0.00     0.039 A 
ATOM     31  C   UNL A   1      34.012  33.224  30.296  1.00  0.00     0.014 A 
ATOM     32  C   UNL A   1      35.547  34.285  28.747  1.00  0.00     0.014 A 
ATOM     33  C   UNL A   1      35.084  32.566  30.898  1.00  0.00     0.010 A 
ATOM     34  C   UNL A   1      36.602  33.565  29.294  1.00  0.00     0.010 A 
ATOM     35  C   UNL A   1      36.383  32.706  30.382  1.00  0.00    -0.014 A 
BRANCH  35  36
ATOM     36  C   UNL A   1      37.534  31.989  30.986  1.00  0.00     0.031 A 
ATOM     37  C   UNL A   1      38.001  32.355  32.367  1.00  0.00     0.074 A 
ATOM     38  C   UNL A   1      38.191  31.055  30.273  1.00  0.00     0.049 A 
ATOM     39  N   UNL A   1      39.021  31.898  33.047  1.00  0.00    -0.248 NA
ATOM     40  C   UNL A   1      37.235  33.400  33.067  1.00  0.00     0.031 C 
ATOM     41  C   UNL A   1      37.863  30.645  28.907  1.00  0.00     0.029 A 
ATOM     42  N   UNL A   1      39.281  30.287  30.597  1.00  0.00    -0.354 N 
ATOM     43  C   UNL A   1      39.026  32.606  34.242  1.00  0.00     0.074 A 
ATOM     44  C   UNL A   1      37.951  33.571  34.167  1.00  0.00     0.031 C 
ATOM     45  C   UNL A   1      38.712  29.680  28.522  1.00  0.00     0.029 A 
ATOM     46  C   UNL A   1      39.669  29.430  29.596  1.00  0.00     0.049 A 
ATOM     47  H   UNL A   1      39.741  30.344  31.466  1.00  0.00     0.167 HD
ATOM     48  C   UNL A   1      39.834  32.447  35.317  1.00  0.00     0.037 A 
ATOM     49  C   UNL A   1      40.684  28.547  29.551  1.00  0.00     0.037 A 
ATOM     50  C   UNL A   1      40.890  31.473  35.393  1.00  0.00     0.049 A 
ATOM     51  C   UNL A   1      41.578  28.398  30.754  1.00  0.00     0.074 A 
ATOM     52  C   UNL A   1      41.740  31.200  36.449  1.00  0.00     0.029 A 
ATOM     53  N   UNL A   1      41.242  30.611  34.364  1.00  0.00    -0.354 N 
ATOM     54  N   UNL A   1      41.535  29.028  31.903  1.00  0.00    -0.248 NA
ATOM     55  C   UNL A   1      42.655  27.405  30.657  1.00  0.00     0.031 C 
ATOM     56  C   UNL A   1      42.638  30.207  36.044  1.00  0.00     0.029 A 
ATOM     57  C   UNL A   1      42.308  29.816  34.756  1.00  0.00     0.049 A 
ATOM     58  H   UNL A   1      40.800  30.569  33.485  1.00  0.00     0.167 HD
ATOM     59  C   UNL A   1      42.548  28.481  32.678  1.00  0.00     0.074 A 
ATOM     60  C   UNL A   1      43.184  27.460  31.871  1.00  0.00     0.031 C 
ATOM     61  C   UNL A   1      42.917  28.791  33.946  1.00  0.00     0.037 A 
BRANCH  48  62
ATOM     62  C   UNL A   1      39.600  33.349  36.495  1.00  0.00     0.064 A 
ATOM     63  C   UNL A   1      38.752  32.979  37.551  1.00  0.00     0.173 A 
ATOM     64  C   UNL A   1      40.243  34.594  36.579  1.00  0.00     0.173 A 
ATOM     65  F   UNL A   1      38.102  31.806  37.515  1.00  0.00    -0.203 F 
ATOM     66  C   UNL A   1      38.524  33.837  38.624  1.00  0.00     0.198 A 
ATOM     67  C   UNL A   1      40.042  35.433  37.673  1.00  0.00     0.198 A 
ATOM     68  F   UNL A   1      41.070  34.998  35.602  1.00  0.00    -0.203 F 
ATOM     69  F   UNL A   1      37.660  33.487  39.586  1.00  0.00    -0.200 F 
ATOM     70  C   UNL A   1      39.175  35.059  38.688  1.00  0.00     0.200 A 
ATOM     71  F   UNL A   1      40.683  36.608  37.740  1.00  0.00    -0.200 F 
ATOM     72  F   UNL A   1      38.958  35.882  39.724  1.00  0.00    -0.200 F 
ENDBRANCH  48  62
BRANCH  49  73
ATOM     73  C   UNL A   1      40.888  27.706  28.343  1.00  0.00     0.064 A 
ATOM     74  C   UNL A   1      40.274  26.450  28.231  1.00  0.00     0.173 A 
ATOM     75  C   UNL A   1      41.701  28.130  27.282  1.00  0.00     0.173 A 
ATOM     76  F   UNL A   1      39.503  25.991  29.227  1.00  0.00    -0.203 F 
ATOM     77  C   UNL A   1      40.487  25.640  27.117  1.00  0.00     0.198 A 
ATOM     78  C   UNL A   1      41.888  27.333  26.155  1.00  0.00     0.198 A 
ATOM     79  F   UNL A   1      42.306  29.327  27.336  1.00  0.00    -0.203 F 
ATOM     80  F   UNL A   1      39.929  24.423  27.059  1.00  0.00    -0.200 F 
ATOM     81  C   UNL A   1      41.289  26.085  26.077  1.00  0.00     0.200 A 
ATOM     82  F   UNL A   1      42.651  27.773  25.145  1.00  0.00    -0.200 F 
ATOM     83  F   UNL A   1      41.492  25.307  25.005  1.00  0.00    -0.200 F 
ENDBRANCH  49  73
BRANCH  61  84
ATOM     84  C   UNL A   1      44.018  27.977  34.563  1.00  0.00     0.064 A 
ATOM     85  C   UNL A   1      43.762  26.797  35.276  1.00  0.00     0.173 A 
ATOM     86  C   UNL A   1      45.357  28.370  34.404  1.00  0.00     0.173 A 
ATOM     87  F   UNL A   1      42.500  26.385  35.469  1.00  0.00    -0.203 F 
ATOM     88  C   UNL A   1      44.802  26.059  35.835  1.00  0.00     0.198 A 
ATOM     89  C   UNL A   1      46.396  27.610  34.933  1.00  0.00     0.198 A 
ATOM     90  F   UNL A   1      45.659  29.486  33.722  1.00  0.00    -0.203 F 
ATOM     91  F   UNL A   1      44.529  24.965  36.561  1.00  0.00    -0.200 F 
ATOM     92  C   UNL A   1      46.118  26.461  35.657  1.00  0.00     0.200 A 
ATOM     93  F   UNL A   1      47.666  27.992  34.746  1.00  0.00    -0.200 F 
ATOM     94  F   UNL A   1      47.117  25.745  36.190  1.00  0.00    -0.200 F 
ENDBRANCH  61  84
ENDBRANCH  35  36
ENDBRANCH  27  30
ENDBRANCH  25  26
ENDBRANCH  24  25
ENDBRANCH   1  24
TORSDOF 14
ENDMDL
MODEL 3
REMARK VINA RESULT:     -12.4      0.691      7.346
REMARK SMILES C[C@@H]1CCC[C@H]1NC(=O)c1csc(/C=C/C(=O)NCCCCNC(=O)c2ccc(-c3c4nc(c(-c5c(F)c(F)c(F)c(F)c5F)c5ccc([nH]5)c(-c5c(F)c(F)c(F)c(F)c5F)c5nc(c(-c6c(F)c(F)c(F)c(F)c6F)c6ccc3[nH]6)C=C5)C=C4)cc2)c1
REMARK SMILES IDX 20 1 19 2 18 3 16 4 17 5 15 7 14 8 13 9 10 10 11 11 89 12
REMARK SMILES IDX 12 13 8 14 7 15 9 17 6 18 1 19 2 20 3 21 4 22 5 23 21 24
REMARK SMILES IDX 22 25 23 26 24 27 25 29 26 30 27 31 88 32 28 33 87 34 29 35
REMARK SMILES IDX 30 36 31 37 81 38 32 39 86 40 80 41 82 42 33 43 85 44 79 45
REMARK SMILES IDX 78 46 34 48 66 49 46 50 65 51 47 52 50 53 64 54 83 55 48 56
REMARK SMILES IDX 49 57 63 59 84 60 51 61 35 62 36 63 44 64 37 65 38 66 42 67
REMARK SMILES IDX 45 68 39 69 40 70 43 71 41 72 67 73 68 74 76 75 69 76 70 77
REMARK SMILES IDX 74 78 77 79 71 80 72 81 75 82 73 83 52 84 53 85 61 86 54 87
REMARK SMILES IDX 55 88 59 89 62 90 56 91 57 92 60 93 58 94
REMARK H PARENT 18 6 7 16 23 28 82 47 50 58
REMARK Flexibility Score: inf
ROOT
ATOM      1  C   UNL A   1      31.482  30.602  26.476  1.00  0.00     0.023 C 
ENDROOT
BRANCH   1   2
ATOM      2  C   UNL A   1      32.907  30.060  26.346  1.00  0.00     0.116 C 
BRANCH   2   3
ATOM      3  N   UNL A   1      33.272  29.915  24.948  1.00  0.00    -0.353 N 
ATOM      4  C   UNL A   1      33.570  28.807  24.217  1.00  0.00     0.244 C 
ATOM      5  O   UNL A   1      33.799  28.919  23.014  1.00  0.00    -0.270 OA
ATOM      6  H   UNL A   1      33.312  30.761  24.445  1.00  0.00     0.163 HD
BRANCH   4   7
ATOM      7  C   UNL A   1      33.517  27.460  24.825  1.00  0.00     0.072 C 
ATOM      8  C   UNL A   1      32.480  26.624  24.690  1.00  0.00     0.024 C 
BRANCH   8   9
ATOM      9  C   UNL A   1      32.475  25.291  25.189  1.00  0.00     0.028 A 
ATOM     10  C   UNL A   1      33.197  23.351  26.323  1.00  0.00     0.051 A 
ATOM     11  C   UNL A   1      32.042  22.909  25.709  1.00  0.00     0.079 A 
ATOM     12  C   UNL A   1      33.398  24.743  26.061  1.00  0.00     0.033 A 
ATOM     13  S   UNL A   1      31.304  24.114  24.749  1.00  0.00    -0.144 S 
BRANCH  10  14
ATOM     14  C   UNL A   1      34.068  22.549  27.170  1.00  0.00     0.252 C 
ATOM     15  N   UNL A   1      35.028  21.762  26.587  1.00  0.00    -0.349 N 
ATOM     16  H   UNL A   1      35.533  21.189  27.207  1.00  0.00     0.164 HD
ATOM     17  O   UNL A   1      34.006  22.607  28.395  1.00  0.00    -0.269 OA
BRANCH  15  18
ATOM     18  C   UNL A   1      35.411  21.648  25.181  1.00  0.00     0.085 C 
ATOM     19  C   UNL A   1      36.525  22.956  23.321  1.00  0.00     0.010 C 
ATOM     20  C   UNL A   1      36.514  22.652  24.820  1.00  0.00     0.008 C 
ATOM     21  C   UNL A   1      37.793  21.942  25.264  1.00  0.00     0.005 C 
ATOM     22  C   UNL A   1      37.546  20.460  25.002  1.00  0.00     0.002 C 
ATOM     23  C   UNL A   1      36.030  20.274  24.919  1.00  0.00     0.025 C 
ENDBRANCH  15  18
ENDBRANCH  10  14
ENDBRANCH   8   9
ENDBRANCH   4   7
ENDBRANCH   2   3
ENDBRANCH   1   2
BRANCH   1  24
ATOM     24  C   UNL A   1      31.403  32.126  26.596  1.00  0.00     0.023 C 
BRANCH  24  25
ATOM     25  C   UNL A   1      32.641  32.782  27.196  1.00  0.00     0.116 C 
BRANCH  25  26
ATOM     26  N   UNL A   1      32.416  34.154  27.624  1.00  0.00    -0.352 N 
ATOM     27  C   UNL A   1      33.074  34.859  28.602  1.00  0.00     0.251 C 
ATOM     28  H   UNL A   1      31.699  34.639  27.153  1.00  0.00     0.163 HD
ATOM     29  O   UNL A   1      32.692  35.976  28.933  1.00  0.00    -0.269 OA
BRANCH  27  30
ATOM     30  C   UNL A   1      34.228  34.238  29.281  1.00  0.00     0.039 A 
ATOM     31  C   UNL A   1      34.009  33.489  30.439  1.00  0.00     0.014 A 
ATOM     32  C   UNL A   1      35.515  34.365  28.751  1.00  0.00     0.014 A 
ATOM     33  C   UNL A   1      35.078  32.819  31.035  1.00  0.00     0.010 A 
ATOM     34  C   UNL A   1      36.560  33.631  29.297  1.00  0.00     0.010 A 
ATOM     35  C   UNL A   1      36.355  32.859  30.451  1.00  0.00    -0.014 A 
BRANCH  35  36
ATOM     36  C   UNL A   1      37.499  32.126  31.049  1.00  0.00     0.031 A 
ATOM     37  C   UNL A   1      37.985  32.495  32.423  1.00  0.00     0.074 A 
ATOM     38  C   UNL A   1      38.134  31.176  30.337  1.00  0.00     0.049 A 
ATOM     39  N   UNL A   1      39.004  32.025  33.097  1.00  0.00    -0.248 NA
ATOM     40  C   UNL A   1      37.244  33.557  33.122  1.00  0.00     0.031 C 
ATOM     41  C   UNL A   1      37.785  30.762  28.978  1.00  0.00     0.029 A 
ATOM     42  N   UNL A   1      39.213  30.391  30.657  1.00  0.00    -0.354 N 
ATOM     43  C   UNL A   1      39.033  32.742  34.286  1.00  0.00     0.074 A 
ATOM     44  C   UNL A   1      37.974  33.724  34.214  1.00  0.00     0.031 C 
ATOM     45  C   UNL A   1      38.614  29.779  28.591  1.00  0.00     0.029 A 
ATOM     46  C   UNL A   1      39.576  29.521  29.658  1.00  0.00     0.049 A 
ATOM     47  H   UNL A   1      39.682  30.447  31.520  1.00  0.00     0.167 HD
ATOM     48  C   UNL A   1      39.848  32.577  35.355  1.00  0.00     0.037 A 
ATOM     49  C   UNL A   1      40.575  28.620  29.611  1.00  0.00     0.037 A 
ATOM     50  C   UNL A   1      40.888  31.585  35.428  1.00  0.00     0.049 A 
ATOM     51  C   UNL A   1      41.478  28.464  30.806  1.00  0.00     0.074 A 
ATOM     52  C   UNL A   1      41.744  31.305  36.478  1.00  0.00     0.029 A 
ATOM     53  N   UNL A   1      41.215  30.709  34.402  1.00  0.00    -0.354 N 
ATOM     54  N   UNL A   1      41.457  29.104  31.951  1.00  0.00    -0.248 NA
ATOM     55  C   UNL A   1      42.538  27.452  30.707  1.00  0.00     0.031 C 
ATOM     56  C   UNL A   1      42.620  30.294  36.072  1.00  0.00     0.029 A 
ATOM     57  C   UNL A   1      42.271  29.899  34.790  1.00  0.00     0.049 A 
ATOM     58  H   UNL A   1      40.765  30.669  33.528  1.00  0.00     0.167 HD
ATOM     59  C   UNL A   1      42.468  28.544  32.720  1.00  0.00     0.074 A 
ATOM     60  C   UNL A   1      43.079  27.507  31.915  1.00  0.00     0.031 C 
ATOM     61  C   UNL A   1      42.854  28.858  33.982  1.00  0.00     0.037 A 
BRANCH  48  62
ATOM     62  C   UNL A   1      39.642  33.491  36.528  1.00  0.00     0.064 A 
ATOM     63  C   UNL A   1      40.272  34.743  36.608  1.00  0.00     0.173 A 
ATOM     64  C   UNL A   1      38.793  33.119  37.582  1.00  0.00     0.173 A 
ATOM     65  F   UNL A   1      41.105  35.142  35.635  1.00  0.00    -0.203 F 
ATOM     66  C   UNL A   1      40.093  35.568  37.715  1.00  0.00     0.198 A 
ATOM     67  C   UNL A   1      38.586  33.964  38.670  1.00  0.00     0.198 A 
ATOM     68  F   UNL A   1      38.159  31.936  37.557  1.00  0.00    -0.203 F 
ATOM     69  F   UNL A   1      40.757  36.730  37.796  1.00  0.00    -0.200 F 
ATOM     70  C   UNL A   1      39.245  35.182  38.741  1.00  0.00     0.200 A 
ATOM     71  F   UNL A   1      37.755  33.596  39.654  1.00  0.00    -0.200 F 
ATOM     72  F   UNL A   1      39.070  35.980  39.804  1.00  0.00    -0.200 F 
ENDBRANCH  48  62
BRANCH  49  73
ATOM     73  C   UNL A   1      40.753  27.766  28.407  1.00  0.00     0.064 A 
ATOM     74  C   UNL A   1      41.564  28.186  27.342  1.00  0.00     0.173 A 
ATOM     75  C   UNL A   1      40.115  26.523  28.289  1.00  0.00     0.173 A 
ATOM     76  F   UNL A   1      42.180  29.375  27.399  1.00  0.00    -0.203 F 
ATOM     77  C   UNL A   1      41.708  27.407  26.196  1.00  0.00     0.198 A 
ATOM     78  C   UNL A   1      40.285  25.731  27.155  1.00  0.00     0.198 A 
ATOM     79  F   UNL A   1      39.333  26.072  29.282  1.00  0.00    -0.203 F 
ATOM     80  F   UNL A   1      42.449  27.855  25.173  1.00  0.00    -0.200 F 
ATOM     81  C   UNL A   1      41.074  26.177  26.106  1.00  0.00     0.200 A 
ATOM     82  F   UNL A   1      39.683  24.537  27.079  1.00  0.00    -0.200 F 
ATOM     83  F   UNL A   1      41.215  25.427  25.004  1.00  0.00    -0.200 F 
ENDBRANCH  49  73
BRANCH  61  84
ATOM     84  C   UNL A   1      43.947  28.030  34.595  1.00  0.00     0.064 A 
ATOM     85  C   UNL A   1      45.296  28.410  34.529  1.00  0.00     0.173 A 
ATOM     86  C   UNL A   1      43.632  26.852  35.292  1.00  0.00     0.173 A 
ATOM     87  F   UNL A   1      45.653  29.519  33.864  1.00  0.00    -0.203 F 
ATOM     88  C   UNL A   1      46.289  27.626  35.109  1.00  0.00     0.198 A 
ATOM     89  C   UNL A   1      44.624  26.090  35.901  1.00  0.00     0.198 A 
ATOM     90  F   UNL A   1      42.356  26.447  35.393  1.00  0.00    -0.203 F 
ATOM     91  F   UNL A   1      47.577  27.980  34.985  1.00  0.00    -0.200 F 
ATOM     92  C   UNL A   1      45.953  26.472  35.801  1.00  0.00     0.200 A 
ATOM     93  F   UNL A   1      44.294  24.985  36.583  1.00  0.00    -0.200 F 
ATOM     94  F   UNL A   1      46.910  25.723  36.364  1.00  0.00    -0.200 F 
ENDBRANCH  61  84
ENDBRANCH  35  36
ENDBRANCH  27  30
ENDBRANCH  25  26
ENDBRANCH  24  25
ENDBRANCH   1  24
TORSDOF 14
ENDMDL
