MODEL 1
REMARK VINA RESULT:     -12.8      0.000      0.000
REMARK SMILES O=C(C[C@@H]([NH2+]Cc1ccccc1)C(=O)NCCCCNC(=O)c1ccc(-c2c3nc(c(-c4c(F)c(F)c(F)c(F)c4F)c4ccc([nH]4)c(-c4c(F)c(F)c(F)c(F)c4F)c4nc(c(-c5c(F)c(F)c(F)c(F)c5F)c5ccc2[nH]5)C=C4)C=C3)cc1)Nc1cccc(Cl)c1Cl
REMARK SMILES IDX 17 1 16 2 15 3 13 4 14 5 4 7 3 8 2 9 1 10 86 11 87 13 88 14
REMARK SMILES IDX 93 15 89 16 91 17 94 18 90 19 92 20 5 21 6 24 7 25 8 26
REMARK SMILES IDX 12 27 9 28 11 29 10 30 18 31 19 32 20 33 21 34 22 36 23 37
REMARK SMILES IDX 24 38 85 39 25 40 84 41 26 42 27 43 28 44 78 45 29 46 83 47
REMARK SMILES IDX 77 48 79 49 30 50 82 51 76 52 75 53 31 55 63 56 43 57 62 58
REMARK SMILES IDX 44 59 47 60 61 61 80 62 45 63 46 64 60 66 81 67 48 68 32 69
REMARK SMILES IDX 33 70 41 71 34 72 35 73 39 74 42 75 36 76 37 77 40 78 38 79
REMARK SMILES IDX 64 80 65 81 73 82 66 83 67 84 71 85 74 86 68 87 69 88 72 89
REMARK SMILES IDX 70 90 49 91 50 92 58 93 51 94 52 95 56 96 59 97 53 98 54 99
REMARK SMILES IDX 57 100 55 101
REMARK H PARENT 15 6 86 12 5 22 5 23 20 35 79 54 47 65
REMARK Flexibility Score: inf
ROOT
ATOM      1  C   UNL A   1      31.819  30.640  26.329  1.00  0.00     0.023 C 
ENDROOT
BRANCH   1   2
ATOM      2  C   UNL A   1      32.760  29.848  27.240  1.00  0.00     0.116 C 
BRANCH   2   3
ATOM      3  N   UNL A   1      32.234  28.522  27.493  1.00  0.00    -0.351 N 
ATOM      4  C   UNL A   1      31.948  27.509  26.627  1.00  0.00     0.278 C 
ATOM      5  O   UNL A   1      31.441  26.489  27.103  1.00  0.00    -0.268 OA
ATOM      6  H   UNL A   1      32.056  28.321  28.440  1.00  0.00     0.163 HD
BRANCH   4   7
ATOM      7  C   UNL A   1      32.276  27.602  25.122  1.00  0.00     0.282 C 
BRANCH   7   8
ATOM      8  C   UNL A   1      33.726  27.182  24.853  1.00  0.00     0.175 C 
BRANCH   8   9
ATOM      9  C   UNL A   1      33.836  25.737  24.436  1.00  0.00     0.230 C 
ATOM     10  O   UNL A   1      33.749  25.389  23.264  1.00  0.00    -0.274 OA
ATOM     11  N   UNL A   1      33.941  24.877  25.521  1.00  0.00    -0.325 N 
ATOM     12  H   UNL A   1      33.898  25.262  26.427  1.00  0.00     0.169 HD
BRANCH  11  13
ATOM     13  C   UNL A   1      34.103  23.482  25.393  1.00  0.00     0.061 A 
ATOM     14  C   UNL A   1      32.934  22.711  25.459  1.00  0.00     0.028 A 
ATOM     15  C   UNL A   1      35.356  22.851  25.250  1.00  0.00     0.083 A 
ATOM     16  C   UNL A   1      32.993  21.327  25.303  1.00  0.00     0.004 A 
ATOM     17  C   UNL A   1      35.405  21.455  25.120  1.00  0.00     0.061 A 
ATOM     18  Cl  UNL A   1      36.829  23.760  25.429  1.00  0.00    -0.080 Cl
ATOM     19  C   UNL A   1      34.225  20.702  25.129  1.00  0.00     0.022 A 
ATOM     20  Cl  UNL A   1      36.893  20.582  24.985  1.00  0.00    -0.083 Cl
ENDBRANCH  11  13
ENDBRANCH   8   9
ENDBRANCH   7   8
BRANCH   7  21
ATOM     21  N   UNL A   1      31.280  26.843  24.306  1.00  0.00    -0.332 N 
ATOM     22  H   UNL A   1      30.440  26.700  24.867  1.00  0.00     0.347 HD
ATOM     23  H   UNL A   1      31.712  25.959  24.039  1.00  0.00     0.347 HD
BRANCH  21  24
ATOM     24  C   UNL A   1      30.904  27.546  23.065  1.00  0.00     0.297 C 
BRANCH  24  25
ATOM     25  C   UNL A   1      29.703  28.471  23.150  1.00  0.00     0.006 A 
ATOM     26  C   UNL A   1      29.947  29.842  23.341  1.00  0.00     0.009 A 
ATOM     27  C   UNL A   1      28.364  28.049  23.070  1.00  0.00     0.009 A 
ATOM     28  C   UNL A   1      28.895  30.758  23.416  1.00  0.00     0.001 A 
ATOM     29  C   UNL A   1      27.314  28.967  23.130  1.00  0.00     0.001 A 
ATOM     30  C   UNL A   1      27.579  30.321  23.300  1.00  0.00     0.000 A 
ENDBRANCH  24  25
ENDBRANCH  21  24
ENDBRANCH   7  21
ENDBRANCH   4   7
ENDBRANCH   2   3
ENDBRANCH   1   2
BRANCH   1  31
ATOM     31  C   UNL A   1      31.506  32.055  26.820  1.00  0.00     0.023 C 
BRANCH  31  32
ATOM     32  C   UNL A   1      32.691  32.804  27.413  1.00  0.00     0.116 C 
BRANCH  32  33
ATOM     33  N   UNL A   1      32.398  34.203  27.688  1.00  0.00    -0.352 N 
ATOM     34  C   UNL A   1      32.993  35.038  28.600  1.00  0.00     0.251 C 
ATOM     35  H   UNL A   1      31.678  34.602  27.148  1.00  0.00     0.163 HD
ATOM     36  O   UNL A   1      32.546  36.162  28.802  1.00  0.00    -0.269 OA
BRANCH  34  37
ATOM     37  C   UNL A   1      34.157  34.552  29.366  1.00  0.00     0.039 A 
ATOM     38  C   UNL A   1      33.951  34.013  30.637  1.00  0.00     0.014 A 
ATOM     39  C   UNL A   1      35.438  34.592  28.809  1.00  0.00     0.014 A 
ATOM     40  C   UNL A   1      35.025  33.451  31.326  1.00  0.00     0.010 A 
ATOM     41  C   UNL A   1      36.492  33.968  29.466  1.00  0.00     0.010 A 
ATOM     42  C   UNL A   1      36.296  33.393  30.730  1.00  0.00    -0.014 A 
BRANCH  42  43
ATOM     43  C   UNL A   1      37.434  32.729  31.411  1.00  0.00     0.031 A 
ATOM     44  C   UNL A   1      38.115  31.556  30.765  1.00  0.00     0.074 A 
ATOM     45  C   UNL A   1      37.802  33.135  32.642  1.00  0.00     0.049 A 
ATOM     46  N   UNL A   1      39.072  30.794  31.231  1.00  0.00    -0.248 NA
ATOM     47  C   UNL A   1      37.636  31.169  29.430  1.00  0.00     0.031 C 
ATOM     48  C   UNL A   1      37.180  34.227  33.393  1.00  0.00     0.029 A 
ATOM     49  N   UNL A   1      38.779  32.666  33.483  1.00  0.00    -0.354 N 
ATOM     50  C   UNL A   1      39.296  29.832  30.257  1.00  0.00     0.074 A 
ATOM     51  C   UNL A   1      38.340  30.071  29.198  1.00  0.00     0.031 C 
ATOM     52  C   UNL A   1      37.803  34.356  34.575  1.00  0.00     0.029 A 
ATOM     53  C   UNL A   1      38.841  33.336  34.681  1.00  0.00     0.049 A 
ATOM     54  H   UNL A   1      39.380  31.921  33.251  1.00  0.00     0.167 HD
ATOM     55  C   UNL A   1      40.230  28.852  30.238  1.00  0.00     0.037 A 
ATOM     56  C   UNL A   1      39.641  33.141  35.746  1.00  0.00     0.037 A 
ATOM     57  C   UNL A   1      41.197  28.637  31.283  1.00  0.00     0.049 A 
ATOM     58  C   UNL A   1      40.674  32.048  35.698  1.00  0.00     0.074 A 
ATOM     59  C   UNL A   1      42.230  27.718  31.326  1.00  0.00     0.029 A 
ATOM     60  N   UNL A   1      41.246  29.352  32.471  1.00  0.00    -0.354 N 
ATOM     61  N   UNL A   1      40.927  31.192  34.739  1.00  0.00    -0.248 NA
ATOM     62  C   UNL A   1      41.536  31.900  36.879  1.00  0.00     0.031 C 
ATOM     63  C   UNL A   1      42.875  27.844  32.560  1.00  0.00     0.029 A 
ATOM     64  C   UNL A   1      42.277  28.877  33.265  1.00  0.00     0.049 A 
ATOM     65  H   UNL A   1      40.638  30.087  32.713  1.00  0.00     0.167 HD
ATOM     66  C   UNL A   1      41.993  30.422  35.186  1.00  0.00     0.074 A 
ATOM     67  C   UNL A   1      42.347  30.923  36.498  1.00  0.00     0.031 C 
ATOM     68  C   UNL A   1      42.620  29.392  34.566  1.00  0.00     0.037 A 
BRANCH  55  69
ATOM     69  C   UNL A   1      40.252  27.938  29.047  1.00  0.00     0.064 A 
ATOM     70  C   UNL A   1      39.533  26.733  29.031  1.00  0.00     0.173 A 
ATOM     71  C   UNL A   1      40.975  28.286  27.896  1.00  0.00     0.173 A 
ATOM     72  F   UNL A   1      38.835  26.347  30.110  1.00  0.00    -0.203 F 
ATOM     73  C   UNL A   1      39.564  25.895  27.919  1.00  0.00     0.198 A 
ATOM     74  C   UNL A   1      40.977  27.461  26.775  1.00  0.00     0.198 A 
ATOM     75  F   UNL A   1      41.675  29.429  27.857  1.00  0.00    -0.203 F 
ATOM     76  F   UNL A   1      38.913  24.724  27.947  1.00  0.00    -0.200 F 
ATOM     77  C   UNL A   1      40.279  26.263  26.790  1.00  0.00     0.200 A 
ATOM     78  F   UNL A   1      41.660  27.824  25.679  1.00  0.00    -0.200 F 
ATOM     79  F   UNL A   1      40.303  25.458  25.718  1.00  0.00    -0.200 F 
ENDBRANCH  55  69
BRANCH  56  80
ATOM     80  C   UNL A   1      39.513  34.018  36.939  1.00  0.00     0.064 A 
ATOM     81  C   UNL A   1      38.760  33.615  38.050  1.00  0.00     0.173 A 
ATOM     82  C   UNL A   1      40.141  35.271  36.995  1.00  0.00     0.173 A 
ATOM     83  F   UNL A   1      38.125  32.435  38.035  1.00  0.00    -0.203 F 
ATOM     84  C   UNL A   1      38.623  34.439  39.165  1.00  0.00     0.198 A 
ATOM     85  C   UNL A   1      40.027  36.082  38.122  1.00  0.00     0.198 A 
ATOM     86  F   UNL A   1      40.878  35.699  35.961  1.00  0.00    -0.203 F 
ATOM     87  F   UNL A   1      37.862  34.048  40.196  1.00  0.00    -0.200 F 
ATOM     88  C   UNL A   1      39.262  35.670  39.203  1.00  0.00     0.200 A 
ATOM     89  F   UNL A   1      40.657  37.265  38.160  1.00  0.00    -0.200 F 
ATOM     90  F   UNL A   1      39.135  36.461  40.277  1.00  0.00    -0.200 F 
ENDBRANCH  56  80
BRANCH  68  91
ATOM     91  C   UNL A   1      43.776  28.758  35.284  1.00  0.00     0.064 A 
ATOM     92  C   UNL A   1      45.087  29.231  35.127  1.00  0.00     0.173 A 
ATOM     93  C   UNL A   1      43.561  27.694  36.172  1.00  0.00     0.173 A 
ATOM     94  F   UNL A   1      45.346  30.236  34.278  1.00  0.00    -0.203 F 
ATOM     95  C   UNL A   1      46.145  28.645  35.818  1.00  0.00     0.198 A 
ATOM     96  C   UNL A   1      44.617  27.130  36.884  1.00  0.00     0.198 A 
ATOM     97  F   UNL A   1      42.324  27.210  36.362  1.00  0.00    -0.203 F 
ATOM     98  F   UNL A   1      47.396  29.083  35.620  1.00  0.00    -0.200 F 
ATOM     99  C   UNL A   1      45.908  27.602  36.701  1.00  0.00     0.200 A 
ATOM    100  F   UNL A   1      44.384  26.132  37.746  1.00  0.00    -0.200 F 
ATOM    101  F   UNL A   1      46.926  27.046  37.371  1.00  0.00    -0.200 F 
ENDBRANCH  68  91
ENDBRANCH  42  43
ENDBRANCH  34  37
ENDBRANCH  32  33
ENDBRANCH  31  32
ENDBRANCH   1  31
TORSDOF 17
ENDMDL
MODEL 2
REMARK VINA RESULT:     -12.6      0.556      7.317
REMARK SMILES O=C(C[C@@H]([NH2+]Cc1ccccc1)C(=O)NCCCCNC(=O)c1ccc(-c2c3nc(c(-c4c(F)c(F)c(F)c(F)c4F)c4ccc([nH]4)c(-c4c(F)c(F)c(F)c(F)c4F)c4nc(c(-c5c(F)c(F)c(F)c(F)c5F)c5ccc2[nH]5)C=C4)C=C3)cc1)Nc1cccc(Cl)c1Cl
REMARK SMILES IDX 17 1 16 2 15 3 13 4 14 5 4 7 3 8 2 9 1 10 86 11 87 13 88 14
REMARK SMILES IDX 93 15 89 16 91 17 94 18 90 19 92 20 5 21 6 24 7 25 8 26
REMARK SMILES IDX 12 27 9 28 11 29 10 30 18 31 19 32 20 33 21 34 22 36 23 37
REMARK SMILES IDX 24 38 85 39 25 40 84 41 26 42 27 43 28 44 78 45 29 46 83 47
REMARK SMILES IDX 77 48 79 49 30 50 82 51 76 52 75 53 31 55 63 56 43 57 62 58
REMARK SMILES IDX 44 59 47 60 61 61 80 62 45 63 46 64 60 66 81 67 48 68 32 69
REMARK SMILES IDX 33 70 41 71 34 72 35 73 39 74 42 75 36 76 37 77 40 78 38 79
REMARK SMILES IDX 64 80 65 81 73 82 66 83 67 84 71 85 74 86 68 87 69 88 72 89
REMARK SMILES IDX 70 90 49 91 50 92 58 93 51 94 52 95 56 96 59 97 53 98 54 99
REMARK SMILES IDX 57 100 55 101
REMARK H PARENT 15 6 86 12 5 22 5 23 20 35 79 54 47 65
REMARK Flexibility Score: inf
ROOT
ATOM      1  C   UNL A   1      31.486  30.999  26.265  1.00  0.00     0.023 C 
ENDROOT
BRANCH   1   2
ATOM      2  C   UNL A   1      32.593  30.261  27.021  1.00  0.00     0.116 C 
BRANCH   2   3
ATOM      3  N   UNL A   1      32.145  28.946  27.433  1.00  0.00    -0.351 N 
ATOM      4  C   UNL A   1      31.917  27.824  26.695  1.00  0.00     0.278 C 
ATOM      5  O   UNL A   1      31.469  26.840  27.292  1.00  0.00    -0.268 OA
ATOM      6  H   UNL A   1      31.980  28.849  28.398  1.00  0.00     0.163 HD
BRANCH   4   7
ATOM      7  C   UNL A   1      32.236  27.757  25.187  1.00  0.00     0.282 C 
BRANCH   7   8
ATOM      8  C   UNL A   1      33.684  27.304  24.956  1.00  0.00     0.175 C 
BRANCH   8   9
ATOM      9  C   UNL A   1      33.772  25.854  24.548  1.00  0.00     0.230 C 
ATOM     10  O   UNL A   1      33.753  25.507  23.373  1.00  0.00    -0.274 OA
ATOM     11  N   UNL A   1      33.773  24.994  25.639  1.00  0.00    -0.325 N 
ATOM     12  H   UNL A   1      33.682  25.383  26.539  1.00  0.00     0.169 HD
BRANCH  11  13
ATOM     13  C   UNL A   1      33.896  23.595  25.523  1.00  0.00     0.061 A 
ATOM     14  C   UNL A   1      32.705  22.857  25.596  1.00  0.00     0.028 A 
ATOM     15  C   UNL A   1      35.129  22.927  25.386  1.00  0.00     0.083 A 
ATOM     16  C   UNL A   1      32.724  21.471  25.451  1.00  0.00     0.004 A 
ATOM     17  C   UNL A   1      35.139  21.528  25.268  1.00  0.00     0.061 A 
ATOM     18  Cl  UNL A   1      36.628  23.795  25.557  1.00  0.00    -0.080 Cl
ATOM     19  C   UNL A   1      33.938  20.809  25.283  1.00  0.00     0.022 A 
ATOM     20  Cl  UNL A   1      36.601  20.612  25.141  1.00  0.00    -0.083 Cl
ENDBRANCH  11  13
ENDBRANCH   8   9
ENDBRANCH   7   8
BRANCH   7  21
ATOM     21  N   UNL A   1      31.233  26.921  24.460  1.00  0.00    -0.332 N 
ATOM     22  H   UNL A   1      30.402  26.827  25.044  1.00  0.00     0.347 HD
ATOM     23  H   UNL A   1      31.666  26.017  24.271  1.00  0.00     0.347 HD
BRANCH  21  24
ATOM     24  C   UNL A   1      30.835  27.504  23.165  1.00  0.00     0.297 C 
BRANCH  24  25
ATOM     25  C   UNL A   1      29.703  28.514  23.197  1.00  0.00     0.006 A 
ATOM     26  C   UNL A   1      28.389  28.026  23.091  1.00  0.00     0.009 A 
ATOM     27  C   UNL A   1      29.878  29.904  23.309  1.00  0.00     0.009 A 
ATOM     28  C   UNL A   1      27.293  28.890  23.127  1.00  0.00     0.001 A 
ATOM     29  C   UNL A   1      28.782  30.767  23.359  1.00  0.00     0.001 A 
ATOM     30  C   UNL A   1      27.490  30.261  23.271  1.00  0.00     0.000 A 
ENDBRANCH  24  25
ENDBRANCH  21  24
ENDBRANCH   7  21
ENDBRANCH   4   7
ENDBRANCH   2   3
ENDBRANCH   1   2
BRANCH   1  31
ATOM     31  C   UNL A   1      31.411  32.499  26.558  1.00  0.00     0.023 C 
BRANCH  31  32
ATOM     32  C   UNL A   1      32.516  33.031  27.460  1.00  0.00     0.116 C 
BRANCH  32  33
ATOM     33  N   UNL A   1      32.336  34.433  27.812  1.00  0.00    -0.352 N 
ATOM     34  C   UNL A   1      33.020  35.176  28.740  1.00  0.00     0.251 C 
ATOM     35  H   UNL A   1      31.629  34.909  27.319  1.00  0.00     0.163 HD
ATOM     36  O   UNL A   1      32.665  36.318  29.011  1.00  0.00    -0.269 OA
BRANCH  34  37
ATOM     37  C   UNL A   1      34.171  34.570  29.439  1.00  0.00     0.039 A 
ATOM     38  C   UNL A   1      33.960  33.948  30.671  1.00  0.00     0.014 A 
ATOM     39  C   UNL A   1      35.440  34.581  28.854  1.00  0.00     0.014 A 
ATOM     40  C   UNL A   1      35.015  33.278  31.290  1.00  0.00     0.010 A 
ATOM     41  C   UNL A   1      36.471  33.852  29.437  1.00  0.00     0.010 A 
ATOM     42  C   UNL A   1      36.268  33.194  30.659  1.00  0.00    -0.014 A 
BRANCH  42  43
ATOM     43  C   UNL A   1      37.380  32.419  31.261  1.00  0.00     0.031 A 
ATOM     44  C   UNL A   1      37.899  32.783  32.622  1.00  0.00     0.074 A 
ATOM     45  C   UNL A   1      37.970  31.439  30.548  1.00  0.00     0.049 A 
ATOM     46  N   UNL A   1      38.910  32.281  33.285  1.00  0.00    -0.248 NA
ATOM     47  C   UNL A   1      37.208  33.878  33.320  1.00  0.00     0.031 C 
ATOM     48  C   UNL A   1      37.590  31.031  29.195  1.00  0.00     0.029 A 
ATOM     49  N   UNL A   1      39.024  30.618  30.860  1.00  0.00    -0.354 N 
ATOM     50  C   UNL A   1      38.985  33.008  34.465  1.00  0.00     0.074 A 
ATOM     51  C   UNL A   1      37.954  34.021  34.405  1.00  0.00     0.031 C 
ATOM     52  C   UNL A   1      38.387  30.026  28.800  1.00  0.00     0.029 A 
ATOM     53  C   UNL A   1      39.355  29.742  29.855  1.00  0.00     0.049 A 
ATOM     54  H   UNL A   1      39.499  30.653  31.722  1.00  0.00     0.167 HD
ATOM     55  C   UNL A   1      39.824  32.831  35.512  1.00  0.00     0.037 A 
ATOM     56  C   UNL A   1      40.334  28.821  29.791  1.00  0.00     0.037 A 
ATOM     57  C   UNL A   1      40.830  31.803  35.578  1.00  0.00     0.049 A 
ATOM     58  C   UNL A   1      41.251  28.640  30.970  1.00  0.00     0.074 A 
ATOM     59  C   UNL A   1      41.682  31.496  36.623  1.00  0.00     0.029 A 
ATOM     60  N   UNL A   1      41.119  30.917  34.550  1.00  0.00    -0.354 N 
ATOM     61  N   UNL A   1      41.264  29.284  32.112  1.00  0.00    -0.248 NA
ATOM     62  C   UNL A   1      42.284  27.603  30.854  1.00  0.00     0.031 C 
ATOM     63  C   UNL A   1      42.519  30.453  36.211  1.00  0.00     0.029 A 
ATOM     64  C   UNL A   1      42.154  30.077  34.929  1.00  0.00     0.049 A 
ATOM     65  H   UNL A   1      40.657  30.889  33.682  1.00  0.00     0.167 HD
ATOM     66  C   UNL A   1      42.285  28.712  32.861  1.00  0.00     0.074 A 
ATOM     67  C   UNL A   1      42.859  27.660  32.047  1.00  0.00     0.031 C 
ATOM     68  C   UNL A   1      42.709  29.030  34.108  1.00  0.00     0.037 A 
BRANCH  55  69
ATOM     69  C   UNL A   1      39.688  33.770  36.676  1.00  0.00     0.064 A 
ATOM     70  C   UNL A   1      40.325  35.021  36.691  1.00  0.00     0.173 A 
ATOM     71  C   UNL A   1      38.885  33.430  37.775  1.00  0.00     0.173 A 
ATOM     72  F   UNL A   1      41.113  35.390  35.670  1.00  0.00    -0.203 F 
ATOM     73  C   UNL A   1      40.190  35.881  37.777  1.00  0.00     0.198 A 
ATOM     74  C   UNL A   1      38.727  34.306  38.845  1.00  0.00     0.198 A 
ATOM     75  F   UNL A   1      38.250  32.249  37.810  1.00  0.00    -0.203 F 
ATOM     76  F   UNL A   1      40.851  37.047  37.793  1.00  0.00    -0.200 F 
ATOM     77  C   UNL A   1      39.386  35.527  38.850  1.00  0.00     0.200 A 
ATOM     78  F   UNL A   1      37.941  33.967  39.877  1.00  0.00    -0.200 F 
ATOM     79  F   UNL A   1      39.253  36.358  39.894  1.00  0.00    -0.200 F 
ENDBRANCH  55  69
BRANCH  56  80
ATOM     80  C   UNL A   1      40.482  27.980  28.574  1.00  0.00     0.064 A 
ATOM     81  C   UNL A   1      41.257  28.414  27.490  1.00  0.00     0.173 A 
ATOM     82  C   UNL A   1      39.859  26.728  28.471  1.00  0.00     0.173 A 
ATOM     83  F   UNL A   1      41.857  29.612  27.534  1.00  0.00    -0.203 F 
ATOM     84  C   UNL A   1      41.387  27.638  26.341  1.00  0.00     0.198 A 
ATOM     85  C   UNL A   1      40.011  25.940  27.333  1.00  0.00     0.198 A 
ATOM     86  F   UNL A   1      39.112  26.265  29.484  1.00  0.00    -0.203 F 
ATOM     87  F   UNL A   1      42.098  28.096  25.302  1.00  0.00    -0.200 F 
ATOM     88  C   UNL A   1      40.769  26.398  26.265  1.00  0.00     0.200 A 
ATOM     89  F   UNL A   1      39.425  24.737  27.269  1.00  0.00    -0.200 F 
ATOM     90  F   UNL A   1      40.898  25.649  25.162  1.00  0.00    -0.200 F 
ENDBRANCH  56  80
BRANCH  68  91
ATOM     91  C   UNL A   1      43.826  28.212  34.685  1.00  0.00     0.064 A 
ATOM     92  C   UNL A   1      43.581  27.018  35.380  1.00  0.00     0.173 A 
ATOM     93  C   UNL A   1      45.161  28.604  34.501  1.00  0.00     0.173 A 
ATOM     94  F   UNL A   1      42.322  26.609  35.594  1.00  0.00    -0.203 F 
ATOM     95  C   UNL A   1      44.632  26.259  35.889  1.00  0.00     0.198 A 
ATOM     96  C   UNL A   1      46.210  27.828  34.986  1.00  0.00     0.198 A 
ATOM     97  F   UNL A   1      45.448  29.735  33.838  1.00  0.00    -0.203 F 
ATOM     98  F   UNL A   1      44.373  25.146  36.588  1.00  0.00    -0.200 F 
ATOM     99  C   UNL A   1      45.944  26.660  35.685  1.00  0.00     0.200 A 
ATOM    100  F   UNL A   1      47.477  28.209  34.776  1.00  0.00    -0.200 F 
ATOM    101  F   UNL A   1      46.953  25.924  36.168  1.00  0.00    -0.200 F 
ENDBRANCH  68  91
ENDBRANCH  42  43
ENDBRANCH  34  37
ENDBRANCH  32  33
ENDBRANCH  31  32
ENDBRANCH   1  31
TORSDOF 17
ENDMDL
MODEL 3
REMARK VINA RESULT:     -12.6      2.420      8.351
REMARK SMILES O=C(C[C@@H]([NH2+]Cc1ccccc1)C(=O)NCCCCNC(=O)c1ccc(-c2c3nc(c(-c4c(F)c(F)c(F)c(F)c4F)c4ccc([nH]4)c(-c4c(F)c(F)c(F)c(F)c4F)c4nc(c(-c5c(F)c(F)c(F)c(F)c5F)c5ccc2[nH]5)C=C4)C=C3)cc1)Nc1cccc(Cl)c1Cl
REMARK SMILES IDX 17 1 16 2 15 3 13 4 14 5 4 7 3 8 2 9 1 10 86 11 87 13 88 14
REMARK SMILES IDX 93 15 89 16 91 17 94 18 90 19 92 20 5 21 6 24 7 25 8 26
REMARK SMILES IDX 12 27 9 28 11 29 10 30 18 31 19 32 20 33 21 34 22 36 23 37
REMARK SMILES IDX 24 38 85 39 25 40 84 41 26 42 27 43 28 44 78 45 29 46 83 47
REMARK SMILES IDX 77 48 79 49 30 50 82 51 76 52 75 53 31 55 63 56 43 57 62 58
REMARK SMILES IDX 44 59 47 60 61 61 80 62 45 63 46 64 60 66 81 67 48 68 32 69
REMARK SMILES IDX 33 70 41 71 34 72 35 73 39 74 42 75 36 76 37 77 40 78 38 79
REMARK SMILES IDX 64 80 65 81 73 82 66 83 67 84 71 85 74 86 68 87 69 88 72 89
REMARK SMILES IDX 70 90 49 91 50 92 58 93 51 94 52 95 56 96 59 97 53 98 54 99
REMARK SMILES IDX 57 100 55 101
REMARK H PARENT 15 6 86 12 5 22 5 23 20 35 79 54 47 65
REMARK Flexibility Score: inf
ROOT
ATOM      1  C   UNL A   1      31.906  27.334  26.499  1.00  0.00     0.023 C 
ENDROOT
BRANCH   1   2
ATOM      2  C   UNL A   1      31.299  26.080  25.866  1.00  0.00     0.116 C 
BRANCH   2   3
ATOM      3  N   UNL A   1      31.307  24.976  26.804  1.00  0.00    -0.351 N 
ATOM      4  C   UNL A   1      31.850  23.731  26.692  1.00  0.00     0.278 C 
ATOM      5  O   UNL A   1      31.654  22.947  27.625  1.00  0.00    -0.268 OA
ATOM      6  H   UNL A   1      30.848  25.154  27.656  1.00  0.00     0.163 HD
BRANCH   4   7
ATOM      7  C   UNL A   1      32.707  23.318  25.478  1.00  0.00     0.282 C 
BRANCH   7   8
ATOM      8  C   UNL A   1      33.975  24.179  25.388  1.00  0.00     0.175 C 
BRANCH   8   9
ATOM      9  C   UNL A   1      35.148  23.546  26.095  1.00  0.00     0.230 C 
ATOM     10  O   UNL A   1      35.022  22.946  27.156  1.00  0.00    -0.274 OA
ATOM     11  N   UNL A   1      36.355  23.813  25.463  1.00  0.00    -0.325 N 
ATOM     12  H   UNL A   1      36.348  24.394  24.668  1.00  0.00     0.169 HD
BRANCH  11  13
ATOM     13  C   UNL A   1      37.591  23.295  25.901  1.00  0.00     0.061 A 
ATOM     14  C   UNL A   1      38.424  24.180  26.601  1.00  0.00     0.028 A 
ATOM     15  C   UNL A   1      38.027  21.980  25.634  1.00  0.00     0.083 A 
ATOM     16  C   UNL A   1      39.647  23.745  27.107  1.00  0.00     0.004 A 
ATOM     17  C   UNL A   1      39.272  21.562  26.127  1.00  0.00     0.061 A 
ATOM     18  Cl  UNL A   1      37.132  20.956  24.550  1.00  0.00    -0.080 Cl
ATOM     19  C   UNL A   1      40.068  22.437  26.874  1.00  0.00     0.022 A 
ATOM     20  Cl  UNL A   1      39.917  19.986  25.816  1.00  0.00    -0.083 Cl
ENDBRANCH  11  13
ENDBRANCH   8   9
ENDBRANCH   7   8
BRANCH   7  21
ATOM     21  N   UNL A   1      32.990  21.851  25.492  1.00  0.00    -0.332 N 
ATOM     22  H   UNL A   1      32.673  21.466  26.381  1.00  0.00     0.347 HD
ATOM     23  H   UNL A   1      33.995  21.730  25.365  1.00  0.00     0.347 HD
BRANCH  21  24
ATOM     24  C   UNL A   1      32.314  21.128  24.398  1.00  0.00     0.297 C 
BRANCH  24  25
ATOM     25  C   UNL A   1      32.858  19.752  24.059  1.00  0.00     0.006 A 
ATOM     26  C   UNL A   1      32.153  18.986  23.114  1.00  0.00     0.009 A 
ATOM     27  C   UNL A   1      34.007  19.185  24.637  1.00  0.00     0.009 A 
ATOM     28  C   UNL A   1      32.598  17.716  22.739  1.00  0.00     0.001 A 
ATOM     29  C   UNL A   1      34.459  17.922  24.251  1.00  0.00     0.001 A 
ATOM     30  C   UNL A   1      33.757  17.188  23.301  1.00  0.00     0.000 A 
ENDBRANCH  24  25
ENDBRANCH  21  24
ENDBRANCH   7  21
ENDBRANCH   4   7
ENDBRANCH   2   3
ENDBRANCH   1   2
BRANCH   1  31
ATOM     31  C   UNL A   1      32.179  28.472  25.514  1.00  0.00     0.023 C 
BRANCH  31  32
ATOM     32  C   UNL A   1      33.382  29.340  25.855  1.00  0.00     0.116 C 
BRANCH  32  33
ATOM     33  N   UNL A   1      33.010  30.676  26.300  1.00  0.00    -0.352 N 
ATOM     34  C   UNL A   1      33.615  31.460  27.250  1.00  0.00     0.251 C 
ATOM     35  H   UNL A   1      32.221  31.067  25.861  1.00  0.00     0.163 HD
ATOM     36  O   UNL A   1      33.105  32.517  27.604  1.00  0.00    -0.269 OA
BRANCH  34  37
ATOM     37  C   UNL A   1      34.871  30.996  27.871  1.00  0.00     0.039 A 
ATOM     38  C   UNL A   1      35.931  31.895  28.001  1.00  0.00     0.014 A 
ATOM     39  C   UNL A   1      34.980  29.692  28.360  1.00  0.00     0.014 A 
ATOM     40  C   UNL A   1      37.083  31.504  28.682  1.00  0.00     0.010 A 
ATOM     41  C   UNL A   1      36.099  29.327  29.101  1.00  0.00     0.010 A 
ATOM     42  C   UNL A   1      37.160  30.229  29.268  1.00  0.00    -0.014 A 
BRANCH  42  43
ATOM     43  C   UNL A   1      38.342  29.820  30.065  1.00  0.00     0.031 A 
ATOM     44  C   UNL A   1      38.521  30.339  31.463  1.00  0.00     0.074 A 
ATOM     45  C   UNL A   1      39.289  29.045  29.501  1.00  0.00     0.049 A 
ATOM     46  N   UNL A   1      39.520  30.163  32.290  1.00  0.00    -0.248 NA
ATOM     47  C   UNL A   1      37.448  31.195  31.991  1.00  0.00     0.031 C 
ATOM     48  C   UNL A   1      39.253  28.524  28.134  1.00  0.00     0.029 A 
ATOM     49  N   UNL A   1      40.474  28.571  30.006  1.00  0.00    -0.354 N 
ATOM     50  C   UNL A   1      39.204  30.897  33.424  1.00  0.00     0.074 A 
ATOM     51  C   UNL A   1      37.948  31.565  33.160  1.00  0.00     0.031 C 
ATOM     52  C   UNL A   1      40.354  27.789  27.915  1.00  0.00     0.029 A 
ATOM     53  C   UNL A   1      41.190  27.815  29.111  1.00  0.00     0.049 A 
ATOM     54  H   UNL A   1      40.782  28.755  30.924  1.00  0.00     0.167 HD
ATOM     55  C   UNL A   1      39.889  30.988  34.589  1.00  0.00     0.037 A 
ATOM     56  C   UNL A   1      42.390  27.219  29.240  1.00  0.00     0.037 A 
ATOM     57  C   UNL A   1      41.124  30.299  34.855  1.00  0.00     0.049 A 
ATOM     58  C   UNL A   1      43.129  27.330  30.546  1.00  0.00     0.074 A 
ATOM     59  C   UNL A   1      41.859  30.268  36.027  1.00  0.00     0.029 A 
ATOM     60  N   UNL A   1      41.808  29.520  33.932  1.00  0.00    -0.354 N 
ATOM     61  N   UNL A   1      42.784  27.966  31.639  1.00  0.00    -0.248 NA
ATOM     62  C   UNL A   1      44.421  26.637  30.637  1.00  0.00     0.031 C 
ATOM     63  C   UNL A   1      43.012  29.509  35.799  1.00  0.00     0.029 A 
ATOM     64  C   UNL A   1      42.970  29.025  34.502  1.00  0.00     0.049 A 
ATOM     65  H   UNL A   1      41.511  29.347  33.010  1.00  0.00     0.167 HD
ATOM     66  C   UNL A   1      43.798  27.727  32.556  1.00  0.00     0.074 A 
ATOM     67  C   UNL A   1      44.766  26.876  31.894  1.00  0.00     0.031 C 
ATOM     68  C   UNL A   1      43.919  28.173  33.830  1.00  0.00     0.037 A 
BRANCH  55  69
ATOM     69  C   UNL A   1      39.314  31.864  35.665  1.00  0.00     0.064 A 
ATOM     70  C   UNL A   1      38.423  31.360  36.625  1.00  0.00     0.173 A 
ATOM     71  C   UNL A   1      39.681  33.215  35.755  1.00  0.00     0.173 A 
ATOM     72  F   UNL A   1      38.031  30.078  36.577  1.00  0.00    -0.203 F 
ATOM     73  C   UNL A   1      37.897  32.184  37.617  1.00  0.00     0.198 A 
ATOM     74  C   UNL A   1      39.178  34.028  36.766  1.00  0.00     0.198 A 
ATOM     75  F   UNL A   1      40.533  33.745  34.865  1.00  0.00    -0.203 F 
ATOM     76  F   UNL A   1      37.007  31.694  38.491  1.00  0.00    -0.200 F 
ATOM     77  C   UNL A   1      38.280  33.515  37.691  1.00  0.00     0.200 A 
ATOM     78  F   UNL A   1      39.558  35.311  36.844  1.00  0.00    -0.200 F 
ATOM     79  F   UNL A   1      37.777  34.307  38.649  1.00  0.00    -0.200 F 
ENDBRANCH  55  69
BRANCH  56  80
ATOM     80  C   UNL A   1      42.956  26.440  28.107  1.00  0.00     0.064 A 
ATOM     81  C   UNL A   1      43.608  27.083  27.047  1.00  0.00     0.173 A 
ATOM     82  C   UNL A   1      42.860  25.041  28.063  1.00  0.00     0.173 A 
ATOM     83  F   UNL A   1      43.707  28.420  27.035  1.00  0.00    -0.203 F 
ATOM     84  C   UNL A   1      44.127  26.360  25.975  1.00  0.00     0.198 A 
ATOM     85  C   UNL A   1      43.404  24.317  27.004  1.00  0.00     0.198 A 
ATOM     86  F   UNL A   1      42.251  24.378  29.056  1.00  0.00    -0.203 F 
ATOM     87  F   UNL A   1      44.708  27.004  24.953  1.00  0.00    -0.200 F 
ATOM     88  C   UNL A   1      44.030  24.977  25.957  1.00  0.00     0.200 A 
ATOM     89  F   UNL A   1      43.320  22.979  26.997  1.00  0.00    -0.200 F 
ATOM     90  F   UNL A   1      44.533  24.281  24.929  1.00  0.00    -0.200 F 
ENDBRANCH  56  80
BRANCH  68  91
ATOM     91  C   UNL A   1      45.122  27.724  34.606  1.00  0.00     0.064 A 
ATOM     92  C   UNL A   1      45.121  26.529  35.339  1.00  0.00     0.173 A 
ATOM     93  C   UNL A   1      46.305  28.479  34.579  1.00  0.00     0.173 A 
ATOM     94  F   UNL A   1      44.010  25.780  35.407  1.00  0.00    -0.203 F 
ATOM     95  C   UNL A   1      46.255  26.116  36.035  1.00  0.00     0.198 A 
ATOM     96  C   UNL A   1      47.445  28.048  35.252  1.00  0.00     0.198 A 
ATOM     97  F   UNL A   1      46.359  29.627  33.887  1.00  0.00    -0.203 F 
ATOM     98  F   UNL A   1      46.217  24.993  36.765  1.00  0.00    -0.200 F 
ATOM     99  C   UNL A   1      47.417  26.870  35.984  1.00  0.00     0.200 A 
ATOM    100  F   UNL A   1      48.571  28.772  35.190  1.00  0.00    -0.200 F 
ATOM    101  F   UNL A   1      48.508  26.468  36.647  1.00  0.00    -0.200 F 
ENDBRANCH  68  91
ENDBRANCH  42  43
ENDBRANCH  34  37
ENDBRANCH  32  33
ENDBRANCH  31  32
ENDBRANCH   1  31
TORSDOF 17
ENDMDL
